data_PCOD9090293
_publ_section_title
;
Structure prediction by ZEFSAII (Michael W. Deem and Ramdas Pophale) SiO2 
 PCOD9090293
Probable space group: P -1
;
_chemical_formula_sum "Si O2"
_cell_formula_units_Z 14
_cell_length_a 25.720180
_cell_length_b 16.535899
_cell_length_c 5.606526
_cell_angle_alpha 136.861237
_cell_angle_beta 42.218833
_cell_angle_gamma 159.888260
_cell_volume 544.856326
_symmetry_space_group_name_H-M "P -1"
_symmetry_group_IT_number 2
_symmetry_cell_setting 'triclinic'
loop_
_space_group_symop_operation_xyz
x,y,z
-x,-y,-z
loop_
_atom_site_type_symbol
_atom_site_label
_atom_site_fract_x
_atom_site_fract_y
_atom_site_fract_z
Si Si1 0.929601 0.138038 0.507152
Si Si2 0.572781 0.400078 0.142399
Si Si3 0.378428 0.926805 0.642909
Si Si4 0.941961 0.476481 0.892828
Si Si5 0.323553 0.243885 0.763829
Si Si6 0.762866 0.468967 0.988534
Si Si7 0.989285 0.111954 0.657956
O O1 0.947552 0.040166 0.368483
O O2 0.064608 0.324575 0.259639
O O3 0.763447 0.944392 0.556596
O O4 0.980298 0.292287 0.875504
O O5 0.470503 0.355840 0.561330
O O6 0.640611 0.583263 0.112200
O O7 0.674525 0.450632 0.086616
O O8 0.468598 0.169624 0.844993
O O9 0.316196 0.765835 0.282028
O O10 0.500000 0.000000 0.500000
O O11 0.240111 0.759672 0.945540
O O12 0.000000 0.500000 0.500000
O O13 0.000000 0.500000 0.000000
O O14 0.180498 0.066430 0.049102
O O15 0.828878 0.599615 0.300234
O O16 0.000000 0.000000 0.500000
#
# Coordination Sequence:
#
# PCOD9090293 Si02
#       7
#     2   2   2   2   2   2   2
#     4  10  22  39  65  91 127 167 223 276 332 402
#     4  10  19  38  65  84 131 168 214 274 338 409
#     4   9  20  40  69  94 134 179 220 282 349 413
#     4  11  25  42  73 103 137 181 233 291 349 411
#     4  10  22  38  61  91 124 170 215 272 334 403
#     4   9  20  39  63  90 121 166 220 270 336 402
#     4  11  22  38  64  93 126 167 222 272 333 399
#
# _framework density 25.694848
#
# number of rings (size 3 to 8) (size 9 to 14) (size 15 to 20)
#    0.000    2.000    0.000    2.571    8.000    2.286 
#    0.000    8.571   18.857    0.000    0.000    0.000 
#    0.000    0.000    0.000    0.000    0.000    0.000 
#
# Total GULP energy -77975.007015 kJ/mol
# GULP energy per Si atom -5569.643358 kJ/mol
# Density = 2.563637 g / cm^3
# Si number density = 25.694848 Si / 1000 Ang^3
#
#
#
# Elastic Constant Matrix: (Units=GPa)
#
#
# Indices 1 2 3 4 5 6 
#
# 1 92.0624 28.6721 18.8098 -16.1102 -19.0392 11.3958
# 2 28.6721 131.7892 36.4067 -6.2799 -16.4024 -2.0498
# 3 18.8098 36.4067 82.6181 -12.1605 -26.0246 14.5622
# 4 -16.1102 -6.2799 -12.1605 32.5105 -1.3786 -6.4339
# 5 -19.0392 -16.4024 -26.0246 -1.3786 28.2313 -2.0491
# 6 11.3958 -2.0498 14.5622 -6.4339 -2.0491 22.0392
#
#
#
# Elastic Compliance Matrix: (Units=1/GPa)
#
#
# Indices 1 2 3 4 5 6 
#
# 1 0.015833 -0.002746 0.004123 0.007876 0.012710 -0.007685
# 2 -0.002746 0.009498 -0.004571 -0.000205 -0.000176 0.005247
# 3 0.004123 -0.004571 0.023452 0.008114 0.021144 -0.013718
# 4 0.007876 -0.000205 0.008114 0.038937 0.014812 0.003291
# 5 0.012710 -0.000176 0.021144 0.014812 0.063355 -0.010344
# 6 -0.007685 0.005247 -0.013718 0.003291 -0.010344 0.058899
#
#
# Mechanical properties :
#
#
# Convention : Reuss Voigt Hill
#
# Bulk Modulus (GPa) = 23.58779 52.69411 38.14095
# Shear Modulus (GPa) = 21.69269 31.39494 26.54381
#
# Velocity S-wave (km/s) = 2.90874 3.49927 3.21758
# Velocity P-wave (km/s) = 4.52558 6.07278 5.35535
#
# Compressibility (1/GPa) = 0.04239482
#
# Stress axis : x y z
#
# Youngs Moduli (GPa) = 63.15922 105.28694 42.64034
#
# Poissons Ratio (x) = 0.28911 -0.17579
# Poissons Ratio (y) = 0.17343 0.19489
# Poissons Ratio (z) = -0.26038 0.48123
#
# Static dielectric constant tensor:
#      x y z
#    x 2.176090 -0.033270 0.268030 
#    y -0.033270 2.042050 -0.008180 
#    z 0.268030 -0.008180 2.060330 
# 
# From -- ./inp_files/101459.got.cif
#   From: 2010.05.17/outbox.cif.g08.bks.cpg/sg2_51_cif.got.tgz:101459.got - 2010.06.03 11:33:40.
