data_PCOD9090146
_publ_section_title
;
Structure prediction by ZEFSAII (Michael W. Deem and Ramdas Pophale) SiO2 
 PCOD9090146
Probable space group: P -1
;
_chemical_formula_sum "Si O2"
_cell_formula_units_Z 12
_cell_length_a 14.727399
_cell_length_b 11.392831
_cell_length_c 7.926775
_cell_angle_alpha 91.594550
_cell_angle_beta 106.679167
_cell_angle_gamma 27.060120
_cell_volume 494.131728
_symmetry_space_group_name_H-M "P -1"
_symmetry_group_IT_number 2
_symmetry_cell_setting 'triclinic'
loop_
_space_group_symop_operation_xyz
x,y,z
-x,-y,-z
loop_
_atom_site_type_symbol
_atom_site_label
_atom_site_fract_x
_atom_site_fract_y
_atom_site_fract_z
Si Si1 0.380922 0.535344 0.140178
Si Si2 0.235825 0.281568 0.020307
Si Si3 0.197339 0.120887 0.756061
Si Si4 0.859505 0.391810 0.843778
Si Si5 0.680985 0.658003 0.413373
Si Si6 0.271229 0.659766 0.696363
O O1 0.175282 0.705055 0.146226
O O2 0.521018 0.491168 0.275021
O O3 0.589953 0.195281 0.227425
O O4 0.287738 0.659612 0.905580
O O5 0.187346 0.476002 0.009842
O O6 0.467538 0.979983 0.241757
O O7 0.258611 0.180196 0.858374
O O8 0.000000 0.500000 0.000000
O O9 0.111303 0.142394 0.876686
O O10 0.952363 0.401019 0.525471
O O11 0.669022 0.650616 0.608144
O O12 0.674766 0.536713 0.323372
O O13 0.000000 0.000000 0.500000
#
# Coordination Sequence:
#
# PCOD9090146 Si02
#       6
#     2   2   2   2   2   2
#     4  11  22  42  62  87 120 159 201 248 297 353
#     4  10  19  38  64  85 126 162 183 250 307 343
#     4   9  20  38  60  87 124 153 192 246 302 336
#     4   9  22  38  62  92 117 154 209 236 295 363
#     4  10  20  39  61  91 118 155 203 239 296 361
#     4  11  22  41  63  84 124 160 194 253 302 345
#
# _framework density 24.285022999999999
#
# number of rings (size 3 to 8) (size 9 to 14) (size 15 to 20)
#    1.000    1.000    3.333    0.500    0.000    1.333 
#    6.000    8.333    0.000    0.000    0.000    0.000 
#    0.000    0.000    0.000    0.000    0.000    0.000 
#
# Total GULP energy -67079.352141 kJ/mol
# GULP energy per Si atom -5589.946012 kJ/mol
# Density = 2.422975 g / cm^3
# Si number density = 24.285023 Si / 1000 Ang^3
#
#
#
# Elastic Constant Matrix: (Units=GPa)
#
#
# Indices 1 2 3 4 5 6 
#
# 1 107.0223 8.8964 24.8551 6.2213 2.6905 -6.7200
# 2 8.8964 83.3434 11.5132 -3.7548 -1.6271 14.4929
# 3 24.8551 11.5132 104.0389 -16.6619 14.9369 7.8192
# 4 6.2213 -3.7548 -16.6619 31.1421 13.1473 4.4356
# 5 2.6905 -1.6271 14.9369 13.1473 23.3810 7.2160
# 6 -6.7200 14.4929 7.8192 4.4356 7.2160 29.1389
#
#
#
# Elastic Compliance Matrix: (Units=1/GPa)
#
#
# Indices 1 2 3 4 5 6 
#
# 1 0.011171 -0.001617 -0.004635 -0.007374 0.004262 0.004691
# 2 -0.001617 0.013813 -0.000844 0.001210 0.003496 -0.008067
# 3 -0.004635 -0.000844 0.016892 0.018693 -0.019869 -0.003107
# 4 -0.007374 0.001210 0.018693 0.063532 -0.044923 -0.005864
# 5 0.004262 0.003496 -0.019869 -0.044923 0.083322 -0.009220
# 6 0.004691 -0.008067 -0.003107 -0.005864 -0.009220 0.043422
#
#
# Mechanical properties :
#
#
# Convention : Reuss Voigt Hill
#
# Bulk Modulus (GPa) = 36.12215 42.77045 39.44630
# Shear Modulus (GPa) = 19.56390 33.34174 26.45282
#
# Velocity S-wave (km/s) = 2.84138 3.70933 3.30398
# Velocity P-wave (km/s) = 5.06667 5.99964 5.55278
#
# Compressibility (1/GPa) = 0.02768385
#
# Stress axis : x y z
#
# Youngs Moduli (GPa) = 89.51904 72.39433 59.19837
#
# Poissons Ratio (x) = 0.11705 0.27439
# Poissons Ratio (y) = 0.14474 0.04998
# Poissons Ratio (z) = 0.41493 0.06112
#
# Static dielectric constant tensor:
#      x y z
#    x 1.974270 -0.031240 0.014350 
#    y -0.031240 1.928740 0.029710 
#    z 0.014350 0.029710 1.923430 
# 
# From -- ./inp_files/285948.got.cif
#   From: 2010.05.17/outbox.cif.g08.bks.cpg/sg2_143_cif.got.tgz:285948.got - 2010.06.03 11:33:40.
