data_PCOD9090721
_publ_section_title
;
Structure prediction by ZEFSAII (Michael W. Deem and Ramdas Pophale) SiO2 
 PCOD9090721
Probable space group: P -1
;
_chemical_formula_sum "Si O2"
_cell_formula_units_Z 12
_cell_length_a 9.554729
_cell_length_b 8.287449
_cell_length_c 11.661508
_cell_angle_alpha 110.301960
_cell_angle_beta 144.196822
_cell_angle_gamma 90.705553
_cell_volume 427.927513
_symmetry_space_group_name_H-M "P -1"
_symmetry_group_IT_number 2
_symmetry_cell_setting 'triclinic'
loop_
_space_group_symop_operation_xyz
x,y,z
-x,-y,-z
loop_
_atom_site_type_symbol
_atom_site_label
_atom_site_fract_x
_atom_site_fract_y
_atom_site_fract_z
Si Si1 0.827191 0.805583 0.979926
Si Si2 0.200030 0.145481 0.567241
Si Si3 0.425882 0.598887 0.840335
Si Si4 0.580000 0.974716 0.698642
Si Si5 0.017810 0.668324 0.701532
Si Si6 0.191513 0.518938 0.239696
O O1 0.741920 0.732078 0.034719
O O2 0.662262 0.593252 0.744172
O O3 0.044731 0.171825 0.359309
O O4 0.149113 0.912986 0.178124
O O5 0.354912 0.377530 0.775871
O O6 0.410753 0.081644 0.643023
O O7 0.000000 0.000000 0.500000
O O8 0.322813 0.712800 0.879317
O O9 0.214437 0.538411 0.573303
O O10 0.377764 0.752128 0.455516
O O11 0.704570 0.938383 0.888081
O O12 0.972302 0.613415 0.790699
O O13 0.000000 0.500000 0.000000
#
# Coordination Sequence:
#
# PCOD9090721 Si02
#       6
#     2   2   2   2   2   2
#     4  11  25  47  75 113 160 201 256 329 398 466
#     4  10  19  38  79 119 153 199 264 329 391 462
#     4   9  19  41  79 109 160 199 253 329 398 445
#     4  11  24  45  76 113 157 203 264 318 393 473
#     4   9  20  43  76 115 157 206 255 328 391 460
#     4  12  27  49  76 110 160 215 257 318 389 470
#
# _framework density 28.042133
#
# number of rings (size 3 to 8) (size 9 to 14) (size 15 to 20)
#    1.000    0.667    1.667    2.500    2.333    0.667 
#    6.000    0.833    3.667    8.000    0.000    0.000 
#    0.000    1.333    0.000    0.000    0.000    0.000 
#
# Total GULP energy -67319.337307 kJ/mol
# GULP energy per Si atom -5609.944776 kJ/mol
# Density = 2.797831 g / cm^3
# Si number density = 28.042133 Si / 1000 Ang^3
#
#
#
# Elastic Constant Matrix: (Units=GPa)
#
#
# Indices 1 2 3 4 5 6 
#
# 1 267.1313 128.6041 66.1481 1.4385 41.2525 -4.3948
# 2 128.6041 251.7529 76.2756 -3.0641 26.4514 -7.9028
# 3 66.1481 76.2756 131.3386 9.6633 -1.6978 3.4105
# 4 1.4385 -3.0641 9.6633 63.1163 9.5604 3.2824
# 5 41.2525 26.4514 -1.6978 9.5604 55.8102 -0.6331
# 6 -4.3948 -7.9028 3.4105 3.2824 -0.6331 70.1472
#
#
#
# Elastic Compliance Matrix: (Units=1/GPa)
#
#
# Indices 1 2 3 4 5 6 
#
# 1 0.005666 -0.001983 -0.001791 0.000555 -0.003396 0.000162
# 2 -0.001983 0.005961 -0.002569 0.000937 -0.001591 0.000614
# 3 -0.001791 -0.002569 0.010223 -0.002094 0.003202 -0.000772
# 4 0.000555 0.000937 -0.002094 0.016803 -0.003803 -0.000578
# 5 -0.003396 -0.001591 0.003202 -0.003803 0.021929 -0.000172
# 6 0.000162 0.000614 -0.000772 -0.000578 -0.000172 0.014398
#
#
# Mechanical properties :
#
#
# Convention : Reuss Voigt Hill
#
# Bulk Modulus (GPa) = 109.11072 132.47539 120.79306
# Shear Modulus (GPa) = 55.11440 63.09441 59.10440
#
# Velocity S-wave (km/s) = 4.43811 4.74855 4.59595
# Velocity P-wave (km/s) = 8.07815 8.79824 8.44587
#
# Compressibility (1/GPa) = 0.00916500
#
# Stress axis : x y z
#
# Youngs Moduli (GPa) = 176.50235 167.74822 97.81750
#
# Poissons Ratio (x) = 0.33265 0.17516
# Poissons Ratio (y) = 0.35001 0.25127
# Poissons Ratio (z) = 0.31607 0.43091
#
# Static dielectric constant tensor:
#      x y z
#    x 2.167340 0.007180 -0.076440 
#    y 0.007180 2.184670 -0.034070 
#    z -0.076440 -0.034070 2.377650 
# 
# From -- ./inp_files/391205.got.cif
#   From: 2010.05.17/outbox.cif.g08.bks.cpg/sg2_196_cif.got.tgz:391205.got - 2010.06.03 11:33:40.
