data_PCOD9090499
_publ_section_title
;
Structure prediction by ZEFSAII (Michael W. Deem and Ramdas Pophale) SiO2 
 PCOD9090499
Probable space group: P -1
;
_chemical_formula_sum "Si O2"
_cell_formula_units_Z 16
_cell_length_a 14.148213
_cell_length_b 11.802418
_cell_length_c 5.238932
_cell_angle_alpha 117.290697
_cell_angle_beta 113.745554
_cell_angle_gamma 55.384182
_cell_volume 627.604726
_symmetry_space_group_name_H-M "P -1"
_symmetry_group_IT_number 2
_symmetry_cell_setting 'triclinic'
loop_
_space_group_symop_operation_xyz
x,y,z
-x,-y,-z
loop_
_atom_site_type_symbol
_atom_site_label
_atom_site_fract_x
_atom_site_fract_y
_atom_site_fract_z
Si Si1 0.861704 0.217048 0.432841
Si Si2 0.700029 0.680416 0.775394
Si Si3 0.612773 0.965122 0.752738
Si Si4 0.684424 0.183075 0.935276
Si Si5 0.823108 0.745819 0.399457
Si Si6 0.066650 0.548306 0.323279
Si Si7 0.113346 0.024976 0.386245
Si Si8 0.504497 0.586296 0.347376
O O1 0.885831 0.350234 0.656621
O O2 0.976121 0.121253 0.286122
O O3 0.869045 0.105545 0.543499
O O4 0.733498 0.276773 0.233104
O O5 0.622713 0.855099 0.869473
O O6 0.812712 0.592800 0.619229
O O7 0.611714 0.619657 0.546766
O O8 0.765480 0.661845 0.096771
O O9 0.726966 0.855638 0.601619
O O10 0.500000 0.000000 0.500000
O O11 0.619301 0.112756 0.955478
O O12 0.608541 0.260532 0.685351
O O13 0.806887 0.050878 0.845989
O O14 0.841784 0.861912 0.350199
O O15 0.961811 0.642905 0.505698
O O16 0.000000 0.500000 0.000000
O O17 0.500000 0.500000 0.500000
O O18 0.500000 0.500000 0.000000
#
# Coordination Sequence:
#
# PCOD9090499 Si02
#       8
#     2   2   2   2   2   2   2   2
#     4  10  19  38  66  94 137 173 227 285 357 423
#     4  11  23  43  68  96 136 181 232 291 351 425
#     4  11  23  42  63  98 132 178 231 288 351 421
#     4  11  23  41  67  97 136 178 236 291 356 421
#     4   9  21  41  65  94 131 172 230 291 358 419
#     4   9  20  40  63  93 130 174 229 288 356 421
#     4   9  20  37  64 102 130 175 223 292 355 425
#     4  12  30  49  71 103 144 192 244 295 353 429
#
# _framework density 25.493756000000001
#
# number of rings (size 3 to 8) (size 9 to 14) (size 15 to 20)
#    0.000    1.750    1.250    1.875    5.250    2.000 
#    0.000    0.000    0.000    0.000    0.000    0.000 
#    0.000    0.000    0.000    0.000    0.000    0.000 
#
# Total GULP energy -89234.380396 kJ/mol
# GULP energy per Si atom -5577.148775 kJ/mol
# Density = 2.543573 g / cm^3
# Si number density = 25.493756 Si / 1000 Ang^3
#
#
#
# Elastic Constant Matrix: (Units=GPa)
#
#
# Indices 1 2 3 4 5 6 
#
# 1 85.8756 28.3788 40.9172 1.8006 48.2508 -2.8697
# 2 28.3788 124.2634 27.7745 -7.8298 32.0544 -0.1237
# 3 40.9172 27.7745 119.9913 5.1032 49.2354 10.8016
# 4 1.8006 -7.8298 5.1032 40.4555 0.4726 10.8189
# 5 48.2508 32.0544 49.2354 0.4726 59.7344 3.9964
# 6 -2.8697 -0.1237 10.8016 10.8189 3.9964 33.5947
#
#
#
# Elastic Compliance Matrix: (Units=1/GPa)
#
#
# Indices 1 2 3 4 5 6 
#
# 1 0.022057 -0.000560 -0.000640 -0.002097 -0.017294 0.004820
# 2 -0.000560 0.009504 -0.000267 0.001958 -0.004440 -0.000029
# 3 -0.000640 -0.000267 0.012917 -0.000793 -0.009793 -0.002789
# 4 -0.002097 0.001958 -0.000793 0.027687 0.001681 -0.009033
# 5 -0.017294 -0.004440 -0.009793 0.001681 0.041407 -0.003812
# 6 0.004820 -0.000029 -0.002789 -0.009033 -0.003812 0.034437
#
#
# Mechanical properties :
#
#
# Convention : Reuss Voigt Hill
#
# Bulk Modulus (GPa) = 24.07184 58.25235 41.16210
# Shear Modulus (GPa) = 30.34099 42.29425 36.31762
#
# Velocity S-wave (km/s) = 3.45357 4.07751 3.77844
# Velocity P-wave (km/s) = 5.03643 6.71322 5.93435
#
# Compressibility (1/GPa) = 0.04154232
#
# Stress axis : x y z
#
# Youngs Moduli (GPa) = 45.33667 105.21966 77.41474
#
# Poissons Ratio (x) = 0.05896 0.04957
# Poissons Ratio (y) = 0.02541 0.02070
# Poissons Ratio (z) = 0.02903 0.02814
#
# Static dielectric constant tensor:
#      x y z
#    x 2.237370 -0.025520 -0.066580 
#    y -0.025520 2.264090 0.083140 
#    z -0.066580 0.083140 2.039850 
# 
# From -- ./inp_files/95552.got.cif
#   From: 2010.05.17/outbox.cif.g08.bks.cpg/sg2_48_cif.got.tgz:95552.got - 2010.06.03 11:33:40.
