data_PCOD9090573
_publ_section_title
;
Structure prediction by ZEFSAII (Michael W. Deem and Ramdas Pophale) SiO2 
 PCOD9090573
Probable space group: P -1
;
_chemical_formula_sum "Si O2"
_cell_formula_units_Z 14
_cell_length_a 9.902576
_cell_length_b 8.955884
_cell_length_c 14.951017
_cell_angle_alpha 132.460453
_cell_angle_beta 131.309487
_cell_angle_gamma 67.312996
_cell_volume 730.477075
_symmetry_space_group_name_H-M "P -1"
_symmetry_group_IT_number 2
_symmetry_cell_setting 'triclinic'
loop_
_space_group_symop_operation_xyz
x,y,z
-x,-y,-z
loop_
_atom_site_type_symbol
_atom_site_label
_atom_site_fract_x
_atom_site_fract_y
_atom_site_fract_z
Si Si1 0.310635 0.089657 0.436281
Si Si2 0.325571 0.613712 0.500615
Si Si3 0.191415 0.023721 0.545725
Si Si4 0.522056 0.598882 0.146627
Si Si5 0.208054 0.890773 0.128583
Si Si6 0.817833 0.706750 0.821416
Si Si7 0.529723 0.449140 0.284291
O O1 0.379986 0.325684 0.561274
O O2 0.500000 0.000000 0.500000
O O3 0.177424 0.036544 0.438458
O O4 0.214312 0.006868 0.271977
O O5 0.500000 0.500000 0.500000
O O6 0.302038 0.830772 0.534921
O O7 0.174975 0.448662 0.322782
O O8 0.349728 0.663942 0.637415
O O9 0.303505 0.235007 0.708286
O O10 0.000000 0.000000 0.500000
O O11 0.355303 0.733305 0.138265
O O12 0.531285 0.449416 0.176724
O O13 0.500000 0.500000 0.000000
O O14 0.248536 0.077683 0.151907
O O15 0.016135 0.769122 0.972068
O O16 0.674947 0.602572 0.789309
#
# Coordination Sequence:
#
# PCOD9090573 Si02
#       7
#     2   2   2   2   2   2   2
#     4  11  19  39  64  92 120 169 213 259 309 376
#     4  10  19  38  67  93 120 160 217 254 305 377
#     4  11  25  41  64  95 130 166 210 262 317 374
#     4  11  25  42  58  87 132 170 201 257 325 376
#     4  11  22  39  61  92 131 156 213 264 312 369
#     4  10  22  35  62 100 118 155 207 274 307 356
#     4  10  20  37  65  89 115 163 211 255 311 371
#
# _framework density 19.165557
#
# number of rings (size 3 to 8) (size 9 to 14) (size 15 to 20)
#    0.000    1.429    4.286    3.429    2.000    1.714 
#    0.000    8.571    0.000    0.000    0.000    0.000 
#    0.000    0.000    0.000    0.000    0.000    0.000 
#
# Total GULP energy -77968.584692 kJ/mol
# GULP energy per Si atom -5569.184621 kJ/mol
# Density = 1.912194 g / cm^3
# Si number density = 19.165557 Si / 1000 Ang^3
#
#
#
# Elastic Constant Matrix: (Units=GPa)
#
#
# Indices 1 2 3 4 5 6 
#
# 1 108.4774 33.2416 53.9047 -6.2915 1.0326 30.9021
# 2 33.2416 61.7114 20.1446 -2.9650 -1.4454 28.1465
# 3 53.9047 20.1446 120.6953 -21.7809 -12.0671 26.3230
# 4 -6.2915 -2.9650 -21.7809 23.6769 2.5151 -3.1205
# 5 1.0326 -1.4454 -12.0671 2.5151 34.8665 -2.5129
# 6 30.9021 28.1465 26.3230 -3.1205 -2.5129 25.8229
#
#
#
# Elastic Compliance Matrix: (Units=1/GPa)
#
#
# Indices 1 2 3 4 5 6 
#
# 1 0.015454 -0.000838 -0.004351 -0.001489 -0.002871 -0.013604
# 2 -0.000838 0.033194 0.003632 0.002213 -0.000287 -0.038641
# 3 -0.004351 0.003632 0.014514 0.010692 0.003674 -0.011898
# 4 -0.001489 0.002213 0.010692 0.051273 -0.000248 -0.005358
# 5 -0.002871 -0.000287 0.003674 -0.000248 0.030254 0.002917
# 6 -0.013604 -0.038641 -0.011898 -0.005358 0.002917 0.108888
#
#
# Mechanical properties :
#
#
# Convention : Reuss Voigt Hill
#
# Bulk Modulus (GPa) = 16.65332 56.16288 36.40810
# Shear Modulus (GPa) = 18.06977 29.11280 23.59129
#
# Velocity S-wave (km/s) = 3.07388 3.90168 3.51225
# Velocity P-wave (km/s) = 4.61588 7.04735 5.95699
#
# Compressibility (1/GPa) = 0.06004810
#
# Stress axis : x y z
#
# Youngs Moduli (GPa) = 64.70917 30.12613 68.89934
#
# Poissons Ratio (x) = 0.02525 0.29977
# Poissons Ratio (y) = 0.05423 -0.25025
# Poissons Ratio (z) = 0.28154 -0.10942
#
# Static dielectric constant tensor:
#      x y z
#    x 1.712410 0.072210 -0.028660 
#    y 0.072210 1.773920 -0.033090 
#    z -0.028660 -0.033090 1.711390 
# 
# From -- ./inp_files/261827.got.cif
#   From: 2010.05.17/outbox.cif.g08.bks.cpg/sg2_131_cif.got.tgz:261827.got - 2010.06.03 11:33:40.
