data_PCOD9090077
_publ_section_title
;
Structure prediction by ZEFSAII (Michael W. Deem and Ramdas Pophale) SiO2 
 PCOD9090077
Probable space group: P -1
;
_chemical_formula_sum "Si O2"
_cell_formula_units_Z 15
_cell_length_a 10.127577
_cell_length_b 14.896623
_cell_length_c 9.996566
_cell_angle_alpha 85.937927
_cell_angle_beta 42.272384
_cell_angle_gamma 118.124136
_cell_volume 632.397182
_symmetry_space_group_name_H-M "P -1"
_symmetry_group_IT_number 2
_symmetry_cell_setting 'triclinic'
loop_
_space_group_symop_operation_xyz
x,y,z
-x,-y,-z
loop_
_atom_site_type_symbol
_atom_site_label
_atom_site_fract_x
_atom_site_fract_y
_atom_site_fract_z
Si Si1 0.204903 0.937111 0.400413
Si Si2 0.842024 0.604361 0.287811
Si Si3 0.500000 0.000000 0.500000
Si Si4 0.178328 0.566610 0.140213
Si Si5 0.981809 0.325506 0.143069
Si Si6 0.224850 0.130089 0.488452
Si Si7 0.142887 0.896789 0.044386
Si Si8 0.595762 0.620292 0.002994
O O1 0.072491 0.945082 0.372983
O O2 0.915883 0.776074 0.686462
O O3 0.282075 0.043493 0.440560
O O4 0.515236 0.988282 0.152863
O O5 0.500000 0.500000 0.500000
O O6 0.928650 0.556880 0.328924
O O7 0.972483 0.743778 0.233439
O O8 0.019439 0.642920 0.011825
O O9 0.681173 0.155306 0.406366
O O10 0.787718 0.087829 0.165843
O O11 0.019522 0.424305 0.202124
O O12 0.479932 0.709685 0.810513
O O13 0.327797 0.595553 0.168686
O O14 0.292541 0.376811 0.938804
O O15 0.096403 0.111312 0.731512
O O16 0.500000 0.500000 0.000000
#
# Coordination Sequence:
#
# PCOD9090077 Si02
#       8
#     2   2   1   2   2   2   2   2
#     4  10  19  38  63  92 132 158 215 273 323 383
#     4  11  23  39  60  90 128 169 218 273 323 386
#     4  10  22  38  60  88 132 180 206 264 312 396
#     4  10  20  39  65  93 125 165 220 274 324 385
#     4  10  20  38  63  86 128 173 211 256 334 378
#     4  10  21  36  65  98 122 167 213 273 330 382
#     4  11  21  39  62  89 129 171 218 260 329 382
#     4   9  19  37  66  91 124 177 205 262 336 379
#
# _framework density 23.719272
#
# number of rings (size 3 to 8) (size 9 to 14) (size 15 to 20)
#    0.000    1.867    2.667    1.600    0.000    0.000 
#    0.000    2.667    0.000    0.000    0.000    0.000 
#    0.000    0.000    0.000    0.000    0.000    0.000 
#
# Total GULP energy -83511.895842 kJ/mol
# GULP energy per Si atom -5567.459723 kJ/mol
# Density = 2.366529 g / cm^3
# Si number density = 23.719272 Si / 1000 Ang^3
#
#
#
# Elastic Constant Matrix: (Units=GPa)
#
#
# Indices 1 2 3 4 5 6 
#
# 1 103.0697 0.2197 21.5808 -3.4104 -24.5357 -0.5015
# 2 0.2197 122.7393 41.5212 -29.6416 0.1038 -14.5840
# 3 21.5808 41.5212 90.4246 2.0581 -12.1475 -14.0383
# 4 -3.4104 -29.6416 2.0581 37.8336 8.8542 -3.8215
# 5 -24.5357 0.1038 -12.1475 8.8542 36.4346 0.8100
# 6 -0.5015 -14.5840 -14.0383 -3.8215 0.8100 26.3374
#
#
#
# Elastic Compliance Matrix: (Units=1/GPa)
#
#
# Indices 1 2 3 4 5 6 
#
# 1 0.011909 0.000603 -0.002273 -0.000132 0.007312 -0.000895
# 2 0.000603 0.014586 -0.006859 0.013790 -0.005420 0.006600
# 3 -0.002273 -0.006859 0.016227 -0.007418 0.005623 0.003559
# 4 -0.000132 0.013790 -0.007418 0.041682 -0.012956 0.010126
# 5 0.007312 -0.005420 0.005623 -0.012956 0.037473 -0.002897
# 6 -0.000895 0.006600 0.003559 0.010126 -0.002897 0.045062
#
#
# Mechanical properties :
#
#
# Convention : Reuss Voigt Hill
#
# Bulk Modulus (GPa) = 38.96333 49.20855 44.08594
# Shear Modulus (GPa) = 25.96722 36.98192 31.47457
#
# Velocity S-wave (km/s) = 3.31232 3.95289 3.64670
# Velocity P-wave (km/s) = 5.57595 6.45175 6.02977
#
# Compressibility (1/GPa) = 0.02566515
#
# Stress axis : x y z
#
# Youngs Moduli (GPa) = 83.97267 68.56103 61.62390
#
# Poissons Ratio (x) = -0.04135 0.14005
# Poissons Ratio (y) = -0.05065 0.42266
# Poissons Ratio (z) = 0.19084 0.47024
#
# Static dielectric constant tensor:
#      x y z
#    x 2.055800 0.019390 0.009980 
#    y 0.019390 1.890060 0.020600 
#    z 0.009980 0.020600 1.928210 
# 
# From -- ./inp_files/434115.got.cif
#   From: 2010.05.17/outbox.cif.g08.bks.cpg/sg2_218_cif.got.tgz:434115.got - 2010.06.03 11:33:40.
