data_PCOD9090881
_publ_section_title
;
Structure prediction by ZEFSAII (Michael W. Deem and Ramdas Pophale) SiO2 
 PCOD9090881
Probable space group: P -1
;
_chemical_formula_sum "Si O2"
_cell_formula_units_Z 16
_cell_length_a 12.122991
_cell_length_b 9.057965
_cell_length_c 21.579691
_cell_angle_alpha 76.620913
_cell_angle_beta 142.116339
_cell_angle_gamma 130.239638
_cell_volume 893.523885
_symmetry_space_group_name_H-M "P -1"
_symmetry_group_IT_number 2
_symmetry_cell_setting 'triclinic'
loop_
_space_group_symop_operation_xyz
x,y,z
-x,-y,-z
loop_
_atom_site_type_symbol
_atom_site_label
_atom_site_fract_x
_atom_site_fract_y
_atom_site_fract_z
Si Si1 0.443952 0.920577 0.663697
Si Si2 0.722470 0.485054 0.836682
Si Si3 0.345851 0.505236 0.480309
Si Si4 0.294441 0.796511 0.376110
Si Si5 0.821107 0.660080 0.115648
Si Si6 0.127121 0.942318 0.599612
Si Si7 0.010825 0.388837 0.926208
Si Si8 0.336533 0.225744 0.278542
O O1 0.187423 0.840307 0.590038
O O2 0.440560 0.743284 0.658998
O O3 0.545253 0.076213 0.631261
O O4 0.705785 0.108200 0.809388
O O5 0.940721 0.520931 0.891434
O O6 0.679572 0.620803 0.774422
O O7 0.426354 0.199857 0.732705
O O8 0.837024 0.569157 0.948916
O O9 0.500000 0.500000 0.500000
O O10 0.248292 0.593081 0.393670
O O11 0.560715 0.689651 0.613457
O O12 0.085333 0.249710 0.422679
O O13 0.994809 0.687565 0.244644
O O14 0.500000 0.000000 0.500000
O O15 0.825712 0.550238 0.069343
O O16 0.500000 0.500000 0.000000
O O17 0.032308 0.940507 0.168146
O O18 0.000000 0.000000 0.500000
#
# Coordination Sequence:
#
# PCOD9090881 Si02
#       8
#     2   2   2   2   2   2   2   2
#     4   9  20  39  63  84 117 155 202 252 299 356
#     4  10  19  39  61  85 114 157 201 251 301 356
#     4  12  24  38  60  91 122 162 202 243 313 366
#     4  10  19  42  63  84 122 165 196 247 310 360
#     4  10  22  41  59  89 123 157 202 251 300 367
#     4  11  22  39  58  89 123 153 203 252 290 357
#     4   8  19  38  62  76 117 158 196 242 311 350
#     4  10  21  39  62  86 118 157 202 249 309 355
#
# _framework density 17.906628000000001
#
# number of rings (size 3 to 8) (size 9 to 14) (size 15 to 20)
#    0.000    2.250    3.750    0.750    3.500    3.500 
#   11.250    0.625    0.000    0.000    0.000    0.000 
#    0.000    0.000    0.000    0.000    0.000    0.000 
#
# Total GULP energy -89180.301430 kJ/mol
# GULP energy per Si atom -5573.768839 kJ/mol
# Density = 1.786587 g / cm^3
# Si number density = 17.906628 Si / 1000 Ang^3
#
#
#
# Elastic Constant Matrix: (Units=GPa)
#
#
# Indices 1 2 3 4 5 6 
#
# 1 141.3550 54.6043 69.5892 -8.0775 11.3850 -12.9860
# 2 54.6043 133.6796 42.3222 -14.5082 12.3755 -6.5223
# 3 69.5892 42.3222 115.1744 -9.4400 -4.8243 -0.0748
# 4 -8.0775 -14.5082 -9.4400 27.7207 -1.5923 5.4012
# 5 11.3850 12.3755 -4.8243 -1.5923 37.0462 2.3443
# 6 -12.9860 -6.5223 -0.0748 5.4012 2.3443 25.0445
#
#
#
# Elastic Compliance Matrix: (Units=1/GPa)
#
#
# Indices 1 2 3 4 5 6 
#
# 1 0.012154 -0.002251 -0.006813 -0.001456 -0.004339 0.006415
# 2 -0.002251 0.009712 -0.002043 0.003403 -0.002728 0.000877
# 3 -0.006813 -0.002043 0.014005 0.003007 0.005055 -0.005145
# 4 -0.001456 0.003403 0.003007 0.040270 0.001985 -0.008730
# 5 -0.004339 -0.002728 0.005055 0.001985 0.030375 -0.006217
# 6 0.006415 0.000877 -0.005145 -0.008730 -0.006217 0.045933
#
#
# Mechanical properties :
#
#
# Convention : Reuss Voigt Hill
#
# Bulk Modulus (GPa) = 73.23154 80.36005 76.79580
# Shear Modulus (GPa) = 27.89944 32.87517 30.38731
#
# Velocity S-wave (km/s) = 3.95150 4.28941 4.12392
# Velocity P-wave (km/s) = 7.86157 8.33707 8.10281
#
# Compressibility (1/GPa) = 0.01365532
#
# Stress axis : x y z
#
# Youngs Moduli (GPa) = 82.28027 102.96970 71.40390
#
# Poissons Ratio (x) = 0.23175 0.48649
# Poissons Ratio (y) = 0.18519 0.14591
# Poissons Ratio (z) = 0.56059 0.21042
#
# Static dielectric constant tensor:
#      x y z
#    x 1.629600 -0.022450 0.005860 
#    y -0.022450 1.606300 0.010310 
#    z 0.005860 0.010310 1.620800 
# 
# From -- ./inp_files/305947.got.cif
#   From: 2010.05.17/outbox.cif.g08.bks.cpg/sg2_153_cif.got.tgz:305947.got - 2010.06.03 11:33:40.
