data_PCOD9090788
_publ_section_title
;
Structure prediction by ZEFSAII (Michael W. Deem and Ramdas Pophale) SiO2 
 PCOD9090788
Probable space group: P -1
;
_chemical_formula_sum "Si O2"
_cell_formula_units_Z 14
_cell_length_a 12.421169
_cell_length_b 11.720461
_cell_length_c 14.908213
_cell_angle_alpha 26.896560
_cell_angle_beta 135.395370
_cell_angle_gamma 129.039286
_cell_volume 689.364151
_symmetry_space_group_name_H-M "P -1"
_symmetry_group_IT_number 2
_symmetry_cell_setting 'triclinic'
loop_
_space_group_symop_operation_xyz
x,y,z
-x,-y,-z
loop_
_atom_site_type_symbol
_atom_site_label
_atom_site_fract_x
_atom_site_fract_y
_atom_site_fract_z
Si Si1 0.324435 0.205407 0.991913
Si Si2 0.318355 0.524692 0.604576
Si Si3 0.924839 0.258759 0.012201
Si Si4 0.793723 0.916864 0.807853
Si Si5 0.396957 0.515801 0.089780
Si Si6 0.645803 0.354505 0.650662
Si Si7 0.910071 0.205740 0.243640
O O1 0.255313 0.311658 0.783179
O O2 0.211631 0.198169 0.014075
O O3 0.470061 0.384727 0.966783
O O4 0.389142 0.924196 0.211906
O O5 0.286423 0.502638 0.496169
O O6 0.260582 0.795040 0.416998
O O7 0.503189 0.512858 0.739637
O O8 0.767701 0.308921 0.832714
O O9 0.000111 0.532267 0.878472
O O10 0.906554 0.138099 0.183811
O O11 0.042600 0.107156 0.124907
O O12 0.676793 0.744784 0.802329
O O13 0.261243 0.721546 0.875893
O O14 0.500000 0.500000 0.500000
O O15 0.000000 0.000000 0.500000
#
# Coordination Sequence:
#
# PCOD9090788 Si02
#       7
#     2   2   2   2   2   2   2
#     4   9  22  36  57  92 115 151 200 234 278 358
#     4   9  21  36  59  90 113 156 194 235 290 341
#     4  10  24  39  59  87 117 153 196 238 289 353
#     4  10  19  39  59  86 121 156 187 244 297 329
#     4   9  19  38  60  89 120 145 201 241 281 350
#     4  11  23  40  60  83 120 159 192 241 290 338
#     4  10  22  41  60  86 116 152 194 245 292 338
#
# _framework density 20.308571000000001
#
# number of rings (size 3 to 8) (size 9 to 14) (size 15 to 20)
#    0.857    1.429    0.000    1.714    2.000    6.286 
#    5.143    1.429    0.000    0.000    0.000    0.000 
#    0.000    0.000    0.000    0.000    0.000    0.000 
#
# Total GULP energy -78059.427468 kJ/mol
# GULP energy per Si atom -5575.673391 kJ/mol
# Density = 2.026235 g / cm^3
# Si number density = 20.308571 Si / 1000 Ang^3
#
#
#
# Elastic Constant Matrix: (Units=GPa)
#
#
# Indices 1 2 3 4 5 6 
#
# 1 81.7021 24.3726 50.2469 5.8741 1.9018 -29.5141
# 2 24.3726 38.4363 14.3317 18.8951 4.9809 -10.4434
# 3 50.2469 14.3317 121.6845 21.0345 -0.6787 -21.6779
# 4 5.8741 18.8951 21.0345 31.1311 -2.8874 -3.9637
# 5 1.9018 4.9809 -0.6787 -2.8874 39.2507 2.9397
# 6 -29.5141 -10.4434 -21.6779 -3.9637 2.9397 26.4878
#
#
#
# Elastic Compliance Matrix: (Units=1/GPa)
#
#
# Indices 1 2 3 4 5 6 
#
# 1 0.028656 -0.015348 -0.008429 0.012234 -0.000247 0.020838
# 2 -0.015348 0.052161 0.006834 -0.033543 -0.008599 0.004992
# 3 -0.008429 0.006834 0.013317 -0.011336 -0.001260 0.002645
# 4 0.012234 -0.033543 -0.011336 0.058432 0.007841 -0.000997
# 5 -0.000247 -0.008599 -0.001260 0.007841 0.027629 -0.006590
# 6 0.020838 0.004992 0.002645 -0.000997 -0.006590 0.065687
#
#
# Mechanical properties :
#
#
# Convention : Reuss Voigt Hill
#
# Bulk Modulus (GPa) = 16.59805 46.63615 31.61710
# Shear Modulus (GPa) = 16.67492 29.56537 23.12015
#
# Velocity S-wave (km/s) = 2.86855 3.81964 3.37774
# Velocity P-wave (km/s) = 4.37746 6.51664 5.55107
#
# Compressibility (1/GPa) = 0.06024802
#
# Stress axis : x y z
#
# Youngs Moduli (GPa) = 34.89727 19.17133 75.09022
#
# Poissons Ratio (x) = 0.29424 0.63293
# Poissons Ratio (y) = 0.53560 -0.51315
# Poissons Ratio (z) = 0.29415 -0.13101
#
# Static dielectric constant tensor:
#      x y z
#    x 1.727800 -0.003900 -0.031450 
#    y -0.003900 1.740330 0.013780 
#    z -0.031450 0.013780 1.707620 
# 
# From -- ./inp_files/517530.got.cif
#   From: 2010.05.17/outbox.cif.g08.bks.cpg/sg2_259_cif.got.tgz:517530.got - 2010.06.03 11:33:40.
