data_PCOD9090329
_publ_section_title
;
Structure prediction by ZEFSAII (Michael W. Deem and Ramdas Pophale) SiO2 
 PCOD9090329
Probable space group: P -1
;
_chemical_formula_sum "Si O2"
_cell_formula_units_Z 16
_cell_length_a 13.311046
_cell_length_b 10.785637
_cell_length_c 13.588971
_cell_angle_alpha 113.634273
_cell_angle_beta 30.886315
_cell_angle_gamma 92.168449
_cell_volume 696.351622
_symmetry_space_group_name_H-M "P -1"
_symmetry_group_IT_number 2
_symmetry_cell_setting 'triclinic'
loop_
_space_group_symop_operation_xyz
x,y,z
-x,-y,-z
loop_
_atom_site_type_symbol
_atom_site_label
_atom_site_fract_x
_atom_site_fract_y
_atom_site_fract_z
Si Si1 0.224055 0.756098 0.017195
Si Si2 0.083624 0.114671 0.483115
Si Si3 0.189518 0.993114 0.714555
Si Si4 0.344149 0.056011 0.799671
Si Si5 0.127177 0.427641 0.173572
Si Si6 0.765487 0.436814 0.710682
Si Si7 0.415060 0.175653 0.286391
Si Si8 0.417547 0.616482 0.340815
O O1 0.370020 0.828707 0.945892
O O2 0.433899 0.544715 0.758862
O O3 0.051384 0.794313 0.268490
O O4 0.057753 0.853097 0.091216
O O5 0.975567 0.246958 0.524390
O O6 0.365844 0.048792 0.242328
O O7 0.000000 0.000000 0.500000
O O8 0.426063 0.966091 0.454857
O O9 0.240064 0.811921 0.596835
O O10 0.198507 0.035116 0.832789
O O11 0.479912 0.900222 0.716827
O O12 0.167014 0.253252 0.058474
O O13 0.182782 0.440088 0.245455
O O14 0.853322 0.617842 0.432273
O O15 0.358024 0.403380 0.914237
O O16 0.727977 0.420347 0.623172
O O17 0.500000 0.500000 0.000000
#
# Coordination Sequence:
#
# PCOD9090329 Si02
#       8
#     2   2   2   2   2   2   2   2
#     4  12  23  40  64  92 131 164 210 264 315 381
#     4  11  22  40  64  89 130 168 211 261 309 378
#     4  10  22  39  64  97 118 171 219 260 322 374
#     4  10  21  40  66  89 129 165 215 268 315 381
#     4   9  19  38  61  89 122 166 209 258 317 371
#     4   9  16  32  61  87 112 162 203 243 315 364
#     4  11  24  40  62  95 127 167 209 258 324 378
#     4  10  19  38  65  89 125 168 210 260 316 378
#
# _framework density 22.976897999999998
#
# number of rings (size 3 to 8) (size 9 to 14) (size 15 to 20)
#    0.000    1.750    5.000    0.750    3.500    3.000 
#    0.000    7.500    0.000    0.000    0.000    0.000 
#    0.000    0.000    0.000    0.000    0.000    0.000 
#
# Total GULP energy -89397.753581 kJ/mol
# GULP energy per Si atom -5587.359599 kJ/mol
# Density = 2.292460 g / cm^3
# Si number density = 22.976898 Si / 1000 Ang^3
#
#
#
# Elastic Constant Matrix: (Units=GPa)
#
#
# Indices 1 2 3 4 5 6 
#
# 1 165.5980 72.9162 77.3957 36.6945 -29.3304 19.0377
# 2 72.9162 103.0165 43.8859 16.6488 -11.1395 17.7024
# 3 77.3957 43.8859 72.6888 6.4562 -10.9429 -6.4019
# 4 36.6945 16.6488 6.4562 52.2528 -8.3105 -4.2442
# 5 -29.3304 -11.1395 -10.9429 -8.3105 35.0069 0.6525
# 6 19.0377 17.7024 -6.4019 -4.2442 0.6525 31.3203
#
#
#
# Elastic Compliance Matrix: (Units=1/GPa)
#
#
# Indices 1 2 3 4 5 6 
#
# 1 0.028392 0.001310 -0.030171 -0.017010 0.011233 -0.026704
# 2 0.001310 0.017705 -0.012560 -0.005897 0.001670 -0.014204
# 3 -0.030171 -0.012560 0.053868 0.020409 -0.008326 0.039388
# 4 -0.017010 -0.005897 0.020409 0.031830 -0.002607 0.022212
# 5 0.011233 0.001670 -0.008326 -0.002607 0.035484 -0.010566
# 6 -0.026704 -0.014204 0.039388 0.022212 -0.010566 0.067469
#
#
# Mechanical properties :
#
#
# Convention : Reuss Voigt Hill
#
# Bulk Modulus (GPa) = 58.40237 81.07765 69.74001
# Shear Modulus (GPa) = 15.46553 33.52303 24.49428
#
# Velocity S-wave (km/s) = 2.59721 3.82381 3.26857
# Velocity P-wave (km/s) = 5.87087 7.40666 6.68303
#
# Compressibility (1/GPa) = 0.01712259
#
# Stress axis : x y z
#
# Youngs Moduli (GPa) = 35.22110 56.48002 18.56388
#
# Poissons Ratio (x) = -0.07396 0.56009
# Poissons Ratio (y) = -0.04612 0.23316
# Poissons Ratio (z) = 1.06266 0.70938
#
# Static dielectric constant tensor:
#      x y z
#    x 1.682280 0.147720 0.116340 
#    y 0.147720 1.775430 -0.101520 
#    z 0.116340 -0.101520 1.805540 
# 
# From -- ./inp_files/519802.got.cif
#   From: 2010.05.17/outbox.cif.g08.bks.cpg/sg2_260_cif.got.tgz:519802.got - 2010.06.03 11:33:40.
