data_PCOD9090975
_publ_section_title
;
Structure prediction by ZEFSAII (Michael W. Deem and Ramdas Pophale) SiO2 
 PCOD9090975
Probable space group: P -1
;
_chemical_formula_sum "Si O2"
_cell_formula_units_Z 16
_cell_length_a 12.575812
_cell_length_b 13.038023
_cell_length_c 10.990421
_cell_angle_alpha 31.954600
_cell_angle_beta 45.349678
_cell_angle_gamma 47.758471
_cell_volume 664.528666
_symmetry_space_group_name_H-M "P -1"
_symmetry_group_IT_number 2
_symmetry_cell_setting 'triclinic'
loop_
_space_group_symop_operation_xyz
x,y,z
-x,-y,-z
loop_
_atom_site_type_symbol
_atom_site_label
_atom_site_fract_x
_atom_site_fract_y
_atom_site_fract_z
Si Si1 0.622342 0.616324 0.168832
Si Si2 0.916028 0.387367 0.859018
Si Si3 0.750858 0.929431 0.610957
Si Si4 0.611022 0.457332 0.771427
Si Si5 0.618301 0.226712 0.234771
Si Si6 0.927829 0.981531 0.785766
Si Si7 0.644905 0.196011 0.647255
Si Si8 0.056219 0.707950 0.346864
O O1 0.492112 0.566332 0.235057
O O2 0.696020 0.407321 0.378661
O O3 0.523779 0.757484 0.206444
O O4 0.726424 0.725328 0.892979
O O5 0.962988 0.299445 0.774489
O O6 0.928871 0.613683 0.611666
O O7 0.747470 0.347324 0.055094
O O8 0.027423 0.253534 0.997969
O O9 0.925079 0.954720 0.457835
O O10 0.681266 0.006900 0.456434
O O11 0.651856 0.093679 0.614358
O O12 0.539921 0.657308 0.699123
O O13 0.783860 0.444109 0.607078
O O14 0.612456 0.273103 0.049243
O O15 0.770085 0.060179 0.767355
O O16 0.926375 0.089600 0.809285
#
# Coordination Sequence:
#
# PCOD9090975 Si02
#       8
#     2   2   2   2   2   2   2   2
#     4  11  24  41  65  84 118 161 195 247 291 349
#     4   9  21  38  61  87 122 156 190 248 291 348
#     4  11  24  40  62  89 119 156 196 245 298 345
#     4  10  19  39  62  88 121 155 193 242 296 347
#     4   9  20  38  63  89 121 151 191 248 295 351
#     4  11  23  38  61  89 117 155 199 245 289 352
#     4  11  24  44  59  85 121 155 204 245 287 345
#     4  10  20  38  60  89 120 157 197 233 300 350
#
# _framework density 24.077214000000001
#
# number of rings (size 3 to 8) (size 9 to 14) (size 15 to 20)
#    0.000    1.750    2.500    1.125    1.750    3.000 
#    0.000    0.000    0.000    0.000    0.000    0.000 
#    0.000    0.000    0.000    0.000    0.000    0.000 
#
# Total GULP energy -89462.598410 kJ/mol
# GULP energy per Si atom -5591.412401 kJ/mol
# Density = 2.402241 g / cm^3
# Si number density = 24.077214 Si / 1000 Ang^3
#
#
#
# Elastic Constant Matrix: (Units=GPa)
#
#
# Indices 1 2 3 4 5 6 
#
# 1 42.7552 -2.8890 4.9080 -11.7429 18.0243 -5.5102
# 2 -2.8890 50.6537 4.0363 5.0254 1.0582 -10.5233
# 3 4.9080 4.0363 83.1842 -4.8094 -0.9653 -17.6004
# 4 -11.7429 5.0254 -4.8094 34.9338 -8.8344 7.5207
# 5 18.0243 1.0582 -0.9653 -8.8344 25.5582 0.4025
# 6 -5.5102 -10.5233 -17.6004 7.5207 0.4025 32.3939
#
#
#
# Elastic Compliance Matrix: (Units=1/GPa)
#
#
# Indices 1 2 3 4 5 6 
#
# 1 0.035795 0.003486 -0.001057 0.003983 -0.024146 0.006023
# 2 0.003486 0.022519 0.000316 -0.005414 -0.005398 0.009404
# 3 -0.001057 0.000316 0.013632 0.000218 0.001208 0.007264
# 4 0.003983 -0.005414 0.000218 0.035233 0.009748 -0.009264
# 5 -0.024146 -0.005398 0.001208 0.009748 0.059923 -0.008212
# 6 0.006023 0.009404 0.007264 -0.009264 -0.008212 0.041149
#
#
# Mechanical properties :
#
#
# Convention : Reuss Voigt Hill
#
# Bulk Modulus (GPa) = 12.91377 20.96707 16.94042
# Shear Modulus (GPa) = 21.87488 29.94637 25.91062
#
# Velocity S-wave (km/s) = 3.01745 3.53053 3.28403
# Velocity P-wave (km/s) = 4.18511 5.03455 4.62935
#
# Compressibility (1/GPa) = 0.07743672
#
# Stress axis : x y z
#
# Youngs Moduli (GPa) = 27.93669 44.40668 73.35652
#
# Poissons Ratio (x) = -0.15481 0.07752
# Poissons Ratio (y) = -0.09739 -0.02316
# Poissons Ratio (z) = 0.02952 -0.01402
#
# Static dielectric constant tensor:
#      x y z
#    x 1.884940 0.032550 0.007400 
#    y 0.032550 1.944780 -0.003780 
#    z 0.007400 -0.003780 1.948380 
# 
# From -- ./inp_files/244514.got.cif
#   From: 2010.05.17/outbox.cif.g08.bks.cpg/sg2_123_cif.got.tgz:244514.got - 2010.06.03 11:33:40.
