data_PCOD9090950
_publ_section_title
;
Structure prediction by ZEFSAII (Michael W. Deem and Ramdas Pophale) SiO2 
 PCOD9090950
Probable space group: P -1
;
_chemical_formula_sum "Si O2"
_cell_formula_units_Z 15
_cell_length_a 8.419450
_cell_length_b 8.034619
_cell_length_c 15.731211
_cell_angle_alpha 55.392276
_cell_angle_beta 95.288710
_cell_angle_gamma 57.472740
_cell_volume 605.279078
_symmetry_space_group_name_H-M "P -1"
_symmetry_group_IT_number 2
_symmetry_cell_setting 'triclinic'
loop_
_space_group_symop_operation_xyz
x,y,z
-x,-y,-z
loop_
_atom_site_type_symbol
_atom_site_label
_atom_site_fract_x
_atom_site_fract_y
_atom_site_fract_z
Si Si1 0.860483 0.631416 0.758511
Si Si2 0.531411 0.127840 0.139849
Si Si3 0.642997 0.315968 0.948460
Si Si4 0.629168 0.496035 0.580410
Si Si5 0.000000 0.500000 0.000000
Si Si6 0.861653 0.164843 0.838253
Si Si7 0.836060 0.958420 0.510886
Si Si8 0.309826 0.172586 0.606772
O O1 0.890619 0.375618 0.798785
O O2 0.917899 0.736363 0.655773
O O3 0.988437 0.539330 0.881082
O O4 0.585536 0.905041 0.681232
O O5 0.518555 0.352652 0.128182
O O6 0.701230 0.836624 0.289396
O O7 0.600029 0.150967 0.045034
O O8 0.281775 0.258232 0.083077
O O9 0.670226 0.260931 0.865871
O O10 0.898091 0.161260 0.035428
O O11 0.500000 0.500000 0.500000
O O12 0.796049 0.201658 0.727433
O O13 0.756257 0.561678 0.521229
O O14 0.429508 0.749552 0.561517
O O15 0.817206 0.877359 0.440815
O O16 0.000000 0.000000 0.500000
#
# Coordination Sequence:
#
# PCOD9090950 Si02
#       8
#     2   2   2   2   1   2   2   2
#     4  10  19  39  62  84 125 169 205 248 320 380
#     4  10  21  40  63  92 120 165 212 257 304 390
#     4  10  22  37  65  89 119 166 211 251 316 373
#     4  11  23  41  65  93 124 167 214 258 317 377
#     4  10  20  34  62  88 118 158 206 256 304 364
#     4  11  20  41  63  88 129 167 204 266 322 361
#     4  11  22  39  66  94 121 168 212 260 311 385
#     4  10  19  42  68  85 125 173 203 255 322 376
#
# _framework density 24.781956999999998
#
# number of rings (size 3 to 8) (size 9 to 14) (size 15 to 20)
#    0.000    1.600    5.333    0.800    0.000    7.467 
#    2.400    2.000    0.000    0.000    0.000    0.000 
#    0.000    0.000    0.000    0.000    0.000    0.000 
#
# Total GULP energy -83687.068477 kJ/mol
# GULP energy per Si atom -5579.137898 kJ/mol
# Density = 2.472555 g / cm^3
# Si number density = 24.781957 Si / 1000 Ang^3
#
#
#
# Elastic Constant Matrix: (Units=GPa)
#
#
# Indices 1 2 3 4 5 6 
#
# 1 112.2325 11.7176 65.9708 21.5746 -21.1534 -6.5008
# 2 11.7176 44.4432 15.9067 3.3988 -2.5668 -6.6394
# 3 65.9708 15.9067 188.2536 47.5556 -6.9042 1.2237
# 4 21.5746 3.3988 47.5556 33.1047 0.6130 6.2152
# 5 -21.1534 -2.5668 -6.9042 0.6130 47.8942 10.1560
# 6 -6.5008 -6.6394 1.2237 6.2152 10.1560 24.1708
#
#
#
# Elastic Compliance Matrix: (Units=1/GPa)
#
#
# Indices 1 2 3 4 5 6 
#
# 1 0.012699 -0.001290 -0.003133 -0.004168 0.004645 0.002340
# 2 -0.001290 0.024435 -0.001478 -0.000852 -0.000960 0.007062
# 3 -0.003133 -0.001478 0.009459 -0.011648 -0.000240 0.001368
# 4 -0.004168 -0.000852 -0.011648 0.052332 -0.001339 -0.013659
# 5 0.004645 -0.000960 -0.000240 -0.001339 0.024786 -0.009072
# 6 0.002340 0.007062 0.001368 -0.013659 -0.009072 0.051196
#
#
# Mechanical properties :
#
#
# Convention : Reuss Voigt Hill
#
# Bulk Modulus (GPa) = 28.74411 59.12440 43.93426
# Shear Modulus (GPa) = 25.21347 37.78955 31.50151
#
# Velocity S-wave (km/s) = 3.19315 3.90921 3.56918
# Velocity P-wave (km/s) = 5.02185 6.65474 5.89510
#
# Compressibility (1/GPa) = 0.03478973
#
# Stress axis : x y z
#
# Youngs Moduli (GPa) = 78.74900 40.92545 105.71431
#
# Poissons Ratio (x) = 0.05280 0.33120
# Poissons Ratio (y) = 0.10160 0.15628
# Poissons Ratio (z) = 0.24672 0.06050
#
# Static dielectric constant tensor:
#      x y z
#    x 1.637960 -0.438030 0.004240 
#    y -0.438030 1.484410 0.092470 
#    z 0.004240 0.092470 2.021380 
# 
# From -- ./inp_files/258978.got.cif
#   From: 2010.05.17/outbox.cif.g08.bks.cpg/sg2_130_cif.got.tgz:258978.got - 2010.06.03 11:33:40.
