data_PCOD9090475
_publ_section_title
;
Structure prediction by ZEFSAII (Michael W. Deem and Ramdas Pophale) SiO2 
 PCOD9090475
Probable space group: P -1
;
_chemical_formula_sum "Si O2"
_cell_formula_units_Z 16
_cell_length_a 6.681702
_cell_length_b 16.287197
_cell_length_c 9.678917
_cell_angle_alpha 60.003308
_cell_angle_beta 50.487326
_cell_angle_gamma 66.305114
_cell_volume 698.218535
_symmetry_space_group_name_H-M "P -1"
_symmetry_group_IT_number 2
_symmetry_cell_setting 'triclinic'
loop_
_space_group_symop_operation_xyz
x,y,z
-x,-y,-z
loop_
_atom_site_type_symbol
_atom_site_label
_atom_site_fract_x
_atom_site_fract_y
_atom_site_fract_z
Si Si1 0.778172 0.313933 0.517733
Si Si2 0.163572 0.586986 0.324536
Si Si3 0.381144 0.201143 0.923950
Si Si4 0.402408 0.861276 0.827287
Si Si5 0.828779 0.314568 0.051755
Si Si6 0.281105 0.531413 0.810610
Si Si7 0.014815 0.124589 0.456001
Si Si8 0.944108 0.959145 0.794196
O O1 0.900029 0.334496 0.594447
O O2 0.522404 0.262641 0.702429
O O3 0.730678 0.414021 0.375618
O O4 0.950960 0.236648 0.414392
O O5 0.475019 0.550627 0.226692
O O6 0.000000 0.500000 0.500000
O O7 0.112843 0.629824 0.159814
O O8 0.559481 0.174884 0.001864
O O9 0.282928 0.101285 0.006515
O O10 0.110078 0.267520 0.023902
O O11 0.337901 0.769886 0.845402
O O12 0.674698 0.898359 0.640450
O O13 0.167200 0.942259 0.825253
O O14 0.676776 0.388581 0.161385
O O15 0.000000 0.500000 0.000000
O O16 0.955843 0.089930 0.356815
O O17 0.876987 0.067369 0.682180
#
# Coordination Sequence:
#
# PCOD9090475 Si02
#       8
#     2   2   2   2   2   2   2   2
#     4  12  24  42  64  96 133 171 210 278 343 380
#     4  12  26  43  64  96 135 168 221 284 340 396
#     4  10  21  41  65  92 137 168 212 271 328 393
#     4  10  19  38  66  92 127 173 215 266 314 396
#     4  11  23  42  68  92 123 178 223 261 326 396
#     4  12  26  43  69  95 129 176 229 280 329 399
#     4  10  22  38  66  98 134 168 220 268 319 399
#     4   9  20  41  65  98 129 176 216 263 322 388
#
# _framework density 22.915461000000001
#
# number of rings (size 3 to 8) (size 9 to 14) (size 15 to 20)
#    0.000    1.250    1.250    5.625    3.500    0.500 
#    2.250    0.625    0.000    0.000    0.000    0.000 
#    0.000    0.000    0.000    0.000    0.000    0.000 
#
# Total GULP energy -89468.284827 kJ/mol
# GULP energy per Si atom -5591.767802 kJ/mol
# Density = 2.286330 g / cm^3
# Si number density = 22.915461 Si / 1000 Ang^3
#
#
#
# Elastic Constant Matrix: (Units=GPa)
#
#
# Indices 1 2 3 4 5 6 
#
# 1 96.9767 9.8141 35.3032 0.3313 1.2986 -16.0294
# 2 9.8141 48.4537 1.6831 -4.7744 2.5573 -8.4924
# 3 35.3032 1.6831 120.8682 -25.0885 -10.3681 -5.4411
# 4 0.3313 -4.7744 -25.0885 39.0656 4.2321 4.6122
# 5 1.2986 2.5573 -10.3681 4.2321 43.1906 -9.5715
# 6 -16.0294 -8.4924 -5.4411 4.6122 -9.5715 23.7086
#
#
#
# Elastic Compliance Matrix: (Units=1/GPa)
#
#
# Indices 1 2 3 4 5 6 
#
# 1 0.013493 -0.001506 -0.004311 -0.004220 0.001018 0.008826
# 2 -0.001506 0.022341 0.000982 0.002548 0.000216 0.006801
# 3 -0.004311 0.000982 0.011145 0.007183 0.001902 -0.000635
# 4 -0.004220 0.002548 0.007183 0.031812 -0.003133 -0.007745
# 5 0.001018 0.000216 0.001902 -0.003133 0.026660 0.012575
# 6 0.008826 0.006801 -0.000635 -0.007745 0.012575 0.057020
#
#
# Mechanical properties :
#
#
# Convention : Reuss Voigt Hill
#
# Bulk Modulus (GPa) = 26.80341 39.98882 33.39612
# Shear Modulus (GPa) = 27.08901 35.82617 31.45759
#
# Velocity S-wave (km/s) = 3.44194 3.95828 3.70911
# Velocity P-wave (km/s) = 5.24576 6.19509 5.74008
#
# Compressibility (1/GPa) = 0.03730868
#
# Stress axis : x y z
#
# Youngs Moduli (GPa) = 74.11116 44.76105 89.72982
#
# Poissons Ratio (x) = 0.06740 0.38686
# Poissons Ratio (y) = 0.11160 -0.08814
# Poissons Ratio (z) = 0.31952 -0.04397
#
# Static dielectric constant tensor:
#      x y z
#    x 1.836260 -0.001590 -0.006660 
#    y -0.001590 1.873680 -0.014330 
#    z -0.006660 -0.014330 1.870730 
# 
# From -- ./inp_files/138675.got.cif
#   From: 2010.05.17/outbox.cif.g08.bks.cpg/sg2_70_cif.got.tgz:138675.got - 2010.06.03 11:33:40.
