data_PCOD9090168
_publ_section_title
;
Structure prediction by ZEFSAII (Michael W. Deem and Ramdas Pophale) SiO2 
 PCOD9090168
Probable space group: P -1
;
_chemical_formula_sum "Si O2"
_cell_formula_units_Z 16
_cell_length_a 7.416706
_cell_length_b 16.485137
_cell_length_c 11.889710
_cell_angle_alpha 154.580535
_cell_angle_beta 98.428361
_cell_angle_gamma 88.177577
_cell_volume 599.682372
_symmetry_space_group_name_H-M "P -1"
_symmetry_group_IT_number 2
_symmetry_cell_setting 'triclinic'
loop_
_space_group_symop_operation_xyz
x,y,z
-x,-y,-z
loop_
_atom_site_type_symbol
_atom_site_label
_atom_site_fract_x
_atom_site_fract_y
_atom_site_fract_z
Si Si1 0.341118 0.457926 0.837172
Si Si2 0.161645 0.606154 0.438200
Si Si3 0.575511 0.093145 0.005279
Si Si4 0.715992 0.110392 0.628466
Si Si5 0.822610 0.066681 0.820884
Si Si6 0.235468 0.256746 0.124552
Si Si7 0.948089 0.286481 0.669365
Si Si8 0.738418 0.497192 0.340811
O O1 0.400124 0.456057 0.709297
O O2 0.159967 0.287156 0.644650
O O3 0.500000 0.500000 0.000000
O O4 0.279360 0.662136 0.079843
O O5 0.269761 0.733131 0.707151
O O6 0.205498 0.394405 0.191144
O O7 0.180754 0.693489 0.424664
O O8 0.945323 0.588480 0.426825
O O9 0.669280 0.962462 0.767353
O O10 0.406811 0.157558 0.007469
O O11 0.500000 0.000000 0.000000
O O12 0.831250 0.120620 0.534570
O O13 0.500000 0.000000 0.500000
O O14 0.820676 0.039837 0.653386
O O15 0.750959 0.273916 0.077958
O O16 0.034123 0.108793 0.938125
O O17 0.283501 0.393317 0.409892
O O18 0.000000 0.500000 0.000000
#
# Coordination Sequence:
#
# PCOD9090168 Si02
#       8
#     2   2   2   2   2   2   2   2
#     4   9  19  37  60  93 123 155 207 267 298 361
#     4  10  19  38  64  89 119 153 208 260 296 368
#     4  12  26  38  58  94 126 160 199 250 317 377
#     4  10  22  41  62  85 124 171 204 250 317 370
#     4  10  21  43  60  88 130 152 205 264 298 367
#     4  11  20  39  67  89 113 167 203 246 322 363
#     4   9  19  37  62  89 120 162 208 253 309 360
#     4   9  17  36  64  88 119 155 200 261 305 354
#
# _framework density 26.680792
#
# number of rings (size 3 to 8) (size 9 to 14) (size 15 to 20)
#    0.000    2.000    2.500    3.375    1.750    2.500 
#    9.000    1.875    0.000    0.000    0.000    0.000 
#    0.000    0.000    0.000    0.000    0.000    0.000 
#
# Total GULP energy -89365.578303 kJ/mol
# GULP energy per Si atom -5585.348644 kJ/mol
# Density = 2.662006 g / cm^3
# Si number density = 26.680792 Si / 1000 Ang^3
#
#
#
# Elastic Constant Matrix: (Units=GPa)
#
#
# Indices 1 2 3 4 5 6 
#
# 1 152.4879 62.8404 4.1045 -16.0132 14.3397 12.2272
# 2 62.8404 176.7925 31.8393 -24.7898 19.1453 10.1108
# 3 4.1045 31.8393 18.2583 -15.5214 19.4457 -0.3257
# 4 -16.0132 -24.7898 -15.5214 46.5429 -4.8745 10.1889
# 5 14.3397 19.1453 19.4457 -4.8745 38.4068 2.1198
# 6 12.2272 10.1108 -0.3257 10.1889 2.1198 50.6543
#
#
#
# Elastic Compliance Matrix: (Units=1/GPa)
#
#
# Indices 1 2 3 4 5 6 
#
# 1 0.012854 -0.008816 0.050251 0.014639 -0.023825 -0.002967
# 2 -0.008816 0.015881 -0.066874 -0.014047 0.027440 0.000206
# 3 0.050251 -0.066874 0.518249 0.133145 -0.230226 -0.012596
# 4 0.014639 -0.014047 0.133145 0.059448 -0.057811 -0.009412
# 5 -0.023825 0.027440 -0.230226 -0.057811 0.130208 0.004973
# 6 -0.002967 0.000206 -0.012596 -0.009412 0.004973 0.022021
#
#
# Mechanical properties :
#
#
# Convention : Reuss Voigt Hill
#
# Bulk Modulus (GPa) = 2.01570 60.56748 31.29159
# Shear Modulus (GPa) = 5.12870 43.70443 24.41656
#
# Velocity S-wave (km/s) = 1.38795 4.05167 3.02840
# Velocity P-wave (km/s) = 1.82365 6.68118 4.89713
#
# Compressibility (1/GPa) = 0.49610552
#
# Stress axis : x y z
#
# Youngs Moduli (GPa) = 77.79507 62.96965 1.92958
#
# Poissons Ratio (x) = 0.55517 -0.09696
# Poissons Ratio (y) = 0.68588 0.12904
# Poissons Ratio (z) = -3.90928 4.21101
#
# Static dielectric constant tensor:
#      x y z
#    x 2.208530 0.052700 -0.016260 
#    y 0.052700 2.235710 0.083310 
#    z -0.016260 0.083310 2.201670 
# 
# From -- ./inp_files/399837.got.cif
#   From: 2010.05.17/outbox.cif.g08.bks.cpg/sg2_200_cif.got.tgz:399837.got - 2010.06.03 11:33:40.
