data_PCOD9090004
_publ_section_title
;
Structure prediction by ZEFSAII (Michael W. Deem and Ramdas Pophale) SiO2 
 PCOD9090004
Probable space group: P -1
;
_chemical_formula_sum "Si O2"
_cell_formula_units_Z 16
_cell_length_a 20.304329
_cell_length_b 8.688451
_cell_length_c 8.251343
_cell_angle_alpha 58.865380
_cell_angle_beta 30.905762
_cell_angle_gamma 61.145628
_cell_volume 637.446546
_symmetry_space_group_name_H-M "P -1"
_symmetry_group_IT_number 2
_symmetry_cell_setting 'triclinic'
loop_
_space_group_symop_operation_xyz
x,y,z
-x,-y,-z
loop_
_atom_site_type_symbol
_atom_site_label
_atom_site_fract_x
_atom_site_fract_y
_atom_site_fract_z
Si Si1 0.492391 0.835267 0.227390
Si Si2 0.740142 0.433453 0.683587
Si Si3 0.092390 0.499917 0.151321
Si Si4 0.112307 0.239086 0.706217
Si Si5 0.668873 0.359806 0.530781
Si Si6 0.738992 0.963392 0.760756
Si Si7 0.625766 0.099340 0.234953
Si Si8 0.984975 0.815079 0.722032
O O1 0.459741 0.665188 0.283444
O O2 0.380729 0.895606 0.560443
O O3 0.626829 0.830571 0.038876
O O4 0.500000 0.000000 0.000000
O O5 0.780069 0.618845 0.575085
O O6 0.683889 0.474851 0.599056
O O7 0.878099 0.306296 0.467718
O O8 0.638957 0.308472 0.046463
O O9 0.091252 0.313422 0.161888
O O10 0.000000 0.500000 0.500000
O O11 0.022288 0.646432 0.100236
O O12 0.231476 0.566721 0.846610
O O13 0.141525 0.122219 0.547433
O O14 0.092170 0.143673 0.970675
O O15 0.705388 0.157940 0.637956
O O16 0.733311 0.999848 0.944201
O O17 0.500000 0.000000 0.500000
O O18 0.000000 0.000000 0.500000
#
# Coordination Sequence:
#
# PCOD9090004 Si02
#       8
#     2   2   2   2   2   2   2   2
#     4   9  19  36  63  93 122 162 214 260 315 377
#     4  10  20  41  65  88 126 174 204 264 330 370
#     4  11  24  39  61  93 129 172 214 257 328 376
#     4  11  22  43  63  92 135 165 210 270 321 384
#     4  10  19  38  63  86 125 169 209 257 318 375
#     4   9  21  37  64  94 119 170 213 261 319 374
#     4   9  19  38  63  89 117 162 218 255 308 382
#     4  11  24  41  64  94 126 171 220 263 314 389
#
# _framework density 25.100144
#
# number of rings (size 3 to 8) (size 9 to 14) (size 15 to 20)
#    0.000    2.000    2.500    1.500    5.250    3.500 
#    0.000    3.125    2.750    0.000    0.000    0.000 
#    0.000    0.000    0.000    0.000    0.000    0.000 
#
# Total GULP energy -89330.419793 kJ/mol
# GULP energy per Si atom -5583.151237 kJ/mol
# Density = 2.504302 g / cm^3
# Si number density = 25.100144 Si / 1000 Ang^3
#
#
#
# Elastic Constant Matrix: (Units=GPa)
#
#
# Indices 1 2 3 4 5 6 
#
# 1 69.5638 24.0266 39.0621 -2.8740 4.2180 23.3039
# 2 24.0266 86.5529 27.7886 20.4575 21.5441 14.0320
# 3 39.0621 27.7886 162.7951 -7.6938 30.7803 15.1229
# 4 -2.8740 20.4575 -7.6938 20.1481 18.8616 1.9819
# 5 4.2180 21.5441 30.7803 18.8616 63.6991 -2.3078
# 6 23.3039 14.0320 15.1229 1.9819 -2.3078 26.9258
#
#
#
# Elastic Compliance Matrix: (Units=1/GPa)
#
#
# Indices 1 2 3 4 5 6 
#
# 1 0.024212 -0.005410 -0.001908 0.013238 -0.003436 -0.018333
# 2 -0.005410 0.019504 -0.003518 -0.024171 0.002564 -0.001507
# 3 -0.001908 -0.003518 0.009745 0.014795 -0.007909 -0.003755
# 4 0.013238 -0.024171 0.014795 0.116284 -0.034961 -0.018726
# 5 -0.003436 0.002564 -0.007909 -0.034961 0.029639 0.011193
# 6 -0.018333 -0.001507 -0.003755 -0.018726 0.011193 0.058238
#
#
# Mechanical properties :
#
#
# Convention : Reuss Voigt Hill
#
# Bulk Modulus (GPa) = 31.45847 55.62959 43.54403
# Shear Modulus (GPa) = 17.24791 37.35691 27.30241
#
# Velocity S-wave (km/s) = 2.62422 3.86205 3.30167
# Velocity P-wave (km/s) = 4.66288 6.48833 5.64982
#
# Compressibility (1/GPa) = 0.03178794
#
# Stress axis : x y z
#
# Youngs Moduli (GPa) = 41.30179 51.27106 102.62144
#
# Poissons Ratio (x) = 0.27739 0.19578
# Poissons Ratio (y) = 0.22345 0.36106
# Poissons Ratio (z) = 0.07880 0.18039
#
# Static dielectric constant tensor:
#      x y z
#    x 2.053270 -0.008780 -0.015080 
#    y -0.008780 2.015220 0.028150 
#    z -0.015080 0.028150 2.002220 
# 
# From -- ./inp_files/352017.got.cif
#   From: 2010.05.17/outbox.cif.g08.bks.cpg/sg2_177_cif.got.tgz:352017.got - 2010.06.03 11:33:40.
