data_PCOD9090390
_publ_section_title
;
Structure prediction by ZEFSAII (Michael W. Deem and Ramdas Pophale) SiO2 
 PCOD9090390
Probable space group: P -1
;
_chemical_formula_sum "Si O2"
_cell_formula_units_Z 16
_cell_length_a 15.554845
_cell_length_b 10.614428
_cell_length_c 8.399289
_cell_angle_alpha 76.937935
_cell_angle_beta 81.446901
_cell_angle_gamma 35.579425
_cell_volume 784.481805
_symmetry_space_group_name_H-M "P -1"
_symmetry_group_IT_number 2
_symmetry_cell_setting 'triclinic'
loop_
_space_group_symop_operation_xyz
x,y,z
-x,-y,-z
loop_
_atom_site_type_symbol
_atom_site_label
_atom_site_fract_x
_atom_site_fract_y
_atom_site_fract_z
Si Si1 0.374806 0.193622 0.855746
Si Si2 0.640080 0.456773 0.929711
Si Si3 0.671804 0.290839 0.658502
Si Si4 0.867783 0.377846 0.017822
Si Si5 0.486548 0.293918 0.579947
Si Si6 0.998565 0.981680 0.690201
Si Si7 0.850695 0.987580 0.161790
Si Si8 0.606410 0.085200 0.259690
O O1 0.228117 0.392347 0.946249
O O2 0.424535 0.263621 0.728020
O O3 0.361099 0.097523 0.756625
O O4 0.500000 0.000000 0.000000
O O5 0.584583 0.439544 0.797372
O O6 0.494073 0.723498 0.905234
O O7 0.765819 0.419102 0.909475
O O8 0.727647 0.241654 0.066746
O O9 0.627732 0.202753 0.636936
O O10 0.629226 0.448564 0.492101
O O11 0.835455 0.121965 0.723224
O O12 0.893247 0.252296 0.196083
O O13 0.030012 0.203966 0.947920
O O14 0.524706 0.189168 0.424870
O O15 0.045151 0.060083 0.732596
O O16 0.000000 0.000000 0.500000
O O17 0.757572 0.983353 0.260028
#
# Coordination Sequence:
#
# PCOD9090390 Si02
#       8
#     2   2   2   2   2   2   2   2
#     4  12  26  43  65  92 128 189 221 257 313 387
#     4  10  19  38  65  96 128 164 212 273 327 377
#     4  10  19  38  66 100 123 164 203 280 336 372
#     4  11  22  41  62  96 134 167 220 264 324 398
#     4  10  24  42  66  98 130 164 230 265 325 387
#     4  11  20  35  63  95 133 165 205 272 345 378
#     4  11  22  39  65 101 132 163 214 274 337 385
#     4  11  24  42  65  91 132 176 218 268 317 379
#
# _framework density 20.395631000000002
#
# number of rings (size 3 to 8) (size 9 to 14) (size 15 to 20)
#    0.000    1.250    3.750    3.000    1.750    5.500 
#    0.000    0.000    0.000    4.500    0.000    0.000 
#    0.000    0.000    0.000    0.000    0.000    0.000 
#
# Total GULP energy -89087.323607 kJ/mol
# GULP energy per Si atom -5567.957725 kJ/mol
# Density = 2.034921 g / cm^3
# Si number density = 20.395631 Si / 1000 Ang^3
#
#
#
# Elastic Constant Matrix: (Units=GPa)
#
#
# Indices 1 2 3 4 5 6 
#
# 1 96.3025 40.3330 16.4043 -9.5255 8.1437 -1.8343
# 2 40.3330 99.9936 27.8638 8.4948 -2.7931 -3.9729
# 3 16.4043 27.8638 72.8235 2.9897 5.2698 -0.2030
# 4 -9.5255 8.4948 2.9897 23.4115 -0.7087 2.9696
# 5 8.1437 -2.7931 5.2698 -0.7087 30.6993 2.8015
# 6 -1.8343 -3.9729 -0.2030 2.9696 2.8015 34.8369
#
#
#
# Elastic Compliance Matrix: (Units=1/GPa)
#
#
# Indices 1 2 3 4 5 6 
#
# 1 0.014336 -0.006369 -0.000838 0.008174 -0.004018 -0.000350
# 2 -0.006369 0.014489 -0.004043 -0.007440 0.003379 0.001656
# 3 -0.000838 -0.004043 0.015713 -0.000954 -0.002856 -0.000103
# 4 0.008174 -0.007440 -0.000954 0.049403 -0.001126 -0.004544
# 5 -0.004018 0.003379 -0.002856 -0.001126 0.034643 -0.002533
# 6 -0.000350 0.001656 -0.000103 -0.004544 -0.002533 0.029466
#
#
# Mechanical properties :
#
#
# Convention : Reuss Voigt Hill
#
# Bulk Modulus (GPa) = 45.38000 48.70241 47.04120
# Shear Modulus (GPa) = 26.61030 30.09078 28.35054
#
# Velocity S-wave (km/s) = 3.61599 3.84520 3.73236
# Velocity P-wave (km/s) = 6.30333 6.60642 6.45666
#
# Compressibility (1/GPa) = 0.02203614
#
# Stress axis : x y z
#
# Youngs Moduli (GPa) = 69.75477 69.01911 63.64081
#
# Poissons Ratio (x) = 0.43962 0.05333
# Poissons Ratio (y) = 0.44430 0.25732
# Poissons Ratio (z) = 0.05846 0.27907
#
# Static dielectric constant tensor:
#      x y z
#    x 1.847550 -0.147530 -0.126780 
#    y -0.147530 1.905870 0.166160 
#    z -0.126780 0.166160 1.894520 
# 
# From -- ./inp_files/298245.got.cif
#   From: 2010.05.17/outbox.cif.g08.bks.cpg/sg2_150_cif.got.tgz:298245.got - 2010.06.03 11:33:40.
