data_PCOD9090890
_publ_section_title
;
Structure prediction by ZEFSAII (Michael W. Deem and Ramdas Pophale) SiO2 
 PCOD9090890
Probable space group: P -1
;
_chemical_formula_sum "Si O2"
_cell_formula_units_Z 14
_cell_length_a 16.729067
_cell_length_b 9.081931
_cell_length_c 7.776751
_cell_angle_alpha 96.131304
_cell_angle_beta 59.693079
_cell_angle_gamma 54.628688
_cell_volume 685.337807
_symmetry_space_group_name_H-M "P -1"
_symmetry_group_IT_number 2
_symmetry_cell_setting 'triclinic'
loop_
_space_group_symop_operation_xyz
x,y,z
-x,-y,-z
loop_
_atom_site_type_symbol
_atom_site_label
_atom_site_fract_x
_atom_site_fract_y
_atom_site_fract_z
Si Si1 0.401170 0.205531 0.005252
Si Si2 0.832656 0.302516 0.639632
Si Si3 0.620228 0.321744 0.979576
Si Si4 0.049050 0.871108 0.151252
Si Si5 0.464934 0.722986 0.393161
Si Si6 0.174584 0.972253 0.823522
Si Si7 0.327481 0.000279 0.895710
O O1 0.284015 0.443185 0.252594
O O2 0.488464 0.212674 0.790435
O O3 0.500000 0.000000 0.000000
O O4 0.325284 0.173649 0.964810
O O5 0.894344 0.270376 0.755448
O O6 0.949308 0.122601 0.356449
O O7 0.756007 0.238462 0.754554
O O8 0.572266 0.463545 0.223110
O O9 0.642093 0.127898 0.981201
O O10 0.500000 0.500000 0.000000
O O11 0.958244 0.869278 0.133513
O O12 0.160520 0.828517 0.912546
O O13 0.313796 0.830257 0.545323
O O14 0.449482 0.821683 0.605130
O O15 0.197299 0.074480 0.954312
#
# Coordination Sequence:
#
# PCOD9090890 Si02
#       7
#     2   2   2   2   2   2   2
#     4  11  23  40  58  88 122 154 187 243 308 356
#     4  10  21  37  60  86 115 157 190 244 290 340
#     4  11  19  33  58  90 115 149 197 245 291 340
#     4  10  19  39  61  86 116 148 207 239 278 342
#     4   9  20  36  58  84 113 153 196 241 291 337
#     4   9  20  35  62  85 111 152 193 251 284 332
#     4  10  20  36  56  87 118 148 194 239 298 347
#
# _framework density 20.427883999999999
#
# number of rings (size 3 to 8) (size 9 to 14) (size 15 to 20)
#    0.857    1.143    1.429    3.429    0.000    0.000 
#    0.000    4.286    0.000    0.000    0.000    0.000 
#    0.000    0.000    0.000    0.000    0.000    0.000 
#
# Total GULP energy -78020.674167 kJ/mol
# GULP energy per Si atom -5572.905298 kJ/mol
# Density = 2.038139 g / cm^3
# Si number density = 20.427884 Si / 1000 Ang^3
#
#
#
# Elastic Constant Matrix: (Units=GPa)
#
#
# Indices 1 2 3 4 5 6 
#
# 1 115.9697 21.5295 20.7490 -10.1384 -16.5347 -6.8854
# 2 21.5295 82.4348 24.6499 1.9891 -7.4223 1.2124
# 3 20.7490 24.6499 39.6251 -1.8044 -17.1685 9.2173
# 4 -10.1384 1.9891 -1.8044 18.6763 3.3270 -1.3608
# 5 -16.5347 -7.4223 -17.1685 3.3270 31.6328 -2.3367
# 6 -6.8854 1.2124 9.2173 -1.3608 -2.3367 40.6368
#
#
#
# Elastic Compliance Matrix: (Units=1/GPa)
#
#
# Indices 1 2 3 4 5 6 
#
# 1 0.010644 -0.001541 -0.003892 0.005298 0.002759 0.003068
# 2 -0.001541 0.015444 -0.010270 -0.002956 -0.002343 0.001374
# 3 -0.003892 -0.010270 0.043925 -0.000798 0.018796 -0.009262
# 4 0.005298 -0.002956 -0.000798 0.057615 -0.004206 0.002855
# 5 0.002759 -0.002343 0.018796 -0.004206 0.043046 -0.001391
# 6 0.003068 0.001374 -0.009262 0.002855 -0.001391 0.027204
#
#
# Mechanical properties :
#
#
# Convention : Reuss Voigt Hill
#
# Bulk Modulus (GPa) = 25.90168 41.32074 33.61121
# Shear Modulus (GPa) = 20.64799 29.59590 25.12195
#
# Velocity S-wave (km/s) = 3.18272 3.81044 3.51064
# Velocity P-wave (km/s) = 5.11990 6.29530 5.73778
#
# Compressibility (1/GPa) = 0.03860753
#
# Stress axis : x y z
#
# Youngs Moduli (GPa) = 93.94862 64.74845 22.76584
#
# Poissons Ratio (x) = 0.09975 0.08861
# Poissons Ratio (y) = 0.14474 0.23381
# Poissons Ratio (z) = 0.36567 0.66499
#
# Static dielectric constant tensor:
#      x y z
#    x 1.804360 -0.044770 0.028090 
#    y -0.044770 1.700410 -0.018220 
#    z 0.028090 -0.018220 1.733800 
# 
# From -- ./inp_files/327513.got.cif
#   From: 2010.05.17/outbox.cif.g08.bks.cpg/sg2_164_cif.got.tgz:327513.got - 2010.06.03 11:33:40.
