data_PCOD9090801
_publ_section_title
;
Structure prediction by ZEFSAII (Michael W. Deem and Ramdas Pophale) SiO2 
 PCOD9090801
Probable space group: P -1
;
_chemical_formula_sum "Si O2"
_cell_formula_units_Z 14
_cell_length_a 9.947567
_cell_length_b 15.705136
_cell_length_c 7.854052
_cell_angle_alpha 51.911083
_cell_angle_beta 44.551405
_cell_angle_gamma 45.798778
_cell_volume 599.274469
_symmetry_space_group_name_H-M "P -1"
_symmetry_group_IT_number 2
_symmetry_cell_setting 'triclinic'
loop_
_space_group_symop_operation_xyz
x,y,z
-x,-y,-z
loop_
_atom_site_type_symbol
_atom_site_label
_atom_site_fract_x
_atom_site_fract_y
_atom_site_fract_z
Si Si1 0.037166 0.257337 0.352916
Si Si2 0.300698 0.425549 0.165544
Si Si3 0.854518 0.599830 0.185689
Si Si4 0.312063 0.556632 0.345081
Si Si5 0.793552 0.130106 0.561804
Si Si6 0.511637 0.049774 0.118494
Si Si7 0.412302 0.197980 0.561957
O O1 0.896568 0.316685 0.574741
O O2 0.885152 0.222918 0.413100
O O3 0.273591 0.141043 0.288560
O O4 0.081329 0.359547 0.094686
O O5 0.299820 0.500063 0.244020
O O6 0.368833 0.287587 0.332259
O O7 0.062725 0.499950 0.217072
O O8 0.475562 0.427241 0.876412
O O9 0.684259 0.546308 0.402256
O O10 0.758651 0.720179 0.241552
O O11 0.640818 0.166367 0.487812
O O12 0.000000 0.000000 0.500000
O O13 0.659634 0.114558 0.862225
O O14 0.602852 0.926231 0.299202
O O15 0.500000 0.000000 0.000000
#
# Coordination Sequence:
#
# PCOD9090801 Si02
#       7
#     2   2   2   2   2   2   2
#     4  12  23  37  66  96 122 157 206 267 301 351
#     4  10  24  44  62  86 126 173 203 241 309 377
#     4  11  22  41  65  89 123 167 204 248 309 366
#     4  10  24  42  58  92 126 162 209 252 301 364
#     4  11  20  36  62  96 121 160 200 251 312 357
#     4  10  19  39  59  93 123 152 205 257 306 353
#     4  10  19  40  64  90 122 160 207 246 300 377
#
# _framework density 23.361584000000001
#
# number of rings (size 3 to 8) (size 9 to 14) (size 15 to 20)
#    0.000    1.429    5.714    2.143    6.000    1.714 
#    2.571    0.714    0.000    4.286    0.000    0.000 
#    0.000    0.000    0.000    0.000    0.000    0.000 
#
# Total GULP energy -78298.311685 kJ/mol
# GULP energy per Si atom -5592.736549 kJ/mol
# Density = 2.330841 g / cm^3
# Si number density = 23.361584 Si / 1000 Ang^3
#
#
#
# Elastic Constant Matrix: (Units=GPa)
#
#
# Indices 1 2 3 4 5 6 
#
# 1 44.5994 26.8161 17.1296 -0.0412 -0.1522 -8.5613
# 2 26.8161 114.5831 49.4405 3.9430 4.2059 -25.0992
# 3 17.1296 49.4405 129.5670 13.9145 -13.6671 -7.0736
# 4 -0.0412 3.9430 13.9145 41.2644 -7.0639 2.1170
# 5 -0.1522 4.2059 -13.6671 -7.0639 23.0442 2.7556
# 6 -8.5613 -25.0992 -7.0736 2.1170 2.7556 38.2814
#
#
#
# Elastic Compliance Matrix: (Units=1/GPa)
#
#
# Indices 1 2 3 4 5 6 
#
# 1 0.026500 -0.005101 -0.001512 0.000949 0.000233 0.002233
# 2 -0.005101 0.013973 -0.004813 -0.001266 -0.006746 0.007687
# 3 -0.001512 -0.004813 0.010564 -0.001841 0.006801 -0.001930
# 4 0.000949 -0.001266 -0.001841 0.026430 0.007602 -0.002967
# 5 0.000233 -0.006746 0.006801 0.007602 0.051860 -0.007268
# 6 0.002233 0.007687 -0.001930 -0.002967 -0.007268 0.031992
#
#
# Mechanical properties :
#
#
# Convention : Reuss Voigt Hill
#
# Bulk Modulus (GPa) = 35.48190 52.83578 44.15884
# Shear Modulus (GPa) = 25.83054 33.54222 29.68638
#
# Velocity S-wave (km/s) = 3.32879 3.79329 3.56860
# Velocity P-wave (km/s) = 5.47682 6.46923 5.99360
#
# Compressibility (1/GPa) = 0.02818339
#
# Stress axis : x y z
#
# Youngs Moduli (GPa) = 37.73542 71.56647 94.65833
#
# Poissons Ratio (x) = 0.36509 0.14316
# Poissons Ratio (y) = 0.19250 0.45562
# Poissons Ratio (z) = 0.05707 0.34448
#
# Static dielectric constant tensor:
#      x y z
#    x 1.880640 0.030470 0.006050 
#    y 0.030470 1.918490 -0.024170 
#    z 0.006050 -0.024170 1.904490 
# 
# From -- ./inp_files/276182.got.cif
#   From: 2010.05.17/outbox.cif.g08.bks.cpg/sg2_139_cif.got.tgz:276182.got - 2010.06.03 11:33:40.
