data_PCOD9090828
_publ_section_title
;
Structure prediction by ZEFSAII (Michael W. Deem and Ramdas Pophale) SiO2 
 PCOD9090828
Probable space group: P -1
;
_chemical_formula_sum "Si O2"
_cell_formula_units_Z 16
_cell_length_a 9.558407
_cell_length_b 17.615584
_cell_length_c 11.607823
_cell_angle_alpha 57.444166
_cell_angle_beta 76.576817
_cell_angle_gamma 124.249511
_cell_volume 872.290902
_symmetry_space_group_name_H-M "P -1"
_symmetry_group_IT_number 2
_symmetry_cell_setting 'triclinic'
loop_
_space_group_symop_operation_xyz
x,y,z
-x,-y,-z
loop_
_atom_site_type_symbol
_atom_site_label
_atom_site_fract_x
_atom_site_fract_y
_atom_site_fract_z
Si Si1 0.441302 0.210935 0.598413
Si Si2 0.912812 0.847211 0.887177
Si Si3 0.860260 0.826820 0.167228
Si Si4 0.919720 0.240867 0.212006
Si Si5 0.612600 0.996131 0.083296
Si Si6 0.265468 0.587092 0.848842
Si Si7 0.714256 0.864486 0.723537
Si Si8 0.555255 0.979522 0.683491
O O1 0.377242 0.272779 0.621715
O O2 0.499607 0.161058 0.720915
O O3 0.653031 0.339462 0.354355
O O4 0.179949 0.040453 0.716768
O O5 0.716509 0.801059 0.884559
O O6 0.011592 0.816473 0.816725
O O7 0.782783 0.759401 0.107530
O O8 0.000000 0.000000 0.000000
O O9 0.088797 0.875661 0.114253
O O10 0.680000 0.156535 0.252551
O O11 0.789786 0.157635 0.429959
O O12 0.177297 0.437263 0.997646
O O13 0.571697 0.035377 0.172924
O O14 0.500000 0.000000 0.000000
O O15 0.495828 0.728454 0.780430
O O16 0.000000 0.500000 0.000000
O O17 0.672702 0.943271 0.713756
O O18 0.000000 0.000000 0.500000
#
# Coordination Sequence:
#
# PCOD9090828 Si02
#       8
#     2   2   2   2   2   2   2   2
#     4  10  20  39  60  86 120 156 198 247 294 355
#     4  10  19  39  60  86 118 152 206 241 298 354
#     4   8  18  34  58  82 114 153 199 242 287 348
#     4  11  21  38  61  86 119 161 195 248 304 359
#     4  10  20  32  60  92 114 150 208 250 283 350
#     4  12  24  38  61  90 125 157 197 244 313 353
#     4  12  23  37  61  90 121 157 197 250 298 360
#     4  11  21  36  62  88 120 157 205 243 297 360
#
# _framework density 18.342506
#
# number of rings (size 3 to 8) (size 9 to 14) (size 15 to 20)
#    0.000    1.750    6.250    0.750    5.250    0.500 
#    0.000    0.625    2.750    1.500    0.000    0.000 
#    0.000    0.000    0.000    0.000    0.000    0.000 
#
# Total GULP energy -89071.088435 kJ/mol
# GULP energy per Si atom -5566.943027 kJ/mol
# Density = 1.830076 g / cm^3
# Si number density = 18.342506 Si / 1000 Ang^3
#
#
#
# Elastic Constant Matrix: (Units=GPa)
#
#
# Indices 1 2 3 4 5 6 
#
# 1 150.2720 40.4954 36.3088 20.8285 -4.0752 1.5556
# 2 40.4954 54.1529 36.7505 15.1175 -3.5803 -0.6493
# 3 36.3088 36.7505 89.2109 17.4030 -9.4338 3.3578
# 4 20.8285 15.1175 17.4030 27.6374 -3.1582 0.0894
# 5 -4.0752 -3.5803 -9.4338 -3.1582 26.4833 13.0990
# 6 1.5556 -0.6493 3.3578 0.0894 13.0990 34.9657
#
#
#
# Elastic Compliance Matrix: (Units=1/GPa)
#
#
# Indices 1 2 3 4 5 6 
#
# 1 0.008661 -0.005032 -0.000774 -0.003260 0.000226 -0.000481
# 2 -0.005032 0.030543 -0.009444 -0.007217 -0.002110 0.002507
# 3 -0.000774 -0.009444 0.017057 -0.004270 0.006193 -0.004088
# 4 -0.003260 -0.007217 -0.004270 0.045600 0.002809 -0.000748
# 5 0.000226 -0.002110 0.006193 0.002809 0.049554 -0.019215
# 6 -0.000481 0.002507 -0.004088 -0.000748 -0.019215 0.036260
#
#
# Mechanical properties :
#
#
# Convention : Reuss Voigt Hill
#
# Bulk Modulus (GPa) = 38.81858 57.86057 48.33957
# Shear Modulus (GPa) = 22.04957 29.82269 25.93613
#
# Velocity S-wave (km/s) = 3.47090 4.03659 3.76439
# Velocity P-wave (km/s) = 6.10508 7.30332 6.73091
#
# Compressibility (1/GPa) = 0.02576086
#
# Stress axis : x y z
#
# Youngs Moduli (GPa) = 115.46636 32.74020 58.62807
#
# Poissons Ratio (x) = 0.16474 0.04539
# Poissons Ratio (y) = 0.58101 0.55368
# Poissons Ratio (z) = 0.08939 0.30920
#
# Static dielectric constant tensor:
#      x y z
#    x 1.674540 -0.026690 0.014140 
#    y -0.026690 1.644070 0.017960 
#    z 0.014140 0.017960 1.704870 
# 
# From -- ./inp_files/402996.got.cif
#   From: 2010.05.17/outbox.cif.g08.bks.cpg/sg2_202_cif.got.tgz:402996.got - 2010.06.03 11:33:40.
