data_PCOD9090681
_publ_section_title
;
Structure prediction by ZEFSAII (Michael W. Deem and Ramdas Pophale) SiO2 
 PCOD9090681
Probable space group: P -1
;
_chemical_formula_sum "Si O2"
_cell_formula_units_Z 16
_cell_length_a 4.824653
_cell_length_b 16.541812
_cell_length_c 8.567681
_cell_angle_alpha 80.337512
_cell_angle_beta 70.028545
_cell_angle_gamma 60.703997
_cell_volume 560.460201
_symmetry_space_group_name_H-M "P -1"
_symmetry_group_IT_number 2
_symmetry_cell_setting 'triclinic'
loop_
_space_group_symop_operation_xyz
x,y,z
-x,-y,-z
loop_
_atom_site_type_symbol
_atom_site_label
_atom_site_fract_x
_atom_site_fract_y
_atom_site_fract_z
Si Si1 0.430156 0.299715 0.324005
Si Si2 0.116014 0.886768 0.865539
Si Si3 0.628093 0.962746 0.695662
Si Si4 0.266575 0.424976 0.588797
Si Si5 0.361990 0.787265 0.138161
Si Si6 0.380696 0.854856 0.452332
Si Si7 0.076329 0.664357 0.087353
Si Si8 0.140952 0.551320 0.836512
O O1 0.722453 0.220796 0.190133
O O2 0.508786 0.352277 0.435780
O O3 0.352387 0.228778 0.466907
O O4 0.146164 0.369963 0.240849
O O5 0.749912 0.947527 0.854970
O O6 0.356415 0.927648 0.743178
O O7 0.144233 0.876423 0.047946
O O8 0.998651 0.901012 0.571728
O O9 0.513866 0.065452 0.623378
O O10 0.076706 0.382547 0.747571
O O11 0.000000 0.500000 0.500000
O O12 0.371016 0.477334 0.685325
O O13 0.351661 0.812694 0.309030
O O14 0.751706 0.743883 0.039003
O O15 0.255907 0.709139 0.140922
O O16 0.278176 0.597378 0.925301
O O17 0.000000 0.500000 0.000000
#
# Coordination Sequence:
#
# PCOD9090681 Si02
#       8
#     2   2   2   2   2   2   2   2
#     4  10  19  38  69  99 137 184 229 285 347 415
#     4  11  24  43  70 101 144 183 237 281 353 417
#     4  10  25  45  69 105 138 188 227 297 346 413
#     4   9  19  39  69 101 136 178 231 287 352 412
#     4  12  25  42  73 101 137 184 234 286 341 425
#     4  10  24  43  71 103 144 180 238 286 355 420
#     4  11  23  43  68 102 134 184 231 286 346 409
#     4   9  19  39  69  98 142 176 233 286 346 410
#
# _framework density 28.547969999999999
#
# number of rings (size 3 to 8) (size 9 to 14) (size 15 to 20)
#    0.000    1.750    2.500    0.750    1.750    6.500 
#    0.000    6.250    0.000    0.000    0.000    0.000 
#    0.000    0.000    0.000    0.000    0.000    0.000 
#
# Total GULP energy -89644.128191 kJ/mol
# GULP energy per Si atom -5602.758012 kJ/mol
# Density = 2.848299 g / cm^3
# Si number density = 28.547970 Si / 1000 Ang^3
#
#
#
# Elastic Constant Matrix: (Units=GPa)
#
#
# Indices 1 2 3 4 5 6 
#
# 1 132.3006 56.4034 33.4043 10.1728 3.8632 25.8201
# 2 56.4034 141.5883 63.3363 -4.6735 5.9539 20.4833
# 3 33.4043 63.3363 187.5325 13.7133 5.8610 -1.3833
# 4 10.1728 -4.6735 13.7133 76.1346 -17.9377 23.0307
# 5 3.8632 5.9539 5.8610 -17.9377 36.5095 -4.6439
# 6 25.8201 20.4833 -1.3833 23.0307 -4.6439 49.2386
#
#
#
# Elastic Compliance Matrix: (Units=1/GPa)
#
#
# Indices 1 2 3 4 5 6 
#
# 1 0.009836 -0.003033 -0.000682 -0.000507 -0.001167 -0.003789
# 2 -0.003033 0.010410 -0.003219 0.002897 0.000031 -0.004183
# 3 -0.000682 -0.003219 0.006792 -0.002544 -0.001368 0.002949
# 4 -0.000507 0.002897 -0.002544 0.018379 0.007892 -0.008863
# 5 -0.001167 0.000031 -0.001368 0.007892 0.031586 -0.000152
# 6 -0.003789 -0.004183 0.002949 -0.008863 -0.000152 0.028250
#
#
# Mechanical properties :
#
#
# Convention : Reuss Voigt Hill
#
# Bulk Modulus (GPa) = 75.93212 85.30106 80.61659
# Shear Modulus (GPa) = 40.48176 52.92837 46.70507
#
# Velocity S-wave (km/s) = 3.76975 4.31050 4.04916
# Velocity P-wave (km/s) = 6.75306 7.39720 7.08246
#
# Compressibility (1/GPa) = 0.01316966
#
# Stress axis : x y z
#
# Youngs Moduli (GPa) = 101.66541 96.05777 147.23672
#
# Poissons Ratio (x) = 0.29131 0.10045
# Poissons Ratio (y) = 0.30832 0.47402
# Poissons Ratio (z) = 0.06936 0.30925
#
# Static dielectric constant tensor:
#      x y z
#    x 2.080960 0.038770 -0.036350 
#    y 0.038770 2.323360 0.022480 
#    z -0.036350 0.022480 2.345910 
# 
# From -- ./inp_files/135324.got.cif
#   From: 2010.05.17/outbox.cif.g08.bks.cpg/sg2_68_cif.got.tgz:135324.got - 2010.06.03 11:33:40.
