data_PCOD9090102
_publ_section_title
;
Structure prediction by ZEFSAII (Michael W. Deem and Ramdas Pophale) SiO2 
 PCOD9090102
Probable space group: P -1
;
_chemical_formula_sum "Si O2"
_cell_formula_units_Z 12
_cell_length_a 9.021078
_cell_length_b 11.747683
_cell_length_c 8.602975
_cell_angle_alpha 68.499388
_cell_angle_beta 90.949620
_cell_angle_gamma 138.514268
_cell_volume 510.327623
_symmetry_space_group_name_H-M "P -1"
_symmetry_group_IT_number 2
_symmetry_cell_setting 'triclinic'
loop_
_space_group_symop_operation_xyz
x,y,z
-x,-y,-z
loop_
_atom_site_type_symbol
_atom_site_label
_atom_site_fract_x
_atom_site_fract_y
_atom_site_fract_z
Si Si1 0.417276 0.130322 0.552014
Si Si2 0.157031 0.714002 0.690496
Si Si3 0.409339 0.348252 0.233719
Si Si4 0.848157 0.789880 0.017447
Si Si5 0.674335 0.999594 0.036203
Si Si6 0.333367 0.659649 0.985109
O O1 0.692922 0.267891 0.439295
O O2 0.350306 0.217425 0.436905
O O3 0.391050 0.102483 0.748694
O O4 0.244603 0.911357 0.581099
O O5 0.866412 0.504934 0.805710
O O6 0.247153 0.721708 0.856058
O O7 0.192176 0.224665 0.164512
O O8 0.570436 0.571697 0.177544
O O9 0.611971 0.407813 0.104771
O O10 0.032506 0.797751 0.055993
O O11 0.000000 0.000000 0.000000
O O12 0.592950 0.858704 0.966031
O O13 0.500000 0.000000 0.000000
#
# Coordination Sequence:
#
# PCOD9090102 Si02
#       6
#     2   2   2   2   2   2
#     4  10  21  38  59  98 127 170 212 269 318 374
#     4   9  19  35  60  90 135 170 208 258 328 377
#     4  10  23  44  70  90 128 175 218 262 320 384
#     4  11  24  46  70  92 126 175 220 262 323 392
#     4  12  24  39  65  99 131 167 219 266 322 382
#     4  10  19  38  63  94 128 175 211 258 322 388
#
# _framework density 23.514306000000001
#
# number of rings (size 3 to 8) (size 9 to 14) (size 15 to 20)
#    0.000    1.667    3.333    1.000    4.667    1.333 
#    3.000    0.833    0.000    0.000    0.000    0.000 
#    0.000    0.000    0.000    0.000    0.000    0.000 
#
# Total GULP energy -66945.887272 kJ/mol
# GULP energy per Si atom -5578.823939 kJ/mol
# Density = 2.346079 g / cm^3
# Si number density = 23.514306 Si / 1000 Ang^3
#
#
#
# Elastic Constant Matrix: (Units=GPa)
#
#
# Indices 1 2 3 4 5 6 
#
# 1 58.5165 36.4985 -0.7273 -1.5726 22.5342 15.0920
# 2 36.4985 146.6161 16.3045 7.3261 19.1818 21.4729
# 3 -0.7273 16.3045 75.4569 -4.8191 24.5075 2.7851
# 4 -1.5726 7.3261 -4.8191 27.1528 1.3176 1.9507
# 5 22.5342 19.1818 24.5075 1.3176 48.5045 -0.3803
# 6 15.0920 21.4729 2.7851 1.9507 -0.3803 44.8413
#
#
#
# Elastic Compliance Matrix: (Units=1/GPa)
#
#
# Indices 1 2 3 4 5 6 
#
# 1 0.028103 -0.004939 0.006760 0.005440 -0.014727 -0.007875
# 2 -0.004939 0.008763 -0.002006 -0.002837 -0.000098 -0.002287
# 3 0.006760 -0.002006 0.017915 0.004870 -0.011553 -0.002737
# 4 0.005440 -0.002837 0.004870 0.039195 -0.004950 -0.002522
# 5 -0.014727 -0.000098 -0.011553 -0.004950 0.033518 0.006221
# 6 -0.007875 -0.002287 -0.002737 -0.002522 0.006221 0.026379
#
#
# Mechanical properties :
#
#
# Convention : Reuss Voigt Hill
#
# Bulk Modulus (GPa) = 18.37933 42.74900 30.56416
# Shear Modulus (GPa) = 29.00571 39.33396 34.16984
#
# Velocity S-wave (km/s) = 3.51598 4.09438 3.81616
# Velocity P-wave (km/s) = 4.93113 6.36957 5.69594
#
# Compressibility (1/GPa) = 0.05440895
#
# Stress axis : x y z
#
# Youngs Moduli (GPa) = 35.58402 114.12057 55.81784
#
# Poissons Ratio (x) = 0.56368 -0.37730
# Poissons Ratio (y) = 0.17576 0.11197
# Poissons Ratio (z) = -0.24053 0.22893
#
# Static dielectric constant tensor:
#      x y z
#    x 2.112020 -0.077390 0.043910 
#    y -0.077390 1.940030 -0.060830 
#    z 0.043910 -0.060830 1.888520 
# 
# From -- ./inp_files/171981.got.cif
#   From: 2010.05.17/outbox.cif.g08.bks.cpg/sg2_86_cif.got.tgz:171981.got - 2010.06.03 11:33:40.
