data_PCOD9090951
_publ_section_title
;
Structure prediction by ZEFSAII (Michael W. Deem and Ramdas Pophale) SiO2 
 PCOD9090951
Probable space group: P -1
;
_chemical_formula_sum "Si O2"
_cell_formula_units_Z 14
_cell_length_a 10.941839
_cell_length_b 7.284952
_cell_length_c 8.515437
_cell_angle_alpha 57.655438
_cell_angle_beta 108.205241
_cell_angle_gamma 98.294167
_cell_volume 544.530863
_symmetry_space_group_name_H-M "P -1"
_symmetry_group_IT_number 2
_symmetry_cell_setting 'triclinic'
loop_
_space_group_symop_operation_xyz
x,y,z
-x,-y,-z
loop_
_atom_site_type_symbol
_atom_site_label
_atom_site_fract_x
_atom_site_fract_y
_atom_site_fract_z
Si Si1 0.941091 0.484405 0.745908
Si Si2 0.298973 0.996161 0.333695
Si Si3 0.856498 0.921411 0.449492
Si Si4 0.479271 0.308488 0.418119
Si Si5 0.557717 0.773959 0.201277
Si Si6 0.166384 0.681170 0.929790
Si Si7 0.207472 0.292656 0.904516
O O1 0.020474 0.635300 0.831301
O O2 0.868355 0.666588 0.532389
O O3 0.055888 0.339365 0.782259
O O4 0.841816 0.359273 0.870875
O O5 0.213756 0.027492 0.438792
O O6 0.414838 0.164949 0.324525
O O7 0.221009 0.076595 0.114773
O O8 0.370312 0.762774 0.470176
O O9 0.798480 0.080572 0.219567
O O10 0.000000 0.000000 0.500000
O O11 0.467137 0.561960 0.254939
O O12 0.421366 0.230550 0.598681
O O13 0.683737 0.715578 0.177924
O O14 0.500000 0.000000 0.000000
O O15 0.237577 0.495015 0.941474
#
# Coordination Sequence:
#
# PCOD9090951 Si02
#       7
#     2   2   2   2   2   2   2
#     4   8  15  27  43  83 111 136 179 230 273 331
#     4  11  20  38  58  91 118 143 191 247 285 327
#     4  10  16  28  53  84 118 141 177 235 291 329
#     4  10  25  40  57  82 121 152 189 241 287 339
#     4  11  22  43  57  79 111 159 199 227 289 350
#     4   8  14  26  43  79 111 138 171 224 271 327
#     4  10  17  31  58  81 111 144 186 237 276 336
#
# _framework density 25.710204999999998
#
# number of rings (size 3 to 8) (size 9 to 14) (size 15 to 20)
#    0.857    1.429    2.857    1.714    0.000    0.571 
#    2.571    0.000    0.000    0.857    0.000    3.000 
#    0.000    0.000    0.000    0.000    0.000    0.000 
#
# Total GULP energy -78162.260039 kJ/mol
# GULP energy per Si atom -5583.018574 kJ/mol
# Density = 2.565169 g / cm^3
# Si number density = 25.710205 Si / 1000 Ang^3
#
#
#
# Elastic Constant Matrix: (Units=GPa)
#
#
# Indices 1 2 3 4 5 6 
#
# 1 120.9083 48.5412 59.7925 2.7505 0.7891 -56.6586
# 2 48.5412 84.7846 56.9403 -7.7890 -3.7928 -18.1512
# 3 59.7925 56.9403 211.5050 -27.4689 -5.2716 -31.4467
# 4 2.7505 -7.7890 -27.4689 37.0795 -14.8268 -4.8382
# 5 0.7891 -3.7928 -5.2716 -14.8268 33.3395 2.2222
# 6 -56.6586 -18.1512 -31.4467 -4.8382 2.2222 49.9908
#
#
#
# Elastic Compliance Matrix: (Units=1/GPa)
#
#
# Indices 1 2 3 4 5 6 
#
# 1 0.022184 -0.007583 -0.001653 -0.003552 -0.004643 0.021212
# 2 -0.007583 0.017556 -0.002638 0.003178 0.003421 -0.003725
# 3 -0.001653 -0.002638 0.007183 0.006646 0.003686 0.002166
# 4 -0.003552 0.003178 0.006646 0.041210 0.019528 0.004429
# 5 -0.004643 0.003421 0.003686 0.019528 0.039866 -0.001583
# 6 0.021212 -0.003725 0.002166 0.004429 -0.001583 0.044555
#
#
# Mechanical properties :
#
#
# Convention : Reuss Voigt Hill
#
# Bulk Modulus (GPa) = 43.15365 83.08288 63.11827
# Shear Modulus (GPa) = 24.50654 40.87689 32.69172
#
# Velocity S-wave (km/s) = 3.09072 3.99169 3.56974
# Velocity P-wave (km/s) = 5.43671 7.32326 6.44934
#
# Compressibility (1/GPa) = 0.02317301
#
# Stress axis : x y z
#
# Youngs Moduli (GPa) = 45.07743 56.96164 139.22450
#
# Poissons Ratio (x) = 0.43197 0.23013
# Poissons Ratio (y) = 0.34184 0.36730
# Poissons Ratio (z) = 0.07451 0.15028
#
# Static dielectric constant tensor:
#      x y z
#    x 2.065030 0.045920 0.050390 
#    y 0.045920 2.015450 -0.042270 
#    z 0.050390 -0.042270 2.169730 
# 
# From -- ./inp_files/413944.got.cif
#   From: 2010.05.17/outbox.cif.g08.bks.cpg/sg2_207_cif.got.tgz:413944.got - 2010.06.03 11:33:40.
