data_PCOD9090984
_publ_section_title
;
Structure prediction by ZEFSAII (Michael W. Deem and Ramdas Pophale) SiO2 
 PCOD9090984
Probable space group: P -1
;
_chemical_formula_sum "Si O2"
_cell_formula_units_Z 16
_cell_length_a 24.092792
_cell_length_b 8.335919
_cell_length_c 9.127767
_cell_angle_alpha 130.612839
_cell_angle_beta 33.023221
_cell_angle_gamma 131.270848
_cell_volume 729.124974
_symmetry_space_group_name_H-M "P -1"
_symmetry_group_IT_number 2
_symmetry_cell_setting 'triclinic'
loop_
_space_group_symop_operation_xyz
x,y,z
-x,-y,-z
loop_
_atom_site_type_symbol
_atom_site_label
_atom_site_fract_x
_atom_site_fract_y
_atom_site_fract_z
Si Si1 0.020089 0.189098 0.374525
Si Si2 0.771593 0.564729 0.095139
Si Si3 0.962691 0.696436 0.266591
Si Si4 0.768851 0.100693 0.831878
Si Si5 0.407140 0.071810 0.663022
Si Si6 0.429048 0.278739 0.447075
Si Si7 0.250968 0.374711 0.479268
Si Si8 0.446760 0.550844 0.998400
O O1 0.044600 0.314255 0.548982
O O2 0.896793 0.163026 0.595457
O O3 0.107784 0.314316 0.141090
O O4 0.032411 0.943620 0.223566
O O5 0.687508 0.687201 0.296441
O O6 0.762918 0.555745 0.284454
O O7 0.741939 0.314458 0.952843
O O8 0.852025 0.677983 0.423500
O O9 0.000000 0.500000 0.000000
O O10 0.726250 0.866376 0.705932
O O11 0.707683 0.059193 0.098840
O O12 0.423161 0.084886 0.460977
O O13 0.419208 0.321313 0.835012
O O14 0.500000 0.000000 0.500000
O O15 0.500000 0.500000 0.500000
O O16 0.482276 0.275710 0.167762
O O17 0.335784 0.563458 0.316246
O O18 0.500000 0.500000 0.000000
#
# Coordination Sequence:
#
# PCOD9090984 Si02
#       8
#     2   2   2   2   2   2   2   2
#     4  10  24  38  65  95 127 173 217 264 313 393
#     4  12  23  40  68  94 128 172 216 264 326 379
#     4  10  22  42  62  93 132 169 214 264 324 377
#     4  10  22  41  65  90 132 168 214 262 332 375
#     4  10  22  40  65  90 125 167 213 265 326 389
#     4  10  22  37  66  92 124 170 215 265 326 387
#     4  10  23  39  65  92 128 173 207 273 319 385
#     4  10  19  39  62  89 125 161 210 266 326 375
#
# _framework density 21.944110999999999
#
# number of rings (size 3 to 8) (size 9 to 14) (size 15 to 20)
#    0.000    1.750    1.250    2.625    8.750    3.000 
#    0.000    0.625    5.500    0.000    0.000    0.000 
#    0.000    0.000    0.000    0.000    0.000    0.000 
#
# Total GULP energy -89287.734321 kJ/mol
# GULP energy per Si atom -5580.483395 kJ/mol
# Density = 2.189417 g / cm^3
# Si number density = 21.944111 Si / 1000 Ang^3
#
#
#
# Elastic Constant Matrix: (Units=GPa)
#
#
# Indices 1 2 3 4 5 6 
#
# 1 71.9161 22.1006 33.5312 -19.4785 4.3315 -2.9070
# 2 22.1006 89.5468 72.4164 -14.5130 7.6794 -11.1806
# 3 33.5312 72.4164 133.5230 -26.0963 10.7832 -13.1870
# 4 -19.4785 -14.5130 -26.0963 39.8057 4.8381 9.4255
# 5 4.3315 7.6794 10.7832 4.8381 29.4611 -3.7884
# 6 -2.9070 -11.1806 -13.1870 9.4255 -3.7884 29.7122
#
#
#
# Elastic Compliance Matrix: (Units=1/GPa)
#
#
# Indices 1 2 3 4 5 6 
#
# 1 0.017475 -0.001403 -0.002154 0.007599 -0.002993 -0.002567
# 2 -0.001403 0.020264 -0.010428 -0.000755 -0.000748 0.003004
# 3 -0.002154 -0.010428 0.015028 0.005291 -0.003278 0.000439
# 4 0.007599 -0.000755 0.005291 0.035548 -0.009947 -0.009738
# 5 -0.002993 -0.000748 -0.003278 -0.009947 0.038182 0.005994
# 6 -0.002567 0.003004 0.000439 -0.009738 0.005994 0.038583
#
#
# Mechanical properties :
#
#
# Convention : Reuss Voigt Hill
#
# Bulk Modulus (GPa) = 40.32857 61.23135 50.77996
# Shear Modulus (GPa) = 24.83635 30.92500 27.88068
#
# Velocity S-wave (km/s) = 3.36787 3.75809 3.56832
# Velocity P-wave (km/s) = 5.79148 6.84068 6.33782
#
# Compressibility (1/GPa) = 0.02479632
#
# Stress axis : x y z
#
# Youngs Moduli (GPa) = 57.22328 49.34919 66.54179
#
# Poissons Ratio (x) = 0.06925 0.14334
# Poissons Ratio (y) = 0.08029 0.69391
# Poissons Ratio (z) = 0.12326 0.51463
#
# Static dielectric constant tensor:
#      x y z
#    x 1.771390 -0.023740 -0.008640 
#    y -0.023740 1.890930 -0.007330 
#    z -0.008640 -0.007330 1.836760 
# 
# From -- ./inp_files/356513.got.cif
#   From: 2010.05.17/outbox.cif.g08.bks.cpg/sg2_179_cif.got.tgz:356513.got - 2010.06.03 11:33:40.
