data_PCOD9090777
_publ_section_title
;
Structure prediction by ZEFSAII (Michael W. Deem and Ramdas Pophale) SiO2 
 PCOD9090777
Probable space group: P -1
;
_chemical_formula_sum "Si O2"
_cell_formula_units_Z 16
_cell_length_a 21.573793
_cell_length_b 11.899018
_cell_length_c 17.722659
_cell_angle_alpha 139.606176
_cell_angle_beta 17.297368
_cell_angle_gamma 139.109501
_cell_volume 866.765153
_symmetry_space_group_name_H-M "P -1"
_symmetry_group_IT_number 2
_symmetry_cell_setting 'triclinic'
loop_
_space_group_symop_operation_xyz
x,y,z
-x,-y,-z
loop_
_atom_site_type_symbol
_atom_site_label
_atom_site_fract_x
_atom_site_fract_y
_atom_site_fract_z
Si Si1 0.611432 0.695805 0.461623
Si Si2 0.630081 0.052040 0.223832
Si Si3 0.818252 0.168166 0.714682
Si Si4 0.747899 0.850589 0.848614
Si Si5 0.960943 0.153782 0.020377
Si Si6 0.812993 0.179589 0.371236
Si Si7 0.063648 0.472685 0.498244
Si Si8 0.524866 0.942372 0.822184
O O1 0.500000 0.500000 0.500000
O O2 0.478440 0.790894 0.604162
O O3 0.605910 0.808256 0.601922
O O4 0.852024 0.710257 0.162952
O O5 0.763673 0.108936 0.171386
O O6 0.434268 0.897215 0.384361
O O7 0.775344 0.980891 0.954753
O O8 0.052982 0.120002 0.424250
O O9 0.869212 0.358406 0.711863
O O10 0.695024 0.030575 0.728784
O O11 0.675670 0.155328 0.947946
O O12 0.757275 0.655331 0.768348
O O13 0.548570 0.900843 0.061928
O O14 0.893376 0.218519 0.212868
O O15 0.064225 0.975966 0.821384
O O16 0.862438 0.345425 0.452849
O O17 0.000000 0.500000 0.500000
#
# Coordination Sequence:
#
# PCOD9090777 Si02
#       8
#     2   2   2   2   2   2   2   2
#     4  10  23  36  61  86 114 146 195 241 282 338
#     4  10  20  38  61  82 111 156 193 228 291 344
#     4   9  21  36  58  82 112 152 187 235 284 340
#     4   9  20  34  58  81 114 147 185 233 285 333
#     4  10  21  40  60  80 119 155 189 233 292 332
#     4  10  22  38  58  85 117 154 189 237 278 345
#     4  10  22  36  57  87 120 145 191 236 285 340
#     4  10  19  39  59  80 114 151 193 227 289 345
#
# _framework density 18.459441000000002
#
# number of rings (size 3 to 8) (size 9 to 14) (size 15 to 20)
#    0.750    1.500    0.000    2.250    7.000    1.000 
#    2.250    2.500    0.000    0.000    0.000    0.000 
#    0.000    0.000    0.000    0.000    0.000    0.000 
#
# Total GULP energy -89187.261591 kJ/mol
# GULP energy per Si atom -5574.203849 kJ/mol
# Density = 1.841743 g / cm^3
# Si number density = 18.459441 Si / 1000 Ang^3
#
#
#
# Elastic Constant Matrix: (Units=GPa)
#
#
# Indices 1 2 3 4 5 6 
#
# 1 85.5938 37.0975 16.3353 -6.6794 10.0298 7.9967
# 2 37.0975 109.0940 33.8937 -13.6916 5.5654 3.5564
# 3 16.3353 33.8937 49.7904 -14.7994 11.9521 -1.4412
# 4 -6.6794 -13.6916 -14.7994 26.1735 -5.3255 0.5808
# 5 10.0298 5.5654 11.9521 -5.3255 15.7748 -6.6326
# 6 7.9967 3.5564 -1.4412 0.5808 -6.6326 24.1302
#
#
#
# Elastic Compliance Matrix: (Units=1/GPa)
#
#
# Indices 1 2 3 4 5 6 
#
# 1 0.015747 -0.004725 0.000648 -0.000410 -0.012273 -0.007847
# 2 -0.004725 0.013280 -0.008117 0.002252 0.005471 0.000573
# 3 0.000648 -0.008117 0.033410 0.010710 -0.020468 -0.002907
# 4 -0.000410 0.002252 0.010710 0.046889 0.007794 0.001457
# 5 -0.012273 0.005471 -0.020468 0.007794 0.099706 0.029257
# 6 -0.007847 0.000573 -0.002907 0.001457 0.029257 0.051791
#
#
# Mechanical properties :
#
#
# Convention : Reuss Voigt Hill
#
# Bulk Modulus (GPa) = 26.28339 46.57013 36.42676
# Shear Modulus (GPa) = 16.78444 23.69249 20.23847
#
# Velocity S-wave (km/s) = 3.01867 3.58647 3.31475
# Velocity P-wave (km/s) = 5.13996 6.51410 5.86739
#
# Compressibility (1/GPa) = 0.03804684
#
# Stress axis : x y z
#
# Youngs Moduli (GPa) = 63.50476 75.30142 29.93132
#
# Poissons Ratio (x) = 0.35584 -0.01938
# Poissons Ratio (y) = 0.30009 0.24295
# Poissons Ratio (z) = -0.04113 0.61122
#
# Static dielectric constant tensor:
#      x y z
#    x 1.623490 -0.034000 0.007400 
#    y -0.034000 1.618880 -0.018890 
#    z 0.007400 -0.018890 1.645850 
# 
# From -- ./inp_files/577833.got.cif
#   From: 2010.05.17/outbox.cif.g08.bks.cpg/sg2_289_cif.got.tgz:577833.got - 2010.06.03 11:33:40.
