data_PCOD9090264
_publ_section_title
;
Structure prediction by ZEFSAII (Michael W. Deem and Ramdas Pophale) SiO2 
 PCOD9090264
Probable space group: P -1
;
_chemical_formula_sum "Si O2"
_cell_formula_units_Z 16
_cell_length_a 5.192388
_cell_length_b 9.965727
_cell_length_c 14.257749
_cell_angle_alpha 110.162119
_cell_angle_beta 88.364102
_cell_angle_gamma 122.635843
_cell_volume 571.555319
_symmetry_space_group_name_H-M "P -1"
_symmetry_group_IT_number 2
_symmetry_cell_setting 'triclinic'
loop_
_space_group_symop_operation_xyz
x,y,z
-x,-y,-z
loop_
_atom_site_type_symbol
_atom_site_label
_atom_site_fract_x
_atom_site_fract_y
_atom_site_fract_z
Si Si1 0.750841 0.702558 0.926779
Si Si2 0.675392 0.825111 0.426096
Si Si3 0.276990 0.615833 0.238312
Si Si4 0.666085 0.358813 0.241360
Si Si5 0.394199 0.959286 0.656713
Si Si6 0.298594 0.969263 0.861092
Si Si7 0.085588 0.687625 0.073118
Si Si8 0.706228 0.758851 0.604114
O O1 0.784499 0.550641 0.855641
O O2 0.430440 0.634880 0.862422
O O3 0.004036 0.877930 0.910396
O O4 0.819679 0.711102 0.039286
O O5 0.615109 0.708730 0.307045
O O6 0.552923 0.703928 0.489204
O O7 0.499337 0.903469 0.395458
O O8 0.000000 0.000000 0.500000
O O9 0.176924 0.706631 0.186148
O O10 0.009014 0.523731 0.297399
O O11 0.645099 0.180589 0.194176
O O12 0.439777 0.341787 0.321813
O O13 0.268858 0.006458 0.762058
O O14 0.647219 0.914172 0.655108
O O15 0.046778 0.795953 0.594258
O O16 0.599129 0.147974 0.938254
O O17 0.000000 0.500000 0.000000
#
# Coordination Sequence:
#
# PCOD9090264 Si02
#       8
#     2   2   2   2   2   2   2   2
#     4  10  21  40  63  91 125 171 220 272 333 402
#     4  10  21  40  64  94 131 172 224 270 339 399
#     4  10  22  42  61  91 134 166 217 281 335 392
#     4  10  22  39  61  91 128 174 219 268 336 398
#     4  10  19  38  64  95 131 167 227 270 332 393
#     4  10  19  38  65  88 128 171 215 275 329 399
#     4  10  21  39  65  94 127 168 217 277 337 398
#     4  10  21  38  65  95 129 176 220 278 322 408
#
# _framework density 27.993791999999999
#
# number of rings (size 3 to 8) (size 9 to 14) (size 15 to 20)
#    0.000    2.000    2.500    0.750    0.000    1.500 
#    9.000    3.125    0.000    0.000    0.000    0.000 
#    0.000    0.000    0.000    0.000    0.000    0.000 
#
# Total GULP energy -89076.358411 kJ/mol
# GULP energy per Si atom -5567.272401 kJ/mol
# Density = 2.793008 g / cm^3
# Si number density = 27.993792 Si / 1000 Ang^3
#
#
#
# Elastic Constant Matrix: (Units=GPa)
#
#
# Indices 1 2 3 4 5 6 
#
# 1 82.0092 27.2963 23.7801 0.1176 16.5248 9.4325
# 2 27.2963 106.6249 42.3429 11.5326 10.3907 14.6902
# 3 23.7801 42.3429 181.4898 -16.2961 30.1938 2.2494
# 4 0.1176 11.5326 -16.2961 40.0982 0.4988 9.2835
# 5 16.5248 10.3907 30.1938 0.4988 48.3373 -0.3147
# 6 9.4325 14.6902 2.2494 9.2835 -0.3147 24.7200
#
#
#
# Elastic Compliance Matrix: (Units=1/GPa)
#
#
# Indices 1 2 3 4 5 6 
#
# 1 0.014585 -0.002730 -0.000361 0.001715 -0.004222 -0.004608
# 2 -0.002730 0.012187 -0.002754 -0.003548 0.000040 -0.004617
# 3 -0.000361 -0.002754 0.007184 0.003847 -0.003815 -0.000373
# 4 0.001715 -0.003548 0.003847 0.029902 -0.002601 -0.010159
# 5 -0.004222 0.000040 -0.003815 -0.002601 0.024553 0.003224
# 6 -0.004608 -0.004617 -0.000373 -0.010159 0.003224 0.048845
#
#
# Mechanical properties :
#
#
# Convention : Reuss Voigt Hill
#
# Bulk Modulus (GPa) = 44.90719 61.88471 53.39595
# Shear Modulus (GPa) = 31.97593 41.07808 36.52700
#
# Velocity S-wave (km/s) = 3.38339 3.83482 3.61616
# Velocity P-wave (km/s) = 5.59819 6.46238 6.04575
#
# Compressibility (1/GPa) = 0.02226815
#
# Stress axis : x y z
#
# Youngs Moduli (GPa) = 68.56267 82.05470 139.19308
#
# Poissons Ratio (x) = 0.22400 0.05021
# Poissons Ratio (y) = 0.18717 0.38328
# Poissons Ratio (z) = 0.02473 0.22595
#
# Static dielectric constant tensor:
#      x y z
#    x 2.262060 -0.042650 -0.067480 
#    y -0.042650 2.442060 0.097260 
#    z -0.067480 0.097260 2.360480 
# 
# From -- ./inp_files/482866.got.cif
#   From: 2010.05.17/outbox.cif.g08.bks.cpg/sg2_242_cif.got.tgz:482866.got - 2010.06.03 11:33:40.
