data_PCOD9090726
_publ_section_title
;
Structure prediction by ZEFSAII (Michael W. Deem and Ramdas Pophale) SiO2 
 PCOD9090726
Probable space group: P -1
;
_chemical_formula_sum "Si O2"
_cell_formula_units_Z 16
_cell_length_a 7.586868
_cell_length_b 20.224811
_cell_length_c 10.933799
_cell_angle_alpha 43.716521
_cell_angle_beta 42.092002
_cell_angle_gamma 45.450289
_cell_volume 726.120357
_symmetry_space_group_name_H-M "P -1"
_symmetry_group_IT_number 2
_symmetry_cell_setting 'triclinic'
loop_
_space_group_symop_operation_xyz
x,y,z
-x,-y,-z
loop_
_atom_site_type_symbol
_atom_site_label
_atom_site_fract_x
_atom_site_fract_y
_atom_site_fract_z
Si Si1 0.414485 0.340409 0.733253
Si Si2 0.106842 0.540863 0.031130
Si Si3 0.337257 0.077513 0.740917
Si Si4 0.925524 0.305179 0.368521
Si Si5 0.445953 0.845092 0.698233
Si Si6 0.559522 0.742367 0.423989
Si Si7 0.689494 0.126959 0.995260
Si Si8 0.546320 0.344730 0.162453
O O1 0.718372 0.344338 0.538049
O O2 0.300482 0.319291 0.687393
O O3 0.200169 0.435207 0.787041
O O4 0.479335 0.238527 0.917625
O O5 0.324429 0.426186 0.080690
O O6 0.088804 0.598086 0.835780
O O7 0.240448 0.604029 0.967674
O O8 0.532431 0.081353 0.519906
O O9 0.379981 0.155689 0.713393
O O10 0.390230 0.962110 0.909168
O O11 0.008878 0.117184 0.815748
O O12 0.767770 0.240249 0.460743
O O13 0.233726 0.230786 0.341220
O O14 0.320758 0.891725 0.829128
O O15 0.306346 0.765429 0.827597
O O16 0.618440 0.675677 0.606636
#
# Coordination Sequence:
#
# PCOD9090726 Si02
#       8
#     2   2   2   2   2   2   2   2
#     4  10  20  36  57  77 112 147 177 218 278 314
#     4  10  19  39  56  82 109 144 186 220 264 327
#     4  10  21  39  55  83 111 134 195 222 263 329
#     4   9  19  36  54  78 115 144 170 227 268 316
#     4  11  20  38  58  79 115 141 178 227 278 315
#     4   8  19  37  57  76 111 146 172 231 268 307
#     4  11  22  35  60  81 106 152 175 225 276 320
#     4   9  21  36  59  83 108 142 184 226 267 318
#
# _framework density 22.034914000000001
#
# number of rings (size 3 to 8) (size 9 to 14) (size 15 to 20)
#    0.750    1.500    2.500    0.375    1.750    1.500 
#    0.000    1.250    0.000    0.000    0.000    0.000 
#    0.000    0.000    0.000    0.000    0.000    0.000 
#
# Total GULP energy -89258.978030 kJ/mol
# GULP energy per Si atom -5578.686127 kJ/mol
# Density = 2.198476 g / cm^3
# Si number density = 22.034914 Si / 1000 Ang^3
#
#
#
# Elastic Constant Matrix: (Units=GPa)
#
#
# Indices 1 2 3 4 5 6 
#
# 1 52.4049 -2.1634 5.2666 -12.7132 -6.7133 11.1553
# 2 -2.1634 38.2126 18.9375 -0.6559 -4.9564 13.1643
# 3 5.2666 18.9375 52.6748 7.4579 -4.4289 15.1163
# 4 -12.7132 -0.6559 7.4579 34.9407 9.5249 -3.1394
# 5 -6.7133 -4.9564 -4.4289 9.5249 23.4192 -5.5924
# 6 11.1553 13.1643 15.1163 -3.1394 -5.5924 30.3665
#
#
#
# Elastic Compliance Matrix: (Units=1/GPa)
#
#
# Indices 1 2 3 4 5 6 
#
# 1 0.023729 0.006288 -0.003098 0.008032 0.002212 -0.008663
# 2 0.006288 0.036284 -0.010432 0.003210 0.003363 -0.011896
# 3 -0.003098 -0.010432 0.026875 -0.008770 0.003655 -0.007952
# 4 0.008032 0.003210 -0.008770 0.037282 -0.013508 0.001390
# 5 0.002212 0.003363 0.003655 -0.013508 0.051171 0.003938
# 6 -0.008663 -0.011896 -0.007952 0.001390 0.003938 0.046098
#
#
# Mechanical properties :
#
#
# Convention : Reuss Voigt Hill
#
# Bulk Modulus (GPa) = 13.81123 20.81933 17.31528
# Shear Modulus (GPa) = 19.22648 25.82872 22.52760
#
# Velocity S-wave (km/s) = 2.95709 3.42741 3.20090
# Velocity P-wave (km/s) = 4.23565 5.01316 4.64071
#
# Compressibility (1/GPa) = 0.07240487
#
# Stress axis : x y z
#
# Youngs Moduli (GPa) = 42.14256 27.56005 37.20862
#
# Poissons Ratio (x) = -0.17330 0.11529
# Poissons Ratio (y) = -0.26499 0.38814
# Poissons Ratio (z) = 0.13057 0.28749
#
# Static dielectric constant tensor:
#      x y z
#    x 1.846060 0.038080 -0.015830 
#    y 0.038080 1.775720 -0.010100 
#    z -0.015830 -0.010100 1.820740 
# 
# From -- ./inp_files/268442.got.cif
#   From: 2010.05.17/outbox.cif.g08.bks.cpg/sg2_135_cif.got.tgz:268442.got - 2010.06.03 11:33:40.
