data_PCOD9090059
_publ_section_title
;
Structure prediction by ZEFSAII (Michael W. Deem and Ramdas Pophale) SiO2 
 PCOD9090059
Probable space group: P -1
;
_chemical_formula_sum "Si O2"
_cell_formula_units_Z 14
_cell_length_a 17.737888
_cell_length_b 7.749784
_cell_length_c 10.288310
_cell_angle_alpha 87.451849
_cell_angle_beta 140.594002
_cell_angle_gamma 62.253659
_cell_volume 551.893825
_symmetry_space_group_name_H-M "P -1"
_symmetry_group_IT_number 2
_symmetry_cell_setting 'triclinic'
loop_
_space_group_symop_operation_xyz
x,y,z
-x,-y,-z
loop_
_atom_site_type_symbol
_atom_site_label
_atom_site_fract_x
_atom_site_fract_y
_atom_site_fract_z
Si Si1 0.140203 0.131207 0.211236
Si Si2 0.654978 0.424712 0.125636
Si Si3 0.842608 0.882760 0.266238
Si Si4 0.004211 0.834118 0.234819
Si Si5 0.669815 0.386549 0.645395
Si Si6 0.720058 0.675087 0.047837
Si Si7 0.760476 0.644376 0.802523
O O1 0.255416 0.161582 0.307474
O O2 0.271277 0.807711 0.389203
O O3 0.981798 0.270972 0.881828
O O4 0.996392 0.341992 0.128278
O O5 0.810396 0.316003 0.439685
O O6 0.607327 0.647422 0.967840
O O7 0.748989 0.171132 0.168242
O O8 0.500000 0.500000 0.000000
O O9 0.709334 0.868069 0.106151
O O10 0.893631 0.831813 0.183398
O O11 0.049655 0.631976 0.620133
O O12 0.857699 0.156841 0.996743
O O13 0.500000 0.500000 0.500000
O O14 0.649095 0.611593 0.587894
O O15 0.685017 0.735034 0.846261
#
# Coordination Sequence:
#
# PCOD9090059 Si02
#       7
#     2   2   2   2   2   2   2
#     4   9  22  37  62  90 123 159 205 251 298 353
#     4  11  23  39  62  93 123 158 201 251 311 358
#     4  10  19  38  63  91 117 156 205 249 305 365
#     4   9  19  42  59  89 124 155 199 252 299 355
#     4  10  21  38  61  88 120 161 205 244 298 361
#     4  10  20  36  67  87 118 164 201 244 307 367
#     4  11  19  39  62  89 123 163 200 249 302 358
#
# _framework density 25.367197000000001
#
# number of rings (size 3 to 8) (size 9 to 14) (size 15 to 20)
#    0.857    1.143    1.429    3.857    0.000    1.143 
#    5.143    0.000    3.143    0.000    0.000    0.000 
#    0.000    0.000    0.000    0.000    0.000    0.000 
#
# Total GULP energy -78252.141605 kJ/mol
# GULP energy per Si atom -5589.438686 kJ/mol
# Density = 2.530946 g / cm^3
# Si number density = 25.367197 Si / 1000 Ang^3
#
#
#
# Elastic Constant Matrix: (Units=GPa)
#
#
# Indices 1 2 3 4 5 6 
#
# 1 130.9926 35.3112 35.0320 17.8740 15.6704 24.6496
# 2 35.3112 104.8924 14.1391 22.2012 10.0275 38.5994
# 3 35.0320 14.1391 61.9046 5.3931 4.4086 10.4704
# 4 17.8740 22.2012 5.3931 26.0101 10.2119 10.8931
# 5 15.6704 10.0275 4.4086 10.2119 38.3188 8.7342
# 6 24.6496 38.5994 10.4704 10.8931 8.7342 53.4273
#
#
#
# Elastic Compliance Matrix: (Units=1/GPa)
#
#
# Indices 1 2 3 4 5 6 
#
# 1 0.010312 -0.001189 -0.004793 -0.003493 -0.001985 -0.001923
# 2 -0.001189 0.014854 -0.000607 -0.008533 0.000873 -0.008467
# 3 -0.004793 -0.000607 0.019172 0.000291 0.000106 -0.001184
# 4 -0.003493 -0.008533 0.000291 0.052595 -0.010079 -0.001357
# 5 -0.001985 0.000873 0.000106 -0.010079 0.029941 -0.002575
# 6 -0.001923 -0.008467 -0.001184 -0.001357 -0.002575 0.026651
#
#
# Mechanical properties :
#
#
# Convention : Reuss Voigt Hill
#
# Bulk Modulus (GPa) = 32.09111 51.86158 41.97634
# Shear Modulus (GPa) = 28.23414 37.77174 33.00294
#
# Velocity S-wave (km/s) = 3.33981 3.86294 3.61086
# Velocity P-wave (km/s) = 5.24886 6.35493 5.82819
#
# Compressibility (1/GPa) = 0.03116128
#
# Stress axis : x y z
#
# Youngs Moduli (GPa) = 96.97100 67.32246 52.15822
#
# Poissons Ratio (x) = 0.08003 0.25001
# Poissons Ratio (y) = 0.11527 0.03164
# Poissons Ratio (z) = 0.46482 0.04084
#
# Static dielectric constant tensor:
#      x y z
#    x 2.029600 0.012340 0.012470 
#    y 0.012340 2.071210 -0.047850 
#    z 0.012470 -0.047850 2.026650 
# 
# From -- ./inp_files/461261.got.cif
#   From: 2010.05.17/outbox.cif.g08.bks.cpg/sg2_231_cif.got.tgz:461261.got - 2010.06.03 11:33:40.
