data_PCOD9090049
_publ_section_title
;
Structure prediction by ZEFSAII (Michael W. Deem and Ramdas Pophale) SiO2 
 PCOD9090049
Probable space group: P -1
;
_chemical_formula_sum "Si O2"
_cell_formula_units_Z 16
_cell_length_a 11.706161
_cell_length_b 13.036267
_cell_length_c 10.899042
_cell_angle_alpha 36.207182
_cell_angle_beta 132.144338
_cell_angle_gamma 118.691550
_cell_volume 721.297185
_symmetry_space_group_name_H-M "P -1"
_symmetry_group_IT_number 2
_symmetry_cell_setting 'triclinic'
loop_
_space_group_symop_operation_xyz
x,y,z
-x,-y,-z
loop_
_atom_site_type_symbol
_atom_site_label
_atom_site_fract_x
_atom_site_fract_y
_atom_site_fract_z
Si Si1 0.457480 0.802297 0.912144
Si Si2 0.227905 0.400162 0.738681
Si Si3 0.405407 0.169175 0.420729
Si Si4 0.355161 0.635118 0.213123
Si Si5 0.076050 0.659795 0.178946
Si Si6 0.681332 0.292675 0.356284
Si Si7 0.838932 0.925463 0.859477
Si Si8 0.150945 0.439632 0.082020
O O1 0.355373 0.748755 0.772439
O O2 0.491297 0.995599 0.714017
O O3 0.611245 0.662784 0.153446
O O4 0.401057 0.802294 0.012476
O O5 0.124558 0.537457 0.446868
O O6 0.269711 0.516803 0.771755
O O7 0.161404 0.220738 0.894440
O O8 0.530380 0.281366 0.345190
O O9 0.311304 0.109019 0.295014
O O10 0.271642 0.259074 0.329400
O O11 0.500000 0.500000 0.500000
O O12 0.225266 0.668276 0.192543
O O13 0.272233 0.555979 0.113068
O O14 0.993882 0.854444 0.964618
O O15 0.943306 0.566654 0.105814
O O16 0.808747 0.133754 0.651911
O O17 0.000000 0.500000 0.000000
#
# Coordination Sequence:
#
# PCOD9090049 Si02
#       8
#     2   2   2   2   2   2   2   2
#     4  11  21  37  63  95 126 159 216 264 313 373
#     4  12  21  36  67  93 126 168 209 256 317 382
#     4  10  19  38  63  89 129 163 205 271 315 367
#     4  11  22  40  67  90 122 162 220 261 303 380
#     4  10  23  40  62  90 131 172 200 261 322 370
#     4  11  22  36  64  98 126 165 212 261 321 364
#     4  10  21  40  58  90 134 163 209 261 313 380
#     4   9  21  41  64  85 122 171 206 252 319 369
#
# _framework density 22.182258999999998
#
# number of rings (size 3 to 8) (size 9 to 14) (size 15 to 20)
#    0.000    1.500    3.750    2.250    3.500    0.500 
#    0.000   10.625    5.500    0.000    0.000    0.000 
#    0.000    0.000    0.000    0.000    0.000    0.000 
#
# Total GULP energy -89123.401397 kJ/mol
# GULP energy per Si atom -5570.212587 kJ/mol
# Density = 2.213177 g / cm^3
# Si number density = 22.182259 Si / 1000 Ang^3
#
#
#
# Elastic Constant Matrix: (Units=GPa)
#
#
# Indices 1 2 3 4 5 6 
#
# 1 123.9751 13.4901 57.3590 -2.9049 4.7451 3.9432
# 2 13.4901 32.5425 13.5473 3.9861 7.7066 8.3780
# 3 57.3590 13.5473 123.0154 3.1342 13.4963 2.4950
# 4 -2.9049 3.9861 3.1342 20.0588 1.8449 9.0413
# 5 4.7451 7.7066 13.4963 1.8449 41.8657 -3.1100
# 6 3.9432 8.3780 2.4950 9.0413 -3.1100 15.4551
#
#
#
# Elastic Compliance Matrix: (Units=1/GPa)
#
#
# Indices 1 2 3 4 5 6 
#
# 1 0.010727 -0.002223 -0.004837 0.004111 0.000342 -0.003087
# 2 -0.002223 0.040535 -0.002078 0.004094 -0.008592 -0.025195
# 3 -0.004837 -0.002078 0.010903 -0.002487 -0.002357 0.001581
# 4 0.004111 0.004094 -0.002487 0.071426 -0.006987 -0.046057
# 5 0.000342 -0.008592 -0.002357 -0.006987 0.027580 0.014588
# 6 -0.003087 -0.025195 0.001581 -0.046057 0.014588 0.108773
#
#
# Mechanical properties :
#
#
# Convention : Reuss Voigt Hill
#
# Bulk Modulus (GPa) = 22.78445 49.81399 36.29922
# Shear Modulus (GPa) = 16.50982 28.48503 22.49743
#
# Velocity S-wave (km/s) = 2.73111 3.58737 3.18812
# Velocity P-wave (km/s) = 4.49878 6.29797 5.47282
#
# Compressibility (1/GPa) = 0.04388958
#
# Stress axis : x y z
#
# Youngs Moduli (GPa) = 93.22064 24.66993 91.71755
#
# Poissons Ratio (x) = 0.05484 0.44361
# Poissons Ratio (y) = 0.20724 0.19060
# Poissons Ratio (z) = 0.45088 0.05127
#
# Static dielectric constant tensor:
#      x y z
#    x 1.854350 0.015790 -0.005680 
#    y 0.015790 1.889310 -0.015240 
#    z -0.005680 -0.015240 1.812680 
# 
# From -- ./inp_files/279298.got.cif
#   From: 2010.05.17/outbox.cif.g08.bks.cpg/sg2_140_cif.got.tgz:279298.got - 2010.06.03 11:33:40.
