data_PCOD9090175
_publ_section_title
;
Structure prediction by ZEFSAII (Michael W. Deem and Ramdas Pophale) SiO2 
 PCOD9090175
Probable space group: P -1
;
_chemical_formula_sum "Si O2"
_cell_formula_units_Z 16
_cell_length_a 14.632064
_cell_length_b 13.421377
_cell_length_c 7.566509
_cell_angle_alpha 55.300672
_cell_angle_beta 114.322114
_cell_angle_gamma 147.803080
_cell_volume 642.605893
_symmetry_space_group_name_H-M "P -1"
_symmetry_group_IT_number 2
_symmetry_cell_setting 'triclinic'
loop_
_space_group_symop_operation_xyz
x,y,z
-x,-y,-z
loop_
_atom_site_type_symbol
_atom_site_label
_atom_site_fract_x
_atom_site_fract_y
_atom_site_fract_z
Si Si1 0.033879 0.858242 0.511622
Si Si2 0.174078 0.725587 0.012212
Si Si3 0.459049 0.585510 0.153415
Si Si4 0.379605 0.615040 0.705008
Si Si5 0.216303 0.184076 0.625818
Si Si6 0.676166 0.377822 0.727999
Si Si7 0.086343 0.491145 0.709080
Si Si8 0.293567 0.922490 0.562059
O O1 0.157265 0.898455 0.445416
O O2 0.936221 0.883537 0.344052
O O3 0.874054 0.614675 0.680072
O O4 0.131900 0.998719 0.623196
O O5 0.292591 0.733014 0.173024
O O6 0.076505 0.705978 0.101967
O O7 0.293679 0.917393 0.780646
O O8 0.000000 0.500000 0.000000
O O9 0.326872 0.371443 0.378546
O O10 0.650570 0.731053 0.207905
O O11 0.428125 0.687487 0.115062
O O12 0.417206 0.551842 0.946536
O O13 0.388494 0.607470 0.507545
O O14 0.189967 0.482146 0.722593
O O15 0.528077 0.863278 0.598433
O O16 0.228261 0.723099 0.671579
O O17 0.000000 0.500000 0.500000
#
# Coordination Sequence:
#
# PCOD9090175 Si02
#       8
#     2   2   2   2   2   2   2   2
#     4  10  19  41  66  94 124 165 224 270 322 387
#     4  10  19  38  64  89 124 179 205 258 316 375
#     4  10  22  44  65  94 134 171 214 273 344 383
#     4  12  25  41  65 102 135 173 217 268 327 394
#     4   9  21  41  69  94 124 170 222 280 328 396
#     4  11  21  41  69  93 134 175 214 266 325 394
#     4  11  21  41  61  93 134 170 218 264 310 386
#     4  11  23  39  61  96 134 166 218 266 316 396
#
# _framework density 24.898620999999999
#
# number of rings (size 3 to 8) (size 9 to 14) (size 15 to 20)
#    0.000    1.500    3.750    2.625    1.750    0.500 
#    4.500   15.000    0.000    0.000    0.000    0.000 
#    0.000    0.000    0.000    0.000    0.000    0.000 
#
# Total GULP energy -89341.107325 kJ/mol
# GULP energy per Si atom -5583.819208 kJ/mol
# Density = 2.484195 g / cm^3
# Si number density = 24.898621 Si / 1000 Ang^3
#
#
#
# Elastic Constant Matrix: (Units=GPa)
#
#
# Indices 1 2 3 4 5 6 
#
# 1 96.0491 15.1126 20.9006 3.7972 8.5769 24.9308
# 2 15.1126 60.1483 37.4102 19.5264 7.9987 12.6122
# 3 20.9006 37.4102 117.2359 25.0002 -5.5331 16.9171
# 4 3.7972 19.5264 25.0002 32.8781 7.4549 7.9852
# 5 8.5769 7.9987 -5.5331 7.4549 28.3838 1.0572
# 6 24.9308 12.6122 16.9171 7.9852 1.0572 34.5283
#
#
#
# Elastic Compliance Matrix: (Units=1/GPa)
#
#
# Indices 1 2 3 4 5 6 
#
# 1 0.013664 -0.000899 -0.001820 0.003714 -0.004857 -0.009356
# 2 -0.000899 0.024449 -0.005695 -0.007996 -0.005499 -0.003474
# 3 -0.001820 -0.005695 0.012725 -0.007246 0.006589 -0.001366
# 4 0.003714 -0.007996 -0.007246 0.044386 -0.011711 -0.006117
# 5 -0.004857 -0.005499 0.006589 -0.011711 0.042472 0.003695
# 6 -0.009356 -0.003474 -0.001366 -0.006117 0.003695 0.038957
#
#
# Mechanical properties :
#
#
# Convention : Reuss Voigt Hill
#
# Bulk Modulus (GPa) = 29.40290 46.69781 38.05035
# Shear Modulus (GPa) = 24.41214 32.49203 28.45208
#
# Velocity S-wave (km/s) = 3.13463 3.61636 3.38408
# Velocity P-wave (km/s) = 4.99358 6.01941 5.53033
#
# Compressibility (1/GPa) = 0.03401025
#
# Stress axis : x y z
#
# Youngs Moduli (GPa) = 73.18338 40.90219 78.58704
#
# Poissons Ratio (x) = 0.03676 0.14305
# Poissons Ratio (y) = 0.06578 0.44752
# Poissons Ratio (z) = 0.13322 0.23292
#
# Static dielectric constant tensor:
#      x y z
#    x 2.039920 -0.014140 0.045230 
#    y -0.014140 1.804450 -0.094380 
#    z 0.045230 -0.094380 1.901790 
# 
# From -- ./inp_files/336179.got.cif
#   From: 2010.05.17/outbox.cif.g08.bks.cpg/sg2_169_cif.got.tgz:336179.got - 2010.06.03 11:33:40.
