data_PCOD9090596
_publ_section_title
;
Structure prediction by ZEFSAII (Michael W. Deem and Ramdas Pophale) SiO2 
 PCOD9090596
Probable space group: P -1
;
_chemical_formula_sum "Si O2"
_cell_formula_units_Z 16
_cell_length_a 9.049919
_cell_length_b 15.144762
_cell_length_c 12.706881
_cell_angle_alpha 129.269774
_cell_angle_beta 33.958856
_cell_angle_gamma 113.657664
_cell_volume 721.663331
_symmetry_space_group_name_H-M "P -1"
_symmetry_group_IT_number 2
_symmetry_cell_setting 'triclinic'
loop_
_space_group_symop_operation_xyz
x,y,z
-x,-y,-z
loop_
_atom_site_type_symbol
_atom_site_label
_atom_site_fract_x
_atom_site_fract_y
_atom_site_fract_z
Si Si1 0.544185 0.152511 0.154113
Si Si2 0.575459 0.061537 0.857955
Si Si3 0.730612 0.564861 0.939174
Si Si4 0.900706 0.935620 0.147660
Si Si5 0.306128 0.418886 0.582636
Si Si6 0.092226 0.254052 0.167898
Si Si7 0.437300 0.324525 0.651505
Si Si8 0.629873 0.922744 0.519005
O O1 0.435845 0.284398 0.361101
O O2 0.350253 0.065951 0.215824
O O3 0.655422 0.143631 0.962502
O O4 0.784193 0.074926 0.029139
O O5 0.697381 0.004986 0.631794
O O6 0.286939 0.159649 0.062814
O O7 0.789588 0.638005 0.857824
O O8 0.014715 0.471371 0.737838
O O9 0.500000 0.500000 0.000000
O O10 0.636575 0.644019 0.159977
O O11 0.767535 0.946441 0.348752
O O12 0.702298 0.037905 0.273976
O O13 0.896694 0.816313 0.001346
O O14 0.500000 0.500000 0.500000
O O15 0.305670 0.419529 0.710436
O O16 0.771229 0.295770 0.422659
O O17 0.315343 0.216768 0.606435
#
# Coordination Sequence:
#
# PCOD9090596 Si02
#       8
#     2   2   2   2   2   2   2   2
#     4  11  22  41  66 101 136 183 226 287 350 413
#     4  10  23  40  65 101 142 172 224 284 364 406
#     4  12  29  48  69 106 138 180 242 292 347 408
#     4  10  19  38  67  98 136 171 233 274 338 425
#     4  12  25  48  74  99 139 193 237 283 342 416
#     4  11  22  45  71 101 135 182 227 286 346 416
#     4  12  23  44  75  97 135 184 235 283 344 413
#     4  10  20  37  66 103 133 178 219 284 342 419
#
# _framework density 22.171002000000001
#
# number of rings (size 3 to 8) (size 9 to 14) (size 15 to 20)
#    0.000    1.000    5.000    1.125    1.750    4.000 
#    2.250    0.000    0.000    0.000    0.000    0.000 
#    0.000    0.000    0.000    0.000    0.000    0.000 
#
# Total GULP energy -89124.161739 kJ/mol
# GULP energy per Si atom -5570.260109 kJ/mol
# Density = 2.212054 g / cm^3
# Si number density = 22.171002 Si / 1000 Ang^3
#
#
#
# Elastic Constant Matrix: (Units=GPa)
#
#
# Indices 1 2 3 4 5 6 
#
# 1 109.1300 30.3903 36.4700 -1.1774 -0.8949 -7.0596
# 2 30.3903 105.1913 29.2358 4.7039 -6.5723 -11.5035
# 3 36.4700 29.2358 98.9352 1.9826 13.4184 -8.6321
# 4 -1.1774 4.7039 1.9826 17.3182 -5.5688 1.9075
# 5 -0.8949 -6.5723 13.4184 -5.5688 36.9924 0.4977
# 6 -7.0596 -11.5035 -8.6321 1.9075 0.4977 28.5599
#
#
#
# Elastic Compliance Matrix: (Units=1/GPa)
#
#
# Indices 1 2 3 4 5 6 
#
# 1 0.011045 -0.002113 -0.003646 0.002168 0.001532 0.000606
# 2 -0.002113 0.011487 -0.002604 -0.002539 0.002506 0.003443
# 3 -0.003646 -0.002604 0.013292 -0.003219 -0.005889 0.002385
# 4 0.002168 -0.002539 -0.003219 0.062909 0.010318 -0.005841
# 5 0.001532 0.002506 -0.005889 0.010318 0.031226 -0.001625
# 6 0.000606 0.003443 0.002385 -0.005841 -0.001625 0.037690
#
#
# Mechanical properties :
#
#
# Convention : Reuss Voigt Hill
#
# Bulk Modulus (GPa) = 52.35715 56.16098 54.25906
# Shear Modulus (GPa) = 26.21332 31.05145 28.63238
#
# Velocity S-wave (km/s) = 3.44222 3.74644 3.59755
# Velocity P-wave (km/s) = 6.28211 6.64080 6.46395
#
# Compressibility (1/GPa) = 0.01909959
#
# Stress axis : x y z
#
# Youngs Moduli (GPa) = 90.53687 87.05215 75.23084
#
# Poissons Ratio (x) = 0.18392 0.27427
# Poissons Ratio (y) = 0.19128 0.19592
# Poissons Ratio (z) = 0.33007 0.22671
#
# Static dielectric constant tensor:
#      x y z
#    x 1.845730 0.074370 -0.030820 
#    y 0.074370 1.835430 -0.048880 
#    z -0.030820 -0.048880 1.875860 
# 
# From -- ./inp_files/399513.got.cif
#   From: 2010.05.17/outbox.cif.g08.bks.cpg/sg2_200_cif.got.tgz:399513.got - 2010.06.03 11:33:40.
