data_PCOD9090877
_publ_section_title
;
Structure prediction by ZEFSAII (Michael W. Deem and Ramdas Pophale) SiO2 
 PCOD9090877
Probable space group: P -1
;
_chemical_formula_sum "Si O2"
_cell_formula_units_Z 12
_cell_length_a 7.131461
_cell_length_b 16.169756
_cell_length_c 9.469979
_cell_angle_alpha 32.814882
_cell_angle_beta 88.187087
_cell_angle_gamma 79.927316
_cell_volume 568.894404
_symmetry_space_group_name_H-M "P -1"
_symmetry_group_IT_number 2
_symmetry_cell_setting 'triclinic'
loop_
_space_group_symop_operation_xyz
x,y,z
-x,-y,-z
loop_
_atom_site_type_symbol
_atom_site_label
_atom_site_fract_x
_atom_site_fract_y
_atom_site_fract_z
Si Si1 0.666110 0.473036 0.220432
Si Si2 0.164226 0.388849 0.559863
Si Si3 0.881819 0.212105 0.813136
Si Si4 0.638881 0.978327 0.166393
Si Si5 0.476084 0.722787 0.099091
Si Si6 0.720863 0.612349 0.740692
O O1 0.795338 0.336644 0.512009
O O2 0.565858 0.630231 0.090053
O O3 0.495170 0.404081 0.263413
O O4 0.777595 0.523197 0.014160
O O5 0.378703 0.361970 0.656845
O O6 0.158502 0.450933 0.312273
O O7 0.000000 0.500000 0.500000
O O8 0.100593 0.223779 0.805509
O O9 0.744184 0.280495 0.855049
O O10 0.821100 0.050441 0.024036
O O11 0.704869 0.798533 0.473329
O O12 0.500000 0.000000 0.000000
O O13 0.535684 0.093199 0.133814
#
# Coordination Sequence:
#
# PCOD9090877 Si02
#       6
#     2   2   2   2   2   2
#     4  11  20  38  61  87 121 150 191 247 287 339
#     4  12  21  35  64  89 111 154 202 238 281 345
#     4  10  21  35  64  84 113 158 191 240 280 342
#     4  10  19  39  61  84 119 152 194 239 286 344
#     4  10  21  39  62  85 117 149 204 233 283 347
#     4  11  23  37  60  92 117 153 194 236 301 343
#
# _framework density 21.093544000000001
#
# number of rings (size 3 to 8) (size 9 to 14) (size 15 to 20)
#    1.000    0.333    6.667    1.500    0.000    2.000 
#    0.000    0.000    0.000    1.000    0.000    0.000 
#    0.000    0.000    0.000    0.000    0.000    0.000 
#
# Total GULP energy -66899.951207 kJ/mol
# GULP energy per Si atom -5574.995934 kJ/mol
# Density = 2.104553 g / cm^3
# Si number density = 21.093544 Si / 1000 Ang^3
#
#
#
# Elastic Constant Matrix: (Units=GPa)
#
#
# Indices 1 2 3 4 5 6 
#
# 1 67.2106 -4.6155 4.3140 6.3403 -26.3497 2.7472
# 2 -4.6155 102.2486 56.9645 -6.3630 -17.6359 -8.6191
# 3 4.3140 56.9645 104.4684 2.4895 -25.0562 -9.2755
# 4 6.3403 -6.3630 2.4895 39.4222 -2.3636 -11.4264
# 5 -26.3497 -17.6359 -25.0562 -2.3636 31.5892 -1.6043
# 6 2.7472 -8.6191 -9.2755 -11.4264 -1.6043 27.8061
#
#
#
# Elastic Compliance Matrix: (Units=1/GPa)
#
#
# Indices 1 2 3 4 5 6 
#
# 1 0.024990 0.003650 0.003100 -0.002022 0.025207 0.000320
# 2 0.003650 0.015433 -0.006625 0.003967 0.006918 0.004243
# 3 0.003100 -0.006625 0.016220 -0.000907 0.011856 0.003362
# 4 -0.002022 0.003967 -0.000907 0.030572 0.002800 0.013851
# 5 0.025207 0.006918 0.011856 0.002800 0.066596 0.008602
# 6 0.000320 0.004243 0.003362 0.013851 0.008602 0.044557
#
#
# Mechanical properties :
#
#
# Convention : Reuss Voigt Hill
#
# Bulk Modulus (GPa) = 17.57639 43.02816 30.30227
# Shear Modulus (GPa) = 23.03273 34.24781 28.64027
#
# Velocity S-wave (km/s) = 3.30803 4.03378 3.68880
# Velocity P-wave (km/s) = 4.78972 6.49140 5.70437
#
# Compressibility (1/GPa) = 0.05689450
#
# Stress axis : x y z
#
# Youngs Moduli (GPa) = 40.01560 64.79465 61.65076
#
# Poissons Ratio (x) = -0.23648 -0.19113
# Poissons Ratio (y) = -0.14605 0.40842
# Poissons Ratio (z) = -0.12406 0.42925
#
# Static dielectric constant tensor:
#      x y z
#    x 1.800110 0.013690 -0.025570 
#    y 0.013690 1.884450 -0.038270 
#    z -0.025570 -0.038270 1.730870 
# 
# From -- ./inp_files/214003.got.cif
#   From: 2010.05.17/outbox.cif.g08.bks.cpg/sg2_108_cif.got.tgz:214003.got - 2010.06.03 11:33:40.
