data_PCOD9090106
_publ_section_title
;
Structure prediction by ZEFSAII (Michael W. Deem and Ramdas Pophale) SiO2 
 PCOD9090106
Probable space group: P -1
;
_chemical_formula_sum "Si O2"
_cell_formula_units_Z 16
_cell_length_a 5.335766
_cell_length_b 12.212930
_cell_length_c 13.531403
_cell_angle_alpha 81.498915
_cell_angle_beta 97.485268
_cell_angle_gamma 47.077502
_cell_volume 605.271576
_symmetry_space_group_name_H-M "P -1"
_symmetry_group_IT_number 2
_symmetry_cell_setting 'triclinic'
loop_
_space_group_symop_operation_xyz
x,y,z
-x,-y,-z
loop_
_atom_site_type_symbol
_atom_site_label
_atom_site_fract_x
_atom_site_fract_y
_atom_site_fract_z
Si Si1 0.337136 0.492250 0.778681
Si Si2 0.866884 0.366002 0.978722
Si Si3 0.786361 0.657574 0.335965
Si Si4 0.791247 0.965785 0.946427
Si Si5 0.086034 0.784355 0.650135
Si Si6 0.476533 0.637905 0.508074
Si Si7 0.551109 0.961210 0.279477
Si Si8 0.600384 0.748781 0.831694
O O1 0.724039 0.411600 0.853104
O O2 0.372388 0.354296 0.766956
O O3 0.211638 0.617036 0.671802
O O4 0.989708 0.617449 0.815099
O O5 0.500000 0.500000 0.000000
O O6 0.941155 0.217910 0.032066
O O7 0.233410 0.313789 0.039728
O O8 0.534681 0.697238 0.408194
O O9 0.157588 0.474190 0.392913
O O10 0.842168 0.772923 0.335511
O O11 0.653949 0.036724 0.821143
O O12 0.500000 0.000000 0.000000
O O13 0.000000 0.000000 0.000000
O O14 0.174517 0.789601 0.542224
O O15 0.338889 0.750282 0.757551
O O16 0.691000 0.938106 0.649869
O O17 0.500000 0.500000 0.500000
O O18 0.589593 0.071810 0.219176
#
# Coordination Sequence:
#
# PCOD9090106 Si02
#       8
#     2   2   2   2   2   2   2   2
#     4  10  19  38  63  95 125 175 227 270 337 398
#     4   9  20  40  63  98 134 176 234 278 332 410
#     4  11  23  42  67  97 131 169 230 285 343 416
#     4  11  25  46  67  99 147 191 233 290 349 415
#     4  11  22  41  68  92 134 180 221 286 343 415
#     4  11  24  43  68  97 130 168 223 289 354 413
#     4  10  25  41  66  97 133 178 229 281 346 419
#     4   9  20  40  60  92 134 174 215 277 341 398
#
# _framework density 26.434417
#
# number of rings (size 3 to 8) (size 9 to 14) (size 15 to 20)
#    0.000    1.750    2.500    1.500    3.500    3.000 
#    4.500    1.250    0.000    0.000    0.000    0.000 
#    0.000    0.000    0.000    0.000    0.000    0.000 
#
# Total GULP energy -89224.013019 kJ/mol
# GULP energy per Si atom -5576.500814 kJ/mol
# Density = 2.637425 g / cm^3
# Si number density = 26.434417 Si / 1000 Ang^3
#
#
#
# Elastic Constant Matrix: (Units=GPa)
#
#
# Indices 1 2 3 4 5 6 
#
# 1 85.9122 29.4281 3.6235 11.1384 14.5729 7.7102
# 2 29.4281 133.4009 22.8562 -5.8206 2.3784 19.5635
# 3 3.6235 22.8562 35.8434 11.2251 8.3154 -8.0826
# 4 11.1384 -5.8206 11.2251 46.9567 1.4033 -7.6985
# 5 14.5729 2.3784 8.3154 1.4033 26.5410 10.0535
# 6 7.7102 19.5635 -8.0826 -7.6985 10.0535 46.0405
#
#
#
# Elastic Compliance Matrix: (Units=1/GPa)
#
#
# Indices 1 2 3 4 5 6 
#
# 1 0.015184 -0.004634 0.005733 -0.004945 -0.010147 0.001821
# 2 -0.004634 0.011580 -0.011522 0.003883 0.007633 -0.007185
# 3 0.005733 -0.011522 0.046502 -0.010783 -0.021820 0.015061
# 4 -0.004945 0.003883 -0.010783 0.025510 0.004153 0.000644
# 5 -0.010147 0.007633 -0.021820 0.004153 0.055549 -0.016810
# 6 0.001821 -0.007185 0.015061 0.000644 -0.016810 0.030890
#
#
# Mechanical properties :
#
#
# Convention : Reuss Voigt Hill
#
# Bulk Modulus (GPa) = 19.07680 40.77468 29.92574
# Shear Modulus (GPa) = 22.36792 37.19089 29.77940
#
# Velocity S-wave (km/s) = 2.91205 3.75495 3.36004
# Velocity P-wave (km/s) = 4.30570 5.85302 5.13794
#
# Compressibility (1/GPa) = 0.05241969
#
# Stress axis : x y z
#
# Youngs Moduli (GPa) = 65.85893 86.35877 21.50425
#
# Poissons Ratio (x) = 0.40017 -0.12329
# Poissons Ratio (y) = 0.30518 0.24778
# Poissons Ratio (z) = -0.37758 0.99506
#
# Static dielectric constant tensor:
#      x y z
#    x 2.169390 -0.038850 0.046170 
#    y -0.038850 2.067010 -0.010610 
#    z 0.046170 -0.010610 2.318460 
# 
# From -- ./inp_files/97899.got.cif
#   From: 2010.05.17/outbox.cif.g08.bks.cpg/sg2_49_cif.got.tgz:97899.got - 2010.06.03 11:33:40.
