data_PCOD9090734
_publ_section_title
;
Structure prediction by ZEFSAII (Michael W. Deem and Ramdas Pophale) SiO2 
 PCOD9090734
Probable space group: P -1
;
_chemical_formula_sum "Si O2"
_cell_formula_units_Z 12
_cell_length_a 9.968617
_cell_length_b 7.538564
_cell_length_c 16.869594
_cell_angle_alpha 129.234723
_cell_angle_beta 147.749135
_cell_angle_gamma 71.483246
_cell_volume 445.703340
_symmetry_space_group_name_H-M "P -1"
_symmetry_group_IT_number 2
_symmetry_cell_setting 'triclinic'
loop_
_space_group_symop_operation_xyz
x,y,z
-x,-y,-z
loop_
_atom_site_type_symbol
_atom_site_label
_atom_site_fract_x
_atom_site_fract_y
_atom_site_fract_z
Si Si1 0.776729 0.204078 0.250035
Si Si2 0.567499 0.148291 0.418839
Si Si3 0.855416 0.682924 0.325207
Si Si4 0.904440 0.014874 0.747060
Si Si5 0.248797 0.593158 0.021854
Si Si6 0.677384 0.933002 0.887676
O O1 0.621362 0.126219 0.235251
O O2 0.848763 0.496110 0.341004
O O3 0.023122 0.141242 0.327638
O O4 0.500000 0.000000 0.000000
O O5 0.917067 0.306191 0.623383
O O6 0.430550 0.216548 0.292831
O O7 0.426311 0.823254 0.243960
O O8 0.419498 0.162388 0.428737
O O9 0.509313 0.565555 0.105406
O O10 0.000000 0.000000 0.500000
O O11 0.995154 0.304910 0.841655
O O12 0.126321 0.097082 0.957560
O O13 0.152247 0.757277 0.965708
#
# Coordination Sequence:
#
# PCOD9090734 Si02
#       6
#     2   2   2   2   2   2
#     4  10  20  36  59  84 112 151 186 231 280 330
#     4   9  21  34  58  84 112 151 182 235 283 323
#     4  10  19  39  56  86 113 151 186 230 280 338
#     4  11  19  38  56  83 120 142 188 236 277 334
#     4   9  19  35  59  80 111 149 188 225 271 337
#     4   9  20  34  58  87 106 152 196 220 276 337
#
# _framework density 26.923739000000001
#
# number of rings (size 3 to 8) (size 9 to 14) (size 15 to 20)
#    1.000    1.333    3.333    1.000    0.000    2.000 
#    0.000    0.000    0.000    1.000    0.000    0.000 
#    0.000    0.000    0.000    0.000    0.000    0.000 
#
# Total GULP energy -67053.137597 kJ/mol
# GULP energy per Si atom -5587.761466 kJ/mol
# Density = 2.686246 g / cm^3
# Si number density = 26.923739 Si / 1000 Ang^3
#
#
#
# Elastic Constant Matrix: (Units=GPa)
#
#
# Indices 1 2 3 4 5 6 
#
# 1 113.3988 22.8548 31.1900 -6.8705 58.4819 -12.9683
# 2 22.8548 96.9965 23.9505 9.9123 16.1619 19.7145
# 3 31.1900 23.9505 60.5094 -12.6273 25.6879 -3.5949
# 4 -6.8705 9.9123 -12.6273 55.7607 -3.9601 11.4376
# 5 58.4819 16.1619 25.6879 -3.9601 56.7900 -5.0190
# 6 -12.9683 19.7145 -3.5949 11.4376 -5.0190 43.0704
#
#
#
# Elastic Compliance Matrix: (Units=1/GPa)
#
#
# Indices 1 2 3 4 5 6 
#
# 1 0.019854 -0.002265 -0.000952 0.000337 -0.018936 0.004639
# 2 -0.002265 0.013757 -0.005204 -0.002520 0.000000 -0.006744
# 3 -0.000952 -0.005204 0.023524 0.005226 -0.007657 0.001778
# 4 0.000337 -0.002520 0.005226 0.020324 -0.000913 -0.003813
# 5 -0.018936 0.000000 -0.007657 -0.000913 0.040386 -0.001392
# 6 0.004639 -0.006744 0.001778 -0.003813 -0.001392 0.028700
#
#
# Mechanical properties :
#
#
# Convention : Reuss Voigt Hill
#
# Bulk Modulus (GPa) = 24.81882 47.43280 36.12581
# Shear Modulus (GPa) = 28.27778 43.98484 36.13131
#
# Velocity S-wave (km/s) = 3.24434 4.04627 3.66729
# Velocity P-wave (km/s) = 4.82416 6.28374 5.60169
#
# Compressibility (1/GPa) = 0.04029201
#
# Stress axis : x y z
#
# Youngs Moduli (GPa) = 50.36887 72.69268 42.50962
#
# Poissons Ratio (x) = 0.16464 0.04048
# Poissons Ratio (y) = 0.11408 0.22121
# Poissons Ratio (z) = 0.04797 0.37828
#
# Static dielectric constant tensor:
#      x y z
#    x 2.204770 -0.003570 -0.069840 
#    y -0.003570 2.109930 -0.075160 
#    z -0.069840 -0.075160 2.059010 
# 
# From -- ./inp_files/301455.got.cif
#   From: 2010.05.17/outbox.cif.g08.bks.cpg/sg2_151_cif.got.tgz:301455.got - 2010.06.03 11:33:40.
