data_PCOD9090164
_publ_section_title
;
Structure prediction by ZEFSAII (Michael W. Deem and Ramdas Pophale) SiO2 
 PCOD9090164
Probable space group: P -1
;
_chemical_formula_sum "Si O2"
_cell_formula_units_Z 14
_cell_length_a 12.153310
_cell_length_b 9.133694
_cell_length_c 7.677084
_cell_angle_alpha 101.111267
_cell_angle_beta 112.823308
_cell_angle_gamma 46.631722
_cell_volume 567.541778
_symmetry_space_group_name_H-M "P -1"
_symmetry_group_IT_number 2
_symmetry_cell_setting 'triclinic'
loop_
_space_group_symop_operation_xyz
x,y,z
-x,-y,-z
loop_
_atom_site_type_symbol
_atom_site_label
_atom_site_fract_x
_atom_site_fract_y
_atom_site_fract_z
Si Si1 0.833840 0.581893 0.493444
Si Si2 0.321141 0.501480 0.081664
Si Si3 0.154364 0.917946 0.193871
Si Si4 0.311277 0.894633 0.726463
Si Si5 0.654865 0.979367 0.600033
Si Si6 0.132236 0.756039 0.676633
Si Si7 0.312945 0.200021 0.901300
O O1 0.790145 0.736762 0.648290
O O2 0.845641 0.396635 0.481466
O O3 0.708707 0.716683 0.287843
O O4 0.000000 0.500000 0.500000
O O5 0.258032 0.677859 0.220603
O O6 0.514756 0.317163 0.152578
O O7 0.249154 0.621658 0.882376
O O8 0.260063 0.381241 0.032415
O O9 0.285740 0.933992 0.220264
O O10 0.049044 0.082840 0.321230
O O11 0.000000 0.000000 0.000000
O O12 0.188301 0.864196 0.661142
O O13 0.349803 0.927937 0.566030
O O14 0.237162 0.099847 0.831198
O O15 0.500000 0.000000 0.500000
O O16 0.500000 0.000000 0.000000
#
# Coordination Sequence:
#
# PCOD9090164 Si02
#       7
#     2   2   2   2   2   2   2
#     4  10  19  38  64  88 121 169 212 261 316 381
#     4   9  19  38  63  90 127 165 203 258 316 385
#     4  10  22  42  63  92 131 165 208 258 328 376
#     4  10  21  39  64  93 121 164 219 262 310 378
#     4  11  25  44  64  90 130 170 214 268 321 379
#     4  10  20  38  66  93 125 164 209 261 317 382
#     4   8  17  36  58  86 125 158 208 254 309 383
#
# _framework density 24.667787000000001
#
# number of rings (size 3 to 8) (size 9 to 14) (size 15 to 20)
#    0.000    2.286    1.429    0.429    2.000    1.143 
#   20.571    0.714    0.000    0.000    0.000    0.000 
#    0.000    0.000    0.000    0.000    0.000    0.000 
#
# Total GULP energy -77974.046824 kJ/mol
# GULP energy per Si atom -5569.574773 kJ/mol
# Density = 2.461164 g / cm^3
# Si number density = 24.667787 Si / 1000 Ang^3
#
#
#
# Elastic Constant Matrix: (Units=GPa)
#
#
# Indices 1 2 3 4 5 6 
#
# 1 146.0741 50.0470 26.1383 3.8918 32.9202 38.6139
# 2 50.0470 160.5447 18.7601 44.0330 22.0128 41.4261
# 3 26.1383 18.7601 59.3489 -11.4418 10.9186 13.7013
# 4 3.8918 44.0330 -11.4418 36.3456 12.4949 22.8063
# 5 32.9202 22.0128 10.9186 12.4949 40.4733 6.2466
# 6 38.6139 41.4261 13.7013 22.8063 6.2466 48.4964
#
#
#
# Elastic Compliance Matrix: (Units=1/GPa)
#
#
# Indices 1 2 3 4 5 6 
#
# 1 0.015474 -0.005138 0.006975 0.024470 -0.016246 -0.019317
# 2 -0.005138 0.013076 -0.008907 -0.023816 0.005916 0.005876
# 3 0.006975 -0.008907 0.034699 0.044021 -0.019783 -0.025903
# 4 0.024470 -0.023816 0.044021 0.123824 -0.047218 -0.063725
# 5 -0.016246 0.005916 -0.019783 -0.047218 0.050108 0.029222
# 6 -0.019317 0.005876 -0.025903 -0.063725 0.029222 0.064504
#
#
# Mechanical properties :
#
#
# Convention : Reuss Voigt Hill
#
# Bulk Modulus (GPa) = 20.36255 61.76206 41.06230
# Shear Modulus (GPa) = 15.05141 43.13122 29.09132
#
# Velocity S-wave (km/s) = 2.47283 4.18602 3.43785
# Velocity P-wave (km/s) = 4.05288 6.96101 5.69568
#
# Compressibility (1/GPa) = 0.04910977
#
# Stress axis : x y z
#
# Youngs Moduli (GPa) = 64.62457 76.47502 28.81929
#
# Poissons Ratio (x) = 0.39295 -0.20102
# Poissons Ratio (y) = 0.33206 0.25668
# Poissons Ratio (z) = -0.45077 0.68114
#
# Static dielectric constant tensor:
#      x y z
#    x 1.972460 -0.024000 0.007820 
#    y -0.024000 1.965610 0.061990 
#    z 0.007820 0.061990 2.121620 
# 
# From -- ./inp_files/239860.got.cif
#   From: 2010.05.17/outbox.cif.g08.bks.cpg/sg2_120_cif.got.tgz:239860.got - 2010.06.03 11:33:40.
