data_PCOD9090571
_publ_section_title
;
Structure prediction by ZEFSAII (Michael W. Deem and Ramdas Pophale) SiO2 
 PCOD9090571
Probable space group: P -1
;
_chemical_formula_sum "Si O2"
_cell_formula_units_Z 16
_cell_length_a 8.913896
_cell_length_b 7.677739
_cell_length_c 14.247583
_cell_angle_alpha 42.669157
_cell_angle_beta 96.584793
_cell_angle_gamma 103.408560
_cell_volume 640.552833
_symmetry_space_group_name_H-M "P -1"
_symmetry_group_IT_number 2
_symmetry_cell_setting 'triclinic'
loop_
_space_group_symop_operation_xyz
x,y,z
-x,-y,-z
loop_
_atom_site_type_symbol
_atom_site_label
_atom_site_fract_x
_atom_site_fract_y
_atom_site_fract_z
Si Si1 0.461667 0.225753 0.660984
Si Si2 0.625416 0.553941 0.070016
Si Si3 0.146234 0.812983 0.810851
Si Si4 0.876390 0.013895 0.068721
Si Si5 0.991393 0.400929 0.679165
Si Si6 0.552734 0.862899 0.650953
Si Si7 0.095068 0.947414 0.379752
Si Si8 0.311917 0.832213 0.144703
O O1 0.500000 0.500000 0.500000
O O2 0.546847 0.243870 0.760371
O O3 0.282658 0.081566 0.714082
O O4 0.529267 0.035203 0.671827
O O5 0.765287 0.413266 0.115374
O O6 0.543040 0.425367 0.210959
O O7 0.500000 0.500000 0.000000
O O8 0.683006 0.864811 0.948751
O O9 0.065941 0.801854 0.911127
O O10 0.022509 0.860676 0.708392
O O11 0.867982 0.718605 0.223122
O O12 0.726412 0.127876 0.982958
O O13 0.000000 0.000000 0.000000
O O14 0.927328 0.219989 0.654429
O O15 0.842766 0.353816 0.753511
O O16 0.048628 0.705885 0.542732
O O17 0.500000 0.000000 0.500000
O O18 0.735275 0.886275 0.652211
#
# Coordination Sequence:
#
# PCOD9090571 Si02
#       8
#     2   2   2   2   2   2   2   2
#     4  11  23  41  66  97 133 177 231 278 338 413
#     4  11  22  45  66  92 141 186 222 270 348 418
#     4  10  22  40  66  96 129 180 229 269 341 414
#     4   9  21  37  61 100 131 161 226 286 335 388
#     4   9  18  35  64  96 124 170 220 274 340 390
#     4  11  25  43  67  98 134 184 225 278 345 405
#     4  10  19  38  67  92 127 174 226 273 335 400
#     4  11  20  40  66  91 137 174 222 278 344 396
#
# _framework density 24.978421999999998
#
# number of rings (size 3 to 8) (size 9 to 14) (size 15 to 20)
#    0.000    1.750    3.750    0.750    5.250    0.500 
#    2.250   12.500    2.750    0.000    0.000    0.000 
#    0.000    0.000    0.000    0.000    0.000    0.000 
#
# Total GULP energy -89396.857925 kJ/mol
# GULP energy per Si atom -5587.303620 kJ/mol
# Density = 2.492157 g / cm^3
# Si number density = 24.978422 Si / 1000 Ang^3
#
#
#
# Elastic Constant Matrix: (Units=GPa)
#
#
# Indices 1 2 3 4 5 6 
#
# 1 147.3767 28.4492 74.9385 0.4830 14.1420 26.9032
# 2 28.4492 54.5272 38.8057 0.0788 -0.6739 -0.3546
# 3 74.9385 38.8057 154.2266 12.0564 14.5427 7.1347
# 4 0.4830 0.0788 12.0564 33.4778 9.7188 8.5946
# 5 14.1420 -0.6739 14.5427 9.7188 47.1273 3.9183
# 6 26.9032 -0.3546 7.1347 8.5946 3.9183 37.4657
#
#
#
# Elastic Compliance Matrix: (Units=1/GPa)
#
#
# Indices 1 2 3 4 5 6 
#
# 1 0.011279 -0.002740 -0.004538 0.004173 -0.002220 -0.007986
# 2 -0.002740 0.023314 -0.004914 0.000349 0.002368 0.002797
# 3 -0.004538 -0.004914 0.010239 -0.003826 -0.001268 0.002273
# 4 0.004173 0.000349 -0.003826 0.035604 -0.006599 -0.009742
# 5 -0.002220 0.002368 -0.001268 -0.006599 0.023596 0.000904
# 6 -0.007986 0.002797 0.002273 -0.009742 0.000904 0.034160
#
#
# Mechanical properties :
#
#
# Convention : Reuss Voigt Hill
#
# Bulk Modulus (GPa) = 48.91034 71.16860 60.03947
# Shear Modulus (GPa) = 29.51702 37.87664 33.69683
#
# Velocity S-wave (km/s) = 3.44132 3.89829 3.67691
# Velocity P-wave (km/s) = 5.95095 6.98685 6.48960
#
# Compressibility (1/GPa) = 0.02044557
#
# Stress axis : x y z
#
# Youngs Moduli (GPa) = 88.65839 42.89328 97.66324
#
# Poissons Ratio (x) = 0.11754 0.44324
# Poissons Ratio (y) = 0.24295 0.47996
# Poissons Ratio (z) = 0.40238 0.21080
#
# Static dielectric constant tensor:
#      x y z
#    x 1.997830 0.076610 -0.013360 
#    y 0.076610 2.118560 0.116950 
#    z -0.013360 0.116950 1.992640 
# 
# From -- ./inp_files/494306.got.cif
#   From: 2010.05.17/outbox.cif.g08.bks.cpg/sg2_248_cif.got.tgz:494306.got - 2010.06.03 11:33:40.
