data_PCOD9090313
_publ_section_title
;
Structure prediction by ZEFSAII (Michael W. Deem and Ramdas Pophale) SiO2 
 PCOD9090313
Probable space group: P -1
;
_chemical_formula_sum "Si O2"
_cell_formula_units_Z 16
_cell_length_a 7.910769
_cell_length_b 13.861791
_cell_length_c 11.880377
_cell_angle_alpha 144.726266
_cell_angle_beta 83.657034
_cell_angle_gamma 112.811780
_cell_volume 639.427151
_symmetry_space_group_name_H-M "P -1"
_symmetry_group_IT_number 2
_symmetry_cell_setting 'triclinic'
loop_
_space_group_symop_operation_xyz
x,y,z
-x,-y,-z
loop_
_atom_site_type_symbol
_atom_site_label
_atom_site_fract_x
_atom_site_fract_y
_atom_site_fract_z
Si Si1 0.083005 0.789419 0.580069
Si Si2 0.851640 0.770570 0.785603
Si Si3 0.037357 0.324911 0.825000
Si Si4 0.869025 0.021519 0.736905
Si Si5 0.751534 0.457950 0.673028
Si Si6 0.554276 0.868841 0.793739
Si Si7 0.596410 0.679296 0.264207
Si Si8 0.340001 0.016189 0.602404
O O1 0.086783 0.598376 0.356790
O O2 0.307828 0.957542 0.680382
O O3 0.970901 0.712702 0.635038
O O4 0.972571 0.904517 0.660198
O O5 0.825492 0.661231 0.799912
O O6 0.646723 0.754403 0.744025
O O7 0.000000 0.000000 0.000000
O O8 0.253346 0.397699 0.827202
O O9 0.004456 0.218928 0.847015
O O10 0.872752 0.151659 0.592669
O O11 0.000000 0.500000 0.000000
O O12 0.734574 0.022422 0.847212
O O13 0.713801 0.874235 0.516143
O O14 0.620481 0.295578 0.429545
O O15 0.611199 0.432544 0.764075
O O16 0.500000 0.000000 0.000000
O O17 0.604618 0.766211 0.222907
O O18 0.500000 0.000000 0.500000
#
# Coordination Sequence:
#
# PCOD9090313 Si02
#       8
#     2   2   2   2   2   2   2   2
#     4  11  20  39  66  90 121 165 212 259 316 377
#     4  11  25  45  62  92 131 168 211 266 321 377
#     4  11  22  39  60  94 131 164 209 255 314 377
#     4   9  19  38  62  88 123 169 203 251 317 374
#     4  11  23  40  67  97 122 165 220 259 323 384
#     4  10  22  41  65  93 123 166 212 268 314 375
#     4  10  19  38  65  88 125 164 207 256 309 376
#     4  11  20  40  66  92 121 166 210 252 316 376
#
# _framework density 25.022397000000002
#
# number of rings (size 3 to 8) (size 9 to 14) (size 15 to 20)
#    0.000    1.500    3.750    2.250    0.000    1.000 
#    9.000    0.625    0.000    0.000    0.000    0.000 
#    0.000    0.000    0.000    0.000    0.000    0.000 
#
# Total GULP energy -89290.908669 kJ/mol
# GULP energy per Si atom -5580.681792 kJ/mol
# Density = 2.496544 g / cm^3
# Si number density = 25.022397 Si / 1000 Ang^3
#
#
#
# Elastic Constant Matrix: (Units=GPa)
#
#
# Indices 1 2 3 4 5 6 
#
# 1 104.6004 42.3920 55.2674 3.0557 -34.4689 15.4363
# 2 42.3920 160.8284 53.8208 21.3960 -38.5568 12.1403
# 3 55.2674 53.8208 105.0158 -2.9167 -12.6086 21.3005
# 4 3.0557 21.3960 -2.9167 42.7196 8.4141 -14.8821
# 5 -34.4689 -38.5568 -12.6086 8.4141 53.9550 -13.7173
# 6 15.4363 12.1403 21.3005 -14.8821 -13.7173 48.6627
#
#
#
# Elastic Compliance Matrix: (Units=1/GPa)
#
#
# Indices 1 2 3 4 5 6 
#
# 1 0.017254 0.001641 -0.008646 -0.004974 0.010804 -0.000574
# 2 0.001641 0.010717 -0.005387 -0.007811 0.008452 -0.000842
# 3 -0.008646 -0.005387 0.016903 0.004500 -0.007128 -0.003945
# 4 -0.004974 -0.007811 0.004500 0.033106 -0.010665 0.008675
# 5 0.010804 0.008452 -0.007128 -0.010665 0.032348 0.003441
# 6 -0.000574 -0.000842 -0.003945 0.008675 0.003441 0.026291
#
#
# Mechanical properties :
#
#
# Convention : Reuss Voigt Hill
#
# Bulk Modulus (GPa) = 49.77873 74.82279 62.30076
# Shear Modulus (GPa) = 29.74412 43.66510 36.70461
#
# Velocity S-wave (km/s) = 3.45149 4.18190 3.83413
# Velocity P-wave (km/s) = 5.98503 7.29965 6.67479
#
# Compressibility (1/GPa) = 0.02008890
#
# Stress axis : x y z
#
# Youngs Moduli (GPa) = 57.95883 93.30850 59.16183
#
# Poissons Ratio (x) = -0.15309 0.51149
# Poissons Ratio (y) = -0.09509 0.31873
# Poissons Ratio (z) = 0.50109 0.50269
#
# Static dielectric constant tensor:
#      x y z
#    x 2.110780 -0.097370 0.001630 
#    y -0.097370 2.133720 -0.096470 
#    z 0.001630 -0.096470 2.068520 
# 
# From -- ./inp_files/505763.got.cif
#   From: 2010.05.17/outbox.cif.g08.bks.cpg/sg2_253_cif.got.tgz:505763.got - 2010.06.03 11:33:40.
