data_PCOD9090522
_publ_section_title
;
Structure prediction by ZEFSAII (Michael W. Deem and Ramdas Pophale) SiO2 
 PCOD9090522
Probable space group: P -1
;
_chemical_formula_sum "Si O2"
_cell_formula_units_Z 12
_cell_length_a 7.013377
_cell_length_b 9.137021
_cell_length_c 18.312076
_cell_angle_alpha 50.855534
_cell_angle_beta 35.611893
_cell_angle_gamma 56.422162
_cell_volume 527.868636
_symmetry_space_group_name_H-M "P -1"
_symmetry_group_IT_number 2
_symmetry_cell_setting 'triclinic'
loop_
_space_group_symop_operation_xyz
x,y,z
-x,-y,-z
loop_
_atom_site_type_symbol
_atom_site_label
_atom_site_fract_x
_atom_site_fract_y
_atom_site_fract_z
Si Si1 0.365349 0.525423 0.615453
Si Si2 0.697147 0.309637 0.112163
Si Si3 0.595174 0.741979 0.055586
Si Si4 0.958553 0.902154 0.621572
Si Si5 0.384828 0.804240 0.262909
Si Si6 0.908713 0.246993 0.903585
O O1 0.500000 0.500000 0.500000
O O2 0.600407 0.403475 0.637705
O O3 0.257247 0.744361 0.594905
O O4 0.037597 0.415168 0.761581
O O5 0.641477 0.515221 0.101090
O O6 0.374552 0.201641 0.250890
O O7 0.786457 0.331802 0.991996
O O8 0.030323 0.203628 0.075288
O O9 0.400807 0.780968 0.179055
O O10 0.384907 0.828969 0.026016
O O11 0.891226 0.055256 0.658519
O O12 0.000000 0.000000 0.500000
O O13 0.745196 0.875409 0.150898
#
# Coordination Sequence:
#
# PCOD9090522 Si02
#       6
#     2   2   2   2   2   2
#     4  10  20  41  66  88 124 168 210 255 310 381
#     4  10  21  36  67  95 126 167 217 255 314 383
#     4  10  19  38  66  97 126 164 215 262 314 371
#     4  12  22  40  67  93 128 172 209 260 321 377
#     4   9  22  39  63  96 125 164 215 255 315 372
#     4   9  19  39  66  90 124 169 208 257 315 366
#
# _framework density 22.73293
#
# number of rings (size 3 to 8) (size 9 to 14) (size 15 to 20)
#    1.000    1.000    3.333    0.500    0.000    2.667 
#    0.000    8.333    0.000    6.000    0.000    0.000 
#    0.000    0.000    0.000    0.000    0.000    0.000 
#
# Total GULP energy -67022.573175 kJ/mol
# GULP energy per Si atom -5585.214431 kJ/mol
# Density = 2.268119 g / cm^3
# Si number density = 22.732930 Si / 1000 Ang^3
#
#
#
# Elastic Constant Matrix: (Units=GPa)
#
#
# Indices 1 2 3 4 5 6 
#
# 1 101.2482 42.6003 10.7975 15.4682 7.4670 7.7103
# 2 42.6003 178.8514 37.3457 42.3266 23.0762 -10.6847
# 3 10.7975 37.3457 99.9558 10.6263 28.4239 9.8783
# 4 15.4682 42.3266 10.6263 37.3182 4.6225 8.2195
# 5 7.4670 23.0762 28.4239 4.6225 23.5871 9.1395
# 6 7.7103 -10.6847 9.8783 8.2195 9.1395 27.1332
#
#
#
# Elastic Compliance Matrix: (Units=1/GPa)
#
#
# Indices 1 2 3 4 5 6 
#
# 1 0.011515 -0.003140 0.000081 -0.000320 0.001280 -0.004872
# 2 -0.003140 0.012462 -0.000365 -0.014308 -0.013724 0.014889
# 3 0.000081 -0.000365 0.015439 -0.001966 -0.018260 0.000959
# 4 -0.000320 -0.014308 -0.001966 0.047086 0.016836 -0.024763
# 5 0.001280 -0.013724 -0.018260 0.016836 0.087129 -0.033569
# 6 -0.004872 0.014889 0.000959 -0.024763 -0.033569 0.062563
#
#
# Mechanical properties :
#
#
# Convention : Reuss Voigt Hill
#
# Bulk Modulus (GPa) = 30.70567 62.39360 46.54963
# Shear Modulus (GPa) = 19.69310 36.89516 28.29413
#
# Velocity S-wave (km/s) = 2.94646 4.03300 3.53176
# Velocity P-wave (km/s) = 5.01118 7.01375 6.09527
#
# Compressibility (1/GPa) = 0.03256728
#
# Stress axis : x y z
#
# Youngs Moduli (GPa) = 86.84478 80.24619 64.77310
#
# Poissons Ratio (x) = 0.25199 -0.00524
# Poissons Ratio (y) = 0.27271 0.02361
# Poissons Ratio (z) = -0.00703 0.02926
#
# Static dielectric constant tensor:
#      x y z
#    x 1.868600 -0.036490 -0.042120 
#    y -0.036490 1.906270 -0.028530 
#    z -0.042120 -0.028530 1.823170 
# 
# From -- ./inp_files/291206.got.cif
#   From: 2010.05.17/outbox.cif.g08.bks.cpg/sg2_146_cif.got.tgz:291206.got - 2010.06.03 11:33:40.
