data_PCOD9090243
_publ_section_title
;
Structure prediction by ZEFSAII (Michael W. Deem and Ramdas Pophale) SiO2 
 PCOD9090243
Probable space group: P -1
;
_chemical_formula_sum "Si O2"
_cell_formula_units_Z 16
_cell_length_a 8.922571
_cell_length_b 18.405713
_cell_length_c 14.966449
_cell_angle_alpha 151.626994
_cell_angle_beta 42.990065
_cell_angle_gamma 139.679236
_cell_volume 740.944008
_symmetry_space_group_name_H-M "P -1"
_symmetry_group_IT_number 2
_symmetry_cell_setting 'triclinic'
loop_
_space_group_symop_operation_xyz
x,y,z
-x,-y,-z
loop_
_atom_site_type_symbol
_atom_site_label
_atom_site_fract_x
_atom_site_fract_y
_atom_site_fract_z
Si Si1 0.922995 0.290723 0.210276
Si Si2 0.748244 0.497758 0.854730
Si Si3 0.036105 0.432449 0.814048
Si Si4 0.844446 0.938891 0.795274
Si Si5 0.537211 0.668649 0.503091
Si Si6 0.511612 0.185434 0.505631
Si Si7 0.248268 0.954976 0.513135
Si Si8 0.029316 0.842576 0.776254
O O1 0.731246 0.377794 0.395980
O O2 0.025784 0.289588 0.263690
O O3 0.123112 0.377693 0.145289
O O4 0.804211 0.097280 0.024439
O O5 0.930148 0.517803 0.877639
O O6 0.672439 0.319754 0.650175
O O7 0.500000 0.500000 0.000000
O O8 0.879114 0.237188 0.662522
O O9 0.304258 0.444862 0.687925
O O10 0.000000 0.500000 0.000000
O O11 0.665950 0.827761 0.680579
O O12 0.089958 0.006490 0.707788
O O13 0.877383 0.816267 0.724162
O O14 0.546259 0.725855 0.458073
O O15 0.692781 0.102932 0.305645
O O16 0.291233 0.060903 0.518843
O O17 0.500000 0.000000 0.500000
O O18 0.000000 0.000000 0.000000
#
# Coordination Sequence:
#
# PCOD9090243 Si02
#       8
#     2   2   2   2   2   2   2   2
#     4  10  23  39  64  91 125 167 213 259 330 376
#     4  12  25  42  65  90 126 165 214 268 319 384
#     4  11  25  43  63  96 134 165 211 269 322 379
#     4  10  19  38  64  94 128 158 219 264 313 378
#     4  10  23  41  61  91 129 170 208 262 320 389
#     4  11  21  39  62  91 123 165 217 259 308 383
#     4  11  20  38  69  93 122 172 213 262 319 370
#     4   9  19  36  59  89 120 159 212 262 306 371
#
# _framework density 21.594075
#
# number of rings (size 3 to 8) (size 9 to 14) (size 15 to 20)
#    0.000    1.500    2.500    2.625    0.000    5.500 
#    0.000    3.750    0.000    0.000    0.000    0.000 
#    0.000    0.000    0.000    0.000    0.000    0.000 
#
# Total GULP energy -89314.718650 kJ/mol
# GULP energy per Si atom -5582.169916 kJ/mol
# Density = 2.154493 g / cm^3
# Si number density = 21.594075 Si / 1000 Ang^3
#
#
#
# Elastic Constant Matrix: (Units=GPa)
#
#
# Indices 1 2 3 4 5 6 
#
# 1 105.6225 38.0506 42.7339 -26.5480 -5.6455 -10.2416
# 2 38.0506 86.8128 28.9214 -24.2540 -4.3033 -19.6347
# 3 42.7339 28.9214 125.0828 -28.0393 -10.4050 13.1779
# 4 -26.5480 -24.2540 -28.0393 34.6299 9.8122 7.5315
# 5 -5.6455 -4.3033 -10.4050 9.8122 40.0002 -7.5876
# 6 -10.2416 -19.6347 13.1779 7.5315 -7.5876 24.7156
#
#
#
# Elastic Compliance Matrix: (Units=1/GPa)
#
#
# Indices 1 2 3 4 5 6 
#
# 1 0.013302 -0.002489 -0.003256 0.004893 0.000297 0.003871
# 2 -0.002489 0.018675 -0.004059 0.003729 0.002655 0.015648
# 3 -0.003256 -0.004059 0.013715 0.009983 -0.002771 -0.015779
# 4 0.004893 0.003729 0.009983 0.051212 -0.012633 -0.019817
# 5 0.000297 0.002655 -0.002771 -0.012633 0.030941 0.017058
# 6 0.003871 0.015648 -0.015779 -0.019817 0.017058 0.074184
#
#
# Mechanical properties :
#
#
# Convention : Reuss Voigt Hill
#
# Bulk Modulus (GPa) = 38.33594 59.65887 48.99740
# Shear Modulus (GPa) = 21.70777 33.72329 27.71553
#
# Velocity S-wave (km/s) = 3.17403 3.95611 3.58645
# Velocity P-wave (km/s) = 5.58786 6.96815 6.31583
#
# Compressibility (1/GPa) = 0.02608519
#
# Stress axis : x y z
#
# Youngs Moduli (GPa) = 75.17404 53.54807 72.91105
#
# Poissons Ratio (x) = 0.13327 0.23737
# Poissons Ratio (y) = 0.18709 0.29597
# Poissons Ratio (z) = 0.24474 0.21737
#
# Static dielectric constant tensor:
#      x y z
#    x 1.821000 -0.022010 -0.023800 
#    y -0.022010 1.801710 0.015170 
#    z -0.023800 0.015170 1.770340 
# 
# From -- ./inp_files/218252.got.cif
#   From: 2010.05.17/outbox.cif.g08.bks.cpg/sg2_110_cif.got.tgz:218252.got - 2010.06.03 11:33:40.
