data_PCOD9090283
_publ_section_title
;
Structure prediction by ZEFSAII (Michael W. Deem and Ramdas Pophale) SiO2 
 PCOD9090283
Probable space group: P -1
;
_chemical_formula_sum "Si O2"
_cell_formula_units_Z 12
_cell_length_a 19.264045
_cell_length_b 8.949910
_cell_length_c 5.675112
_cell_angle_alpha 51.457626
_cell_angle_beta 76.981055
_cell_angle_gamma 44.890455
_cell_volume 496.975703
_symmetry_space_group_name_H-M "P -1"
_symmetry_group_IT_number 2
_symmetry_cell_setting 'triclinic'
loop_
_space_group_symop_operation_xyz
x,y,z
-x,-y,-z
loop_
_atom_site_type_symbol
_atom_site_label
_atom_site_fract_x
_atom_site_fract_y
_atom_site_fract_z
Si Si1 0.062810 0.669015 0.279262
Si Si2 0.709007 0.696636 0.694312
Si Si3 0.576785 0.752439 0.384688
Si Si4 0.423709 0.744844 0.519520
Si Si5 0.262965 0.733625 0.622101
Si Si6 0.018073 0.197460 0.290842
O O1 0.190495 0.424986 0.402596
O O2 0.033893 0.638421 0.583092
O O3 0.030192 0.644336 0.077736
O O4 0.000000 0.000000 0.000000
O O5 0.613899 0.842025 0.443533
O O6 0.668680 0.905525 0.738652
O O7 0.743052 0.424932 0.032841
O O8 0.517115 0.691666 0.612004
O O9 0.680290 0.461812 0.462242
O O10 0.500000 0.000000 0.000000
O O11 0.500000 0.500000 0.500000
O O12 0.345518 0.726644 0.662459
O O13 0.140695 0.020635 0.377037
O O14 0.000000 0.000000 0.500000
#
# Coordination Sequence:
#
# PCOD9090283 Si02
#       6
#     2   2   2   2   2   2
#     4  10  20  36  69  99 131 174 230 276 335 418
#     4  12  23  42  72  93 132 188 219 277 355 402
#     4  11  23  42  67  95 132 179 229 278 340 408
#     4  10  25  45  62 101 134 171 233 285 333 408
#     4  11  23  41  69  94 138 176 225 282 342 405
#     4  10  19  38  65 101 132 175 226 278 338 411
#
# _framework density 24.146051
#
# number of rings (size 3 to 8) (size 9 to 14) (size 15 to 20)
#    0.000    1.333    5.000    2.500    0.000    0.667 
#    6.000    1.667    0.000    0.000    0.000    0.000 
#    0.000    0.000    0.000    0.000    0.000    0.000 
#
# Total GULP energy -66813.736046 kJ/mol
# GULP energy per Si atom -5567.811337 kJ/mol
# Density = 2.409109 g / cm^3
# Si number density = 24.146051 Si / 1000 Ang^3
#
#
#
# Elastic Constant Matrix: (Units=GPa)
#
#
# Indices 1 2 3 4 5 6 
#
# 1 141.3769 91.9861 68.8431 3.5171 6.4234 -28.7691
# 2 91.9861 158.1559 33.5275 15.2029 14.4947 -23.6503
# 3 68.8431 33.5275 21.6509 19.6272 36.5260 47.1782
# 4 3.5171 15.2029 19.6272 33.4282 5.2819 1.5964
# 5 6.4234 14.4947 36.5260 5.2819 33.6339 -10.0207
# 6 -28.7691 -23.6503 47.1782 1.5964 -10.0207 26.8542
#
#
#
# Elastic Compliance Matrix: (Units=1/GPa)
#
#
# Indices 1 2 3 4 5 6 
#
# 1 0.008068 -0.005979 0.004033 0.000581 -0.005119 -0.005653
# 2 -0.005979 0.010983 -0.000464 -0.004071 -0.001306 0.003837
# 3 0.004033 -0.000464 -0.003244 0.000085 0.006527 0.012041
# 4 0.000581 -0.004071 0.000085 0.032912 -0.005768 -0.007220
# 5 -0.005119 -0.001306 0.006527 -0.005768 0.022277 -0.009444
# 6 -0.005653 0.003837 0.012041 -0.007220 -0.009444 0.010312
#
#
# Mechanical properties :
#
#
# Convention : Reuss Voigt Hill
#
# Bulk Modulus (GPa) = 91.01327 78.87746 84.94536
# Shear Modulus (GPa) = 55.68563 27.23840 41.46201
#
# Velocity S-wave (km/s) = 4.80750 3.36232 4.14833
# Velocity P-wave (km/s) = 8.28195 6.91457 7.62896
#
# Compressibility (1/GPa) = 0.01098741
#
# Stress axis : x y z
#
# Youngs Moduli (GPa) = 123.95090 91.04568 -308.28076
#
# Poissons Ratio (x) = 0.54439 1.24326
# Poissons Ratio (y) = 0.74114 -0.14292
# Poissons Ratio (z) = -0.49988 0.04221
#
# Static dielectric constant tensor:
#      x y z
#    x 1.982720 0.033610 0.032660 
#    y 0.033610 1.898380 0.001450 
#    z 0.032660 0.001450 1.989720 
# 
# From -- ./inp_files/78159.got.cif
#   From: 2010.05.17/outbox.cif.g08.bks.cpg/sg2_40_cif.got.tgz:78159.got - 2010.06.03 11:33:40.
