data_PCOD9090762
_publ_section_title
;
Structure prediction by ZEFSAII (Michael W. Deem and Ramdas Pophale) SiO2 
 PCOD9090762
Probable space group: P -1
;
_chemical_formula_sum "Si O2"
_cell_formula_units_Z 16
_cell_length_a 11.654530
_cell_length_b 10.706987
_cell_length_c 13.046750
_cell_angle_alpha 48.833912
_cell_angle_beta 32.995058
_cell_angle_gamma 66.166239
_cell_volume 622.408667
_symmetry_space_group_name_H-M "P -1"
_symmetry_group_IT_number 2
_symmetry_cell_setting 'triclinic'
loop_
_space_group_symop_operation_xyz
x,y,z
-x,-y,-z
loop_
_atom_site_type_symbol
_atom_site_label
_atom_site_fract_x
_atom_site_fract_y
_atom_site_fract_z
Si Si1 0.681896 0.740883 0.256330
Si Si2 0.727666 0.677148 0.550242
Si Si3 0.980086 0.645512 0.708181
Si Si4 0.687268 0.812139 0.728826
Si Si5 0.789710 0.290093 0.914981
Si Si6 0.224250 0.795363 0.630185
Si Si7 0.582944 0.396309 0.650992
Si Si8 0.184061 0.940003 0.798868
O O1 0.456065 0.765661 0.449969
O O2 0.686647 0.563445 0.403524
O O3 0.645464 0.721180 0.171582
O O4 0.914395 0.891355 0.031508
O O5 0.702358 0.700531 0.676229
O O6 0.569473 0.497502 0.710256
O O7 0.702354 0.852695 0.424388
O O8 0.980946 0.687974 0.327950
O O9 0.849348 0.775971 0.709130
O O10 0.030896 0.646828 0.790260
O O11 0.230207 0.696142 0.440269
O O12 0.839546 0.460127 0.859151
O O13 0.419188 0.746122 0.984882
O O14 0.763938 0.018034 0.529794
O O15 0.729466 0.129982 0.128541
O O16 0.200483 0.821290 0.753688
#
# Coordination Sequence:
#
# PCOD9090762 Si02
#       8
#     2   2   2   2   2   2   2   2
#     4  10  19  39  58  86 120 149 190 240 292 345
#     4  10  22  38  58  88 119 153 193 241 290 345
#     4  10  21  44  58  84 121 154 201 238 281 347
#     4  11  24  39  62  84 118 161 196 235 285 346
#     4  11  23  37  59  90 116 157 189 241 295 340
#     4  10  24  38  63  89 113 156 195 240 296 342
#     4   9  20  35  60  84 114 155 188 234 293 337
#     4  11  22  36  60  92 121 147 191 242 300 347
#
# _framework density 25.706585
#
# number of rings (size 3 to 8) (size 9 to 14) (size 15 to 20)
#    0.000    1.750    2.500    1.875    3.500    4.500 
#    0.000    2.500    0.000    9.000    0.000    0.000 
#    0.000    0.000    0.000    0.000    0.000    0.000 
#
# Total GULP energy -89660.564470 kJ/mol
# GULP energy per Si atom -5603.785279 kJ/mol
# Density = 2.564808 g / cm^3
# Si number density = 25.706585 Si / 1000 Ang^3
#
#
#
# Elastic Constant Matrix: (Units=GPa)
#
#
# Indices 1 2 3 4 5 6 
#
# 1 118.2854 30.6036 27.0087 2.1590 -29.1208 -10.9969
# 2 30.6036 100.4919 16.6612 14.5742 -5.5382 -5.0937
# 3 27.0087 16.6612 45.2166 10.9003 -14.7499 -10.7403
# 4 2.1590 14.5742 10.9003 40.2547 5.9132 -1.4925
# 5 -29.1208 -5.5382 -14.7499 5.9132 39.1002 3.7320
# 6 -10.9969 -5.0937 -10.7403 -1.4925 3.7320 46.9907
#
#
#
# Elastic Compliance Matrix: (Units=1/GPa)
#
#
# Indices 1 2 3 4 5 6 
#
# 1 0.011736 -0.002585 -0.003642 0.000328 0.006846 0.001101
# 2 -0.002585 0.011546 -0.002045 -0.003402 -0.000558 0.000116
# 3 -0.003642 -0.002045 0.031573 -0.008859 0.009763 0.005086
# 4 0.000328 -0.003402 -0.008859 0.029600 -0.007985 -0.000743
# 5 0.006846 -0.000558 0.009763 -0.007985 0.035418 0.000707
# 6 0.001101 0.000116 0.005086 -0.000743 0.000707 0.022634
#
#
# Mechanical properties :
#
#
# Convention : Reuss Voigt Hill
#
# Bulk Modulus (GPa) = 26.10183 45.83789 35.96986
# Shear Modulus (GPa) = 29.10001 37.91714 33.50858
#
# Velocity S-wave (km/s) = 3.36818 3.84474 3.61432
# Velocity P-wave (km/s) = 5.03011 6.13019 5.60719
#
# Compressibility (1/GPa) = 0.03831150
#
# Stress axis : x y z
#
# Youngs Moduli (GPa) = 85.20556 86.61247 31.67254
#
# Poissons Ratio (x) = 0.22387 0.11536
# Poissons Ratio (y) = 0.22023 0.06477
# Poissons Ratio (z) = 0.31034 0.17711
#
# Static dielectric constant tensor:
#      x y z
#    x 2.021340 0.034010 -0.001570 
#    y 0.034010 2.054310 0.015050 
#    z -0.001570 0.015050 2.039070 
# 
# From -- ./inp_files/274605.got.cif
#   From: 2010.05.17/outbox.cif.g08.bks.cpg/sg2_138_cif.got.tgz:274605.got - 2010.06.03 11:33:40.
