data_PCOD9090641
_publ_section_title
;
Structure prediction by ZEFSAII (Michael W. Deem and Ramdas Pophale) SiO2 
 PCOD9090641
Probable space group: P -1
;
_chemical_formula_sum "Si O2"
_cell_formula_units_Z 14
_cell_length_a 14.331970
_cell_length_b 8.468630
_cell_length_c 7.805709
_cell_angle_alpha 82.685879
_cell_angle_beta 39.196555
_cell_angle_gamma 80.479807
_cell_volume 590.490928
_symmetry_space_group_name_H-M "P -1"
_symmetry_group_IT_number 2
_symmetry_cell_setting 'triclinic'
loop_
_space_group_symop_operation_xyz
x,y,z
-x,-y,-z
loop_
_atom_site_type_symbol
_atom_site_label
_atom_site_fract_x
_atom_site_fract_y
_atom_site_fract_z
Si Si1 0.275794 0.870711 0.822235
Si Si2 0.262383 0.683950 0.533338
Si Si3 0.509704 0.920325 0.724904
Si Si4 0.130864 0.372386 0.761003
Si Si5 0.043465 0.146468 0.200912
Si Si6 0.586485 0.770087 0.977510
Si Si7 0.100404 0.337773 0.422581
O O1 0.251736 0.732858 0.741623
O O2 0.391903 0.819036 0.814844
O O3 0.374687 0.995084 0.567004
O O4 0.122125 0.967447 0.087836
O O5 0.252406 0.496291 0.546060
O O6 0.422854 0.720855 0.237809
O O7 0.127249 0.798813 0.620287
O O8 0.411838 0.068014 0.936238
O O9 0.602009 0.820774 0.752070
O O10 0.087257 0.305794 0.648258
O O11 0.139575 0.245885 0.919038
O O12 0.000000 0.500000 0.000000
O O13 0.061152 0.206070 0.360627
O O14 0.724135 0.648570 0.855356
O O15 0.000000 0.500000 0.500000
#
# Coordination Sequence:
#
# PCOD9090641 Si02
#       7
#     2   2   2   2   2   2   2
#     4  10  19  38  68  96 124 166 216 267 318 384
#     4  10  22  40  61  97 132 161 213 273 318 371
#     4   9  19  38  65  93 126 170 207 261 335 380
#     4  10  22  42  63  87 129 173 211 253 321 383
#     4  11  22  43  68  92 131 174 214 263 321 385
#     4  10  21  39  63  94 130 163 215 271 314 384
#     4  12  22  41  68  88 124 180 216 252 319 396
#
# _framework density 23.709085999999999
#
# number of rings (size 3 to 8) (size 9 to 14) (size 15 to 20)
#    0.000    1.714    4.286    1.286    0.000    0.571 
#    7.714    1.429    0.000    0.000    0.000    0.000 
#    0.000    0.000    0.000    0.000    0.000    0.000 
#
# Total GULP energy -78217.650229 kJ/mol
# GULP energy per Si atom -5586.975016 kJ/mol
# Density = 2.365512 g / cm^3
# Si number density = 23.709086 Si / 1000 Ang^3
#
#
#
# Elastic Constant Matrix: (Units=GPa)
#
#
# Indices 1 2 3 4 5 6 
#
# 1 139.0467 32.9223 68.1052 13.8699 6.0415 20.2737
# 2 32.9223 48.1715 28.7614 17.4645 -1.5900 5.1733
# 3 68.1052 28.7614 76.2343 14.2632 -9.2248 -6.9780
# 4 13.8699 17.4645 14.2632 39.0286 -1.5127 -6.0048
# 5 6.0415 -1.5900 -9.2248 -1.5127 55.8907 12.7637
# 6 20.2737 5.1733 -6.9780 -6.0048 12.7637 36.1115
#
#
#
# Elastic Compliance Matrix: (Units=1/GPa)
#
#
# Indices 1 2 3 4 5 6 
#
# 1 0.017461 0.000095 -0.016604 -0.002213 -0.001769 -0.012767
# 2 0.000095 0.032521 -0.010837 -0.011993 0.000883 -0.009113
# 3 -0.016604 -0.010837 0.033744 0.001070 0.003342 0.016391
# 4 -0.002213 -0.011993 0.001070 0.032726 -0.001094 0.008996
# 5 -0.001769 0.000883 0.003342 -0.001094 0.019936 -0.005716
# 6 -0.012767 -0.009113 0.016391 0.008996 -0.005716 0.042849
#
#
# Mechanical properties :
#
#
# Convention : Reuss Voigt Hill
#
# Bulk Modulus (GPa) = 34.44322 58.11445 46.27883
# Shear Modulus (GPa) = 20.52490 35.11709 27.82099
#
# Velocity S-wave (km/s) = 2.94547 3.85277 3.42926
# Velocity P-wave (km/s) = 5.11142 6.66006 5.93646
#
# Compressibility (1/GPa) = 0.02903329
#
# Stress axis : x y z
#
# Youngs Moduli (GPa) = 57.27040 30.74945 29.63497
#
# Poissons Ratio (x) = -0.00292 0.49205
# Poissons Ratio (y) = -0.00543 0.32117
# Poissons Ratio (z) = 0.95090 0.33325
#
# Static dielectric constant tensor:
#      x y z
#    x 1.932310 0.007090 -0.007260 
#    y 0.007090 1.918840 -0.044630 
#    z -0.007260 -0.044630 1.964880 
# 
# From -- ./inp_files/298465.got.cif
#   From: 2010.05.17/outbox.cif.g08.bks.cpg/sg2_150_cif.got.tgz:298465.got - 2010.06.03 11:33:40.
