data_PCOD9090709
_publ_section_title
;
Structure prediction by ZEFSAII (Michael W. Deem and Ramdas Pophale) SiO2 
 PCOD9090709
Probable space group: P -1
;
_chemical_formula_sum "Si O2"
_cell_formula_units_Z 13
_cell_length_a 7.451110
_cell_length_b 10.159302
_cell_length_c 17.598615
_cell_angle_alpha 145.723554
_cell_angle_beta 48.486246
_cell_angle_gamma 129.445532
_cell_volume 549.527636
_symmetry_space_group_name_H-M "P -1"
_symmetry_group_IT_number 2
_symmetry_cell_setting 'triclinic'
loop_
_space_group_symop_operation_xyz
x,y,z
-x,-y,-z
loop_
_atom_site_type_symbol
_atom_site_label
_atom_site_fract_x
_atom_site_fract_y
_atom_site_fract_z
Si Si1 0.000000 0.500000 0.500000
Si Si2 0.500813 0.147852 0.953560
Si Si3 0.874564 0.195648 0.015412
Si Si4 0.354755 0.308202 0.843721
Si Si5 0.768286 0.855277 0.627316
Si Si6 0.801383 0.705637 0.291144
Si Si7 0.468422 0.831270 0.562753
O O1 0.868397 0.674328 0.567058
O O2 0.820059 0.265025 0.399335
O O3 0.241407 0.020775 0.000595
O O4 0.586402 0.985584 0.788023
O O5 0.699017 0.162124 0.973655
O O6 0.514794 0.417548 0.050912
O O7 0.850944 0.450037 0.179135
O O8 0.151110 0.222065 0.923317
O O9 0.216889 0.302353 0.798546
O O10 0.522638 0.116132 0.694292
O O11 0.627279 0.735912 0.536132
O O12 0.992162 0.065504 0.638018
O O13 0.549468 0.743746 0.417112
#
# Coordination Sequence:
#
# PCOD9090709 Si02
#       7
#     1   2   2   2   2   2   2
#     4  12  26  46  68  98 144 184 240 290 350 424
#     4  10  20  39  71 103 139 184 239 290 347 423
#     4  10  19  38  71  99 137 193 236 284 354 413
#     4  11  21  42  70 104 141 190 233 289 357 419
#     4  12  24  46  72 104 144 185 237 298 352 425
#     4  11  21  44  70 102 145 187 238 292 351 421
#     4  12  27  43  72 106 141 189 234 294 360 417
#
# _framework density 23.656682
#
# number of rings (size 3 to 8) (size 9 to 14) (size 15 to 20)
#    0.000    0.923    4.615    3.231    0.000    3.077 
#    0.000    0.769    0.000    0.000    0.000    0.000 
#    0.000    0.000    0.000    0.000    0.000    0.000 
#
# Total GULP energy -72518.632393 kJ/mol
# GULP energy per Si atom -5578.356338 kJ/mol
# Density = 2.360284 g / cm^3
# Si number density = 23.656682 Si / 1000 Ang^3
#
#
#
# Elastic Constant Matrix: (Units=GPa)
#
#
# Indices 1 2 3 4 5 6 
#
# 1 105.0484 17.7558 -12.7082 11.7286 6.9905 11.9563
# 2 17.7558 120.5386 43.9240 29.8634 -5.7865 -13.2189
# 3 -12.7082 43.9240 93.3653 5.8846 -10.9637 -6.2953
# 4 11.7286 29.8634 5.8846 2.0425 -2.3152 4.2472
# 5 6.9905 -5.7865 -10.9637 -2.3152 21.5886 3.6288
# 6 11.9563 -13.2189 -6.2953 4.2472 3.6288 1.5063
#
#
#
# Elastic Compliance Matrix: (Units=1/GPa)
#
#
# Indices 1 2 3 4 5 6 
#
# 1 0.017686 0.000317 0.001410 -0.031419 -0.001761 -0.038874
# 2 0.000317 0.004064 -0.003853 0.011524 0.004810 -0.027036
# 3 0.001410 -0.003853 0.013783 -0.001600 0.004140 0.007129
# 4 -0.031419 0.011524 -0.001600 0.062321 -0.015337 0.205070
# 5 -0.001761 0.004810 0.004140 -0.015337 0.048762 -0.000739
# 6 -0.038874 -0.027036 0.007129 0.205070 -0.000739 0.188547
#
#
# Mechanical properties :
#
#
# Convention : Reuss Voigt Hill
#
# Bulk Modulus (GPa) = 31.96692 46.32173 39.14433
# Shear Modulus (GPa) = 14.29211 23.02619 18.65915
#
# Velocity S-wave (km/s) = 2.46061 3.12324 2.81151
# Velocity P-wave (km/s) = 4.64919 5.71222 5.20790
#
# Compressibility (1/GPa) = 0.03128233
#
# Stress axis : x y z
#
# Youngs Moduli (GPa) = 56.54152 246.03317 72.55243
#
# Poissons Ratio (x) = -0.07805 -0.10233
# Poissons Ratio (y) = -0.01794 0.27957
# Poissons Ratio (z) = -0.07975 0.94806
#
# Static dielectric constant tensor:
#      x y z
#    x 1.872550 -0.012500 -0.014480 
#    y -0.012500 1.931590 -0.019380 
#    z -0.014480 -0.019380 1.861290 
# 
# From -- ./inp_files/270318.got.cif
#   From: 2010.05.17/outbox.cif.g08.bks.cpg/sg2_136_cif.got.tgz:270318.got - 2010.06.03 11:33:40.
