data_PCOD9090067
_publ_section_title
;
Structure prediction by ZEFSAII (Michael W. Deem and Ramdas Pophale) SiO2 
 PCOD9090067
Probable space group: P -1
;
_chemical_formula_sum "Si O2"
_cell_formula_units_Z 16
_cell_length_a 11.247111
_cell_length_b 17.733551
_cell_length_c 8.946742
_cell_angle_alpha 52.521066
_cell_angle_beta 92.224228
_cell_angle_gamma 135.853961
_cell_volume 684.738019
_symmetry_space_group_name_H-M "P -1"
_symmetry_group_IT_number 2
_symmetry_cell_setting 'triclinic'
loop_
_space_group_symop_operation_xyz
x,y,z
-x,-y,-z
loop_
_atom_site_type_symbol
_atom_site_label
_atom_site_fract_x
_atom_site_fract_y
_atom_site_fract_z
Si Si1 0.569439 0.627130 0.728524
Si Si2 0.797702 0.058185 0.204566
Si Si3 0.916118 0.452185 0.805219
Si Si4 0.211796 0.821616 0.214547
Si Si5 0.399128 0.107042 0.087628
Si Si6 0.048833 0.929674 0.521714
Si Si7 0.726505 0.837946 0.231165
Si Si8 0.312869 0.642019 0.783087
O O1 0.548170 0.633757 0.542784
O O2 0.456120 0.642751 0.779552
O O3 0.858395 0.801880 0.532283
O O4 0.500000 0.500000 0.000000
O O5 0.777821 0.950671 0.229027
O O6 0.518318 0.867566 0.486913
O O7 0.973328 0.158081 0.233684
O O8 0.866784 0.187879 0.935755
O O9 0.055818 0.623661 0.499323
O O10 0.108414 0.508338 0.804338
O O11 0.664210 0.246085 0.962223
O O12 0.826557 0.440901 0.967878
O O13 0.214398 0.903240 0.247566
O O14 0.500000 0.000000 0.000000
O O15 0.300030 0.078818 0.272936
O O16 0.411359 0.203303 0.857802
O O17 0.000000 0.000000 0.500000
O O18 0.000000 0.000000 0.000000
#
# Coordination Sequence:
#
# PCOD9090067 Si02
#       8
#     2   2   2   2   2   2   2   2
#     4  11  24  38  62  96 133 169 218 277 329 393
#     4  10  20  39  62  93 129 167 217 271 331 387
#     4  11  23  43  71  94 135 175 225 278 332 406
#     4  11  25  44  65  97 138 175 218 285 334 390
#     4  11  24  41  71 101 130 180 227 268 343 404
#     4  12  20  41  69  93 130 178 221 269 333 404
#     4  10  19  38  63  91 131 174 210 265 336 394
#     4  10  21  42  64  94 133 178 217 276 337 393
#
# _framework density 23.366598
#
# number of rings (size 3 to 8) (size 9 to 14) (size 15 to 20)
#    0.000    1.250    6.250    0.000    1.750    1.500 
#    2.250    3.125    0.000    5.250    0.000    0.000 
#    0.000    0.000    0.000    0.000    0.000    0.000 
#
# Total GULP energy -89196.259943 kJ/mol
# GULP energy per Si atom -5574.766246 kJ/mol
# Density = 2.331341 g / cm^3
# Si number density = 23.366598 Si / 1000 Ang^3
#
#
#
# Elastic Constant Matrix: (Units=GPa)
#
#
# Indices 1 2 3 4 5 6 
#
# 1 92.1937 32.2171 36.1461 11.9271 -3.5180 17.4503
# 2 32.2171 80.8752 12.1853 25.6546 9.9174 25.3817
# 3 36.1461 12.1853 112.1207 32.7961 5.4639 -7.8113
# 4 11.9271 25.6546 32.7961 38.4804 12.5203 0.7369
# 5 -3.5180 9.9174 5.4639 12.5203 38.0940 7.0236
# 6 17.4503 25.3817 -7.8113 0.7369 7.0236 37.0990
#
#
#
# Elastic Compliance Matrix: (Units=1/GPa)
#
#
# Indices 1 2 3 4 5 6 
#
# 1 0.015812 -0.004507 -0.005789 0.001848 0.004032 -0.006373
# 2 -0.004507 0.022761 0.002791 -0.016216 0.000933 -0.012719
# 3 -0.005789 0.002791 0.014399 -0.012417 0.000000 0.004092
# 4 0.001848 -0.016216 -0.012417 0.050571 -0.012088 0.008895
# 5 0.004032 0.000933 0.000000 -0.012088 0.031889 -0.008332
# 6 -0.006373 -0.012719 0.004092 0.008895 -0.008332 0.040916
#
#
# Mechanical properties :
#
#
# Convention : Reuss Voigt Hill
#
# Bulk Modulus (GPa) = 26.34171 49.58740 37.96456
# Shear Modulus (GPa) = 24.50822 36.37740 30.44281
#
# Velocity S-wave (km/s) = 3.24212 3.94993 3.61340
# Velocity P-wave (km/s) = 5.03119 6.48615 5.80444
#
# Compressibility (1/GPa) = 0.03796260
#
# Stress axis : x y z
#
# Youngs Moduli (GPa) = 63.24131 43.93493 69.44964
#
# Poissons Ratio (x) = 0.19803 0.40203
# Poissons Ratio (y) = 0.28505 -0.19385
# Poissons Ratio (z) = 0.36609 -0.12263
#
# Static dielectric constant tensor:
#      x y z
#    x 1.874590 -0.023380 0.078450 
#    y -0.023380 1.970020 -0.076610 
#    z 0.078450 -0.076610 1.702280 
# 
# From -- ./inp_files/281685.got.cif
#   From: 2010.05.17/outbox.cif.g08.bks.cpg/sg2_141_cif.got.tgz:281685.got - 2010.06.03 11:33:40.
