data_PCOD9090612
_publ_section_title
;
Structure prediction by ZEFSAII (Michael W. Deem and Ramdas Pophale) SiO2 
 PCOD9090612
Probable space group: P -1
;
_chemical_formula_sum "Si O2"
_cell_formula_units_Z 13
_cell_length_a 17.299206
_cell_length_b 7.022908
_cell_length_c 6.174544
_cell_angle_alpha 113.022802
_cell_angle_beta 104.837720
_cell_angle_gamma 42.961395
_cell_volume 469.968168
_symmetry_space_group_name_H-M "P -1"
_symmetry_group_IT_number 2
_symmetry_cell_setting 'triclinic'
loop_
_space_group_symop_operation_xyz
x,y,z
-x,-y,-z
loop_
_atom_site_type_symbol
_atom_site_label
_atom_site_fract_x
_atom_site_fract_y
_atom_site_fract_z
Si Si1 0.050808 0.209902 0.533602
Si Si2 0.284357 0.816389 0.362314
Si Si3 0.658988 0.680780 0.492266
Si Si4 0.165524 0.362087 0.206226
Si Si5 0.000000 0.000000 0.000000
Si Si6 0.488684 0.672887 0.272946
Si Si7 0.255177 0.452701 0.954982
O O1 0.029265 0.064606 0.285471
O O2 0.000000 0.500000 0.500000
O O3 0.970917 0.363809 0.758451
O O4 0.185393 0.992622 0.550694
O O5 0.401678 0.724913 0.399341
O O6 0.305123 0.542142 0.180907
O O7 0.216159 0.068349 0.229464
O O8 0.783330 0.533059 0.583041
O O9 0.607283 0.545026 0.392223
O O10 0.575945 0.995414 0.691189
O O11 0.660657 0.735040 0.262954
O O12 0.216596 0.315262 0.987753
O O13 0.134462 0.761326 0.927836
O O14 0.500000 0.500000 0.000000
#
# Coordination Sequence:
#
# PCOD9090612 Si02
#       7
#     2   2   2   2   1   2   2
#     4   9  18  36  59  86 125 159 197 256 302 364
#     4   9  20  37  62  89 126 162 206 262 300 369
#     4  10  21  39  65  91 126 168 205 263 318 360
#     4  10  21  40  65  92 127 168 207 254 316 377
#     4  10  20  34  62  90 124 164 200 248 308 372
#     4  10  19  38  68  87 123 172 204 262 323 356
#     4  11  21  40  65  95 127 166 208 257 311 377
#
# _framework density 27.661448
#
# number of rings (size 3 to 8) (size 9 to 14) (size 15 to 20)
#    0.000    2.154    3.077    0.000    0.000    2.462 
#    0.000   17.692    0.000    0.000    0.000    0.000 
#    0.000    0.000    0.000    0.000    0.000    0.000 
#
# Total GULP energy -72420.169471 kJ/mol
# GULP energy per Si atom -5570.782267 kJ/mol
# Density = 2.759849 g / cm^3
# Si number density = 27.661448 Si / 1000 Ang^3
#
#
#
# Elastic Constant Matrix: (Units=GPa)
#
#
# Indices 1 2 3 4 5 6 
#
# 1 157.7843 36.6178 40.5080 9.1982 7.3408 -15.6041
# 2 36.6178 96.3838 -0.7371 14.4597 11.6752 -18.9594
# 3 40.5080 -0.7371 98.3552 29.1118 36.7471 -16.4806
# 4 9.1982 14.4597 29.1118 25.7276 -4.5787 2.9127
# 5 7.3408 11.6752 36.7471 -4.5787 58.2355 -1.4816
# 6 -15.6041 -18.9594 -16.4806 2.9127 -1.4816 74.3113
#
#
#
# Elastic Compliance Matrix: (Units=1/GPa)
#
#
# Indices 1 2 3 4 5 6 
#
# 1 0.011316 -0.012000 -0.020459 0.029390 0.016046 -0.006055
# 2 -0.012000 0.035863 0.047058 -0.078610 -0.041060 0.019329
# 3 -0.020459 0.047058 0.098258 -0.148311 -0.079660 0.033726
# 4 0.029390 -0.078610 -0.148311 0.268884 0.125387 -0.054816
# 5 0.016046 -0.041060 -0.079660 0.125387 0.082792 -0.028037
# 6 -0.006055 0.019329 0.033726 -0.054816 -0.028037 0.026186
#
#
# Mechanical properties :
#
#
# Convention : Reuss Voigt Hill
#
# Bulk Modulus (GPa) = 5.72622 56.14453 30.93537
# Shear Modulus (GPa) = 9.05283 50.06385 29.55834
#
# Velocity S-wave (km/s) = 1.81103 4.25888 3.27245
# Velocity P-wave (km/s) = 2.53923 6.67272 5.04841
#
# Compressibility (1/GPa) = 0.17463536
#
# Stress axis : x y z
#
# Youngs Moduli (GPa) = 88.36666 27.88382 10.17731
#
# Poissons Ratio (x) = 0.33460 0.20822
# Poissons Ratio (y) = 1.06037 -0.47892
# Poissons Ratio (z) = 1.80792 -1.31216
#
# Static dielectric constant tensor:
#      x y z
#    x 2.191240 0.059060 -0.068690 
#    y 0.059060 2.407930 -0.140860 
#    z -0.068690 -0.140860 2.209020 
# 
# From -- ./inp_files/107618.got.cif
#   From: 2010.05.17/outbox.cif.g08.bks.cpg/sg2_54_cif.got.tgz:107618.got - 2010.06.03 11:33:40.
