data_PCOD9090309
_publ_section_title
;
Structure prediction by ZEFSAII (Michael W. Deem and Ramdas Pophale) SiO2 
 PCOD9090309
Probable space group: P -1
;
_chemical_formula_sum "Si O2"
_cell_formula_units_Z 16
_cell_length_a 5.563121
_cell_length_b 16.792960
_cell_length_c 8.263790
_cell_angle_alpha 57.575025
_cell_angle_beta 95.483752
_cell_angle_gamma 93.081949
_cell_volume 648.667067
_symmetry_space_group_name_H-M "P -1"
_symmetry_group_IT_number 2
_symmetry_cell_setting 'triclinic'
loop_
_space_group_symop_operation_xyz
x,y,z
-x,-y,-z
loop_
_atom_site_type_symbol
_atom_site_label
_atom_site_fract_x
_atom_site_fract_y
_atom_site_fract_z
Si Si1 0.148119 0.701231 0.093811
Si Si2 0.843384 0.166457 0.523368
Si Si3 0.548009 0.983660 0.780969
Si Si4 0.182405 0.458625 0.926121
Si Si5 0.258627 0.549590 0.506226
Si Si6 0.183149 0.069402 0.846409
Si Si7 0.517740 0.301130 0.188909
Si Si8 0.132326 0.149409 0.252381
O O1 0.238703 0.655099 0.316284
O O2 0.967708 0.623309 0.089209
O O3 0.367784 0.708427 0.972843
O O4 0.003752 0.799532 0.962898
O O5 0.717957 0.264283 0.366308
O O6 0.062932 0.162999 0.667957
O O7 0.933930 0.126882 0.398781
O O8 0.661300 0.088665 0.667398
O O9 0.676933 0.927749 0.708330
O O10 0.270560 0.009153 0.761272
O O11 0.611194 0.922966 0.013146
O O12 0.266466 0.532551 0.716164
O O13 0.404520 0.403581 0.080172
O O14 0.000000 0.500000 0.000000
O O15 0.500000 0.500000 0.500000
O O16 0.000000 0.500000 0.500000
O O17 0.000000 0.000000 0.000000
O O18 0.297095 0.228226 0.264595
#
# Coordination Sequence:
#
# PCOD9090309 Si02
#       8
#     2   2   2   2   2   2   2   2
#     4   9  20  38  58  85 117 156 195 243 301 362
#     4  10  20  35  58  83 114 152 194 243 296 356
#     4  10  20  37  58  81 112 155 200 242 294 348
#     4  10  21  38  63  90 120 153 201 251 305 371
#     4  10  19  38  65  88 118 162 203 249 307 378
#     4   9  20  36  54  76 109 149 192 240 295 351
#     4  10  20  36  56  85 120 152 190 246 304 354
#     4  10  21  35  58  86 117 149 199 247 290 351
#
# _framework density 24.665963999999999
#
# number of rings (size 3 to 8) (size 9 to 14) (size 15 to 20)
#    0.000    2.250    1.250    1.125    0.000    6.500 
#    0.000    7.500    0.000    1.500    0.000    0.000 
#    0.000    0.000    0.000    0.000    0.000    0.000 
#
# Total GULP energy -89352.999604 kJ/mol
# GULP energy per Si atom -5584.562475 kJ/mol
# Density = 2.460982 g / cm^3
# Si number density = 24.665964 Si / 1000 Ang^3
#
#
#
# Elastic Constant Matrix: (Units=GPa)
#
#
# Indices 1 2 3 4 5 6 
#
# 1 81.3875 31.4215 53.6646 -1.5863 1.9094 -39.4572
# 2 31.4215 75.5593 39.8116 -8.7810 5.2756 -30.7070
# 3 53.6646 39.8116 203.5934 -12.3131 19.3550 -32.9479
# 4 -1.5863 -8.7810 -12.3131 31.0134 -15.0743 4.0168
# 5 1.9094 5.2756 19.3550 -15.0743 56.1069 -3.8667
# 6 -39.4572 -30.7070 -32.9479 4.0168 -3.8667 45.4702
#
#
#
# Elastic Compliance Matrix: (Units=1/GPa)
#
#
# Indices 1 2 3 4 5 6 
#
# 1 0.023230 -0.001251 -0.003332 -0.002194 0.001071 0.017183
# 2 -0.001251 0.019228 -0.001558 0.003632 0.000471 0.010490
# 3 -0.003332 -0.001558 0.006387 0.001077 -0.001623 0.000452
# 4 -0.002194 0.003632 0.001077 0.038414 0.009596 -0.001248
# 5 0.001071 0.000471 -0.001623 0.009596 0.020950 0.001005
# 6 0.017183 0.010490 0.000452 -0.001248 0.001005 0.044511
#
#
# Mechanical properties :
#
#
# Convention : Reuss Voigt Hill
#
# Bulk Modulus (GPa) = 27.34982 67.81505 47.58244
# Shear Modulus (GPa) = 28.21860 42.22760 35.22310
#
# Velocity S-wave (km/s) = 3.38602 4.14210 3.78299
# Velocity P-wave (km/s) = 5.13800 7.10134 6.19790
#
# Compressibility (1/GPa) = 0.03656331
#
# Stress axis : x y z
#
# Youngs Moduli (GPa) = 43.04832 52.00795 156.56398
#
# Poissons Ratio (x) = 0.06506 0.52169
# Poissons Ratio (y) = 0.05385 0.24387
# Poissons Ratio (z) = 0.14344 0.08101
#
# Static dielectric constant tensor:
#      x y z
#    x 2.658760 0.125160 0.145110 
#    y 0.125160 1.993340 0.036980 
#    z 0.145110 0.036980 1.993860 
# 
# From -- ./inp_files/39331.got.cif
#   From: 2010.05.17/outbox.cif.g08.bks.cpg/sg2_20_cif.got.tgz:39331.got - 2010.06.03 11:33:40.
