data_PCOD9090265
_publ_section_title
;
Structure prediction by ZEFSAII (Michael W. Deem and Ramdas Pophale) SiO2 
 PCOD9090265
Probable space group: P -1
;
_chemical_formula_sum "Si O2"
_cell_formula_units_Z 14
_cell_length_a 9.691443
_cell_length_b 12.215593
_cell_length_c 17.428469
_cell_angle_alpha 19.676958
_cell_angle_beta 121.273151
_cell_angle_gamma 112.247801
_cell_volume 548.551193
_symmetry_space_group_name_H-M "P -1"
_symmetry_group_IT_number 2
_symmetry_cell_setting 'triclinic'
loop_
_space_group_symop_operation_xyz
x,y,z
-x,-y,-z
loop_
_atom_site_type_symbol
_atom_site_label
_atom_site_fract_x
_atom_site_fract_y
_atom_site_fract_z
Si Si1 0.067044 0.883109 0.943244
Si Si2 0.781616 0.000076 0.659543
Si Si3 0.234064 0.227966 0.524900
Si Si4 0.317195 0.185015 0.867384
Si Si5 0.892741 0.159138 0.440533
Si Si6 0.411834 0.167799 0.161677
Si Si7 0.732632 0.217160 0.730649
O O1 0.170747 0.140095 0.798939
O O2 0.196318 0.504675 0.260909
O O3 0.957723 0.849858 0.860672
O O4 0.924061 0.031306 0.872092
O O5 0.714861 0.419694 0.378423
O O6 0.819000 0.941888 0.618839
O O7 0.646599 0.849655 0.756721
O O8 0.288971 0.399923 0.500134
O O9 0.047503 0.211725 0.499031
O O10 0.391885 0.881223 0.769454
O O11 0.500000 0.000000 0.000000
O O12 0.297884 0.985837 0.070435
O O13 0.733215 0.507983 0.137602
O O14 0.000000 0.000000 0.500000
O O15 0.392214 0.823131 0.345004
#
# Coordination Sequence:
#
# PCOD9090265 Si02
#       7
#     2   2   2   2   2   2   2
#     4  10  20  36  61  91 131 174 205 247 330 393
#     4  11  21  42  65  92 131 166 216 267 316 391
#     4  11  21  42  67  96 136 171 210 265 330 384
#     4  11  20  31  57 100 134 163 207 254 318 398
#     4  12  27  48  68  91 126 176 229 274 316 371
#     4  11  24  43  68  99 131 168 212 269 331 388
#     4  10  19  38  64  95 135 171 201 255 329 397
#
# _framework density 25.521777
#
# number of rings (size 3 to 8) (size 9 to 14) (size 15 to 20)
#    0.000    1.143    4.286    5.143    0.000    4.571 
#    2.571    0.714    0.000    0.000    0.000    0.000 
#    0.000    0.000    0.000    0.000    0.000    0.000 
#
# Total GULP energy -78394.954336 kJ/mol
# GULP energy per Si atom -5599.639595 kJ/mol
# Density = 2.546369 g / cm^3
# Si number density = 25.521777 Si / 1000 Ang^3
#
#
#
# Elastic Constant Matrix: (Units=GPa)
#
#
# Indices 1 2 3 4 5 6 
#
# 1 157.2755 34.2590 77.6923 9.9059 14.8342 -21.7559
# 2 34.2590 56.3018 14.8468 -7.7763 -3.8456 -20.6940
# 3 77.6923 14.8468 99.1907 6.3556 27.7018 -17.3884
# 4 9.9059 -7.7763 6.3556 23.0979 -1.7030 -9.7549
# 5 14.8342 -3.8456 27.7018 -1.7030 49.0592 7.5901
# 6 -21.7559 -20.6940 -17.3884 -9.7549 7.5901 47.4430
#
#
#
# Elastic Compliance Matrix: (Units=1/GPa)
#
#
# Indices 1 2 3 4 5 6 
#
# 1 0.012077 -0.006418 -0.008667 -0.005624 0.000811 -0.001724
# 2 -0.006418 0.028898 0.001380 0.017969 0.001954 0.013550
# 3 -0.008667 0.001380 0.020326 0.000275 -0.009616 0.005672
# 4 -0.005624 0.017969 0.000275 0.059088 0.002354 0.017132
# 5 0.000811 0.001954 -0.009616 0.002354 0.026746 -0.006095
# 6 -0.001724 0.013550 0.005672 0.017132 -0.006095 0.032774
#
#
# Mechanical properties :
#
#
# Convention : Reuss Voigt Hill
#
# Bulk Modulus (GPa) = 29.50678 62.92935 46.21807
# Shear Modulus (GPa) = 22.87090 36.31802 29.59446
#
# Velocity S-wave (km/s) = 2.99680 3.77639 3.40895
# Velocity P-wave (km/s) = 4.85396 6.61252 5.80027
#
# Compressibility (1/GPa) = 0.03389052
#
# Stress axis : x y z
#
# Youngs Moduli (GPa) = 82.80158 34.60389 49.19808
#
# Poissons Ratio (x) = 0.22210 0.42640
# Poissons Ratio (y) = 0.53145 -0.06789
# Poissons Ratio (z) = 0.71765 -0.04775
#
# Static dielectric constant tensor:
#      x y z
#    x 2.025710 0.036330 0.023380 
#    y 0.036330 2.106470 -0.030940 
#    z 0.023380 -0.030940 2.017500 
# 
# From -- ./inp_files/590024.got.cif
#   From: 2010.05.17/outbox.cif.g08.bks.cpg/sg2_296_cif.got.tgz:590024.got - 2010.06.03 11:33:40.
