data_PCOD9090920
_publ_section_title
;
Structure prediction by ZEFSAII (Michael W. Deem and Ramdas Pophale) SiO2 
 PCOD9090920
Probable space group: P -1
;
_chemical_formula_sum "Si O2"
_cell_formula_units_Z 16
_cell_length_a 17.986674
_cell_length_b 5.621292
_cell_length_c 9.087520
_cell_angle_alpha 85.996409
_cell_angle_beta 125.677096
_cell_angle_gamma 84.583856
_cell_volume 734.132759
_symmetry_space_group_name_H-M "P -1"
_symmetry_group_IT_number 2
_symmetry_cell_setting 'triclinic'
loop_
_space_group_symop_operation_xyz
x,y,z
-x,-y,-z
loop_
_atom_site_type_symbol
_atom_site_label
_atom_site_fract_x
_atom_site_fract_y
_atom_site_fract_z
Si Si1 0.718657 0.994690 0.330287
Si Si2 0.601029 0.718456 0.431288
Si Si3 0.658598 0.730884 0.826882
Si Si4 0.117642 0.413649 0.474189
Si Si5 0.060137 0.774743 0.658166
Si Si6 0.436325 0.947668 0.063467
Si Si7 0.228973 0.817562 0.056887
Si Si8 0.773722 0.326643 0.615348
O O1 0.653826 0.887516 0.380517
O O2 0.797171 0.788887 0.366418
O O3 0.773723 0.158950 0.482198
O O4 0.654242 0.117849 0.119378
O O5 0.606319 0.775315 0.607349
O O6 0.496895 0.752312 0.247660
O O7 0.666981 0.461342 0.499428
O O8 0.710130 0.451240 0.896600
O O9 0.591466 0.807945 0.883973
O O10 0.722213 0.943722 0.902375
O O11 0.102260 0.598309 0.583848
O O12 0.156834 0.496503 0.361781
O O13 0.017506 0.339680 0.337858
O O14 0.140530 0.843070 0.848957
O O15 0.000000 0.000000 0.500000
O O16 0.500000 0.000000 0.000000
O O17 0.200551 0.797453 0.195563
#
# Coordination Sequence:
#
# PCOD9090920 Si02
#       8
#     2   2   2   2   2   2   2   2
#     4  10  19  39  61  92 129 168 220 267 337 385
#     4   9  20  40  61  91 131 170 221 274 323 387
#     4  11  23  46  67  99 133 179 222 271 334 394
#     4  10  23  40  66  92 132 173 213 283 331 391
#     4  11  25  43  65  98 132 168 225 274 331 403
#     4  10  22  39  64  95 134 175 223 275 326 394
#     4  11  26  44  73  97 133 179 222 272 337 399
#     4  10  21  41  65  93 130 176 222 272 330 397
#
# _framework density 21.794422000000001
#
# number of rings (size 3 to 8) (size 9 to 14) (size 15 to 20)
#    0.000    1.750    1.250    1.875    7.000    1.000 
#    4.500    4.375    0.000    0.000    0.000    0.000 
#    0.000    0.000    0.000    0.000    0.000    0.000 
#
# Total GULP energy -89317.009033 kJ/mol
# GULP energy per Si atom -5582.313065 kJ/mol
# Density = 2.174482 g / cm^3
# Si number density = 21.794422 Si / 1000 Ang^3
#
#
#
# Elastic Constant Matrix: (Units=GPa)
#
#
# Indices 1 2 3 4 5 6 
#
# 1 97.2392 39.0806 45.8169 3.1467 -2.1747 -20.4415
# 2 39.0806 85.2936 44.4033 4.9588 2.7793 -12.1293
# 3 45.8169 44.4033 155.0563 -3.4391 -3.2173 -8.5442
# 4 3.1467 4.9588 -3.4391 17.6955 -3.9929 -3.4587
# 5 -2.1747 2.7793 -3.2173 -3.9929 20.5164 1.3370
# 6 -20.4415 -12.1293 -8.5442 -3.4587 1.3370 27.8023
#
#
#
# Elastic Compliance Matrix: (Units=1/GPa)
#
#
# Indices 1 2 3 4 5 6 
#
# 1 0.015092 -0.004345 -0.002736 -0.000107 0.001198 0.008289
# 2 -0.004345 0.016285 -0.003445 -0.004961 -0.004331 0.002443
# 3 -0.002736 -0.003445 0.008331 0.003443 0.002194 -0.000631
# 4 -0.000107 -0.004961 0.003443 0.062696 0.013012 0.005989
# 5 0.001198 -0.004331 0.002194 0.013012 0.052412 -0.001236
# 6 0.008289 0.002443 -0.000631 0.005989 -0.001236 0.043739
#
#
# Mechanical properties :
#
#
# Convention : Reuss Voigt Hill
#
# Bulk Modulus (GPa) = 53.59896 66.24342 59.92119
# Shear Modulus (GPa) = 22.14083 27.08873 24.61478
#
# Velocity S-wave (km/s) = 3.19077 3.52933 3.36431
# Velocity P-wave (km/s) = 6.18232 6.86068 6.53031
#
# Compressibility (1/GPa) = 0.01865708
#
# Stress axis : x y z
#
# Youngs Moduli (GPa) = 66.26030 61.40510 120.02780
#
# Poissons Ratio (x) = 0.26678 0.32840
# Poissons Ratio (y) = 0.28788 0.41351
# Poissons Ratio (z) = 0.18129 0.21155
#
# Static dielectric constant tensor:
#      x y z
#    x 1.850240 0.052600 0.007280 
#    y 0.052600 1.851980 -0.000580 
#    z 0.007280 -0.000580 1.782310 
# 
# From -- ./inp_files/53078.got.cif
#   From: 2010.05.17/outbox.cif.g08.bks.cpg/sg2_27_cif.got.tgz:53078.got - 2010.06.03 11:33:40.
