data_PCOD9090670
_publ_section_title
;
Structure prediction by ZEFSAII (Michael W. Deem and Ramdas Pophale) SiO2 
 PCOD9090670
Probable space group: P -1
;
_chemical_formula_sum "Si O2"
_cell_formula_units_Z 16
_cell_length_a 9.142434
_cell_length_b 14.614288
_cell_length_c 8.012087
_cell_angle_alpha 99.036287
_cell_angle_beta 70.363290
_cell_angle_gamma 48.596583
_cell_volume 637.994873
_symmetry_space_group_name_H-M "P -1"
_symmetry_group_IT_number 2
_symmetry_cell_setting 'triclinic'
loop_
_space_group_symop_operation_xyz
x,y,z
-x,-y,-z
loop_
_atom_site_type_symbol
_atom_site_label
_atom_site_fract_x
_atom_site_fract_y
_atom_site_fract_z
Si Si1 0.790601 0.768709 0.880645
Si Si2 0.229728 0.286023 0.626935
Si Si3 0.581047 0.700878 0.768934
Si Si4 0.788069 0.360502 0.820524
Si Si5 0.424871 0.026750 0.301167
Si Si6 0.291318 0.557392 0.479018
Si Si7 0.111542 0.880977 0.170410
Si Si8 0.669911 0.129233 0.596706
O O1 0.686704 0.712495 0.885210
O O2 0.681860 0.874311 0.793710
O O3 0.073193 0.635896 0.709622
O O4 0.692930 0.869888 0.104521
O O5 0.272796 0.322187 0.449731
O O6 0.383037 0.121507 0.485859
O O7 0.390083 0.267913 0.692962
O O8 0.960286 0.371986 0.788173
O O9 0.630235 0.570502 0.687468
O O10 0.289870 0.840240 0.948884
O O11 0.803954 0.335505 0.606398
O O12 0.886959 0.231168 0.859257
O O13 0.500000 0.500000 0.000000
O O14 0.293194 0.990867 0.377628
O O15 0.500000 0.500000 0.500000
O O16 0.243581 0.842825 0.285254
O O17 0.847960 0.047693 0.344123
#
# Coordination Sequence:
#
# PCOD9090670 Si02
#       8
#     2   2   2   2   2   2   2   2
#     4  10  21  40  68  95 125 173 224 252 324 393
#     4  11  25  43  70  97 132 173 220 265 323 395
#     4  11  23  45  66  95 127 182 211 264 320 391
#     4  12  25  46  66  94 131 176 216 273 327 383
#     4  10  19  38  69  94 125 168 212 266 314 384
#     4  12  26  42  67  94 131 171 218 275 324 381
#     4  11  24  42  68  98 135 169 215 268 331 379
#     4  11  23  41  68  99 134 169 215 271 323 387
#
# _framework density 25.078572000000001
#
# number of rings (size 3 to 8) (size 9 to 14) (size 15 to 20)
#    0.000    1.000    6.250    0.750    1.750    2.500 
#    0.000    0.625    0.000    0.000    0.000    0.000 
#    0.000    0.000    0.000    0.000    0.000    0.000 
#
# Total GULP energy -89383.585646 kJ/mol
# GULP energy per Si atom -5586.474103 kJ/mol
# Density = 2.502149 g / cm^3
# Si number density = 25.078572 Si / 1000 Ang^3
#
#
#
# Elastic Constant Matrix: (Units=GPa)
#
#
# Indices 1 2 3 4 5 6 
#
# 1 136.8873 37.3779 42.9674 3.3377 -26.6322 -14.9801
# 2 37.3779 29.4797 11.9720 -1.3917 0.7521 -4.7858
# 3 42.9674 11.9720 137.7392 13.1541 -31.9679 -5.4916
# 4 3.3377 -1.3917 13.1541 32.2614 -1.2903 -5.0547
# 5 -26.6322 0.7521 -31.9679 -1.2903 50.3135 5.6839
# 6 -14.9801 -4.7858 -5.4916 -5.0547 5.6839 38.1883
#
#
#
# Elastic Compliance Matrix: (Units=1/GPa)
#
#
# Indices 1 2 3 4 5 6 
#
# 1 0.013820 -0.016966 -0.001116 -0.001129 0.006605 0.002002
# 2 -0.016966 0.057573 -0.002860 0.005342 -0.011817 0.002614
# 3 -0.001116 -0.002860 0.009450 -0.003760 0.005444 -0.000745
# 4 -0.001129 0.005342 -0.003760 0.033477 -0.002719 0.004522
# 5 0.006605 -0.011817 0.005444 -0.002719 0.027222 -0.002519
# 6 0.002002 0.002614 -0.000745 0.004522 -0.002519 0.028165
#
#
# Mechanical properties :
#
#
# Convention : Reuss Voigt Hill
#
# Bulk Modulus (GPa) = 25.66850 54.30452 39.98651
# Shear Modulus (GPa) = 22.26414 38.27190 30.26802
#
# Velocity S-wave (km/s) = 2.98279 3.91075 3.47786
# Velocity P-wave (km/s) = 4.70321 6.48789 5.66625
#
# Compressibility (1/GPa) = 0.03895826
#
# Stress axis : x y z
#
# Youngs Moduli (GPa) = 72.35980 17.36927 105.82429
#
# Poissons Ratio (x) = 0.29469 0.11809
# Poissons Ratio (y) = 1.22766 0.30267
# Poissons Ratio (z) = 0.08075 0.04968
#
# Static dielectric constant tensor:
#      x y z
#    x 1.970940 0.005670 -0.022190 
#    y 0.005670 2.043830 -0.036910 
#    z -0.022190 -0.036910 2.073280 
# 
# From -- ./inp_files/207652.got.cif
#   From: 2010.05.17/outbox.cif.g08.bks.cpg/sg2_104_cif.got.tgz:207652.got - 2010.06.03 11:33:40.
