data_PCOD9090674
_publ_section_title
;
Structure prediction by ZEFSAII (Michael W. Deem and Ramdas Pophale) SiO2 
 PCOD9090674
Probable space group: P -1
;
_chemical_formula_sum "Si O2"
_cell_formula_units_Z 14
_cell_length_a 8.324892
_cell_length_b 15.414754
_cell_length_c 13.097597
_cell_angle_alpha 22.845587
_cell_angle_beta 99.900996
_cell_angle_gamma 110.546076
_cell_volume 555.475018
_symmetry_space_group_name_H-M "P -1"
_symmetry_group_IT_number 2
_symmetry_cell_setting 'triclinic'
loop_
_space_group_symop_operation_xyz
x,y,z
-x,-y,-z
loop_
_atom_site_type_symbol
_atom_site_label
_atom_site_fract_x
_atom_site_fract_y
_atom_site_fract_z
Si Si1 0.229254 0.940180 0.214502
Si Si2 0.647178 0.909500 0.142219
Si Si3 0.652844 0.556034 0.686547
Si Si4 0.821604 0.208891 0.298413
Si Si5 0.510754 0.962848 0.693672
Si Si6 0.020417 0.033165 0.281719
Si Si7 0.076230 0.612824 0.210799
O O1 0.123934 0.999093 0.229910
O O2 0.085500 0.652519 0.472609
O O3 0.408777 0.945669 0.283008
O O4 0.283421 0.126531 0.921733
O O5 0.573957 0.666137 0.472554
O O6 0.500000 0.000000 0.000000
O O7 0.819834 0.146967 0.962581
O O8 0.807054 0.794528 0.509596
O O9 0.770099 0.446205 0.757615
O O10 0.509612 0.323406 0.994959
O O11 0.693693 0.106221 0.294588
O O12 0.888535 0.015894 0.556746
O O13 0.665793 0.168568 0.410904
O O14 0.000000 0.500000 0.000000
O O15 0.021350 0.298226 0.981792
#
# Coordination Sequence:
#
# PCOD9090674 Si02
#       7
#     2   2   2   2   2   2   2
#     4  10  22  39  60  92 132 164 214 264 315 374
#     4  11  24  39  61  93 125 175 215 259 316 379
#     4  10  21  40  62  90 131 165 211 265 314 375
#     4  10  19  38  69  96 122 166 215 261 325 384
#     4  10  21  37  65  96 127 166 209 264 325 374
#     4   9  20  39  64  92 124 170 209 265 322 375
#     4  10  22  39  63  89 129 171 214 260 314 381
#
# _framework density 25.203652999999999
#
# number of rings (size 3 to 8) (size 9 to 14) (size 15 to 20)
#    0.000    2.000    1.429    1.286    0.000   10.857 
#    0.000    1.429    0.000    0.000    0.000    0.000 
#    0.000    0.000    0.000    0.000    0.000    0.000 
#
# Total GULP energy -78283.989901 kJ/mol
# GULP energy per Si atom -5591.713564 kJ/mol
# Density = 2.514629 g / cm^3
# Si number density = 25.203653 Si / 1000 Ang^3
#
#
#
# Elastic Constant Matrix: (Units=GPa)
#
#
# Indices 1 2 3 4 5 6 
#
# 1 79.7366 52.7033 64.9694 11.0413 4.5256 19.6282
# 2 52.7033 94.4123 18.1134 7.0975 3.4629 15.0243
# 3 64.9694 18.1134 113.7887 16.2913 0.0235 12.3114
# 4 11.0413 7.0975 16.2913 43.6156 17.4255 1.1901
# 5 4.5256 3.4629 0.0235 17.4255 48.5786 2.1956
# 6 19.6282 15.0243 12.3114 1.1901 2.1956 47.2063
#
#
#
# Elastic Compliance Matrix: (Units=1/GPa)
#
#
# Indices 1 2 3 4 5 6 
#
# 1 0.045707 -0.020162 -0.022377 0.001462 -0.003034 -0.006647
# 2 -0.020162 0.020354 0.008571 -0.001839 0.001098 -0.000335
# 3 -0.022377 0.008571 0.020758 -0.004761 0.003120 0.001137
# 4 0.001462 -0.001839 -0.004761 0.028747 -0.010359 0.000976
# 5 -0.003034 0.001098 0.003120 -0.010359 0.024539 -0.000782
# 6 -0.006647 -0.000335 0.001137 0.000976 -0.000782 0.023769
#
#
# Mechanical properties :
#
#
# Convention : Reuss Voigt Hill
#
# Bulk Modulus (GPa) = 52.95817 62.16773 57.56295
# Shear Modulus (GPa) = 20.99919 38.02353 29.51136
#
# Velocity S-wave (km/s) = 2.88962 3.88835 3.42558
# Velocity P-wave (km/s) = 5.67370 6.69916 6.20764
#
# Compressibility (1/GPa) = 0.01888283
#
# Stress axis : x y z
#
# Youngs Moduli (GPa) = 21.87861 49.13095 48.17371
#
# Poissons Ratio (x) = 0.99059 1.07798
# Poissons Ratio (y) = 0.44112 -0.41291
# Poissons Ratio (z) = 0.48958 -0.42112
#
# Static dielectric constant tensor:
#      x y z
#    x 2.079670 0.001200 -0.025560 
#    y 0.001200 1.992060 0.029440 
#    z -0.025560 0.029440 1.981670 
# 
# From -- ./inp_files/135064.got.cif
#   From: 2010.05.17/outbox.cif.g08.bks.cpg/sg2_68_cif.got.tgz:135064.got - 2010.06.03 11:33:40.
