data_PCOD9090022
_publ_section_title
;
Structure prediction by ZEFSAII (Michael W. Deem and Ramdas Pophale) SiO2 
 PCOD9090022
Probable space group: P -1
;
_chemical_formula_sum "Si O2"
_cell_formula_units_Z 16
_cell_length_a 7.951725
_cell_length_b 11.768970
_cell_length_c 12.253267
_cell_angle_alpha 60.085871
_cell_angle_beta 117.283506
_cell_angle_gamma 71.172695
_cell_volume 616.964268
_symmetry_space_group_name_H-M "P -1"
_symmetry_group_IT_number 2
_symmetry_cell_setting 'triclinic'
loop_
_space_group_symop_operation_xyz
x,y,z
-x,-y,-z
loop_
_atom_site_type_symbol
_atom_site_label
_atom_site_fract_x
_atom_site_fract_y
_atom_site_fract_z
Si Si1 0.439127 0.774509 0.526073
Si Si2 0.927008 0.824552 0.196294
Si Si3 0.141347 0.945974 0.744518
Si Si4 0.291917 0.028536 0.162430
Si Si5 0.473033 0.488472 0.654714
Si Si6 0.363008 0.260380 0.178075
Si Si7 0.297034 0.292624 0.705232
Si Si8 0.682237 0.422298 0.986420
O O1 0.615976 0.560965 0.643109
O O2 0.581149 0.790272 0.652566
O O3 0.328558 0.902248 0.326496
O O4 0.166378 0.861920 0.467113
O O5 0.753464 0.776114 0.172671
O O6 0.214986 0.646872 0.422266
O O7 0.806149 0.996816 0.156885
O O8 0.920920 0.878580 0.044853
O O9 0.362224 0.860798 0.756852
O O10 0.129157 0.797525 0.839962
O O11 0.230335 0.198280 0.117035
O O12 0.587790 0.869451 0.269166
O O13 0.492593 0.320911 0.733236
O O14 0.499353 0.484994 0.795832
O O15 0.224266 0.472802 0.033175
O O16 0.000000 0.500000 0.500000
O O17 0.500000 0.500000 0.000000
#
# Coordination Sequence:
#
# PCOD9090022 Si02
#       8
#     2   2   2   2   2   2   2   2
#     4  10  23  40  59  90 124 162 202 243 306 359
#     4  10  21  36  62  90 117 157 205 249 299 355
#     4  10  19  38  63  88 117 158 210 250 290 358
#     4  12  23  38  63  89 127 161 194 251 310 363
#     4   9  20  38  58  85 122 153 201 248 293 356
#     4  10  21  39  61  86 121 164 204 242 296 365
#     4  10  21  38  60  90 118 155 203 251 297 357
#     4   9  19  34  59  87 115 155 201 250 292 341
#
# _framework density 25.933432
#
# number of rings (size 3 to 8) (size 9 to 14) (size 15 to 20)
#    0.000    2.000    1.250    1.875    3.500    3.500 
#    0.000    5.625    0.000    0.000    0.000    0.000 
#    0.000    0.000    0.000    0.000    0.000    0.000 
#
# Total GULP energy -89104.110630 kJ/mol
# GULP energy per Si atom -5569.006914 kJ/mol
# Density = 2.587441 g / cm^3
# Si number density = 25.933432 Si / 1000 Ang^3
#
#
#
# Elastic Constant Matrix: (Units=GPa)
#
#
# Indices 1 2 3 4 5 6 
#
# 1 71.4101 30.3150 0.7332 -2.2936 -17.7347 7.6332
# 2 30.3150 167.9589 23.9012 0.0213 -14.3798 26.8953
# 3 0.7332 23.9012 34.0888 0.1614 -9.4133 -6.0588
# 4 -2.2936 0.0213 0.1614 56.5752 3.0296 -6.6704
# 5 -17.7347 -14.3798 -9.4133 3.0296 47.3215 -9.2428
# 6 7.6332 26.8953 -6.0588 -6.6704 -9.2428 42.2626
#
#
#
# Elastic Compliance Matrix: (Units=1/GPa)
#
#
# Indices 1 2 3 4 5 6 
#
# 1 0.016775 -0.003185 0.003763 0.000451 0.006228 0.000970
# 2 -0.003185 0.008466 -0.007321 -0.000782 -0.001250 -0.006259
# 3 0.003763 -0.007321 0.039000 0.000935 0.009173 0.011724
# 4 0.000451 -0.000782 0.000935 0.018104 -0.000393 0.003322
# 5 0.006228 -0.001250 0.009173 -0.000393 0.026237 0.006662
# 6 0.000970 -0.006259 0.011724 0.003322 0.006662 0.031131
#
#
# Mechanical properties :
#
#
# Convention : Reuss Voigt Hill
#
# Bulk Modulus (GPa) = 19.70333 42.59516 31.14925
# Shear Modulus (GPa) = 29.39127 43.79911 36.59519
#
# Velocity S-wave (km/s) = 3.37016 4.11409 3.76056
# Velocity P-wave (km/s) = 4.77054 6.24725 5.55816
#
# Compressibility (1/GPa) = 0.05075283
#
# Stress axis : x y z
#
# Youngs Moduli (GPa) = 59.61369 118.12153 25.64106
#
# Poissons Ratio (x) = 0.37625 -0.09648
# Poissons Ratio (y) = 0.18989 0.18772
# Poissons Ratio (z) = -0.22430 0.86478
#
# Static dielectric constant tensor:
#      x y z
#    x 2.034850 0.016690 -0.024610 
#    y 0.016690 2.061140 -0.032550 
#    z -0.024610 -0.032550 2.019690 
# 
# From -- ./inp_files/338861.got.cif
#   From: 2010.05.17/outbox.cif.g08.bks.cpg/sg2_170_cif.got.tgz:338861.got - 2010.06.03 11:33:40.
