data_PCOD9090583
_publ_section_title
;
Structure prediction by ZEFSAII (Michael W. Deem and Ramdas Pophale) SiO2 
 PCOD9090583
Probable space group: P -1
;
_chemical_formula_sum "Si O2"
_cell_formula_units_Z 16
_cell_length_a 19.958395
_cell_length_b 13.974774
_cell_length_c 11.457995
_cell_angle_alpha 149.586713
_cell_angle_beta 148.561091
_cell_angle_gamma 32.061292
_cell_volume 764.632687
_symmetry_space_group_name_H-M "P -1"
_symmetry_group_IT_number 2
_symmetry_cell_setting 'triclinic'
loop_
_space_group_symop_operation_xyz
x,y,z
-x,-y,-z
loop_
_atom_site_type_symbol
_atom_site_label
_atom_site_fract_x
_atom_site_fract_y
_atom_site_fract_z
Si Si1 0.107186 0.479687 0.787583
Si Si2 0.374292 0.953245 0.380173
Si Si3 0.215111 0.130449 0.087267
Si Si4 0.664496 0.557754 0.346921
Si Si5 0.320927 0.709645 0.707867
Si Si6 0.082291 0.137159 0.242131
Si Si7 0.626259 0.624571 0.092961
Si Si8 0.921889 0.406566 0.878905
O O1 0.068599 0.294996 0.492101
O O2 0.246575 0.450476 0.889471
O O3 0.983544 0.700523 0.792849
O O4 0.127080 0.461728 0.936252
O O5 0.507915 0.735726 0.332308
O O6 0.300086 0.033334 0.229771
O O7 0.244682 0.976824 0.294391
O O8 0.418240 0.130858 0.684171
O O9 0.234621 0.344851 0.345116
O O10 0.049463 0.194586 0.892414
O O11 0.280034 0.955269 0.900285
O O12 0.690014 0.351551 0.237975
O O13 0.677832 0.525502 0.194059
O O14 0.210157 0.639659 0.407378
O O15 0.489101 0.597518 0.814747
O O16 0.000000 0.000000 0.000000
O O17 0.000000 0.500000 0.000000
#
# Coordination Sequence:
#
# PCOD9090583 Si02
#       8
#     2   2   2   2   2   2   2   2
#     4  10  24  44  61  92 136 165 210 267 319 377
#     4  10  19  38  67  95 132 152 207 278 317 372
#     4  11  21  42  61  93 125 160 215 263 317 367
#     4  11  21  38  65 102 127 155 214 269 324 373
#     4  12  24  38  68  94 126 174 213 258 313 384
#     4  10  22  39  67  98 128 167 204 263 330 381
#     4  10  21  39  65  95 127 165 203 272 326 362
#     4  12  26  46  64  89 131 179 217 259 314 383
#
# _framework density 20.925080000000001
#
# number of rings (size 3 to 8) (size 9 to 14) (size 15 to 20)
#    0.000    1.250    5.000    1.500    3.500    1.500 
#    2.250    0.000    0.000    2.250    0.000    0.000 
#    0.000    0.000    0.000    0.000    0.000    0.000 
#
# Total GULP energy -89217.539363 kJ/mol
# GULP energy per Si atom -5576.096210 kJ/mol
# Density = 2.087745 g / cm^3
# Si number density = 20.925080 Si / 1000 Ang^3
#
#
#
# Elastic Constant Matrix: (Units=GPa)
#
#
# Indices 1 2 3 4 5 6 
#
# 1 100.1436 19.3480 59.7261 -7.0943 -7.9864 -16.3177
# 2 19.3480 48.1135 33.9581 -18.4395 -4.3343 -14.8688
# 3 59.7261 33.9581 151.8399 -31.0594 12.4181 -6.8957
# 4 -7.0943 -18.4395 -31.0594 35.3340 -1.7706 4.6004
# 5 -7.9864 -4.3343 12.4181 -1.7706 30.8311 -0.7053
# 6 -16.3177 -14.8688 -6.8957 4.6004 -0.7053 16.2945
#
#
#
# Elastic Compliance Matrix: (Units=1/GPa)
#
#
# Indices 1 2 3 4 5 6 
#
# 1 0.017986 0.004319 -0.008672 -0.003881 0.008988 0.019768
# 2 0.004319 0.041009 -0.007887 0.011261 0.011525 0.035728
# 3 -0.008672 -0.007887 0.013341 0.007080 -0.008610 -0.012607
# 4 -0.003881 0.011261 0.007080 0.039864 -0.000027 -0.001870
# 5 0.008988 0.011525 -0.008610 -0.000027 0.040253 0.017624
# 6 0.019768 0.035728 -0.012607 -0.001870 0.017624 0.109724
#
#
# Mechanical properties :
#
#
# Convention : Reuss Voigt Hill
#
# Bulk Modulus (GPa) = 20.89580 58.46236 39.67908
# Shear Modulus (GPa) = 16.52301 28.96293 22.74297
#
# Velocity S-wave (km/s) = 2.81308 3.72442 3.30036
# Velocity P-wave (km/s) = 4.53419 6.81870 5.79023
#
# Compressibility (1/GPa) = 0.04785651
#
# Stress axis : x y z
#
# Youngs Moduli (GPa) = 55.59843 24.38485 74.95885
#
# Poissons Ratio (x) = -0.10532 0.65004
# Poissons Ratio (y) = -0.24013 0.59118
# Poissons Ratio (z) = 0.48215 0.19232
#
# Static dielectric constant tensor:
#      x y z
#    x 1.796270 -0.002160 0.032580 
#    y -0.002160 1.784100 0.003240 
#    z 0.032580 0.003240 1.793770 
# 
# From -- ./inp_files/425096.got.cif
#   From: 2010.05.17/outbox.cif.g08.bks.cpg/sg2_213_cif.got.tgz:425096.got - 2010.06.03 11:33:40.
