data_PCOD9090233
_publ_section_title
;
Structure prediction by ZEFSAII (Michael W. Deem and Ramdas Pophale) SiO2 
 PCOD9090233
Probable space group: P -1
;
_chemical_formula_sum "Si O2"
_cell_formula_units_Z 16
_cell_length_a 13.017931
_cell_length_b 9.398294
_cell_length_c 8.469052
_cell_angle_alpha 84.365702
_cell_angle_beta 40.112930
_cell_angle_gamma 88.473880
_cell_volume 662.467550
_symmetry_space_group_name_H-M "P -1"
_symmetry_group_IT_number 2
_symmetry_cell_setting 'triclinic'
loop_
_space_group_symop_operation_xyz
x,y,z
-x,-y,-z
loop_
_atom_site_type_symbol
_atom_site_label
_atom_site_fract_x
_atom_site_fract_y
_atom_site_fract_z
Si Si1 0.326948 0.856436 0.706164
Si Si2 0.662274 0.443770 0.738530
Si Si3 0.126710 0.043556 0.710627
Si Si4 0.988168 0.804805 0.703365
Si Si5 0.650234 0.868039 0.189968
Si Si6 0.845049 0.718886 0.550494
Si Si7 0.484811 0.166391 0.985154
Si Si8 0.157148 0.600084 0.756859
O O1 0.514632 0.831905 0.482952
O O2 0.228021 0.707109 0.799714
O O3 0.279640 0.968003 0.608834
O O4 0.306703 0.959071 0.869808
O O5 0.806145 0.549178 0.625130
O O6 0.635406 0.276136 0.833867
O O7 0.695140 0.462801 0.508041
O O8 0.500000 0.500000 0.000000
O O9 0.101149 0.209226 0.685884
O O10 0.076264 0.959869 0.618290
O O11 0.000000 0.000000 0.000000
O O12 0.949427 0.769043 0.572536
O O13 0.090966 0.696271 0.684953
O O14 0.818004 0.800396 0.996389
O O15 0.559540 0.812471 0.146873
O O16 0.673090 0.788612 0.747787
O O17 0.500000 0.000000 0.000000
O O18 0.000000 0.500000 0.000000
#
# Coordination Sequence:
#
# PCOD9090233 Si02
#       8
#     2   2   2   2   2   2   2   2
#     4  10  21  37  64  95 133 175 225 278 337 407
#     4  10  23  44  66  92 135 182 229 278 344 416
#     4  11  21  38  64  98 135 174 224 278 348 405
#     4  10  23  41  64  99 136 174 231 287 340 408
#     4  10  19  38  64  93 131 166 222 291 327 401
#     4  10  23  39  68  92 133 182 226 280 336 408
#     4  10  20  40  65  94 127 178 230 275 335 406
#     4  11  25  43  69  97 141 182 226 283 356 413
#
# _framework density 24.152127
#
# number of rings (size 3 to 8) (size 9 to 14) (size 15 to 20)
#    0.000    1.750    2.500    1.125    5.250    0.500 
#    2.250    0.625    8.250    0.000    0.000    0.000 
#    0.000    0.000    0.000    0.000    0.000    0.000 
#
# Total GULP energy -89166.343396 kJ/mol
# GULP energy per Si atom -5572.896462 kJ/mol
# Density = 2.409716 g / cm^3
# Si number density = 24.152127 Si / 1000 Ang^3
#
#
#
# Elastic Constant Matrix: (Units=GPa)
#
#
# Indices 1 2 3 4 5 6 
#
# 1 56.5233 22.8062 4.0647 -19.3526 -11.1356 23.3244
# 2 22.8062 101.4884 28.4171 -22.4157 -9.7603 27.8943
# 3 4.0647 28.4171 94.5505 1.1726 -13.6073 6.7959
# 4 -19.3526 -22.4157 1.1726 47.8661 1.0655 -11.0936
# 5 -11.1356 -9.7603 -13.6073 1.0655 24.9476 0.0158
# 6 23.3244 27.8943 6.7959 -11.0936 0.0158 41.0875
#
#
#
# Elastic Compliance Matrix: (Units=1/GPa)
#
#
# Indices 1 2 3 4 5 6 
#
# 1 0.028988 0.000141 0.001613 0.008050 0.013539 -0.014650
# 2 0.000141 0.014377 -0.003285 0.004942 0.003690 -0.007964
# 3 0.001613 -0.003285 0.012511 -0.001610 0.006328 -0.001192
# 4 0.008050 0.004942 -0.001610 0.026291 0.003526 -0.000561
# 5 0.013539 0.003690 0.006328 0.003526 0.050879 -0.010305
# 6 -0.014650 -0.007964 -0.001192 -0.000561 -0.010305 0.038111
#
#
# Mechanical properties :
#
#
# Convention : Reuss Voigt Hill
#
# Bulk Modulus (GPa) = 18.93452 40.34869 29.64161
# Shear Modulus (GPa) = 26.06575 35.93185 30.99880
#
# Velocity S-wave (km/s) = 3.28873 3.86130 3.58646
# Velocity P-wave (km/s) = 4.71993 6.05159 5.42676
#
# Compressibility (1/GPa) = 0.05281358
#
# Stress axis : x y z
#
# Youngs Moduli (GPa) = 34.49730 69.55635 79.93209
#
# Poissons Ratio (x) = -0.00980 -0.12894
# Poissons Ratio (y) = -0.00486 0.26256
# Poissons Ratio (z) = -0.05565 0.22848
#
# Static dielectric constant tensor:
#      x y z
#    x 1.935750 -0.009120 -0.070850 
#    y -0.009120 2.100770 0.072890 
#    z -0.070850 0.072890 2.243590 
# 
# From -- ./inp_files/298131.got.cif
#   From: 2010.05.17/outbox.cif.g08.bks.cpg/sg2_150_cif.got.tgz:298131.got - 2010.06.03 11:33:40.
