data_PCOD9090539
_publ_section_title
;
Structure prediction by ZEFSAII (Michael W. Deem and Ramdas Pophale) SiO2 
 PCOD9090539
Probable space group: P -1
;
_chemical_formula_sum "Si O2"
_cell_formula_units_Z 14
_cell_length_a 11.548391
_cell_length_b 17.958846
_cell_length_c 6.502425
_cell_angle_alpha 47.821713
_cell_angle_beta 123.199762
_cell_angle_gamma 141.277744
_cell_volume 624.335952
_symmetry_space_group_name_H-M "P -1"
_symmetry_group_IT_number 2
_symmetry_cell_setting 'triclinic'
loop_
_space_group_symop_operation_xyz
x,y,z
-x,-y,-z
loop_
_atom_site_type_symbol
_atom_site_label
_atom_site_fract_x
_atom_site_fract_y
_atom_site_fract_z
Si Si1 0.533886 0.444740 0.941833
Si Si2 0.994146 0.213626 0.864380
Si Si3 0.755057 0.001910 0.673052
Si Si4 0.728141 0.544963 0.575296
Si Si5 0.503096 0.233704 0.833314
Si Si6 0.734478 0.826152 0.655527
Si Si7 0.313819 0.866836 0.965799
O O1 0.727264 0.546143 0.821063
O O2 0.384513 0.411139 0.692168
O O3 0.500000 0.500000 0.000000
O O4 0.466764 0.304376 0.207746
O O5 0.089701 0.351040 0.575111
O O6 0.902150 0.099555 0.810777
O O7 0.848537 0.187378 0.932130
O O8 0.135517 0.208375 0.133680
O O9 0.812745 0.951904 0.641965
O O10 0.714332 0.085269 0.360345
O O11 0.579393 0.866983 0.866811
O O12 0.611672 0.389006 0.697486
O O13 0.322037 0.168719 0.636657
O O14 0.644339 0.228274 0.864872
O O15 0.500000 0.000000 0.000000
#
# Coordination Sequence:
#
# PCOD9090539 Si02
#       7
#     2   2   2   2   2   2   2
#     4  10  19  38  67 100 141 173 214 280 346 412
#     4  11  27  44  69 106 145 176 229 293 348 406
#     4  12  24  45  70  98 137 185 232 287 343 411
#     4  10  23  41  67 106 136 181 226 279 351 405
#     4  12  24  44  76  98 137 187 237 276 339 425
#     4  11  23  41  72 107 132 179 232 285 346 406
#     4  12  26  47  69  97 138 192 234 280 345 413
#
# _framework density 22.423824
#
# number of rings (size 3 to 8) (size 9 to 14) (size 15 to 20)
#    0.000    0.857    5.714    0.857    0.000    6.286 
#    0.000    0.714    0.000    0.000    0.000    0.000 
#    0.000    0.000    0.000    0.000    0.000    0.000 
#
# Total GULP energy -78183.210875 kJ/mol
# GULP energy per Si atom -5584.515063 kJ/mol
# Density = 2.237279 g / cm^3
# Si number density = 22.423824 Si / 1000 Ang^3
#
#
#
# Elastic Constant Matrix: (Units=GPa)
#
#
# Indices 1 2 3 4 5 6 
#
# 1 131.9438 52.6771 49.1613 -2.8172 -12.2042 -4.9260
# 2 52.6771 92.1504 42.3473 -11.6370 -6.7523 -16.6566
# 3 49.1613 42.3473 116.5556 -7.7628 -19.7853 8.3237
# 4 -2.8172 -11.6370 -7.7628 34.4531 3.4503 -4.5981
# 5 -12.2042 -6.7523 -19.7853 3.4503 39.0994 -9.0849
# 6 -4.9260 -16.6566 8.3237 -4.5981 -9.0849 37.3513
#
#
#
# Elastic Compliance Matrix: (Units=1/GPa)
#
#
# Indices 1 2 3 4 5 6 
#
# 1 0.010607 -0.005040 -0.002520 -0.001552 0.001263 -0.000171
# 2 -0.005040 0.018442 -0.004704 0.005940 0.000930 0.009565
# 3 -0.002520 -0.004704 0.012273 0.000037 0.003614 -0.004282
# 4 -0.001552 0.005940 0.000037 0.031816 -0.000817 0.006154
# 5 0.001263 0.000930 0.003614 -0.000817 0.029630 0.006882
# 6 -0.000171 0.009565 -0.004282 0.006154 0.006882 0.034401
#
#
# Mechanical properties :
#
#
# Convention : Reuss Voigt Hill
#
# Bulk Modulus (GPa) = 59.54316 69.89123 64.71720
# Shear Modulus (GPa) = 29.88717 35.27839 32.58278
#
# Velocity S-wave (km/s) = 3.65476 3.97073 3.81602
# Velocity P-wave (km/s) = 6.66490 7.22899 6.95266
#
# Compressibility (1/GPa) = 0.01679454
#
# Stress axis : x y z
#
# Youngs Moduli (GPa) = 94.27532 54.22410 81.47908
#
# Poissons Ratio (x) = 0.27329 0.20529
# Poissons Ratio (y) = 0.47516 0.38329
# Poissons Ratio (z) = 0.23754 0.25508
#
# Static dielectric constant tensor:
#      x y z
#    x 1.876690 0.030040 -0.063160 
#    y 0.030040 1.895020 0.016690 
#    z -0.063160 0.016690 1.889070 
# 
# From -- ./inp_files/65232.got.cif
#   From: 2010.05.17/outbox.cif.g08.bks.cpg/sg2_33_cif.got.tgz:65232.got - 2010.06.03 11:33:40.
