data_PCOD9090132
_publ_section_title
;
Structure prediction by ZEFSAII (Michael W. Deem and Ramdas Pophale) SiO2 
 PCOD9090132
Probable space group: P -1
;
_chemical_formula_sum "Si O2"
_cell_formula_units_Z 16
_cell_length_a 14.179637
_cell_length_b 8.959744
_cell_length_c 7.414773
_cell_angle_alpha 70.070598
_cell_angle_beta 53.051283
_cell_angle_gamma 93.416439
_cell_volume 662.446325
_symmetry_space_group_name_H-M "P -1"
_symmetry_group_IT_number 2
_symmetry_cell_setting 'triclinic'
loop_
_space_group_symop_operation_xyz
x,y,z
-x,-y,-z
loop_
_atom_site_type_symbol
_atom_site_label
_atom_site_fract_x
_atom_site_fract_y
_atom_site_fract_z
Si Si1 0.947925 0.096976 0.165771
Si Si2 0.456667 0.980752 0.267092
Si Si3 0.197935 0.355204 0.880517
Si Si4 0.115154 0.754660 0.322649
Si Si5 0.181549 0.438604 0.270046
Si Si6 0.304926 0.193277 0.293883
Si Si7 0.314722 0.110385 0.891710
Si Si8 0.811211 0.301364 0.338831
O O1 0.896351 0.250510 0.112559
O O2 0.068931 0.195230 0.105791
O O3 0.827001 0.953464 0.445939
O O4 0.000000 0.000000 0.000000
O O5 0.331613 0.814674 0.487561
O O6 0.413279 0.141341 0.287977
O O7 0.567784 0.947574 0.260619
O O8 0.500000 0.000000 0.000000
O O9 0.220113 0.435049 0.019714
O O10 0.298158 0.269361 0.742205
O O11 0.178384 0.505537 0.728749
O O12 0.179058 0.621979 0.238800
O O13 0.140876 0.753896 0.507801
O O14 0.965314 0.685583 0.486104
O O15 0.192143 0.941140 0.085346
O O16 0.277314 0.365017 0.291573
O O17 0.323759 0.170852 0.066659
#
# Coordination Sequence:
#
# PCOD9090132 Si02
#       8
#     2   2   2   2   2   2   2   2
#     4  11  22  35  59  87 123 157 191 234 299 356
#     4   9  17  37  64  83 110 157 202 247 287 342
#     4  11  23  37  56  88 127 151 192 245 302 347
#     4  11  20  36  62  88 118 160 199 237 289 358
#     4  10  22  34  59  87 126 152 194 243 295 349
#     4   9  18  36  56  86 113 154 198 241 282 353
#     4  10  19  38  64  83 112 160 204 242 291 342
#     4  11  22  38  60  91 121 154 195 243 296 351
#
# _framework density 24.152901
#
# number of rings (size 3 to 8) (size 9 to 14) (size 15 to 20)
#    0.000    1.750    5.000    1.125    1.750    4.500 
#    0.000    0.625    0.000    6.750    0.000    0.000 
#    0.000    0.000    0.000    0.000    0.000    0.000 
#
# Total GULP energy -89360.340490 kJ/mol
# GULP energy per Si atom -5585.021281 kJ/mol
# Density = 2.409793 g / cm^3
# Si number density = 24.152901 Si / 1000 Ang^3
#
#
#
# Elastic Constant Matrix: (Units=GPa)
#
#
# Indices 1 2 3 4 5 6 
#
# 1 73.6729 48.0421 21.4920 7.2002 -7.2591 -43.8528
# 2 48.0421 170.1936 23.8116 13.7109 -3.5930 -55.9131
# 3 21.4920 23.8116 40.7065 7.8985 -11.5078 -16.6664
# 4 7.2002 13.7109 7.8985 28.4997 -3.4444 -3.7108
# 5 -7.2591 -3.5930 -11.5078 -3.4444 23.8068 10.7942
# 6 -43.8528 -55.9131 -16.6664 -3.7108 10.7942 51.2095
#
#
#
# Elastic Compliance Matrix: (Units=1/GPa)
#
#
# Indices 1 2 3 4 5 6 
#
# 1 0.029818 0.001096 -0.007010 -0.003548 -0.006207 0.025501
# 2 0.001096 0.009981 -0.002324 -0.003510 -0.005196 0.011921
# 3 -0.007010 -0.002324 0.034182 -0.005025 0.013601 -0.000647
# 4 -0.003548 -0.003510 -0.005025 0.038752 0.004588 -0.006665
# 5 -0.006207 -0.005196 0.013601 0.004588 0.054610 -0.017740
# 6 0.025501 0.011921 -0.000647 -0.006665 -0.017740 0.057426
#
#
# Mechanical properties :
#
#
# Convention : Reuss Voigt Hill
#
# Bulk Modulus (GPa) = 17.38976 52.36270 34.87623
# Shear Modulus (GPa) = 19.20029 33.45169 26.32599
#
# Velocity S-wave (km/s) = 2.82254 3.72559 3.30505
# Velocity P-wave (km/s) = 4.22348 6.34298 5.38847
#
# Compressibility (1/GPa) = 0.05750511
#
# Stress axis : x y z
#
# Youngs Moduli (GPa) = 33.53708 100.19327 29.25525
#
# Poissons Ratio (x) = -0.10984 0.20507
# Poissons Ratio (y) = -0.03677 0.06799
# Poissons Ratio (z) = 0.23509 0.23287
#
# Static dielectric constant tensor:
#      x y z
#    x 2.011330 -0.049300 0.061070 
#    y -0.049300 1.970190 0.028170 
#    z 0.061070 0.028170 1.946360 
# 
# From -- ./inp_files/258232.got.cif
#   From: 2010.05.17/outbox.cif.g08.bks.cpg/sg2_130_cif.got.tgz:258232.got - 2010.06.03 11:33:40.
