data_PCOD9090742
_publ_section_title
;
Structure prediction by ZEFSAII (Michael W. Deem and Ramdas Pophale) SiO2 
 PCOD9090742
Probable space group: P -1
;
_chemical_formula_sum "Si O2"
_cell_formula_units_Z 14
_cell_length_a 5.207217
_cell_length_b 6.847533
_cell_length_c 25.843981
_cell_angle_alpha 59.574755
_cell_angle_beta 117.075747
_cell_angle_gamma 108.508347
_cell_volume 702.972788
_symmetry_space_group_name_H-M "P -1"
_symmetry_group_IT_number 2
_symmetry_cell_setting 'triclinic'
loop_
_space_group_symop_operation_xyz
x,y,z
-x,-y,-z
loop_
_atom_site_type_symbol
_atom_site_label
_atom_site_fract_x
_atom_site_fract_y
_atom_site_fract_z
Si Si1 0.636408 0.220116 0.419337
Si Si2 0.689338 0.711831 0.514359
Si Si3 0.125966 0.748063 0.910102
Si Si4 0.964626 0.783258 0.210854
Si Si5 0.083920 0.594633 0.147286
Si Si6 0.497949 0.541217 0.272049
Si Si7 0.773301 0.918985 0.945494
O O1 0.417738 0.264267 0.439621
O O2 0.556160 0.349563 0.343355
O O3 0.968103 0.308082 0.453432
O O4 0.633682 0.948259 0.449834
O O5 0.500000 0.500000 0.500000
O O6 0.461800 0.800484 0.949961
O O7 0.058196 0.521573 0.900614
O O8 0.919682 0.764105 0.938275
O O9 0.063082 0.954862 0.838256
O O10 0.863450 0.653715 0.164486
O O11 0.292401 0.718083 0.253915
O O12 0.784494 0.677486 0.256579
O O13 0.304058 0.448451 0.217077
O O14 0.259893 0.840428 0.118145
O O15 0.000000 0.000000 0.000000
#
# Coordination Sequence:
#
# PCOD9090742 Si02
#       7
#     2   2   2   2   2   2   2
#     4  10  21  38  60  84 117 149 186 238 278 329
#     4  10  21  40  60  82 116 152 192 229 279 330
#     4  11  21  39  62  80 112 157 180 233 293 326
#     4   9  19  37  55  81 119 142 182 230 281 333
#     4   9  23  37  61  81 120 142 189 233 280 341
#     4  10  19  39  57  84 119 145 182 239 281 327
#     4  11  24  40  58  85 114 147 194 235 277 339
#
# _framework density 19.915423000000001
#
# number of rings (size 3 to 8) (size 9 to 14) (size 15 to 20)
#    0.857    1.143    1.429    1.714    2.000    1.143 
#    5.143    0.000    0.000    0.000    0.000    0.000 
#    0.000    0.000    0.000    0.000    0.000    0.000 
#
# Total GULP energy -78075.090920 kJ/mol
# GULP energy per Si atom -5576.792209 kJ/mol
# Density = 1.987009 g / cm^3
# Si number density = 19.915423 Si / 1000 Ang^3
#
#
#
# Elastic Constant Matrix: (Units=GPa)
#
#
# Indices 1 2 3 4 5 6 
#
# 1 93.2217 2.1721 -12.1448 -4.5947 -6.7360 -6.8546
# 2 2.1721 78.8084 0.6194 4.6166 7.6982 1.9933
# 3 -12.1448 0.6194 62.5615 -14.6411 5.1206 -10.0636
# 4 -4.5947 4.6166 -14.6411 12.2942 0.9753 1.2456
# 5 -6.7360 7.6982 5.1206 0.9753 22.8364 3.7710
# 6 -6.8546 1.9933 -10.0636 1.2456 3.7710 16.0348
#
#
#
# Elastic Compliance Matrix: (Units=1/GPa)
#
#
# Indices 1 2 3 4 5 6 
#
# 1 0.012980 -0.001449 0.006839 0.012580 0.000783 0.008860
# 2 -0.001449 0.013637 -0.002317 -0.007891 -0.003794 -0.002263
# 3 0.006839 -0.002317 0.030534 0.038336 -0.009248 0.021572
# 4 0.012580 -0.007891 0.038336 0.133274 -0.011685 0.022814
# 5 0.000783 -0.003794 -0.009248 -0.011685 0.050510 -0.015969
# 6 0.008860 -0.002263 0.021572 0.022814 -0.015969 0.081955
#
#
# Mechanical properties :
#
#
# Convention : Reuss Voigt Hill
#
# Bulk Modulus (GPa) = 15.79821 23.98723 19.89272
# Shear Modulus (GPa) = 14.79983 26.49606 20.64794
#
# Velocity S-wave (km/s) = 2.72901 3.65146 3.22340
# Velocity P-wave (km/s) = 4.22846 5.46336 4.88508
#
# Compressibility (1/GPa) = 0.06329830
#
# Stress axis : x y z
#
# Youngs Moduli (GPa) = 77.04160 73.32833 32.75084
#
# Poissons Ratio (x) = 0.10626 -0.22399
# Poissons Ratio (y) = 0.11164 0.07587
# Poissons Ratio (z) = -0.52691 0.16987
#
# Static dielectric constant tensor:
#      x y z
#    x 1.717490 -0.009880 0.008550 
#    y -0.009880 1.683910 -0.007120 
#    z 0.008550 -0.007120 1.721770 
# 
# From -- ./inp_files/603177.got.cif
#   From: 2010.05.17/outbox.cif.g08.bks.cpg/sg2_302_cif.got.tgz:603177.got - 2010.06.03 11:33:40.
