data_PCOD9090276
_publ_section_title
;
Structure prediction by ZEFSAII (Michael W. Deem and Ramdas Pophale) SiO2 
 PCOD9090276
Probable space group: P -1
;
_chemical_formula_sum "Si O2"
_cell_formula_units_Z 16
_cell_length_a 8.071886
_cell_length_b 11.183674
_cell_length_c 9.150019
_cell_angle_alpha 84.665348
_cell_angle_beta 72.160345
_cell_angle_gamma 112.968758
_cell_volume 702.342793
_symmetry_space_group_name_H-M "P -1"
_symmetry_group_IT_number 2
_symmetry_cell_setting 'triclinic'
loop_
_space_group_symop_operation_xyz
x,y,z
-x,-y,-z
loop_
_atom_site_type_symbol
_atom_site_label
_atom_site_fract_x
_atom_site_fract_y
_atom_site_fract_z
Si Si1 0.158559 0.384256 0.933500
Si Si2 0.806555 0.399454 0.908154
Si Si3 0.209704 0.019671 0.376457
Si Si4 0.712251 0.619343 0.424301
Si Si5 0.292275 0.096844 0.651772
Si Si6 0.908989 0.837824 0.813829
Si Si7 0.676362 0.203636 0.707395
Si Si8 0.001950 0.359560 0.392920
O O1 0.278914 0.518334 0.980021
O O2 0.171452 0.257704 0.015530
O O3 0.209644 0.397825 0.750562
O O4 0.934675 0.360497 0.990778
O O5 0.686416 0.275638 0.849902
O O6 0.938427 0.514299 0.743120
O O7 0.335162 0.051965 0.485709
O O8 0.251492 0.135651 0.234468
O O9 0.217476 0.893816 0.309923
O O10 0.000000 0.000000 0.500000
O O11 0.500000 0.500000 0.500000
O O12 0.716604 0.764884 0.398523
O O13 0.839497 0.613341 0.526372
O O14 0.459749 0.123442 0.718665
O O15 0.088274 0.981955 0.778037
O O16 0.992032 0.757930 0.695075
O O17 0.798300 0.311185 0.536666
#
# Coordination Sequence:
#
# PCOD9090276 Si02
#       8
#     2   2   2   2   2   2   2   2
#     4  10  24  44  69  94 137 179 223 274 340 400
#     4  10  23  41  65 101 129 182 226 270 335 396
#     4  10  19  38  64  98 132 175 223 273 326 390
#     4  12  25  43  69 104 129 174 229 279 334 401
#     4  11  23  38  65 107 133 169 230 276 329 390
#     4  10  21  43  68  96 133 181 220 268 338 396
#     4  12  21  37  68  99 137 172 226 275 327 394
#     4  11  20  40  71  91 135 178 224 277 324 395
#
# _framework density 22.780897
#
# number of rings (size 3 to 8) (size 9 to 14) (size 15 to 20)
#    0.000    1.250    5.000    2.250    1.750    0.500 
#    0.000    6.250    2.750    0.000    0.000    0.000 
#    0.000    0.000    0.000    0.000    0.000    0.000 
#
# Total GULP energy -89418.788886 kJ/mol
# GULP energy per Si atom -5588.674305 kJ/mol
# Density = 2.272905 g / cm^3
# Si number density = 22.780897 Si / 1000 Ang^3
#
#
#
# Elastic Constant Matrix: (Units=GPa)
#
#
# Indices 1 2 3 4 5 6 
#
# 1 65.9375 34.3570 23.5478 3.0406 23.4189 3.1581
# 2 34.3570 131.1269 26.3961 15.4121 13.7746 -7.3177
# 3 23.5478 26.3961 62.1591 6.0305 29.3223 -0.8746
# 4 3.0406 15.4121 6.0305 25.2094 -0.2365 18.2218
# 5 23.4189 13.7746 29.3223 -0.2365 27.7658 -2.4524
# 6 3.1581 -7.3177 -0.8746 18.2218 -2.4524 37.5500
#
#
#
# Elastic Compliance Matrix: (Units=1/GPa)
#
#
# Indices 1 2 3 4 5 6 
#
# 1 0.024980 -0.005718 0.002574 0.004561 -0.021510 -0.006773
# 2 -0.005718 0.011198 -0.002602 -0.011576 0.002658 0.008394
# 3 0.002574 -0.002602 0.034805 -0.008762 -0.037544 0.001887
# 4 0.004561 -0.011576 -0.008762 0.077063 0.008299 -0.039698
# 5 -0.021510 0.002658 -0.037544 0.008299 0.092868 0.003490
# 6 -0.006773 0.008394 0.001887 -0.039698 0.003490 0.048372
#
#
# Mechanical properties :
#
#
# Convention : Reuss Voigt Hill
#
# Bulk Modulus (GPa) = 16.80897 47.53615 32.17256
# Shear Modulus (GPa) = 15.59546 29.76653 22.68099
#
# Velocity S-wave (km/s) = 2.61930 3.61867 3.15876
# Velocity P-wave (km/s) = 4.06721 6.19449 5.23994
#
# Compressibility (1/GPa) = 0.05949203
#
# Stress axis : x y z
#
# Youngs Moduli (GPa) = 40.03261 89.30270 28.73173
#
# Poissons Ratio (x) = 0.51060 -0.07396
# Poissons Ratio (y) = 0.22889 0.07475
# Poissons Ratio (z) = -0.10305 0.23234
#
# Static dielectric constant tensor:
#      x y z
#    x 2.882260 -0.201910 -0.501890 
#    y -0.201910 1.935820 0.108130 
#    z -0.501890 0.108130 2.103570 
# 
# From -- ./inp_files/178842.got.cif
#   From: 2010.05.17/outbox.cif.g08.bks.cpg/sg2_90_cif.got.tgz:178842.got - 2010.06.03 11:33:40.
