data_PCOD9090038
_publ_section_title
;
Structure prediction by ZEFSAII (Michael W. Deem and Ramdas Pophale) SiO2 
 PCOD9090038
Probable space group: P -1
;
_chemical_formula_sum "Si O2"
_cell_formula_units_Z 16
_cell_length_a 9.596097
_cell_length_b 15.885131
_cell_length_c 7.612631
_cell_angle_alpha 114.918656
_cell_angle_beta 99.634181
_cell_angle_gamma 51.726476
_cell_volume 819.029702
_symmetry_space_group_name_H-M "P -1"
_symmetry_group_IT_number 2
_symmetry_cell_setting 'triclinic'
loop_
_space_group_symop_operation_xyz
x,y,z
-x,-y,-z
loop_
_atom_site_type_symbol
_atom_site_label
_atom_site_fract_x
_atom_site_fract_y
_atom_site_fract_z
Si Si1 0.915945 0.292313 0.119094
Si Si2 0.289546 0.067819 0.497468
Si Si3 0.082854 0.319594 0.507131
Si Si4 0.913166 0.919762 0.225850
Si Si5 0.181127 0.555023 0.109954
Si Si6 0.346737 0.365070 0.708110
Si Si7 0.260857 0.877231 0.399819
Si Si8 0.542987 0.482120 0.289081
O O1 0.711372 0.347716 0.168447
O O2 0.983610 0.334713 0.320019
O O3 0.906510 0.348833 0.979760
O O4 0.040534 0.151237 0.005083
O O5 0.196058 0.182201 0.460867
O O6 0.196234 0.109520 0.705205
O O7 0.500000 0.000000 0.500000
O O8 0.252360 0.974285 0.364160
O O9 0.220893 0.348786 0.554526
O O10 0.943379 0.396895 0.703055
O O11 0.107291 0.867511 0.303232
O O12 0.795983 0.059597 0.362864
O O13 0.367906 0.526505 0.182440
O O14 0.240361 0.434452 0.925417
O O15 0.539677 0.240929 0.670228
O O16 0.389207 0.444492 0.691926
O O17 0.500000 0.500000 0.500000
#
# Coordination Sequence:
#
# PCOD9090038 Si02
#       8
#     2   2   2   2   2   2   2   2
#     4  11  22  39  67  92 130 164 215 257 318 373
#     4  10  19  38  63  88 129 160 206 255 319 363
#     4  12  23  40  64  96 127 169 210 262 310 384
#     4   9  18  36  64  87 118 167 204 257 310 364
#     4  11  22  42  66  92 124 169 208 260 323 372
#     4  11  23  38  64  91 130 167 208 262 319 369
#     4   9  18  36  65  88 119 166 211 254 310 367
#     4  11  23  42  64  94 125 166 211 263 314 371
#
# _framework density 19.535309999999999
#
# number of rings (size 3 to 8) (size 9 to 14) (size 15 to 20)
#    0.750    0.750    3.750    3.375    0.000    2.000 
#    2.250    3.125    2.750    0.000    0.000    0.000 
#    0.000    0.000    0.000    0.000    0.000    0.000 
#
# Total GULP energy -89137.403741 kJ/mol
# GULP energy per Si atom -5571.087734 kJ/mol
# Density = 1.949085 g / cm^3
# Si number density = 19.535310 Si / 1000 Ang^3
#
#
#
# Elastic Constant Matrix: (Units=GPa)
#
#
# Indices 1 2 3 4 5 6 
#
# 1 100.7792 20.9853 31.8820 -2.7624 14.8225 -22.9396
# 2 20.9853 72.8961 37.9013 15.9918 4.0491 -21.8545
# 3 31.8820 37.9013 118.5037 9.9938 -1.0984 -14.7267
# 4 -2.7624 15.9918 9.9938 32.5995 -4.2298 -0.8637
# 5 14.8225 4.0491 -1.0984 -4.2298 19.1485 0.9173
# 6 -22.9396 -21.8545 -14.7267 -0.8637 0.9173 29.6595
#
#
#
# Elastic Compliance Matrix: (Units=1/GPa)
#
#
# Indices 1 2 3 4 5 6 
#
# 1 0.015163 0.001454 -0.003241 0.000219 -0.012737 0.011590
# 2 0.001454 0.023651 -0.005155 -0.010715 -0.009554 0.015975
# 3 -0.003241 -0.005155 0.010919 -0.000582 0.004146 -0.001029
# 4 0.000219 -0.010715 -0.000582 0.037319 0.010654 -0.007257
# 5 -0.012737 -0.009554 0.004146 0.010654 0.067490 -0.016610
# 6 0.011590 0.015975 -0.001029 -0.007257 -0.016610 0.054243
#
#
# Mechanical properties :
#
#
# Convention : Reuss Voigt Hill
#
# Bulk Modulus (GPa) = 27.89506 52.63513 40.26510
# Shear Modulus (GPa) = 21.31135 29.70889 25.51012
#
# Velocity S-wave (km/s) = 3.30648 3.90395 3.61757
# Velocity P-wave (km/s) = 5.37470 6.87918 6.17295
#
# Compressibility (1/GPa) = 0.03584864
#
# Stress axis : x y z
#
# Youngs Moduli (GPa) = 65.95176 42.28214 91.58450
#
# Poissons Ratio (x) = -0.06148 0.29679
# Poissons Ratio (y) = -0.09589 0.47213
# Poissons Ratio (z) = 0.21372 0.21797
#
# Static dielectric constant tensor:
#      x y z
#    x 1.673260 0.008880 -0.007420 
#    y 0.008880 1.712570 0.048940 
#    z -0.007420 0.048940 1.719470 
# 
# From -- ./inp_files/215557.got.cif
#   From: 2010.05.17/outbox.cif.g08.bks.cpg/sg2_108_cif.got.tgz:215557.got - 2010.06.03 11:33:40.
