data_PCOD9090991
_publ_section_title
;
Structure prediction by ZEFSAII (Michael W. Deem and Ramdas Pophale) SiO2 
 PCOD9090991
Probable space group: P -1
;
_chemical_formula_sum "Si O2"
_cell_formula_units_Z 16
_cell_length_a 10.408548
_cell_length_b 19.282629
_cell_length_c 10.865103
_cell_angle_alpha 31.324550
_cell_angle_beta 103.469488
_cell_angle_gamma 82.786385
_cell_volume 845.379720
_symmetry_space_group_name_H-M "P -1"
_symmetry_group_IT_number 2
_symmetry_cell_setting 'triclinic'
loop_
_space_group_symop_operation_xyz
x,y,z
-x,-y,-z
loop_
_atom_site_type_symbol
_atom_site_label
_atom_site_fract_x
_atom_site_fract_y
_atom_site_fract_z
Si Si1 0.414196 0.630792 0.398522
Si Si2 0.147498 0.983159 0.130250
Si Si3 0.082123 0.145231 0.361440
Si Si4 0.029703 0.889874 0.855996
Si Si5 0.741714 0.832438 0.222927
Si Si6 0.397560 0.960189 0.865670
Si Si7 0.146707 0.487163 0.124360
Si Si8 0.506011 0.604684 0.732681
O O1 0.500000 0.500000 0.500000
O O2 0.492624 0.551530 0.671584
O O3 0.210299 0.730065 0.199727
O O4 0.430745 0.780245 0.156308
O O5 0.335598 0.807155 0.401949
O O6 0.111887 0.990549 0.254387
O O7 0.129442 0.149970 0.838483
O O8 0.000000 0.000000 0.000000
O O9 0.039163 0.166334 0.176627
O O10 0.071068 0.002620 0.627604
O O11 0.270736 0.071759 0.555581
O O12 0.941950 0.324277 0.128147
O O13 0.800112 0.647054 0.551189
O O14 0.694104 0.932338 0.191457
O O15 0.574611 0.925448 0.959432
O O16 0.318493 0.420828 0.189919
O O17 0.000000 0.500000 0.000000
O O18 0.500000 0.500000 0.000000
#
# Coordination Sequence:
#
# PCOD9090991 Si02
#       8
#     2   2   2   2   2   2   2   2
#     4  11  21  39  65  93 128 168 215 261 324 394
#     4  12  23  42  65  91 128 167 217 265 333 394
#     4  10  21  40  64  95 126 162 222 262 320 387
#     4  10  22  39  66  91 126 171 207 268 330 386
#     4  11  21  38  65  90 124 169 220 255 320 386
#     4  10  19  39  62  90 121 168 214 255 311 388
#     4  12  24  38  66  98 130 169 215 272 319 388
#     4  12  25  40  65 102 132 162 220 283 324 374
#
# _framework density 18.926404999999999
#
# number of rings (size 3 to 8) (size 9 to 14) (size 15 to 20)
#    0.000    1.000    5.000    3.000    1.750    2.000 
#    0.000    1.250    2.750    0.000    0.000    0.000 
#    0.000    0.000    0.000    0.000    0.000    0.000 
#
# Total GULP energy -89299.082709 kJ/mol
# GULP energy per Si atom -5581.192669 kJ/mol
# Density = 1.888333 g / cm^3
# Si number density = 18.926405 Si / 1000 Ang^3
#
#
#
# Elastic Constant Matrix: (Units=GPa)
#
#
# Indices 1 2 3 4 5 6 
#
# 1 88.9074 29.1514 31.8760 31.2052 22.2579 12.4269
# 2 29.1514 96.1666 19.9069 10.6162 29.2169 11.6529
# 3 31.8760 19.9069 74.0165 7.1021 12.9584 9.2428
# 4 31.2052 10.6162 7.1021 25.3222 -0.4256 1.3254
# 5 22.2579 29.2169 12.9584 -0.4256 30.4125 5.8794
# 6 12.4269 11.6529 9.2428 1.3254 5.8794 26.1835
#
#
#
# Elastic Compliance Matrix: (Units=1/GPa)
#
#
# Indices 1 2 3 4 5 6 
#
# 1 0.034912 0.004426 -0.006508 -0.043060 -0.026044 -0.008214
# 2 0.004426 0.016690 -0.001552 -0.012090 -0.017942 -0.004340
# 3 -0.006508 -0.001552 0.016680 0.004104 -0.000364 -0.002235
# 4 -0.043060 -0.012090 0.004104 0.096617 0.040736 0.010331
# 5 -0.026044 -0.017942 -0.000364 0.040736 0.069355 0.002839
# 6 -0.008214 -0.004340 -0.002235 0.010331 0.002839 0.043650
#
#
# Mechanical properties :
#
#
# Convention : Reuss Voigt Hill
#
# Bulk Modulus (GPa) = 16.38993 46.77324 31.58158
# Shear Modulus (GPa) = 16.36612 28.26071 22.31342
#
# Velocity S-wave (km/s) = 2.94381 3.86837 3.43732
# Velocity P-wave (km/s) = 4.49814 6.68725 5.69880
#
# Compressibility (1/GPa) = 0.06101308
#
# Stress axis : x y z
#
# Youngs Moduli (GPa) = 28.64372 59.91690 59.95321
#
# Poissons Ratio (x) = -0.26518 0.39019
# Poissons Ratio (y) = -0.12677 0.09302
# Poissons Ratio (z) = 0.18642 0.09297
#
# Static dielectric constant tensor:
#      x y z
#    x 1.678730 0.013020 0.015950 
#    y 0.013020 1.653470 0.019220 
#    z 0.015950 0.019220 1.701650 
# 
# From -- ./inp_files/392580.got.cif
#   From: 2010.05.17/outbox.cif.g08.bks.cpg/sg2_197_cif.got.tgz:392580.got - 2010.06.03 11:33:40.
