data_PCOD9090574
_publ_section_title
;
Structure prediction by ZEFSAII (Michael W. Deem and Ramdas Pophale) SiO2 
 PCOD9090574
Probable space group: P -1
;
_chemical_formula_sum "Si O2"
_cell_formula_units_Z 15
_cell_length_a 5.867959
_cell_length_b 4.914830
_cell_length_c 21.662550
_cell_angle_alpha 117.404507
_cell_angle_beta 65.387170
_cell_angle_gamma 100.042424
_cell_volume 504.129662
_symmetry_space_group_name_H-M "P -1"
_symmetry_group_IT_number 2
_symmetry_cell_setting 'triclinic'
loop_
_space_group_symop_operation_xyz
x,y,z
-x,-y,-z
loop_
_atom_site_type_symbol
_atom_site_label
_atom_site_fract_x
_atom_site_fract_y
_atom_site_fract_z
Si Si1 0.732267 0.268370 0.956900
Si Si2 0.173045 0.416202 0.352491
Si Si3 0.450571 0.655579 0.888796
Si Si4 0.921044 0.900316 0.335832
Si Si5 0.000000 0.500000 0.500000
Si Si6 0.384656 0.991823 0.445521
Si Si7 0.276460 0.664098 0.768977
Si Si8 0.905097 0.180648 0.806004
O O1 0.917775 0.359692 0.891749
O O2 0.644622 0.930200 0.910354
O O3 0.500000 0.500000 0.000000
O O4 0.763030 0.286611 0.028772
O O5 0.203012 0.695502 0.437266
O O6 0.472385 0.393175 0.304439
O O7 0.026084 0.649056 0.346339
O O8 0.993511 0.232313 0.406287
O O9 0.358337 0.701440 0.834041
O O10 0.617182 0.339703 0.840614
O O11 0.624589 0.967863 0.372480
O O12 0.907244 0.632371 0.245153
O O13 0.121882 0.068855 0.283706
O O14 0.761090 0.701180 0.521222
O O15 0.500000 0.000000 0.500000
O O16 0.108534 0.922569 0.784463
#
# Coordination Sequence:
#
# PCOD9090574 Si02
#       8
#     2   2   2   2   1   2   2   2
#     4   9  19  37  63  94 135 178 233 297 357 435
#     4  11  23  47  72 101 147 191 233 315 369 438
#     4  10  19  38  67  93 135 184 230 299 364 433
#     4   9  22  43  70 104 136 184 248 298 372 452
#     4  12  28  48  76 112 150 198 250 316 370 446
#     4  11  26  50  76 111 152 197 253 306 382 454
#     4   9  22  41  66 102 134 184 240 290 370 440
#     4   9  20  41  60  98 135 175 238 296 361 440
#
# _framework density 29.754254
#
# number of rings (size 3 to 8) (size 9 to 14) (size 15 to 20)
#    0.800    1.333    0.000    2.000    0.000    5.867 
#    4.800    9.333    0.000    0.000    0.000    0.000 
#    0.000    0.000    0.000    0.000    0.000    0.000 
#
# Total GULP energy -83915.377548 kJ/mol
# GULP energy per Si atom -5594.358503 kJ/mol
# Density = 2.968653 g / cm^3
# Si number density = 29.754254 Si / 1000 Ang^3
#
#
#
# Elastic Constant Matrix: (Units=GPa)
#
#
# Indices 1 2 3 4 5 6 
#
# 1 158.3591 98.8531 104.5897 9.2748 17.1227 -10.4081
# 2 98.8531 262.7667 87.8351 30.4683 2.5815 -39.3891
# 3 104.5897 87.8351 330.8412 -25.2524 -0.4066 -41.6393
# 4 9.2748 30.4683 -25.2524 75.3399 -8.2260 9.8084
# 5 17.1227 2.5815 -0.4066 -8.2260 91.6092 -7.0618
# 6 -10.4081 -39.3891 -41.6393 9.8084 -7.0618 63.8587
#
#
#
# Elastic Compliance Matrix: (Units=1/GPa)
#
#
# Indices 1 2 3 4 5 6 
#
# 1 0.010206 -0.003128 -0.002734 -0.000855 -0.002074 -0.002147
# 2 -0.003128 0.005880 -0.000343 -0.002492 0.000450 0.003326
# 3 -0.002734 -0.000343 0.004368 0.001771 0.000854 0.002013
# 4 -0.000855 -0.002492 0.001771 0.015492 0.001417 -0.002745
# 5 -0.002074 0.000450 0.000854 0.001417 0.011542 0.001555
# 6 -0.002147 0.003326 0.002013 -0.002745 0.001555 0.019267
#
#
# Mechanical properties :
#
#
# Convention : Reuss Voigt Hill
#
# Bulk Modulus (GPa) = 124.32619 148.28032 136.30325
# Shear Modulus (GPa) = 61.08954 76.87415 68.98185
#
# Velocity S-wave (km/s) = 4.53607 5.08846 4.82019
# Velocity P-wave (km/s) = 8.32524 9.19056 8.76858
#
# Compressibility (1/GPa) = 0.00804336
#
# Stress axis : x y z
#
# Youngs Moduli (GPa) = 97.97831 170.06064 228.95655
#
# Poissons Ratio (x) = 0.53195 0.62599
# Poissons Ratio (y) = 0.30648 0.07861
# Poissons Ratio (z) = 0.26788 0.05839
#
# Static dielectric constant tensor:
#      x y z
#    x 2.272290 0.313240 0.093810 
#    y 0.313240 2.439420 -0.083460 
#    z 0.093810 -0.083460 2.789930 
# 
# From -- ./inp_files/10284.got.cif
#   From: 2010.05.17/outbox.cif.g08.bks.cpg/sg2_6_cif.got.tgz:10284.got - 2010.06.03 11:33:40.
