data_PCOD9090902
_publ_section_title
;
Structure prediction by ZEFSAII (Michael W. Deem and Ramdas Pophale) SiO2 
 PCOD9090902
Probable space group: P -1
;
_chemical_formula_sum "Si O2"
_cell_formula_units_Z 16
_cell_length_a 32.015601
_cell_length_b 15.378737
_cell_length_c 19.579363
_cell_angle_alpha 19.137034
_cell_angle_beta 161.906334
_cell_angle_gamma 161.291332
_cell_volume 859.602467
_symmetry_space_group_name_H-M "P -1"
_symmetry_group_IT_number 2
_symmetry_cell_setting 'triclinic'
loop_
_space_group_symop_operation_xyz
x,y,z
-x,-y,-z
loop_
_atom_site_type_symbol
_atom_site_label
_atom_site_fract_x
_atom_site_fract_y
_atom_site_fract_z
Si Si1 0.314760 0.779904 0.183219
Si Si2 0.212062 0.569613 0.027095
Si Si3 0.023070 0.266340 0.161297
Si Si4 0.880368 0.281049 0.783712
Si Si5 0.385923 0.211764 0.348545
Si Si6 0.512117 0.911858 0.006747
Si Si7 0.131808 0.144540 0.655389
Si Si8 0.650276 0.802110 0.535488
O O1 0.295305 0.697086 0.134456
O O2 0.489579 0.902491 0.383612
O O3 0.204051 0.455743 0.287233
O O4 0.247521 0.008793 0.924084
O O5 0.219211 0.267588 0.239481
O O6 0.035363 0.470082 0.839896
O O7 0.318082 0.843242 0.937798
O O8 0.949896 0.969105 0.313820
O O9 0.937648 0.225062 0.987266
O O10 0.000000 0.500000 0.000000
O O11 0.805129 0.498841 0.516301
O O12 0.762227 0.980820 0.784477
O O13 0.472143 0.565471 0.201161
O O14 0.343616 0.181103 0.385910
O O15 0.500000 0.000000 0.000000
O O16 0.382725 0.944348 0.737094
O O17 0.000000 0.000000 0.500000
O O18 0.500000 0.500000 0.500000
#
# Coordination Sequence:
#
# PCOD9090902 Si02
#       8
#     2   2   2   2   2   2   2   2
#     4  10  20  37  65  91 118 166 211 250 291 374
#     4  10  19  40  65  89 117 166 213 242 293 377
#     4   9  19  39  62  85 116 158 213 248 285 372
#     4  11  25  40  61  95 129 157 200 265 313 346
#     4  12  24  39  60  98 130 151 202 267 310 348
#     4  11  20  38  67  87 118 170 210 241 301 372
#     4  11  20  40  67  88 120 166 211 247 303 367
#     4  10  19  39  61  88 124 155 209 249 292 372
#
# _framework density 18.613254999999999
#
# number of rings (size 3 to 8) (size 9 to 14) (size 15 to 20)
#    0.000    1.500    8.750    0.000    1.750    2.000 
#    0.000    3.125    0.000    0.000    0.000    0.000 
#    0.000    0.000    0.000    0.000    0.000    0.000 
#
# Total GULP energy -89159.598669 kJ/mol
# GULP energy per Si atom -5572.474917 kJ/mol
# Density = 1.857089 g / cm^3
# Si number density = 18.613255 Si / 1000 Ang^3
#
#
#
# Elastic Constant Matrix: (Units=GPa)
#
#
# Indices 1 2 3 4 5 6 
#
# 1 112.6589 39.6836 36.7693 8.0933 -8.3414 8.6064
# 2 39.6836 75.4538 27.0980 13.2295 -5.6427 -6.8884
# 3 36.7693 27.0980 102.4189 -3.0126 11.1781 1.6046
# 4 8.0933 13.2295 -3.0126 25.2809 0.4384 -3.5901
# 5 -8.3414 -5.6427 11.1781 0.4384 28.9496 -2.3399
# 6 8.6064 -6.8884 1.6046 -3.5901 -2.3399 24.8362
#
#
#
# Elastic Compliance Matrix: (Units=1/GPa)
#
#
# Indices 1 2 3 4 5 6 
#
# 1 0.012780 -0.005210 -0.003596 -0.002664 0.003636 -0.005684
# 2 -0.005210 0.019988 -0.004290 -0.008412 0.004733 0.006856
# 3 -0.003596 -0.004290 0.013120 0.004977 -0.007073 -0.000738
# 4 -0.002664 -0.008412 0.004977 0.046123 -0.004664 0.004496
# 5 0.003636 0.004733 -0.007073 -0.004664 0.039603 0.003566
# 6 -0.005684 0.006856 -0.000738 0.004496 0.003566 0.045169
#
#
# Mechanical properties :
#
#
# Convention : Reuss Voigt Hill
#
# Bulk Modulus (GPa) = 50.76805 55.29258 53.03032
# Shear Modulus (GPa) = 23.86199 28.27872 26.07035
#
# Velocity S-wave (km/s) = 3.58437 3.90202 3.74656
# Velocity P-wave (km/s) = 6.66819 7.07612 6.87518
#
# Compressibility (1/GPa) = 0.01969743
#
# Stress axis : x y z
#
# Youngs Moduli (GPa) = 78.24795 50.02905 76.22183
#
# Poissons Ratio (x) = 0.26065 0.27408
# Poissons Ratio (y) = 0.40766 0.32695
# Poissons Ratio (z) = 0.28137 0.21460
#
# Static dielectric constant tensor:
#      x y z
#    x 1.670660 0.030100 0.037610 
#    y 0.030100 1.649270 -0.036010 
#    z 0.037610 -0.036010 1.729620 
# 
# From -- ./inp_files/492516.got.cif
#   From: 2010.05.17/outbox.cif.g08.bks.cpg/sg2_247_cif.got.tgz:492516.got - 2010.06.03 11:33:40.
