data_PCOD9090377
_publ_section_title
;
Structure prediction by ZEFSAII (Michael W. Deem and Ramdas Pophale) SiO2 
 PCOD9090377
Probable space group: P -1
;
_chemical_formula_sum "Si O2"
_cell_formula_units_Z 14
_cell_length_a 11.349200
_cell_length_b 12.119884
_cell_length_c 12.508034
_cell_angle_alpha 140.248993
_cell_angle_beta 34.617549
_cell_angle_gamma 120.770334
_cell_volume 589.240684
_symmetry_space_group_name_H-M "P -1"
_symmetry_group_IT_number 2
_symmetry_cell_setting 'triclinic'
loop_
_space_group_symop_operation_xyz
x,y,z
-x,-y,-z
loop_
_atom_site_type_symbol
_atom_site_label
_atom_site_fract_x
_atom_site_fract_y
_atom_site_fract_z
Si Si1 0.687387 0.331043 0.792604
Si Si2 0.801675 0.343290 0.234537
Si Si3 0.826393 0.025137 0.291952
Si Si4 0.016915 0.466402 0.337826
Si Si5 0.601311 0.744098 0.625208
Si Si6 0.577136 0.124513 0.906236
Si Si7 0.260609 0.093551 0.935636
O O1 0.912900 0.378056 0.654667
O O2 0.656163 0.268639 0.888851
O O3 0.716229 0.152563 0.566298
O O4 0.500000 0.500000 0.000000
O O5 0.758020 0.532832 0.344340
O O6 0.605519 0.262592 0.298981
O O7 0.816949 0.419114 0.399090
O O8 0.032595 0.179824 0.924703
O O9 0.669154 0.044593 0.319931
O O10 0.024092 0.088667 0.145693
O O11 0.000000 0.500000 0.500000
O O12 0.220229 0.280764 0.041439
O O13 0.708115 0.903907 0.644779
O O14 0.495092 0.801226 0.865775
O O15 0.380668 0.111151 0.966933
#
# Coordination Sequence:
#
# PCOD9090377 Si02
#       7
#     2   2   2   2   2   2   2
#     4  12  26  40  61 104 135 165 206 273 336 383
#     4  10  22  42  67  97 120 172 231 259 312 385
#     4  10  22  38  64  97 131 162 213 270 326 383
#     4  11  21  39  67  96 130 166 212 265 325 390
#     4  10  23  43  70  93 125 180 222 262 308 386
#     4  11  23  42  65  97 131 170 217 265 321 382
#     4  10  19  38  65  94 126 168 208 267 325 389
#
# _framework density 23.759391999999998
#
# number of rings (size 3 to 8) (size 9 to 14) (size 15 to 20)
#    0.000    1.429    4.286    0.857    0.000    0.571 
#    0.000    4.286    0.000    0.000    0.000    0.000 
#    0.000    0.000    0.000    0.000    0.000    0.000 
#
# Total GULP energy -77964.534562 kJ/mol
# GULP energy per Si atom -5568.895326 kJ/mol
# Density = 2.370531 g / cm^3
# Si number density = 23.759392 Si / 1000 Ang^3
#
#
#
# Elastic Constant Matrix: (Units=GPa)
#
#
# Indices 1 2 3 4 5 6 
#
# 1 131.6643 13.3243 24.8095 3.0222 28.9596 7.8306
# 2 13.3243 131.4094 18.8083 13.8472 1.3334 -8.5820
# 3 24.8095 18.8083 79.6721 24.3195 2.8971 -3.5338
# 4 3.0222 13.8472 24.3195 39.9037 -12.8014 1.8527
# 5 28.9596 1.3334 2.8971 -12.8014 35.2129 10.9558
# 6 7.8306 -8.5820 -3.5338 1.8527 10.9558 26.0022
#
#
#
# Elastic Compliance Matrix: (Units=1/GPa)
#
#
# Indices 1 2 3 4 5 6 
#
# 1 0.010026 -0.000350 -0.001941 -0.002419 -0.009148 0.000628
# 2 -0.000350 0.008395 -0.000490 -0.003615 -0.002599 0.004162
# 3 -0.001941 -0.000490 0.017737 -0.012901 -0.006562 0.006517
# 4 -0.002419 -0.003615 -0.012901 0.042552 0.023352 -0.015089
# 5 -0.009148 -0.002599 -0.006562 0.023352 0.052082 -0.022603
# 6 0.000628 0.004162 0.006517 -0.015089 -0.022603 0.051127
#
#
# Mechanical properties :
#
#
# Convention : Reuss Voigt Hill
#
# Bulk Modulus (GPa) = 32.68424 50.73667 41.71046
# Shear Modulus (GPa) = 25.29341 39.27733 32.28537
#
# Velocity S-wave (km/s) = 3.26631 4.07028 3.69025
# Velocity P-wave (km/s) = 5.29256 6.59472 5.97919
#
# Compressibility (1/GPa) = 0.03059579
#
# Stress axis : x y z
#
# Youngs Moduli (GPa) = 99.73681 119.12520 56.37918
#
# Poissons Ratio (x) = 0.04171 0.10941
# Poissons Ratio (y) = 0.03492 0.02764
# Poissons Ratio (z) = 0.19356 0.05840
#
# Static dielectric constant tensor:
#      x y z
#    x 2.043830 -0.011980 -0.036310 
#    y -0.011980 2.022340 0.056590 
#    z -0.036310 0.056590 2.015930 
# 
# From -- ./inp_files/426777.got.cif
#   From: 2010.05.17/outbox.cif.g08.bks.cpg/sg2_214_cif.got.tgz:426777.got - 2010.06.03 11:33:40.
