data_PCOD9090183
_publ_section_title
;
Structure prediction by ZEFSAII (Michael W. Deem and Ramdas Pophale) SiO2 
 PCOD9090183
Probable space group: P -1
;
_chemical_formula_sum "Si O2"
_cell_formula_units_Z 12
_cell_length_a 9.840259
_cell_length_b 7.024420
_cell_length_c 7.611179
_cell_angle_alpha 79.898675
_cell_angle_beta 112.486579
_cell_angle_gamma 74.722746
_cell_volume 445.846819
_symmetry_space_group_name_H-M "P -1"
_symmetry_group_IT_number 2
_symmetry_cell_setting 'triclinic'
loop_
_space_group_symop_operation_xyz
x,y,z
-x,-y,-z
loop_
_atom_site_type_symbol
_atom_site_label
_atom_site_fract_x
_atom_site_fract_y
_atom_site_fract_z
Si Si1 0.195551 0.803502 0.435943
Si Si2 0.479064 0.292523 0.948192
Si Si3 0.980675 0.248068 0.317385
Si Si4 0.784774 0.124282 0.947219
Si Si5 0.489122 0.185826 0.333288
Si Si6 0.817104 0.660262 0.037363
O O1 0.089035 0.727679 0.524844
O O2 0.384052 0.712237 0.566961
O O3 0.140988 0.050451 0.417445
O O4 0.165265 0.794423 0.217837
O O5 0.500000 0.500000 0.000000
O O6 0.538262 0.123550 0.163491
O O7 0.294481 0.334517 0.847905
O O8 0.595957 0.216605 0.858204
O O9 0.858378 0.182497 0.147174
O O10 0.969683 0.458810 0.182178
O O11 0.835304 0.878255 0.996251
O O12 0.307130 0.335950 0.181744
O O13 0.500000 0.000000 0.500000
#
# Coordination Sequence:
#
# PCOD9090183 Si02
#       6
#     2   2   2   2   2   2
#     4  11  23  41  69  94 131 178 210 266 327 383
#     4  10  19  38  64  89 130 161 207 272 312 366
#     4  11  24  46  63  94 141 165 214 272 317 388
#     4  12  21  41  68  94 128 174 217 260 329 385
#     4  10  19  39  62  96 126 161 215 266 318 368
#     4  10  22  39  69  94 127 174 210 270 327 373
#
# _framework density 26.915075999999999
#
# number of rings (size 3 to 8) (size 9 to 14) (size 15 to 20)
#    1.000    0.333    5.000    1.000    0.000    0.667 
#    0.000   15.833    0.000    0.000    0.000    0.000 
#    0.000    0.000    0.000    0.000    0.000    0.000 
#
# Total GULP energy -67087.946244 kJ/mol
# GULP energy per Si atom -5590.662187 kJ/mol
# Density = 2.685382 g / cm^3
# Si number density = 26.915076 Si / 1000 Ang^3
#
#
#
# Elastic Constant Matrix: (Units=GPa)
#
#
# Indices 1 2 3 4 5 6 
#
# 1 107.9659 8.1221 42.1931 6.0732 -5.6779 -11.2691
# 2 8.1221 81.7605 40.9033 -28.4856 -1.0099 0.3089
# 3 42.1931 40.9033 127.3367 -22.6170 -33.9376 -20.0680
# 4 6.0732 -28.4856 -22.6170 39.1688 -4.0443 8.8488
# 5 -5.6779 -1.0099 -33.9376 -4.0443 51.0931 -2.5716
# 6 -11.2691 0.3089 -20.0680 8.8488 -2.5716 29.0957
#
#
#
# Elastic Compliance Matrix: (Units=1/GPa)
#
#
# Indices 1 2 3 4 5 6 
#
# 1 0.011757 -0.000945 -0.004840 -0.006196 -0.002271 0.002910
# 2 -0.000945 0.019760 -0.006010 0.012725 -0.003146 -0.008869
# 3 -0.004840 -0.006010 0.016783 0.005166 0.011363 0.009198
# 4 -0.006196 0.012725 0.005166 0.041850 0.005743 -0.011192
# 5 -0.002271 -0.003146 0.011363 0.005743 0.027647 0.007688
# 6 0.002910 -0.008869 0.009198 -0.011192 0.007688 0.046018
#
#
# Mechanical properties :
#
#
# Convention : Reuss Voigt Hill
#
# Bulk Modulus (GPa) = 40.46750 55.50002 47.98376
# Shear Modulus (GPa) = 25.55704 38.92781 32.24242
#
# Velocity S-wave (km/s) = 3.08481 3.80718 3.46487
# Velocity P-wave (km/s) = 5.26839 6.32387 5.82011
#
# Compressibility (1/GPa) = 0.02471119
#
# Stress axis : x y z
#
# Youngs Moduli (GPa) = 85.05300 50.60829 59.58428
#
# Poissons Ratio (x) = 0.04781 0.28836
# Poissons Ratio (y) = 0.08035 0.35811
# Poissons Ratio (z) = 0.41162 0.30416
#
# Static dielectric constant tensor:
#      x y z
#    x 2.090500 -0.027280 0.012340 
#    y -0.027280 2.143770 -0.013900 
#    z 0.012340 -0.013900 2.112560 
# 
# From -- ./inp_files/233859.got.cif
#   From: 2010.05.17/outbox.cif.g08.bks.cpg/sg2_117_cif.got.tgz:233859.got - 2010.06.03 11:33:40.
