data_PCOD9090446
_publ_section_title
;
Structure prediction by ZEFSAII (Michael W. Deem and Ramdas Pophale) SiO2 
 PCOD9090446
Probable space group: P -1
;
_chemical_formula_sum "Si O2"
_cell_formula_units_Z 16
_cell_length_a 17.046300
_cell_length_b 5.546976
_cell_length_c 7.922808
_cell_angle_alpha 117.975785
_cell_angle_beta 103.918066
_cell_angle_gamma 87.597268
_cell_volume 639.978630
_symmetry_space_group_name_H-M "P -1"
_symmetry_group_IT_number 2
_symmetry_cell_setting 'triclinic'
loop_
_space_group_symop_operation_xyz
x,y,z
-x,-y,-z
loop_
_atom_site_type_symbol
_atom_site_label
_atom_site_fract_x
_atom_site_fract_y
_atom_site_fract_z
Si Si1 0.926808 0.206332 0.226957
Si Si2 0.725600 0.488637 0.504905
Si Si3 0.891695 0.864561 0.749053
Si Si4 0.318811 0.061871 0.815322
Si Si5 0.493089 0.171456 0.877463
Si Si6 0.652146 0.937527 0.786461
Si Si7 0.787767 0.288802 0.791984
Si Si8 0.844644 0.722246 0.221159
O O1 0.023950 0.245247 0.292614
O O2 0.112206 0.505366 0.725599
O O3 0.894544 0.009866 0.298631
O O4 0.905136 0.020451 0.987095
O O5 0.815267 0.643319 0.616359
O O6 0.707654 0.261237 0.280588
O O7 0.725778 0.312968 0.618452
O O8 0.659838 0.701694 0.575006
O O9 0.860497 0.116081 0.708993
O O10 0.399791 0.093155 0.757721
O O11 0.244646 0.207981 0.745057
O O12 0.338185 0.170998 0.051466
O O13 0.568642 0.078920 0.779787
O O14 0.500000 0.500000 0.000000
O O15 0.500000 0.000000 0.000000
O O16 0.733148 0.136427 0.859269
O O17 0.827076 0.566808 0.982466
#
# Coordination Sequence:
#
# PCOD9090446 Si02
#       8
#     2   2   2   2   2   2   2   2
#     4  10  21  35  67  87 125 175 218 267 325 384
#     4  11  22  41  65  98 129 171 218 269 325 389
#     4   9  20  36  57  95 125 168 218 269 318 389
#     4  11  23  43  68  96 130 171 220 264 330 389
#     4  10  23  43  71  99 130 175 217 267 323 389
#     4  10  22  44  66  93 134 172 212 268 325 390
#     4  10  19  38  66  89 133 168 214 268 329 378
#     4  11  20  38  61  91 122 174 217 264 326 383
#
# _framework density 25.000837000000001
#
# number of rings (size 3 to 8) (size 9 to 14) (size 15 to 20)
#    0.000    1.750    2.500    2.250    3.500    3.000 
#   18.000    1.875    0.000    0.000    0.000    0.000 
#    0.000    0.000    0.000    0.000    0.000    0.000 
#
# Total GULP energy -89415.493334 kJ/mol
# GULP energy per Si atom -5588.468333 kJ/mol
# Density = 2.494393 g / cm^3
# Si number density = 25.000837 Si / 1000 Ang^3
#
#
#
# Elastic Constant Matrix: (Units=GPa)
#
#
# Indices 1 2 3 4 5 6 
#
# 1 211.8580 94.6461 25.8787 8.4999 24.5955 -54.7060
# 2 94.6461 154.2480 26.2724 22.5770 5.5863 -32.8691
# 3 25.8787 26.2724 84.0563 6.4849 -2.2836 -7.0479
# 4 8.4999 22.5770 6.4849 30.4083 6.4276 -5.9372
# 5 24.5955 5.5863 -2.2836 6.4276 30.4063 2.6286
# 6 -54.7060 -32.8691 -7.0479 -5.9372 2.6286 47.4327
#
#
#
# Elastic Compliance Matrix: (Units=1/GPa)
#
#
# Indices 1 2 3 4 5 6 
#
# 1 0.010238 -0.004262 -0.001612 0.004531 -0.009417 0.009704
# 2 -0.004262 0.010429 -0.001265 -0.006639 0.002741 0.001141
# 3 -0.001612 -0.001265 0.012942 -0.002273 0.003098 -0.001269
# 4 0.004531 -0.006639 -0.002273 0.040692 -0.011740 0.006032
# 5 -0.009417 0.002741 0.003098 -0.011740 0.043787 -0.012397
# 6 0.009704 0.001141 -0.001269 0.006032 -0.012397 0.034319
#
#
# Mechanical properties :
#
#
# Convention : Reuss Voigt Hill
#
# Bulk Modulus (GPa) = 51.72992 82.63961 67.18476
# Shear Modulus (GPa) = 28.88016 41.87380 35.37698
#
# Velocity S-wave (km/s) = 3.40246 4.09699 3.76577
# Velocity P-wave (km/s) = 6.01431 7.45030 6.77048
#
# Compressibility (1/GPa) = 0.01933117
#
# Stress axis : x y z
#
# Youngs Moduli (GPa) = 97.67247 95.88459 77.27026
#
# Poissons Ratio (x) = 0.40866 0.12454
# Poissons Ratio (y) = 0.41628 0.09777
# Poissons Ratio (z) = 0.15742 0.12132
#
# Static dielectric constant tensor:
#      x y z
#    x 1.957220 0.003170 -0.021830 
#    y 0.003170 2.093030 -0.028610 
#    z -0.021830 -0.028610 1.986720 
# 
# From -- ./inp_files/324167.got.cif
#   From: 2010.05.17/outbox.cif.g08.bks.cpg/sg2_163_cif.got.tgz:324167.got - 2010.06.03 11:33:40.
