data_PCOD9090010
_publ_section_title
;
Structure prediction by ZEFSAII (Michael W. Deem and Ramdas Pophale) SiO2 
 PCOD9090010
Probable space group: P -1
;
_chemical_formula_sum "Si O2"
_cell_formula_units_Z 14
_cell_length_a 16.916298
_cell_length_b 8.017721
_cell_length_c 9.260941
_cell_angle_alpha 92.252575
_cell_angle_beta 151.030419
_cell_angle_gamma 85.927229
_cell_volume 606.153654
_symmetry_space_group_name_H-M "P -1"
_symmetry_group_IT_number 2
_symmetry_cell_setting 'triclinic'
loop_
_space_group_symop_operation_xyz
x,y,z
-x,-y,-z
loop_
_atom_site_type_symbol
_atom_site_label
_atom_site_fract_x
_atom_site_fract_y
_atom_site_fract_z
Si Si1 0.993645 0.496666 0.255353
Si Si2 0.730658 0.649935 0.644371
Si Si3 0.433012 0.179307 0.342794
Si Si4 0.810626 0.994543 0.238855
Si Si5 0.479982 0.627789 0.766368
Si Si6 0.222875 0.635999 0.853362
Si Si7 0.278685 0.204555 0.646829
O O1 0.852649 0.411164 0.116390
O O2 0.079600 0.617924 0.506467
O O3 0.131297 0.349359 0.435638
O O4 0.909034 0.597577 0.991238
O O5 0.618653 0.696526 0.606006
O O6 0.666735 0.490193 0.451999
O O7 0.711742 0.806648 0.510428
O O8 0.552400 0.255503 0.420742
O O9 0.500000 0.000000 0.500000
O O10 0.270882 0.146660 0.989300
O O11 0.773344 0.947502 0.343080
O O12 0.728535 0.175851 0.072370
O O13 0.000000 0.000000 0.500000
O O14 0.631900 0.497753 0.961228
O O15 0.551268 0.733896 0.014224
#
# Coordination Sequence:
#
# PCOD9090010 Si02
#       7
#     2   2   2   2   2   2   2
#     4  10  20  36  63  91 115 149 203 246 285 354
#     4  12  22  39  62  89 123 156 196 250 297 342
#     4  11  24  38  58  92 118 152 207 246 285 351
#     4  11  21  38  62  84 119 162 195 240 295 354
#     4  10  22  40  62  85 118 162 202 237 293 357
#     4  10  19  38  63  87 113 156 205 240 286 348
#     4  10  23  40  58  92 124 154 194 244 303 356
#
# _framework density 23.096454000000001
#
# number of rings (size 3 to 8) (size 9 to 14) (size 15 to 20)
#    0.000    1.429    2.857    3.000    2.000    0.000 
#    0.000   12.143    0.000    0.000    0.000    0.000 
#    0.000    0.000    0.000    0.000    0.000    0.000 
#
# Total GULP energy -78312.952945 kJ/mol
# GULP energy per Si atom -5593.782353 kJ/mol
# Density = 2.304389 g / cm^3
# Si number density = 23.096454 Si / 1000 Ang^3
#
#
#
# Elastic Constant Matrix: (Units=GPa)
#
#
# Indices 1 2 3 4 5 6 
#
# 1 47.4293 8.0314 16.0460 -5.7418 -20.8387 23.9205
# 2 8.0314 89.2204 16.3503 -5.9907 -8.7246 23.3445
# 3 16.0460 16.3503 90.6777 -1.9515 -9.8824 17.7602
# 4 -5.7418 -5.9907 -1.9515 32.7003 6.0915 3.7336
# 5 -20.8387 -8.7246 -9.8824 6.0915 31.4080 -11.3553
# 6 23.9205 23.3445 17.7602 3.7336 -11.3553 33.6749
#
#
#
# Elastic Compliance Matrix: (Units=1/GPa)
#
#
# Indices 1 2 3 4 5 6 
#
# 1 0.045120 0.006625 -0.000903 0.009162 0.018532 -0.030933
# 2 0.006625 0.015139 -0.000683 0.005194 0.002056 -0.014724
# 3 -0.000903 -0.000683 0.012464 0.000848 0.001094 -0.005184
# 4 0.009162 0.005194 0.000848 0.035992 -0.005069 -0.016256
# 5 0.018532 0.002056 0.001094 -0.005069 0.046411 0.001046
# 6 -0.030933 -0.014724 -0.005184 -0.016256 0.001046 0.066765
#
#
# Mechanical properties :
#
#
# Convention : Reuss Voigt Hill
#
# Bulk Modulus (GPa) = 12.07712 34.24253 23.15982
# Shear Modulus (GPa) = 20.88441 32.01661 26.45051
#
# Velocity S-wave (km/s) = 3.01030 3.72723 3.38778
# Velocity P-wave (km/s) = 4.16207 5.77763 5.03507
#
# Compressibility (1/GPa) = 0.08280118
#
# Stress axis : x y z
#
# Youngs Moduli (GPa) = 22.16312 66.05397 80.23259
#
# Poissons Ratio (x) = -0.43761 0.07248
# Poissons Ratio (y) = -0.14683 0.05476
# Poissons Ratio (z) = 0.02002 0.04508
#
# Static dielectric constant tensor:
#      x y z
#    x 1.885780 0.018350 -0.020160 
#    y 0.018350 1.844010 0.003550 
#    z -0.020160 0.003550 1.892390 
# 
# From -- ./inp_files/149113.got.cif
#   From: 2010.05.17/outbox.cif.g08.bks.cpg/sg2_75_cif.got.tgz:149113.got - 2010.06.03 11:33:40.
