data_PCOD9090480
_publ_section_title
;
Structure prediction by ZEFSAII (Michael W. Deem and Ramdas Pophale) SiO2 
 PCOD9090480
Probable space group: P -1
;
_chemical_formula_sum "Si O2"
_cell_formula_units_Z 14
_cell_length_a 16.362797
_cell_length_b 8.050407
_cell_length_c 9.450790
_cell_angle_alpha 87.674811
_cell_angle_beta 88.016012
_cell_angle_gamma 33.133098
_cell_volume 679.898069
_symmetry_space_group_name_H-M "P -1"
_symmetry_group_IT_number 2
_symmetry_cell_setting 'triclinic'
loop_
_space_group_symop_operation_xyz
x,y,z
-x,-y,-z
loop_
_atom_site_type_symbol
_atom_site_label
_atom_site_fract_x
_atom_site_fract_y
_atom_site_fract_z
Si Si1 0.638635 0.869223 0.935141
Si Si2 0.597944 0.230816 0.120323
Si Si3 0.461693 0.236476 0.673039
Si Si4 0.541006 0.729272 0.627094
Si Si5 0.181415 0.926916 0.698100
Si Si6 0.875909 0.099926 0.582166
Si Si7 0.924178 0.175038 0.852030
O O1 0.765450 0.526925 0.888721
O O2 0.574893 0.077393 0.797415
O O3 0.500000 0.000000 0.000000
O O4 0.676128 0.942974 0.046401
O O5 0.484740 0.351692 0.241234
O O6 0.725439 0.104602 0.209894
O O7 0.500000 0.500000 0.000000
O O8 0.514215 0.234403 0.525017
O O9 0.295476 0.576093 0.708792
O O10 0.465555 0.032418 0.656656
O O11 0.715660 0.462478 0.595416
O O12 0.154110 0.996759 0.527134
O O13 0.026008 0.140860 0.770711
O O14 0.920863 0.023939 0.747852
O O15 0.000000 0.000000 0.500000
O O16 0.000000 0.000000 0.000000
#
# Coordination Sequence:
#
# PCOD9090480 Si02
#       7
#     2   2   2   2   2   2   2
#     4  12  22  41  66  93 127 169 219 264 315 384
#     4  12  25  39  62  95 138 169 210 264 324 390
#     4  10  19  38  66  93 117 160 225 263 309 375
#     4  10  21  37  65  94 123 164 219 266 316 373
#     4  10  23  40  60  94 128 166 205 264 327 376
#     4   9  19  38  61  90 124 159 210 263 314 375
#     4  11  23  38  66  95 124 167 216 269 315 374
#
# _framework density 20.591322999999999
#
# number of rings (size 3 to 8) (size 9 to 14) (size 15 to 20)
#    0.000    1.429    4.286    0.857    2.000    2.857 
#    0.000    0.000    0.000    1.714    0.000    0.000 
#    0.000    0.000    0.000    0.000    0.000    0.000 
#
# Total GULP energy -77960.665732 kJ/mol
# GULP energy per Si atom -5568.618981 kJ/mol
# Density = 2.054446 g / cm^3
# Si number density = 20.591323 Si / 1000 Ang^3
#
#
#
# Elastic Constant Matrix: (Units=GPa)
#
#
# Indices 1 2 3 4 5 6 
#
# 1 74.4165 24.0940 52.7228 13.1961 21.3112 -8.0659
# 2 24.0940 64.6113 46.6545 21.9088 -9.1193 -19.0377
# 3 52.7228 46.6545 193.5678 -0.9076 23.0049 -1.9178
# 4 13.1961 21.9088 -0.9076 35.2969 -1.7012 -2.0240
# 5 21.3112 -9.1193 23.0049 -1.7012 44.4095 -1.5040
# 6 -8.0659 -19.0377 -1.9178 -2.0240 -1.5040 21.0413
#
#
#
# Elastic Compliance Matrix: (Units=1/GPa)
#
#
# Indices 1 2 3 4 5 6 
#
# 1 0.021375 -0.002983 -0.004038 -0.006450 -0.008894 0.003871
# 2 -0.002983 0.050665 -0.013385 -0.027333 0.019152 0.042217
# 3 -0.004038 -0.013385 0.010142 0.009078 -0.006133 -0.012299
# 4 -0.006450 -0.027333 0.009078 0.046360 -0.006201 -0.022359
# 5 -0.008894 0.019152 -0.006133 -0.006201 0.034173 0.015206
# 6 0.003871 0.042217 -0.012299 -0.022359 0.015206 0.085021
#
#
# Mechanical properties :
#
#
# Convention : Reuss Voigt Hill
#
# Bulk Modulus (GPa) = 24.17202 64.39313 44.28257
# Shear Modulus (GPa) = 16.53780 34.09117 25.31449
#
# Velocity S-wave (km/s) = 2.83705 4.07333 3.51005
# Velocity P-wave (km/s) = 4.74302 7.31181 6.16274
#
# Compressibility (1/GPa) = 0.04137015
#
# Stress axis : x y z
#
# Youngs Moduli (GPa) = 46.78394 19.73754 98.60267
#
# Poissons Ratio (x) = 0.05887 0.39815
# Poissons Ratio (y) = 0.13954 1.31980
# Poissons Ratio (z) = 0.18891 0.26419
#
# Static dielectric constant tensor:
#      x y z
#    x 1.459380 0.072220 0.113300 
#    y 0.072220 1.693620 -0.036660 
#    z 0.113300 -0.036660 1.842470 
# 
# From -- ./inp_files/155440.got.cif
#   From: 2010.05.17/outbox.cif.g08.bks.cpg/sg2_78_cif.got.tgz:155440.got - 2010.06.03 11:33:40.
