data_PCOD9090248
_publ_section_title
;
Structure prediction by ZEFSAII (Michael W. Deem and Ramdas Pophale) SiO2 
 PCOD9090248
Probable space group: P -1
;
_chemical_formula_sum "Si O2"
_cell_formula_units_Z 14
_cell_length_a 9.435212
_cell_length_b 11.573598
_cell_length_c 8.161237
_cell_angle_alpha 52.826882
_cell_angle_beta 74.165781
_cell_angle_gamma 83.517363
_cell_volume 681.604780
_symmetry_space_group_name_H-M "P -1"
_symmetry_group_IT_number 2
_symmetry_cell_setting 'triclinic'
loop_
_space_group_symop_operation_xyz
x,y,z
-x,-y,-z
loop_
_atom_site_type_symbol
_atom_site_label
_atom_site_fract_x
_atom_site_fract_y
_atom_site_fract_z
Si Si1 0.379808 0.009098 0.883530
Si Si2 0.977442 0.594078 0.089860
Si Si3 0.711440 0.267922 0.058723
Si Si4 0.290453 0.601363 0.540492
Si Si5 0.665579 0.111647 0.550522
Si Si6 0.504715 0.582599 0.183933
Si Si7 0.240728 0.164332 0.063912
O O1 0.487116 0.086132 0.646519
O O2 0.317193 0.855620 0.965056
O O3 0.254802 0.097266 0.934218
O O4 0.500000 0.000000 0.000000
O O5 0.861698 0.495640 0.319496
O O6 0.900042 0.743113 0.947441
O O7 0.000000 0.500000 0.000000
O O8 0.133607 0.639868 0.081725
O O9 0.706977 0.178987 0.305159
O O10 0.582312 0.378536 0.984304
O O11 0.276406 0.769821 0.434682
O O12 0.379938 0.573490 0.372243
O O13 0.394535 0.550401 0.701119
O O14 0.737311 0.962170 0.702803
O O15 0.619222 0.720053 0.063430
#
# Coordination Sequence:
#
# PCOD9090248 Si02
#       7
#     2   2   2   2   2   2   2
#     4  10  19  38  64  95 120 156 208 262 304 357
#     4  11  25  45  60  92 132 170 203 255 314 380
#     4  12  23  38  65  96 131 160 211 258 309 370
#     4  10  21  41  67  86 128 167 206 255 319 370
#     4  11  20  37  67  99 123 158 211 263 313 359
#     4  10  20  39  65  95 116 168 214 257 307 368
#     4  10  21  41  70  87 129 168 205 256 318 366
#
# _framework density 20.539760999999999
#
# number of rings (size 3 to 8) (size 9 to 14) (size 15 to 20)
#    0.000    1.429    5.714    1.286    0.000    2.286 
#    0.000    0.000    0.000    0.000    0.000    0.000 
#    0.000    0.000    0.000    0.000    0.000    0.000 
#
# Total GULP energy -78130.443477 kJ/mol
# GULP energy per Si atom -5580.745963 kJ/mol
# Density = 2.049301 g / cm^3
# Si number density = 20.539761 Si / 1000 Ang^3
#
#
#
# Elastic Constant Matrix: (Units=GPa)
#
#
# Indices 1 2 3 4 5 6 
#
# 1 77.8554 35.4226 12.6462 -12.5261 -18.3214 12.5101
# 2 35.4226 89.1986 9.9726 -14.4630 -1.2535 -3.5548
# 3 12.6462 9.9726 74.6943 -15.2172 -11.1316 6.3241
# 4 -12.5261 -14.4630 -15.2172 30.1814 -0.2502 3.4070
# 5 -18.3214 -1.2535 -11.1316 -0.2502 22.7797 -13.1234
# 6 12.5101 -3.5548 6.3241 3.4070 -13.1234 35.0702
#
#
#
# Elastic Compliance Matrix: (Units=1/GPa)
#
#
# Indices 1 2 3 4 5 6 
#
# 1 0.021230 -0.007457 0.001289 0.006402 0.015393 -0.003423
# 2 -0.007457 0.014839 -0.000883 0.003260 -0.004167 0.002447
# 3 0.001289 -0.000883 0.016389 0.008580 0.008404 -0.001194
# 4 0.006402 0.003260 0.008580 0.042294 0.007141 -0.004937
# 5 0.015393 -0.004167 0.008404 0.007141 0.070824 0.018380
# 6 -0.003423 0.002447 -0.001194 -0.004937 0.018380 0.037556
#
#
# Mechanical properties :
#
#
# Convention : Reuss Voigt Hill
#
# Bulk Modulus (GPa) = 26.07127 39.75902 32.91515
# Shear Modulus (GPa) = 21.73740 29.85339 25.79540
#
# Velocity S-wave (km/s) = 3.25669 3.81654 3.54768
# Velocity P-wave (km/s) = 5.18286 6.23061 5.73073
#
# Compressibility (1/GPa) = 0.03835639
#
# Stress axis : x y z
#
# Youngs Moduli (GPa) = 47.10278 67.39184 61.01731
#
# Poissons Ratio (x) = 0.50255 -0.07867
# Poissons Ratio (y) = 0.35126 0.05386
# Poissons Ratio (z) = -0.06073 0.05948
#
# Static dielectric constant tensor:
#      x y z
#    x 1.739200 -0.043100 0.019410 
#    y -0.043100 1.778630 0.019760 
#    z 0.019410 0.019760 1.785260 
# 
# From -- ./inp_files/155573.got.cif
#   From: 2010.05.17/outbox.cif.g08.bks.cpg/sg2_78_cif.got.tgz:155573.got - 2010.06.03 11:33:40.
