data_PCOD9090834
_publ_section_title
;
Structure prediction by ZEFSAII (Michael W. Deem and Ramdas Pophale) SiO2 
 PCOD9090834
Probable space group: P -1
;
_chemical_formula_sum "Si O2"
_cell_formula_units_Z 16
_cell_length_a 13.164288
_cell_length_b 21.656284
_cell_length_c 19.032897
_cell_angle_alpha 28.139006
_cell_angle_beta 137.526951
_cell_angle_gamma 158.024596
_cell_volume 853.168438
_symmetry_space_group_name_H-M "P -1"
_symmetry_group_IT_number 2
_symmetry_cell_setting 'triclinic'
loop_
_space_group_symop_operation_xyz
x,y,z
-x,-y,-z
loop_
_atom_site_type_symbol
_atom_site_label
_atom_site_fract_x
_atom_site_fract_y
_atom_site_fract_z
Si Si1 0.083376 0.200976 0.155388
Si Si2 0.752639 0.676643 0.511056
Si Si3 0.022611 0.802530 0.183604
Si Si4 0.937458 0.631458 0.897481
Si Si5 0.578485 0.088582 0.248971
Si Si6 0.722385 0.546592 0.139713
Si Si7 0.387610 0.025360 0.470960
Si Si8 0.446556 0.377214 0.801408
O O1 0.991162 0.245804 0.116056
O O2 0.438157 0.431526 0.118705
O O3 0.063650 0.230390 0.034869
O O4 0.894749 0.926975 0.347043
O O5 0.500000 0.500000 0.500000
O O6 0.598985 0.507489 0.673057
O O7 0.034056 0.797902 0.509448
O O8 0.882057 0.646628 0.195392
O O9 0.756382 0.653307 0.248236
O O10 0.245535 0.873194 0.266787
O O11 0.228662 0.085310 0.985509
O O12 0.709645 0.551751 0.817451
O O13 0.229027 0.827438 0.800803
O O14 0.758770 0.359176 0.089000
O O15 0.574414 0.996505 0.408029
O O16 0.582096 0.305297 0.281526
O O17 0.500000 0.000000 0.500000
#
# Coordination Sequence:
#
# PCOD9090834 Si02
#       8
#     2   2   2   2   2   2   2   2
#     4  10  21  38  63  86 114 154 197 244 290 336
#     4  11  24  40  61  88 116 150 202 249 282 343
#     4  10  21  37  61  91 118 153 193 240 288 343
#     4  10  19  39  60  87 117 155 195 235 291 350
#     4  10  22  37  60  87 122 155 188 235 295 355
#     4  10  21  39  60  87 117 152 198 241 285 348
#     4  11  24  41  60  84 120 160 190 237 301 350
#     4  10  20  37  63  88 117 153 196 241 286 338
#
# _framework density 18.753623999999999
#
# number of rings (size 3 to 8) (size 9 to 14) (size 15 to 20)
#    0.000    1.750    2.500    1.500    1.750    2.000 
#    2.250    0.625    0.000    0.000    0.000    0.000 
#    0.000    0.000    0.000    0.000    0.000    0.000 
#
# Total GULP energy -89378.089956 kJ/mol
# GULP energy per Si atom -5586.130622 kJ/mol
# Density = 1.871094 g / cm^3
# Si number density = 18.753624 Si / 1000 Ang^3
#
#
#
# Elastic Constant Matrix: (Units=GPa)
#
#
# Indices 1 2 3 4 5 6 
#
# 1 104.8897 23.4951 4.2521 -4.9970 8.4536 12.9432
# 2 23.4951 90.5488 -1.6282 5.2273 4.6062 13.6948
# 3 4.2521 -1.6282 43.0836 7.0595 -10.4599 11.1854
# 4 -4.9970 5.2273 7.0595 17.8092 2.2336 -3.2567
# 5 8.4536 4.6062 -10.4599 2.2336 15.6354 4.4945
# 6 12.9432 13.6948 11.1854 -3.2567 4.4945 28.6935
#
#
#
# Elastic Compliance Matrix: (Units=1/GPa)
#
#
# Indices 1 2 3 4 5 6 
#
# 1 0.011518 -0.003114 -0.005104 0.007553 -0.010006 0.000705
# 2 -0.003114 0.013719 0.006561 -0.010089 0.006299 -0.009832
# 3 -0.005104 0.006561 0.049525 -0.034791 0.048014 -0.031604
# 4 0.007553 -0.010089 -0.034791 0.086639 -0.045962 0.032004
# 5 -0.010006 0.006299 0.048014 -0.045962 0.117956 -0.040903
# 6 0.000705 -0.009832 -0.031604 0.032004 -0.040903 0.061585
#
#
# Mechanical properties :
#
#
# Convention : Reuss Voigt Hill
#
# Bulk Modulus (GPa) = 13.99647 32.30666 23.15157
# Shear Modulus (GPa) = 13.58430 26.58784 20.08607
#
# Velocity S-wave (km/s) = 2.69431 3.76938 3.27624
# Velocity P-wave (km/s) = 4.14229 6.01736 5.16562
#
# Compressibility (1/GPa) = 0.07144657
#
# Stress axis : x y z
#
# Youngs Moduli (GPa) = 86.82429 72.89249 20.19177
#
# Poissons Ratio (x) = 0.22698 0.10307
# Poissons Ratio (y) = 0.27037 -0.13248
# Poissons Ratio (z) = 0.44319 -0.47824
#
# Static dielectric constant tensor:
#      x y z
#    x 1.628530 0.007900 0.006250 
#    y 0.007900 1.636770 -0.001070 
#    z 0.006250 -0.001070 1.640510 
# 
# From -- ./inp_files/263084.got.cif
#   From: 2010.05.17/outbox.cif.g08.bks.cpg/sg2_132_cif.got.tgz:263084.got - 2010.06.03 11:33:40.
