data_PCOD9090997
_publ_section_title
;
Structure prediction by ZEFSAII (Michael W. Deem and Ramdas Pophale) SiO2 
 PCOD9090997
Probable space group: P -1
;
_chemical_formula_sum "Si O2"
_cell_formula_units_Z 16
_cell_length_a 17.352926
_cell_length_b 17.689964
_cell_length_c 9.499915
_cell_angle_alpha 31.498727
_cell_angle_beta 37.901061
_cell_angle_gamma 27.826408
_cell_volume 703.868108
_symmetry_space_group_name_H-M "P -1"
_symmetry_group_IT_number 2
_symmetry_cell_setting 'triclinic'
loop_
_space_group_symop_operation_xyz
x,y,z
-x,-y,-z
loop_
_atom_site_type_symbol
_atom_site_label
_atom_site_fract_x
_atom_site_fract_y
_atom_site_fract_z
Si Si1 0.692723 0.852180 0.015729
Si Si2 0.116443 0.995609 0.176986
Si Si3 0.541330 0.436087 0.280725
Si Si4 0.680655 0.145073 0.150022
Si Si5 0.694849 0.625801 0.154160
Si Si6 0.818768 0.327326 0.232648
Si Si7 0.837219 0.024008 0.388124
Si Si8 0.512749 0.983146 0.339217
O O1 0.758346 0.657049 0.154350
O O2 0.673785 0.877810 0.171362
O O3 0.500000 0.000000 0.000000
O O4 0.789638 0.914822 0.712886
O O5 0.984516 0.209380 0.087902
O O6 0.003906 0.970265 0.288287
O O7 0.186174 0.837525 0.448480
O O8 0.260483 0.940453 0.956078
O O9 0.448429 0.380348 0.588181
O O10 0.645195 0.471355 0.170563
O O11 0.683493 0.250960 0.278641
O O12 0.399198 0.635931 0.091484
O O13 0.835219 0.006818 0.251457
O O14 0.545868 0.136075 0.417376
O O15 0.824295 0.433058 0.184957
O O16 0.619086 0.803299 0.876054
O O17 0.500000 0.000000 0.500000
#
# Coordination Sequence:
#
# PCOD9090997 Si02
#       8
#     2   2   2   2   2   2   2   2
#     4  10  19  39  62  90 126 165 204 256 317 378
#     4  10  24  38  61  88 132 168 211 256 315 382
#     4  11  21  35  69  95 123 153 218 274 302 365
#     4  12  22  39  61 101 124 162 212 265 319 362
#     4  11  19  39  64  88 125 162 207 262 314 372
#     4  10  22  40  60  93 121 171 213 257 314 374
#     4  11  21  41  63  92 129 169 208 257 316 380
#     4  11  23  35  64  97 132 156 203 268 325 366
#
# _framework density 22.731532000000001
#
# number of rings (size 3 to 8) (size 9 to 14) (size 15 to 20)
#    0.000    1.250    6.250    1.875    1.750    1.000 
#    0.000    1.250    0.000    0.000    0.000    0.000 
#    0.000    0.000    0.000    0.000    0.000    0.000 
#
# Total GULP energy -89353.018026 kJ/mol
# GULP energy per Si atom -5584.563627 kJ/mol
# Density = 2.267979 g / cm^3
# Si number density = 22.731532 Si / 1000 Ang^3
#
#
#
# Elastic Constant Matrix: (Units=GPa)
#
#
# Indices 1 2 3 4 5 6 
#
# 1 71.5560 13.9614 14.6910 -0.5192 8.3886 13.5792
# 2 13.9614 66.2779 32.5643 2.7593 -3.2166 18.1555
# 3 14.6910 32.5643 107.6297 14.9759 5.6971 -0.4107
# 4 -0.5192 2.7593 14.9759 25.3923 4.5326 -3.7905
# 5 8.3886 -3.2166 5.6971 4.5326 36.9590 1.3373
# 6 13.5792 18.1555 -0.4107 -3.7905 1.3373 40.7039
#
#
#
# Elastic Compliance Matrix: (Units=1/GPa)
#
#
# Indices 1 2 3 4 5 6 
#
# 1 0.015882 -0.001517 -0.001748 0.001489 -0.003491 -0.004386
# 2 -0.001517 0.021258 -0.006366 -0.000602 0.003583 -0.009214
# 3 -0.001748 -0.006366 0.012369 -0.005926 -0.001447 0.003043
# 4 0.001489 -0.000602 -0.005926 0.044479 -0.005077 0.004021
# 5 -0.003491 0.003583 -0.001447 -0.005077 0.029075 -0.001876
# 6 -0.004386 -0.009214 0.003043 0.004021 -0.001876 0.030608
#
#
# Mechanical properties :
#
#
# Convention : Reuss Voigt Hill
#
# Bulk Modulus (GPa) = 33.06027 40.87745 36.96886
# Shear Modulus (GPa) = 27.32018 32.89416 30.10717
#
# Velocity S-wave (km/s) = 3.47055 3.80817 3.64327
# Velocity P-wave (km/s) = 5.53489 6.11211 5.83065
#
# Compressibility (1/GPa) = 0.03024778
#
# Stress axis : x y z
#
# Youngs Moduli (GPa) = 62.96296 47.04078 80.84991
#
# Poissons Ratio (x) = 0.07134 0.14134
# Poissons Ratio (y) = 0.09549 0.51469
# Poissons Ratio (z) = 0.11007 0.29946
#
# Static dielectric constant tensor:
#      x y z
#    x 1.949900 0.042990 0.029980 
#    y 0.042990 1.848060 -0.006750 
#    z 0.029980 -0.006750 1.802230 
# 
# From -- ./inp_files/274712.got.cif
#   From: 2010.05.17/outbox.cif.g08.bks.cpg/sg2_138_cif.got.tgz:274712.got - 2010.06.03 11:33:40.
