data_PCOD9090593
_publ_section_title
;
Structure prediction by ZEFSAII (Michael W. Deem and Ramdas Pophale) SiO2 
 PCOD9090593
Probable space group: P -1
;
_chemical_formula_sum "Si O2"
_cell_formula_units_Z 14
_cell_length_a 16.447033
_cell_length_b 9.203574
_cell_length_c 11.330887
_cell_angle_alpha 60.488913
_cell_angle_beta 158.034979
_cell_angle_gamma 114.560482
_cell_volume 553.824297
_symmetry_space_group_name_H-M "P -1"
_symmetry_group_IT_number 2
_symmetry_cell_setting 'triclinic'
loop_
_space_group_symop_operation_xyz
x,y,z
-x,-y,-z
loop_
_atom_site_type_symbol
_atom_site_label
_atom_site_fract_x
_atom_site_fract_y
_atom_site_fract_z
Si Si1 0.447285 0.656464 0.455595
Si Si2 0.604634 0.957264 0.405216
Si Si3 0.921571 0.166484 0.666677
Si Si4 0.753393 0.516347 0.357813
Si Si5 0.324672 0.260642 0.044511
Si Si6 0.733307 0.129844 0.193701
Si Si7 0.994867 0.236330 0.284364
O O1 0.500000 0.500000 0.500000
O O2 0.539676 0.643036 0.717798
O O3 0.565746 0.807234 0.498920
O O4 0.185711 0.710564 0.079059
O O5 0.846201 0.002658 0.689943
O O6 0.473150 0.126863 0.216093
O O7 0.492431 0.910206 0.150740
O O8 0.887765 0.334388 0.631255
O O9 0.744039 0.210206 0.303598
O O10 0.158105 0.155220 0.931174
O O11 0.824843 0.638721 0.505811
O O12 0.500000 0.500000 0.000000
O O13 0.811027 0.607313 0.277599
O O14 0.844947 0.233092 0.202310
O O15 0.886640 0.952248 0.487547
#
# Coordination Sequence:
#
# PCOD9090593 Si02
#       7
#     2   2   2   2   2   2   2
#     4  11  26  44  67  95 139 178 219 269 334 402
#     4  11  24  44  67 101 134 173 226 270 331 401
#     4  12  23  38  71 101 132 172 224 281 325 386
#     4  12  23  41  69 102 135 166 229 279 325 392
#     4  12  24  45  67  97 136 181 216 270 336 392
#     4  10  19  38  67  98 128 168 224 276 327 381
#     4  10  20  42  65  94 131 175 218 272 332 387
#
# _framework density 25.278776000000001
#
# number of rings (size 3 to 8) (size 9 to 14) (size 15 to 20)
#    0.000    0.857    4.286    3.857    4.000    0.571 
#    0.000    0.714    0.000    0.000    0.000    0.000 
#    0.000    0.000    0.000    0.000    0.000    0.000 
#
# Total GULP energy -78390.005313 kJ/mol
# GULP energy per Si atom -5599.286094 kJ/mol
# Density = 2.522124 g / cm^3
# Si number density = 25.278776 Si / 1000 Ang^3
#
#
#
# Elastic Constant Matrix: (Units=GPa)
#
#
# Indices 1 2 3 4 5 6 
#
# 1 40.2799 12.5782 23.2950 14.5196 14.9001 -6.3804
# 2 12.5782 101.5585 13.8789 19.8349 -1.2942 -2.4461
# 3 23.2950 13.8789 122.5865 37.4417 -15.7784 6.7137
# 4 14.5196 19.8349 37.4417 43.8505 2.1252 1.1736
# 5 14.9001 -1.2942 -15.7784 2.1252 42.6006 15.2156
# 6 -6.3804 -2.4461 6.7137 1.1736 15.2156 32.6107
#
#
#
# Elastic Compliance Matrix: (Units=1/GPa)
#
#
# Indices 1 2 3 4 5 6 
#
# 1 0.052922 -0.003831 -0.015063 -0.002039 -0.034600 0.029385
# 2 -0.003831 0.011126 0.001512 -0.005162 0.003012 -0.001446
# 3 -0.015063 0.001512 0.017117 -0.010770 0.017188 -0.013990
# 4 -0.002039 -0.005162 -0.010770 0.035233 -0.006298 0.003102
# 5 -0.034600 0.003012 0.017188 -0.006298 0.055040 -0.035536
# 6 0.029385 -0.001446 -0.013990 0.003102 -0.035536 0.055655
#
#
# Mechanical properties :
#
#
# Convention : Reuss Voigt Hill
#
# Bulk Modulus (GPa) = 21.55131 40.43656 30.99393
# Shear Modulus (GPa) = 18.02943 38.12388 28.07666
#
# Velocity S-wave (km/s) = 2.67352 3.88769 3.33630
# Velocity P-wave (km/s) = 4.25138 6.01524 5.20852
#
# Compressibility (1/GPa) = 0.04640090
#
# Stress axis : x y z
#
# Youngs Moduli (GPa) = 18.89558 89.87784 58.42234
#
# Poissons Ratio (x) = 0.34432 0.88003
# Poissons Ratio (y) = 0.07239 -0.08833
# Poissons Ratio (z) = 0.28463 -0.13589
#
# Static dielectric constant tensor:
#      x y z
#    x 2.052480 0.022090 -0.016450 
#    y 0.022090 1.979290 0.019170 
#    z -0.016450 0.019170 1.983950 
# 
# From -- ./inp_files/245324.got.cif
#   From: 2010.05.17/outbox.cif.g08.bks.cpg/sg2_123_cif.got.tgz:245324.got - 2010.06.03 11:33:40.
