data_PCOD9090365
_publ_section_title
;
Structure prediction by ZEFSAII (Michael W. Deem and Ramdas Pophale) SiO2 
 PCOD9090365
Probable space group: P -1
;
_chemical_formula_sum "Si O2"
_cell_formula_units_Z 16
_cell_length_a 11.515452
_cell_length_b 11.588781
_cell_length_c 8.925471
_cell_angle_alpha 127.902347
_cell_angle_beta 52.720455
_cell_angle_gamma 112.423503
_cell_volume 747.747355
_symmetry_space_group_name_H-M "P -1"
_symmetry_group_IT_number 2
_symmetry_cell_setting 'triclinic'
loop_
_space_group_symop_operation_xyz
x,y,z
-x,-y,-z
loop_
_atom_site_type_symbol
_atom_site_label
_atom_site_fract_x
_atom_site_fract_y
_atom_site_fract_z
Si Si1 0.059959 0.339395 0.830469
Si Si2 0.369667 0.743272 0.521555
Si Si3 0.718209 0.985128 0.396106
Si Si4 0.825844 0.507928 0.634152
Si Si5 0.215511 0.231946 0.342735
Si Si6 0.538095 0.884381 0.751523
Si Si7 0.686937 0.660043 0.128805
Si Si8 0.029995 0.965997 0.274044
O O1 0.091041 0.289609 0.597797
O O2 0.211487 0.342611 0.805874
O O3 0.962707 0.210061 0.879552
O O4 0.000000 0.500000 0.000000
O O5 0.346569 0.882687 0.542285
O O6 0.235091 0.634120 0.516306
O O7 0.404879 0.803700 0.707588
O O8 0.515139 0.653834 0.291034
O O9 0.630717 0.957204 0.599080
O O10 0.708610 0.829537 0.193132
O O11 0.886877 0.011382 0.329285
O O12 0.777215 0.652579 0.700991
O O13 0.000000 0.500000 0.500000
O O14 0.748823 0.533616 0.874658
O O15 0.359840 0.224907 0.323967
O O16 0.165629 0.068363 0.203941
O O17 0.500000 0.000000 0.000000
O O18 0.000000 0.000000 0.500000
#
# Coordination Sequence:
#
# PCOD9090365 Si02
#       8
#     2   2   2   2   2   2   2   2
#     4  10  19  38  65  93 129 169 216 267 318 390
#     4  11  24  46  67  96 130 178 222 265 330 401
#     4  10  20  41  72  93 126 168 224 269 317 402
#     4  12  27  44  62  98 139 172 216 275 330 383
#     4  11  22  42  62  90 139 160 214 275 319 386
#     4  11  23  42  66 101 125 163 221 279 329 380
#     4  10  21  44  65  93 128 173 222 257 323 402
#     4   9  17  38  63  93 122 169 213 259 322 388
#
# _framework density 21.397601999999999
#
# number of rings (size 3 to 8) (size 9 to 14) (size 15 to 20)
#    0.000    1.500    5.000    3.375    3.500    1.500 
#    6.750    3.125    0.000    0.000    0.000    0.000 
#    0.000    0.000    0.000    0.000    0.000    0.000 
#
# Total GULP energy -89319.167401 kJ/mol
# GULP energy per Si atom -5582.447963 kJ/mol
# Density = 2.134890 g / cm^3
# Si number density = 21.397602 Si / 1000 Ang^3
#
#
#
# Elastic Constant Matrix: (Units=GPa)
#
#
# Indices 1 2 3 4 5 6 
#
# 1 133.6795 56.4131 28.2362 15.7171 -1.6275 14.2515
# 2 56.4131 74.8729 13.4377 21.1851 -3.0451 2.6659
# 3 28.2362 13.4377 97.9181 25.6479 3.2666 5.3142
# 4 15.7171 21.1851 25.6479 23.4317 -5.7883 0.3373
# 5 -1.6275 -3.0451 3.2666 -5.7883 28.9424 11.6242
# 6 14.2515 2.6659 5.3142 0.3373 11.6242 41.6091
#
#
#
# Elastic Compliance Matrix: (Units=1/GPa)
#
#
# Indices 1 2 3 4 5 6 
#
# 1 0.012150 -0.009729 -0.003361 0.005023 0.002600 -0.003876
# 2 -0.009729 0.026372 0.005640 -0.024574 -0.004251 0.002309
# 3 -0.003361 0.005640 0.016441 -0.022372 -0.006164 0.000593
# 4 0.005023 -0.024574 -0.022372 0.090969 0.019850 -0.003571
# 5 0.002600 -0.004251 -0.006164 0.019850 0.043831 -0.012237
# 6 -0.003876 0.002309 0.000593 -0.003571 -0.012237 0.028585
#
#
# Mechanical properties :
#
#
# Convention : Reuss Voigt Hill
#
# Bulk Modulus (GPa) = 24.96021 55.84939 40.40480
# Shear Modulus (GPa) = 20.27553 32.68888 26.48220
#
# Velocity S-wave (km/s) = 3.08159 3.91281 3.52181
# Velocity P-wave (km/s) = 4.93476 6.82428 5.95494
#
# Compressibility (1/GPa) = 0.04006377
#
# Stress axis : x y z
#
# Youngs Moduli (GPa) = 82.30134 37.91860 60.82308
#
# Poissons Ratio (x) = 0.36891 0.20440
# Poissons Ratio (y) = 0.80072 -0.34302
# Poissons Ratio (z) = 0.27658 -0.21385
#
# Static dielectric constant tensor:
#      x y z
#    x 1.698290 0.067430 -0.013600 
#    y 0.067430 1.770470 -0.006080 
#    z -0.013600 -0.006080 1.826240 
# 
# From -- ./inp_files/263308.got.cif
#   From: 2010.05.17/outbox.cif.g08.bks.cpg/sg2_132_cif.got.tgz:263308.got - 2010.06.03 11:33:40.
