data_PCOD9090169
_publ_section_title
;
Structure prediction by ZEFSAII (Michael W. Deem and Ramdas Pophale) SiO2 
 PCOD9090169
Probable space group: P -1
;
_chemical_formula_sum "Si O2"
_cell_formula_units_Z 14
_cell_length_a 15.218002
_cell_length_b 5.300501
_cell_length_c 7.552306
_cell_angle_alpha 81.610827
_cell_angle_beta 62.825859
_cell_angle_gamma 87.439815
_cell_volume 535.985025
_symmetry_space_group_name_H-M "P -1"
_symmetry_group_IT_number 2
_symmetry_cell_setting 'triclinic'
loop_
_space_group_symop_operation_xyz
x,y,z
-x,-y,-z
loop_
_atom_site_type_symbol
_atom_site_label
_atom_site_fract_x
_atom_site_fract_y
_atom_site_fract_z
Si Si1 0.740903 0.441659 0.276109
Si Si2 0.437854 0.239137 0.087359
Si Si3 0.388237 0.085016 0.546802
Si Si4 0.246781 0.026848 0.196702
Si Si5 0.966352 0.961901 0.736888
Si Si6 0.807174 0.510453 0.599862
Si Si7 0.926966 0.438601 0.847685
O O1 0.678467 0.174296 0.352600
O O2 0.799707 0.463916 0.405074
O O3 0.665368 0.680240 0.328328
O O4 0.824945 0.435815 0.048850
O O5 0.342625 0.201756 0.052056
O O6 0.400561 0.189716 0.325124
O O7 0.500000 0.500000 0.000000
O O8 0.500000 0.000000 0.000000
O O9 0.500000 0.000000 0.500000
O O10 0.154303 0.038527 0.149969
O O11 0.208093 0.188415 0.384190
O O12 0.266618 0.729077 0.243022
O O13 0.991710 0.686779 0.807645
O O14 0.994180 0.194275 0.811449
O O15 0.000000 0.000000 0.500000
O O16 0.895165 0.464223 0.664396
#
# Coordination Sequence:
#
# PCOD9090169 Si02
#       7
#     2   2   2   2   2   2   2
#     4  12  22  44  66  88 134 169 222 272 326 403
#     4  12  24  40  64  93 127 168 224 264 320 396
#     4  12  27  43  59  93 134 172 216 286 336 375
#     4  10  20  38  63  88 123 171 211 259 332 376
#     4  10  21  40  66  99 133 164 216 273 331 398
#     4  10  19  38  64  89 120 164 223 253 321 382
#     4  10  23  37  69  98 121 172 217 260 338 390
#
# _framework density 26.120128999999999
#
# number of rings (size 3 to 8) (size 9 to 14) (size 15 to 20)
#    0.000    1.143    2.857    3.429    0.000    6.857 
#    0.000    0.000    0.000   20.571    0.000    0.000 
#    0.000    0.000    0.000    0.000    0.000    0.000 
#
# Total GULP energy -78179.609711 kJ/mol
# GULP energy per Si atom -5584.257837 kJ/mol
# Density = 2.606068 g / cm^3
# Si number density = 26.120129 Si / 1000 Ang^3
#
#
#
# Elastic Constant Matrix: (Units=GPa)
#
#
# Indices 1 2 3 4 5 6 
#
# 1 92.1165 5.2648 29.4195 -3.1044 -11.4372 3.7981
# 2 5.2648 257.9392 69.6361 -4.8037 -21.8454 14.5120
# 3 29.4195 69.6361 140.7896 5.6248 -4.1707 -0.9929
# 4 -3.1044 -4.8037 5.6248 41.5403 3.1106 -12.4244
# 5 -11.4372 -21.8454 -4.1707 3.1106 44.4559 0.0939
# 6 3.7981 14.5120 -0.9929 -12.4244 0.0939 31.5786
#
#
#
# Elastic Compliance Matrix: (Units=1/GPa)
#
#
# Indices 1 2 3 4 5 6 
#
# 1 0.012253 0.000940 -0.002966 0.000656 0.003294 -0.001751
# 2 0.000940 0.004891 -0.002565 0.000080 0.002404 -0.002417
# 3 -0.002966 -0.002565 0.009019 -0.001261 -0.001092 0.001326
# 4 0.000656 0.000080 -0.001261 0.027651 -0.001868 0.010729
# 5 0.003294 0.002404 -0.001092 -0.001868 0.024556 -0.002343
# 6 -0.001751 -0.002417 0.001326 0.010729 -0.002343 0.037258
#
#
# Mechanical properties :
#
#
# Convention : Reuss Voigt Hill
#
# Bulk Modulus (GPa) = 58.88944 77.72068 68.30506
# Shear Modulus (GPa) = 38.32296 49.28330 43.80313
#
# Velocity S-wave (km/s) = 3.83454 4.34844 4.09955
# Velocity P-wave (km/s) = 6.49611 7.41833 6.97248
#
# Compressibility (1/GPa) = 0.01698097
#
# Stress axis : x y z
#
# Youngs Moduli (GPa) = 81.61439 204.44802 110.88147
#
# Poissons Ratio (x) = -0.19228 0.32893
# Poissons Ratio (y) = -0.07676 0.28439
# Poissons Ratio (z) = 0.24211 0.52437
#
# Static dielectric constant tensor:
#      x y z
#    x 2.192360 -0.047820 -0.072140 
#    y -0.047820 2.225550 0.007790 
#    z -0.072140 0.007790 2.119850 
# 
# From -- ./inp_files/339322.got.cif
#   From: 2010.05.17/outbox.cif.g08.bks.cpg/sg2_170_cif.got.tgz:339322.got - 2010.06.03 11:33:40.
