data_PCOD9090084
_publ_section_title
;
Structure prediction by ZEFSAII (Michael W. Deem and Ramdas Pophale) SiO2 
 PCOD9090084
Probable space group: P -1
;
_chemical_formula_sum "Si O2"
_cell_formula_units_Z 16
_cell_length_a 22.599001
_cell_length_b 10.595597
_cell_length_c 8.159151
_cell_angle_alpha 64.386797
_cell_angle_beta 136.858341
_cell_angle_gamma 147.999413
_cell_volume 607.002965
_symmetry_space_group_name_H-M "P -1"
_symmetry_group_IT_number 2
_symmetry_cell_setting 'triclinic'
loop_
_space_group_symop_operation_xyz
x,y,z
-x,-y,-z
loop_
_atom_site_type_symbol
_atom_site_label
_atom_site_fract_x
_atom_site_fract_y
_atom_site_fract_z
Si Si1 0.130638 0.071779 0.306475
Si Si2 0.758304 0.278228 0.590850
Si Si3 0.349616 0.645196 0.416199
Si Si4 0.880996 0.771654 0.246287
Si Si5 0.091062 0.722518 0.865815
Si Si6 0.691916 0.138483 0.974647
Si Si7 0.708847 0.804268 0.740929
Si Si8 0.498972 0.833372 0.084090
O O1 0.284817 0.398657 0.458178
O O2 0.207009 0.056590 0.350665
O O3 0.020211 0.880071 0.354249
O O4 0.000000 0.000000 0.000000
O O5 0.692056 0.323069 0.522638
O O6 0.880448 0.381695 0.916749
O O7 0.619971 0.974940 0.408077
O O8 0.896146 0.501419 0.600876
O O9 0.288557 0.663453 0.130453
O O10 0.554465 0.919869 0.672006
O O11 0.796718 0.776254 0.963297
O O12 0.699236 0.476950 0.126489
O O13 0.000000 0.000000 0.500000
O O14 0.153111 0.750608 0.803347
O O15 0.209826 0.994801 0.056253
O O16 0.600244 0.951231 0.055897
O O17 0.500000 0.500000 0.500000
O O18 0.500000 0.000000 0.000000
#
# Coordination Sequence:
#
# PCOD9090084 Si02
#       8
#     2   2   2   2   2   2   2   2
#     4  10  22  38  65  94 129 173 235 268 328 390
#     4  10  21  40  64  93 131 169 218 278 328 389
#     4  10  19  38  63  93 124 169 222 277 315 385
#     4  11  26  45  67  99 137 180 223 278 335 397
#     4  10  22  41  63  94 129 173 219 270 333 392
#     4  10  22  37  65  93 128 169 216 270 330 389
#     4  11  23  42  70  97 136 177 224 275 331 402
#     4  12  25  40  66  99 134 169 221 274 331 386
#
# _framework density 26.359013999999998
#
# number of rings (size 3 to 8) (size 9 to 14) (size 15 to 20)
#    0.000    1.500    1.250    3.750    5.250    0.500 
#    0.000    3.750    0.000    0.000    0.000    0.000 
#    0.000    0.000    0.000    0.000    0.000    0.000 
#
# Total GULP energy -89084.195176 kJ/mol
# GULP energy per Si atom -5567.762198 kJ/mol
# Density = 2.629902 g / cm^3
# Si number density = 26.359014 Si / 1000 Ang^3
#
#
#
# Elastic Constant Matrix: (Units=GPa)
#
#
# Indices 1 2 3 4 5 6 
#
# 1 149.4402 33.8642 27.8404 13.6633 14.9883 44.3831
# 2 33.8642 98.2791 14.7206 24.4627 -12.9371 24.6969
# 3 27.8404 14.7206 101.0796 27.3425 3.4911 14.0236
# 4 13.6633 24.4627 27.3425 52.4438 -3.4093 -2.2232
# 5 14.9883 -12.9371 3.4911 -3.4093 38.4520 2.4612
# 6 44.3831 24.6969 14.0236 -2.2232 2.4612 46.0793
#
#
#
# Elastic Compliance Matrix: (Units=1/GPa)
#
#
# Indices 1 2 3 4 5 6 
#
# 1 0.010407 -0.001089 -0.000613 -0.002533 -0.004005 -0.009162
# 2 -0.001089 0.014828 0.000976 -0.007136 0.005192 -0.007817
# 3 -0.000613 0.000976 0.012396 -0.006987 -0.000922 -0.003993
# 4 -0.002533 -0.007136 -0.006987 0.027174 0.001013 0.009647
# 5 -0.004005 0.005192 -0.000922 0.001013 0.029499 -0.000171
# 6 -0.009162 -0.007817 -0.003993 0.009647 -0.000171 0.036406
#
#
# Mechanical properties :
#
#
# Convention : Reuss Voigt Hill
#
# Bulk Modulus (GPa) = 27.64049 55.73881 41.68965
# Shear Modulus (GPa) = 34.66882 45.55329 40.11105
#
# Velocity S-wave (km/s) = 3.63058 4.16166 3.90516
# Velocity P-wave (km/s) = 5.29941 6.65465 6.01532
#
# Compressibility (1/GPa) = 0.03617881
#
# Stress axis : x y z
#
# Youngs Moduli (GPa) = 96.09001 67.43935 80.67175
#
# Poissons Ratio (x) = 0.07341 0.04948
# Poissons Ratio (y) = 0.10460 -0.07872
# Poissons Ratio (z) = 0.05893 -0.06581
#
# Static dielectric constant tensor:
#      x y z
#    x 2.036410 0.209640 -0.437500 
#    y 0.209640 3.449020 -1.146060 
#    z -0.437500 -1.146060 4.217550 
# 
# From -- ./inp_files/353487.got.cif
#   From: 2010.05.17/outbox.cif.g08.bks.cpg/sg2_177_cif.got.tgz:353487.got - 2010.06.03 11:33:40.
