data_PCOD9090605
_publ_section_title
;
Structure prediction by ZEFSAII (Michael W. Deem and Ramdas Pophale) SiO2 
 PCOD9090605
Probable space group: P -1
;
_chemical_formula_sum "Si O2"
_cell_formula_units_Z 16
_cell_length_a 15.975333
_cell_length_b 9.194916
_cell_length_c 7.806742
_cell_angle_alpha 103.988960
_cell_angle_beta 73.874988
_cell_angle_gamma 49.906699
_cell_volume 691.070365
_symmetry_space_group_name_H-M "P -1"
_symmetry_group_IT_number 2
_symmetry_cell_setting 'triclinic'
loop_
_space_group_symop_operation_xyz
x,y,z
-x,-y,-z
loop_
_atom_site_type_symbol
_atom_site_label
_atom_site_fract_x
_atom_site_fract_y
_atom_site_fract_z
Si Si1 0.257725 0.885226 0.919480
Si Si2 0.547715 0.618650 0.674972
Si Si3 0.147518 0.306416 0.283887
Si Si4 0.982734 0.374888 0.853887
Si Si5 0.503174 0.786235 0.349667
Si Si6 0.338021 0.248847 0.392866
Si Si7 0.794297 0.393368 0.132610
Si Si8 0.266277 0.894990 0.523160
O O1 0.416291 0.696269 0.820870
O O2 0.199088 0.795132 0.920686
O O3 0.249094 0.959409 0.752559
O O4 0.183490 0.091771 0.148315
O O5 0.524264 0.690973 0.505491
O O6 0.572044 0.753162 0.769659
O O7 0.678558 0.347049 0.566239
O O8 0.132188 0.425350 0.155867
O O9 0.254104 0.245231 0.327397
O O10 0.000000 0.500000 0.500000
O O11 0.924951 0.306677 0.965838
O O12 0.120475 0.140986 0.613774
O O13 0.000000 0.500000 0.000000
O O14 0.658493 0.594823 0.151867
O O15 0.391866 0.817712 0.347954
O O16 0.429173 0.037739 0.415273
O O17 0.238116 0.482533 0.632223
#
# Coordination Sequence:
#
# PCOD9090605 Si02
#       8
#     2   2   2   2   2   2   2   2
#     4  11  22  42  73  97 134 180 229 280 332 412
#     4  10  20  40  71 105 134 170 235 282 337 398
#     4  12  28  48  63  97 148 182 221 279 356 404
#     4  12  26  43  70 101 133 183 236 276 332 412
#     4  10  19  38  68 103 134 170 226 279 334 397
#     4  11  24  39  70 101 141 176 221 289 347 393
#     4  11  22  43  73 105 127 173 245 279 324 408
#     4  11  19  40  70 101 132 172 230 285 324 391
#
# _framework density 23.15249
#
# number of rings (size 3 to 8) (size 9 to 14) (size 15 to 20)
#    0.000    1.000    5.000    4.500    3.500    2.000 
#    0.000    4.375    0.000    0.000    0.000    0.000 
#    0.000    0.000    0.000    0.000    0.000    0.000 
#
# Total GULP energy -89216.584285 kJ/mol
# GULP energy per Si atom -5576.036518 kJ/mol
# Density = 2.309979 g / cm^3
# Si number density = 23.152490 Si / 1000 Ang^3
#
#
#
# Elastic Constant Matrix: (Units=GPa)
#
#
# Indices 1 2 3 4 5 6 
#
# 1 120.6694 46.8278 20.4901 2.1658 1.4311 13.8204
# 2 46.8278 111.5513 21.2527 26.3184 17.9641 3.0637
# 3 20.4901 21.2527 50.9235 21.0442 7.7032 6.8312
# 4 2.1658 26.3184 21.0442 30.7027 3.2332 5.8556
# 5 1.4311 17.9641 7.7032 3.2332 37.5366 1.7979
# 6 13.8204 3.0637 6.8312 5.8556 1.7979 43.3548
#
#
#
# Elastic Compliance Matrix: (Units=1/GPa)
#
#
# Indices 1 2 3 4 5 6 
#
# 1 0.012054 -0.006520 -0.005898 0.009167 0.003265 -0.003826
# 2 -0.006520 0.015632 0.002807 -0.014693 -0.006677 0.002793
# 3 -0.005898 0.002807 0.031048 -0.022703 -0.005538 0.000086
# 4 0.009167 -0.014693 -0.022703 0.060693 0.006438 -0.006771
# 5 0.003265 -0.006677 -0.005538 0.006438 0.030381 -0.001826
# 6 -0.003826 0.002793 0.000086 -0.006771 -0.001826 0.025064
#
#
# Mechanical properties :
#
#
# Convention : Reuss Voigt Hill
#
# Bulk Modulus (GPa) = 25.30931 51.14282 38.22607
# Shear Modulus (GPa) = 24.12392 35.29041 29.70716
#
# Velocity S-wave (km/s) = 3.23144 3.90841 3.58594
# Velocity P-wave (km/s) = 4.98781 6.51959 5.80445
#
# Compressibility (1/GPa) = 0.03951115
#
# Stress axis : x y z
#
# Youngs Moduli (GPa) = 82.96303 63.97302 32.20864
#
# Poissons Ratio (x) = 0.41708 0.18996
# Poissons Ratio (y) = 0.54089 -0.09040
# Poissons Ratio (z) = 0.48930 -0.17955
#
# Static dielectric constant tensor:
#      x y z
#    x 1.920580 -0.009020 -0.015020 
#    y -0.009020 1.940470 -0.012020 
#    z -0.015020 -0.012020 1.932660 
# 
# From -- ./inp_files/299175.got.cif
#   From: 2010.05.17/outbox.cif.g08.bks.cpg/sg2_150_cif.got.tgz:299175.got - 2010.06.03 11:33:40.
