data_PCOD9090452
_publ_section_title
;
Structure prediction by ZEFSAII (Michael W. Deem and Ramdas Pophale) SiO2 
 PCOD9090452
Probable space group: P -1
;
_chemical_formula_sum "Si O2"
_cell_formula_units_Z 16
_cell_length_a 9.990264
_cell_length_b 10.112230
_cell_length_c 15.279040
_cell_angle_alpha 102.832786
_cell_angle_beta 50.847851
_cell_angle_gamma 68.374948
_cell_volume 863.351385
_symmetry_space_group_name_H-M "P -1"
_symmetry_group_IT_number 2
_symmetry_cell_setting 'triclinic'
loop_
_space_group_symop_operation_xyz
x,y,z
-x,-y,-z
loop_
_atom_site_type_symbol
_atom_site_label
_atom_site_fract_x
_atom_site_fract_y
_atom_site_fract_z
Si Si1 0.933540 0.070739 0.393000
Si Si2 0.274559 0.359284 0.384947
Si Si3 0.049199 0.760588 0.857532
Si Si4 0.975700 0.925393 0.166986
Si Si5 0.371295 0.812077 0.295638
Si Si6 0.257806 0.568994 0.573952
Si Si7 0.414434 0.590488 0.836951
Si Si8 0.358831 0.065740 0.815390
O O1 0.943672 0.969484 0.289066
O O2 0.182358 0.947254 0.319395
O O3 0.755234 0.115131 0.547243
O O4 0.852354 0.260813 0.420226
O O5 0.301898 0.411992 0.477186
O O6 0.407868 0.387802 0.265960
O O7 0.407280 0.146114 0.298614
O O8 0.000000 0.500000 0.500000
O O9 0.094165 0.644063 0.737449
O O10 0.254525 0.637632 0.825595
O O11 0.057104 0.911770 0.843304
O O12 0.807920 0.862059 0.021101
O O13 0.788396 0.922630 0.201503
O O14 0.233027 0.739157 0.006220
O O15 0.456181 0.613857 0.218216
O O16 0.575802 0.813583 0.208898
O O17 0.500000 0.500000 0.500000
#
# Coordination Sequence:
#
# PCOD9090452 Si02
#       8
#     2   2   2   2   2   2   2   2
#     4  10  22  40  58  84 122 167 187 235 306 359
#     4  12  22  36  60  93 117 153 203 245 289 342
#     4  10  19  38  66  91 115 151 203 252 299 333
#     4  10  20  39  66  87 114 152 208 249 290 338
#     4  11  24  39  58  83 130 161 190 229 308 368
#     4  11  19  38  66  90 113 155 208 246 288 349
#     4  11  20  40  63  86 119 162 192 240 300 361
#     4  11  22  39  61  93 118 152 197 255 293 343
#
# _framework density 18.532430999999999
#
# number of rings (size 3 to 8) (size 9 to 14) (size 15 to 20)
#    0.000    1.250    5.000    2.250    1.750    3.000 
#    2.250    3.125    0.000    0.000    0.000    0.000 
#    0.000    0.000    0.000    0.000    0.000    0.000 
#
# Total GULP energy -89392.845174 kJ/mol
# GULP energy per Si atom -5587.052823 kJ/mol
# Density = 1.849025 g / cm^3
# Si number density = 18.532431 Si / 1000 Ang^3
#
#
#
# Elastic Constant Matrix: (Units=GPa)
#
#
# Indices 1 2 3 4 5 6 
#
# 1 25.3096 3.9227 21.9908 -3.8157 -0.2390 -7.2935
# 2 3.9227 59.7988 9.7180 10.3795 2.3775 -8.9094
# 3 21.9908 9.7180 69.8984 13.6552 0.1881 -15.4653
# 4 -3.8157 10.3795 13.6552 22.3216 -1.7737 -0.9828
# 5 -0.2390 2.3775 0.1881 -1.7737 31.2574 -1.4167
# 6 -7.2935 -8.9094 -15.4653 -0.9828 -1.4167 27.9271
#
#
#
# Elastic Compliance Matrix: (Units=1/GPa)
#
#
# Indices 1 2 3 4 5 6 
#
# 1 0.068507 -0.005212 -0.026133 0.030486 0.002943 0.002979
# 2 -0.005212 0.019575 0.002410 -0.011369 -0.001929 0.005721
# 3 -0.026133 0.002410 0.028630 -0.022824 -0.001446 0.008922
# 4 0.030486 -0.011369 -0.022824 0.069404 0.004919 -0.005613
# 5 0.002943 -0.001929 -0.001446 0.004919 0.032503 0.001174
# 6 0.002979 0.005721 0.008922 -0.005613 0.001174 0.043213
#
#
# Mechanical properties :
#
#
# Convention : Reuss Voigt Hill
#
# Bulk Modulus (GPa) = 16.99436 25.14111 21.06773
# Shear Modulus (GPa) = 14.73556 24.25957 19.49756
#
# Velocity S-wave (km/s) = 2.82285 3.62198 3.24709
# Velocity P-wave (km/s) = 4.45136 5.57558 5.04489
#
# Compressibility (1/GPa) = 0.05884305
#
# Stress axis : x y z
#
# Youngs Moduli (GPa) = 14.59709 51.08463 34.92859
#
# Poissons Ratio (x) = 0.26624 0.91278
# Poissons Ratio (y) = 0.07608 -0.08418
# Poissons Ratio (z) = 0.38146 -0.12312
#
# Static dielectric constant tensor:
#      x y z
#    x 1.624050 -0.003930 0.005080 
#    y -0.003930 1.624580 0.016290 
#    z 0.005080 0.016290 1.654610 
# 
# From -- ./inp_files/273317.got.cif
#   From: 2010.05.17/outbox.cif.g08.bks.cpg/sg2_137_cif.got.tgz:273317.got - 2010.06.03 11:33:40.
