data_PCOD9090024
_publ_section_title
;
Structure prediction by ZEFSAII (Michael W. Deem and Ramdas Pophale) SiO2 
 PCOD9090024
Probable space group: P -1
;
_chemical_formula_sum "Si O2"
_cell_formula_units_Z 16
_cell_length_a 9.924142
_cell_length_b 10.919212
_cell_length_c 12.846547
_cell_angle_alpha 35.792660
_cell_angle_beta 92.201237
_cell_angle_gamma 75.064461
_cell_volume 707.227365
_symmetry_space_group_name_H-M "P -1"
_symmetry_group_IT_number 2
_symmetry_cell_setting 'triclinic'
loop_
_space_group_symop_operation_xyz
x,y,z
-x,-y,-z
loop_
_atom_site_type_symbol
_atom_site_label
_atom_site_fract_x
_atom_site_fract_y
_atom_site_fract_z
Si Si1 0.696717 0.943384 0.059352
Si Si2 0.174972 0.840095 0.809675
Si Si3 0.377160 0.914115 0.279163
Si Si4 0.985397 0.757658 0.313857
Si Si5 0.172882 0.643794 0.728155
Si Si6 0.962279 0.651690 0.999086
Si Si7 0.278843 0.578337 0.553362
Si Si8 0.478357 0.786105 0.927823
O O1 0.873248 0.884416 0.125872
O O2 0.691910 0.693173 0.248925
O O3 0.595134 0.129595 0.017622
O O4 0.638914 0.041352 0.875903
O O5 0.129512 0.825624 0.698828
O O6 0.358928 0.732865 0.899029
O O7 0.105164 0.096889 0.685983
O O8 0.100428 0.713057 0.966881
O O9 0.499067 0.994471 0.265976
O O10 0.411530 0.649313 0.493338
O O11 0.204432 0.107828 0.180262
O O12 0.000000 0.500000 0.500000
O O13 0.159443 0.706711 0.365684
O O14 0.194308 0.709564 0.567823
O O15 0.065393 0.518432 0.804991
O O16 0.347421 0.433060 0.908387
O O17 0.000000 0.500000 0.000000
#
# Coordination Sequence:
#
# PCOD9090024 Si02
#       8
#     2   2   2   2   2   2   2   2
#     4  10  21  40  60  83 124 156 201 248 297 350
#     4  10  19  38  63  88 118 161 197 245 303 349
#     4  11  21  37  61  87 118 161 199 243 293 360
#     4   9  20  36  56  87 119 149 194 248 293 347
#     4  10  21  37  63  88 122 155 200 246 297 357
#     4   9  18  36  59  88 115 153 201 241 291 354
#     4  11  21  37  60  90 121 156 200 244 301 355
#     4  10  21  39  60  85 121 159 200 245 294 352
#
# _framework density 22.623557999999999
#
# number of rings (size 3 to 8) (size 9 to 14) (size 15 to 20)
#    0.000    2.000    3.750    0.750    0.000    1.500 
#    0.000    0.625    2.750    0.000    0.000    0.000 
#    0.000    0.000    0.000    0.000    0.000    0.000 
#
# Total GULP energy -89238.936766 kJ/mol
# GULP energy per Si atom -5577.433548 kJ/mol
# Density = 2.257207 g / cm^3
# Si number density = 22.623558 Si / 1000 Ang^3
#
#
#
# Elastic Constant Matrix: (Units=GPa)
#
#
# Indices 1 2 3 4 5 6 
#
# 1 140.1353 15.3027 28.0204 8.1893 -22.8803 24.1595
# 2 15.3027 105.5274 27.9735 -20.7111 -7.3011 1.2767
# 3 28.0204 27.9735 61.2206 4.4242 -23.3700 4.2165
# 4 8.1893 -20.7111 4.4242 30.9780 1.4707 4.2949
# 5 -22.8803 -7.3011 -23.3700 1.4707 29.0843 1.7293
# 6 24.1595 1.2767 4.2165 4.2949 1.7293 32.5628
#
#
#
# Elastic Compliance Matrix: (Units=1/GPa)
#
#
# Indices 1 2 3 4 5 6 
#
# 1 0.010084 -0.001316 -0.000243 -0.002858 0.007995 -0.007447
# 2 -0.001316 0.013654 -0.008290 0.010843 -0.004838 0.000341
# 3 -0.000243 -0.008290 0.029719 -0.010344 0.022319 -0.003164
# 4 -0.002858 0.010843 -0.010344 0.042516 -0.009866 -0.002049
# 5 0.007995 -0.004838 0.022319 -0.009866 0.058511 -0.010438
# 6 -0.007447 0.000341 -0.003164 -0.002049 -0.010438 0.037456
#
#
# Mechanical properties :
#
#
# Convention : Reuss Voigt Hill
#
# Bulk Modulus (GPa) = 29.62169 49.94185 39.78177
# Shear Modulus (GPa) = 22.43248 34.23079 28.33163
#
# Velocity S-wave (km/s) = 3.15231 3.89403 3.54263
# Velocity P-wave (km/s) = 5.13528 6.50700 5.86140
#
# Compressibility (1/GPa) = 0.03375904
#
# Stress axis : x y z
#
# Youngs Moduli (GPa) = 99.16318 73.23925 33.64844
#
# Poissons Ratio (x) = 0.09635 0.00818
# Poissons Ratio (y) = 0.13046 0.27896
# Poissons Ratio (z) = 0.02411 0.60719
#
# Static dielectric constant tensor:
#      x y z
#    x 1.968300 -0.000860 0.030770 
#    y -0.000860 1.846140 -0.042370 
#    z 0.030770 -0.042370 1.888290 
# 
# From -- ./inp_files/499711.got.cif
#   From: 2010.05.17/outbox.cif.g08.bks.cpg/sg2_250_cif.got.tgz:499711.got - 2010.06.03 11:33:40.
