data_PCOD9090763
_publ_section_title
;
Structure prediction by ZEFSAII (Michael W. Deem and Ramdas Pophale) SiO2 
 PCOD9090763
Probable space group: P -1
;
_chemical_formula_sum "Si O2"
_cell_formula_units_Z 14
_cell_length_a 10.024161
_cell_length_b 22.962859
_cell_length_c 9.099539
_cell_angle_alpha 56.810258
_cell_angle_beta 122.492599
_cell_angle_gamma 153.177543
_cell_volume 784.340529
_symmetry_space_group_name_H-M "P -1"
_symmetry_group_IT_number 2
_symmetry_cell_setting 'triclinic'
loop_
_space_group_symop_operation_xyz
x,y,z
-x,-y,-z
loop_
_atom_site_type_symbol
_atom_site_label
_atom_site_fract_x
_atom_site_fract_y
_atom_site_fract_z
Si Si1 0.585821 0.566960 0.612271
Si Si2 0.821591 0.941280 0.708404
Si Si3 0.803588 0.516124 0.986883
Si Si4 0.463661 0.711711 0.030545
Si Si5 0.174615 0.199676 0.590324
Si Si6 0.927555 0.552913 0.345463
Si Si7 0.584275 0.825236 0.410318
O O1 0.500000 0.500000 0.500000
O O2 0.829013 0.719130 0.529336
O O3 0.293548 0.496158 0.600087
O O4 0.696484 0.548958 0.812603
O O5 0.678490 0.843612 0.887238
O O6 0.631731 0.862095 0.556590
O O7 0.874596 0.041987 0.642159
O O8 0.157346 0.042465 0.718516
O O9 0.610881 0.383064 0.982103
O O10 0.787587 0.506392 0.165960
O O11 0.147732 0.629943 0.990467
O O12 0.616882 0.744622 0.226585
O O13 0.328157 0.223059 0.503388
O O14 0.000000 0.500000 0.500000
O O15 0.248026 0.710797 0.320377
#
# Coordination Sequence:
#
# PCOD9090763 Si02
#       7
#     2   2   2   2   2   2   2
#     4  12  25  40  59  91 129 154 196 253 303 356
#     4   9  19  34  62  91 112 152 206 253 284 349
#     4  11  24  37  58  95 120 160 199 245 303 358
#     4  11  20  36  63  89 120 153 207 245 294 354
#     4  10  19  39  58  87 118 154 197 243 296 353
#     4  12  21  40  65  85 121 161 201 249 297 354
#     4   9  19  35  60  91 108 151 210 237 292 351
#
# _framework density 17.849388999999999
#
# number of rings (size 3 to 8) (size 9 to 14) (size 15 to 20)
#    0.857    0.571    4.286    1.714    4.000    0.000 
#    0.000    0.714    0.000    1.714    0.000    0.000 
#    0.000    0.000    0.000    0.000    0.000    0.000 
#
# Total GULP energy -78043.370632 kJ/mol
# GULP energy per Si atom -5574.526474 kJ/mol
# Density = 1.780876 g / cm^3
# Si number density = 17.849389 Si / 1000 Ang^3
#
#
#
# Elastic Constant Matrix: (Units=GPa)
#
#
# Indices 1 2 3 4 5 6 
#
# 1 93.1619 34.1317 51.5345 -2.4685 -0.0848 -19.9058
# 2 34.1317 82.2747 40.9996 -4.8974 -6.1399 -27.3147
# 3 51.5345 40.9996 110.4370 -3.9364 3.8972 -19.0958
# 4 -2.4685 -4.8974 -3.9364 35.0732 -7.5302 -6.4497
# 5 -0.0848 -6.1399 3.8972 -7.5302 23.1138 -2.6229
# 6 -19.9058 -27.3147 -19.0958 -6.4497 -2.6229 26.8766
#
#
#
# Elastic Compliance Matrix: (Units=1/GPa)
#
#
# Indices 1 2 3 4 5 6 
#
# 1 0.015951 -0.000913 -0.005807 0.002239 0.002379 0.007530
# 2 -0.000913 0.024752 -0.004534 0.010409 0.013573 0.025080
# 3 -0.005807 -0.004534 0.013632 -0.000203 -0.003547 0.000382
# 4 0.002239 0.010409 -0.000203 0.038160 0.017849 0.022992
# 5 0.002379 0.013573 -0.003547 0.017849 0.055876 0.022772
# 6 0.007530 0.025080 0.000382 0.022992 0.022772 0.076284
#
#
# Mechanical properties :
#
#
# Convention : Reuss Voigt Hill
#
# Bulk Modulus (GPa) = 31.42036 59.91170 45.66603
# Shear Modulus (GPa) = 19.39708 27.62656 23.51182
#
# Velocity S-wave (km/s) = 3.30010 3.93843 3.63331
# Velocity P-wave (km/s) = 5.67117 7.37018 6.57578
#
# Compressibility (1/GPa) = 0.03182650
#
# Stress axis : x y z
#
# Youngs Moduli (GPa) = 62.69241 40.40132 73.35787
#
# Poissons Ratio (x) = 0.03689 0.42596
# Poissons Ratio (y) = 0.05724 0.33263
# Poissons Ratio (z) = 0.36403 0.18319
#
# Static dielectric constant tensor:
#      x y z
#    x 1.606910 -0.011470 -0.016980 
#    y -0.011470 1.651690 -0.021780 
#    z -0.016980 -0.021780 1.586070 
# 
# From -- ./inp_files/195057.got.cif
#   From: 2010.05.17/outbox.cif.g08.bks.cpg/sg2_98_cif.got.tgz:195057.got - 2010.06.03 11:33:40.
