data_PCOD9090713
_publ_section_title
;
Structure prediction by ZEFSAII (Michael W. Deem and Ramdas Pophale) SiO2 
 PCOD9090713
Probable space group: P -1
;
_chemical_formula_sum "Si O2"
_cell_formula_units_Z 15
_cell_length_a 17.797719
_cell_length_b 11.390642
_cell_length_c 8.359446
_cell_angle_alpha 49.333677
_cell_angle_beta 48.766455
_cell_angle_gamma 30.803347
_cell_volume 636.349637
_symmetry_space_group_name_H-M "P -1"
_symmetry_group_IT_number 2
_symmetry_cell_setting 'triclinic'
loop_
_space_group_symop_operation_xyz
x,y,z
-x,-y,-z
loop_
_atom_site_type_symbol
_atom_site_label
_atom_site_fract_x
_atom_site_fract_y
_atom_site_fract_z
Si Si1 0.284188 0.183197 0.068938
Si Si2 0.178870 0.818398 0.713336
Si Si3 0.890571 0.957567 0.065123
Si Si4 0.771507 0.538532 0.393415
Si Si5 0.634833 0.463123 0.855401
Si Si6 0.043202 0.462347 0.658471
Si Si7 0.000000 0.000000 0.500000
Si Si8 0.583874 0.671356 0.085506
O O1 0.113992 0.333842 0.209340
O O2 0.405845 0.904810 0.151230
O O3 0.285378 0.267240 0.821715
O O4 0.338614 0.253580 0.053271
O O5 0.177044 0.943509 0.749819
O O6 0.339660 0.546712 0.715499
O O7 0.104700 0.959778 0.529232
O O8 0.061294 0.823820 0.942442
O O9 0.887435 0.784928 0.171781
O O10 0.795556 0.181097 0.881434
O O11 0.640560 0.576870 0.603073
O O12 0.842261 0.538065 0.450608
O O13 0.899879 0.278538 0.368390
O O14 0.500000 0.500000 0.000000
O O15 0.619780 0.570726 0.947050
O O16 0.000000 0.500000 0.500000
#
# Coordination Sequence:
#
# PCOD9090713 Si02
#       8
#     2   2   2   2   2   2   1   2
#     4  11  24  44  69 105 146 180 224 294 351 413
#     4  10  19  38  72  95 132 187 223 289 334 413
#     4  10  21  42  68  95 138 177 238 281 340 413
#     4  12  26  42  74 103 138 186 233 296 347 405
#     4  11  26  47  69 101 136 190 233 288 350 421
#     4  12  25  44  71 110 137 184 237 288 350 418
#     4  12  20  38  64 104 130 170 238 280 344 404
#     4  10  22  44  69  94 146 185 223 278 356 411
#
# _framework density 23.571947000000002
#
# number of rings (size 3 to 8) (size 9 to 14) (size 15 to 20)
#    0.000    1.067    4.000    2.000    3.733    1.600 
#    4.800    0.667    0.000    0.000    0.000    0.000 
#    0.000    0.000    0.000    0.000    0.000    0.000 
#
# Total GULP energy -83757.117162 kJ/mol
# GULP energy per Si atom -5583.807811 kJ/mol
# Density = 2.351830 g / cm^3
# Si number density = 23.571947 Si / 1000 Ang^3
#
#
#
# Elastic Constant Matrix: (Units=GPa)
#
#
# Indices 1 2 3 4 5 6 
#
# 1 82.5822 21.6470 30.8401 0.0978 -3.1842 3.3570
# 2 21.6470 137.3598 20.1904 -20.2946 -1.8104 -3.9445
# 3 30.8401 20.1904 81.9631 1.6251 8.6170 -13.5000
# 4 0.0978 -20.2946 1.6251 19.9086 -10.2786 -0.9972
# 5 -3.1842 -1.8104 8.6170 -10.2786 40.2735 -5.6353
# 6 3.3570 -3.9445 -13.5000 -0.9972 -5.6353 31.6467
#
#
#
# Elastic Compliance Matrix: (Units=1/GPa)
#
#
# Indices 1 2 3 4 5 6 
#
# 1 0.015057 -0.001661 -0.006101 -0.000604 0.001690 -0.004125
# 2 -0.001661 0.009802 -0.002213 0.012415 0.004174 0.001588
# 3 -0.006101 -0.002213 0.016717 -0.005694 -0.004704 0.006486
# 4 -0.000604 0.012415 -0.005694 0.074754 0.021560 0.005377
# 5 0.001690 0.004174 -0.004704 0.021560 0.032328 0.004770
# 6 -0.004125 0.001588 0.006486 0.005377 0.004770 0.036020
#
#
# Mechanical properties :
#
#
# Convention : Reuss Voigt Hill
#
# Bulk Modulus (GPa) = 46.24244 49.69558 47.96901
# Shear Modulus (GPa) = 23.60306 33.64759 28.62533
#
# Velocity S-wave (km/s) = 3.16780 3.78225 3.48858
# Velocity P-wave (km/s) = 5.74805 6.34052 6.05154
#
# Compressibility (1/GPa) = 0.02162516
#
# Stress axis : x y z
#
# Youngs Moduli (GPa) = 66.41563 102.01785 59.81892
#
# Poissons Ratio (x) = 0.16949 0.36497
# Poissons Ratio (y) = 0.11034 0.13237
# Poissons Ratio (z) = 0.40522 0.22575
#
# Static dielectric constant tensor:
#      x y z
#    x 1.829970 -0.008960 0.024250 
#    y -0.008960 2.288410 0.479580 
#    z 0.024250 0.479580 2.452390 
# 
# From -- ./inp_files/331598.got.cif
#   From: 2010.05.17/outbox.cif.g08.bks.cpg/sg2_166_cif.got.tgz:331598.got - 2010.06.03 11:33:40.
