data_PCOD9090456
_publ_section_title
;
Structure prediction by ZEFSAII (Michael W. Deem and Ramdas Pophale) SiO2 
 PCOD9090456
Probable space group: P -1
;
_chemical_formula_sum "Si O2"
_cell_formula_units_Z 14
_cell_length_a 12.149369
_cell_length_b 8.818520
_cell_length_c 7.775783
_cell_angle_alpha 128.766911
_cell_angle_beta 96.218750
_cell_angle_gamma 59.184763
_cell_volume 529.042416
_symmetry_space_group_name_H-M "P -1"
_symmetry_group_IT_number 2
_symmetry_cell_setting 'triclinic'
loop_
_space_group_symop_operation_xyz
x,y,z
-x,-y,-z
loop_
_atom_site_type_symbol
_atom_site_label
_atom_site_fract_x
_atom_site_fract_y
_atom_site_fract_z
Si Si1 0.606592 0.716824 0.319783
Si Si2 0.834989 0.014311 0.929188
Si Si3 0.634521 0.987539 0.030970
Si Si4 0.165955 0.260245 0.547330
Si Si5 0.764417 0.494815 0.827486
Si Si6 0.639015 0.222196 0.544765
Si Si7 0.040248 0.740074 0.041833
O O1 0.721272 0.688054 0.446299
O O2 0.510093 0.636275 0.295105
O O3 0.500000 0.000000 0.500000
O O4 0.677151 0.621018 0.078327
O O5 0.903894 0.789633 0.652085
O O6 0.897548 0.941707 0.079391
O O7 0.683668 0.084393 0.960669
O O8 0.861876 0.199077 0.991362
O O9 0.620498 0.130906 0.298774
O O10 0.750652 0.707723 0.874766
O O11 0.500000 0.000000 0.000000
O O12 0.069917 0.490447 0.810343
O O13 0.250530 0.013584 0.494609
O O14 0.695522 0.381066 0.646865
O O15 0.914641 0.293203 0.776909
#
# Coordination Sequence:
#
# PCOD9090456 Si02
#       7
#     2   2   2   2   2   2   2
#     4   9  17  33  62  91 116 164 217 248 294 377
#     4  11  24  40  67  96 129 162 213 274 307 366
#     4  12  27  42  61  98 137 158 205 274 327 370
#     4  10  19  38  66  91 120 165 220 259 303 377
#     4  11  22  40  66  91 125 173 211 255 318 384
#     4  11  21  39  63  93 127 171 214 253 315 388
#     4  10  22  43  67  94 121 170 224 252 310 380
#
# _framework density 26.462906
#
# number of rings (size 3 to 8) (size 9 to 14) (size 15 to 20)
#    0.000    1.429    5.714    1.714    2.000    4.571 
#    0.000    0.714    0.000    0.000    0.000    0.000 
#    0.000    0.000    0.000    0.000    0.000    0.000 
#
# Total GULP energy -78319.880383 kJ/mol
# GULP energy per Si atom -5594.277170 kJ/mol
# Density = 2.640268 g / cm^3
# Si number density = 26.462906 Si / 1000 Ang^3
#
#
#
# Elastic Constant Matrix: (Units=GPa)
#
#
# Indices 1 2 3 4 5 6 
#
# 1 133.1511 22.4370 27.3825 8.1155 32.3905 21.6150
# 2 22.4370 66.7598 23.7098 15.6188 14.1460 2.0859
# 3 27.3825 23.7098 123.8888 0.6278 37.8006 8.1088
# 4 8.1155 15.6188 0.6278 38.5317 0.8391 10.3068
# 5 32.3905 14.1460 37.8006 0.8391 43.4282 1.6619
# 6 21.6150 2.0859 8.1088 10.3068 1.6619 30.5185
#
#
#
# Elastic Compliance Matrix: (Units=1/GPa)
#
#
# Indices 1 2 3 4 5 6 
#
# 1 0.010789 -0.002250 0.000934 0.000825 -0.007853 -0.007587
# 2 -0.002250 0.018927 -0.002684 -0.008146 -0.002142 0.003881
# 3 0.000934 -0.002684 0.011606 0.001897 -0.009821 -0.003668
# 4 0.000825 -0.008146 0.001897 0.032090 0.000202 -0.011380
# 5 -0.007853 -0.002142 -0.009821 0.000202 0.037889 0.006186
# 6 -0.007587 0.003881 -0.003668 -0.011380 0.006186 0.042356
#
#
# Mechanical properties :
#
#
# Convention : Reuss Voigt Hill
#
# Bulk Modulus (GPa) = 30.00974 52.31759 41.16367
# Shear Modulus (GPa) = 28.94151 39.18037 34.06094
#
# Velocity S-wave (km/s) = 3.31065 3.85200 3.59154
# Velocity P-wave (km/s) = 5.09694 6.29261 5.72607
#
# Compressibility (1/GPa) = 0.03332251
#
# Stress axis : x y z
#
# Youngs Moduli (GPa) = 92.68860 52.83503 86.16327
#
# Poissons Ratio (x) = 0.11887 -0.08051
# Poissons Ratio (y) = 0.20853 0.23127
# Poissons Ratio (z) = -0.08661 0.14182
#
# Static dielectric constant tensor:
#      x y z
#    x 2.154190 -0.076920 -0.062010 
#    y -0.076920 2.108990 -0.025950 
#    z -0.062010 -0.025950 2.044070 
# 
# From -- ./inp_files/182027.got.cif
#   From: 2010.05.17/outbox.cif.g08.bks.cpg/sg2_92_cif.got.tgz:182027.got - 2010.06.03 11:33:40.
