data_PCOD9090007
_publ_section_title
;
Structure prediction by ZEFSAII (Michael W. Deem and Ramdas Pophale) SiO2 
 PCOD9090007
Probable space group: P -1
;
_chemical_formula_sum "Si O2"
_cell_formula_units_Z 14
_cell_length_a 11.580242
_cell_length_b 9.241131
_cell_length_c 8.825088
_cell_angle_alpha 89.088362
_cell_angle_beta 79.466781
_cell_angle_gamma 47.947572
_cell_volume 682.059124
_symmetry_space_group_name_H-M "P -1"
_symmetry_group_IT_number 2
_symmetry_cell_setting 'triclinic'
loop_
_space_group_symop_operation_xyz
x,y,z
-x,-y,-z
loop_
_atom_site_type_symbol
_atom_site_label
_atom_site_fract_x
_atom_site_fract_y
_atom_site_fract_z
Si Si1 0.840827 0.668187 0.132288
Si Si2 0.446543 0.507092 0.755943
Si Si3 0.808533 0.441292 0.355512
Si Si4 0.948939 0.975291 0.851794
Si Si5 0.312930 0.914559 0.890962
Si Si6 0.802804 0.333202 0.686315
Si Si7 0.636442 0.651062 0.964119
O O1 0.831820 0.585022 0.290800
O O2 0.798768 0.871117 0.160628
O O3 0.702904 0.716240 0.057585
O O4 0.000000 0.500000 0.000000
O O5 0.367844 0.473683 0.645195
O O6 0.347289 0.740133 0.790934
O O7 0.631625 0.395475 0.700053
O O8 0.417798 0.439684 0.917721
O O9 0.846986 0.374677 0.520057
O O10 0.927657 0.248871 0.224782
O O11 0.926596 0.113474 0.725583
O O12 0.777293 0.051130 0.932380
O O13 0.000000 0.000000 0.000000
O O14 0.488022 0.823936 0.895282
O O15 0.771335 0.476272 0.823272
#
# Coordination Sequence:
#
# PCOD9090007 Si02
#       7
#     2   2   2   2   2   2   2
#     4  11  23  37  59  83 116 154 197 232 282 350
#     4  10  19  38  63  87 110 152 195 236 282 347
#     4  11  23  37  57  90 120 150 183 243 295 335
#     4  12  20  36  62  88 114 148 197 241 281 340
#     4  11  19  36  62  84 110 149 203 233 273 335
#     4  11  21  37  61  89 118 143 192 245 292 334
#     4  10  20  38  61  84 111 154 197 237 276 344
#
# _framework density 20.52608
#
# number of rings (size 3 to 8) (size 9 to 14) (size 15 to 20)
#    0.000    1.143    5.714    3.000    0.000    0.000 
#    0.000    3.571    3.143    0.000    0.000    0.000 
#    0.000    0.000    0.000    0.000    0.000    0.000 
#
# Total GULP energy -78210.359232 kJ/mol
# GULP energy per Si atom -5586.454231 kJ/mol
# Density = 2.047936 g / cm^3
# Si number density = 20.526080 Si / 1000 Ang^3
#
#
#
# Elastic Constant Matrix: (Units=GPa)
#
#
# Indices 1 2 3 4 5 6 
#
# 1 33.8140 10.9750 -2.2512 -5.4434 -8.6578 3.6028
# 2 10.9750 117.0292 14.0855 -28.6230 -7.7501 12.1725
# 3 -2.2512 14.0855 80.2787 -34.3007 -1.7539 15.6264
# 4 -5.4434 -28.6230 -34.3007 32.0979 -0.7997 -5.9510
# 5 -8.6578 -7.7501 -1.7539 -0.7997 15.2724 -3.6782
# 6 3.6028 12.1725 15.6264 -5.9510 -3.6782 21.9709
#
#
#
# Elastic Compliance Matrix: (Units=1/GPa)
#
#
# Indices 1 2 3 4 5 6 
#
# 1 0.039652 0.001989 0.010797 0.019545 0.024326 -0.005917
# 2 0.001989 0.013338 0.007253 0.019008 0.008194 -0.006354
# 3 0.010797 0.007253 0.031690 0.039555 0.011743 -0.015648
# 4 0.019545 0.019008 0.039555 0.092066 0.027104 -0.012394
# 5 0.024326 0.008194 0.011743 0.027104 0.087421 0.005096
# 6 -0.005917 -0.006354 -0.015648 -0.012394 0.005096 0.058631
#
#
# Mechanical properties :
#
#
# Convention : Reuss Voigt Hill
#
# Bulk Modulus (GPa) = 8.01555 30.74892 19.38224
# Shear Modulus (GPa) = 15.41757 27.75575 21.58666
#
# Velocity S-wave (km/s) = 2.74363 3.68124 3.24646
# Velocity P-wave (km/s) = 3.73500 5.75167 4.84932
#
# Compressibility (1/GPa) = 0.12475755
#
# Stress axis : x y z
#
# Youngs Moduli (GPa) = 25.21926 74.97437 31.55587
#
# Poissons Ratio (x) = -0.14910 -0.34072
# Poissons Ratio (y) = -0.05015 -0.22887
# Poissons Ratio (z) = -0.27230 -0.54378
#
# Static dielectric constant tensor:
#      x y z
#    x 1.800130 -0.018290 -0.013130 
#    y -0.018290 1.737360 -0.013750 
#    z -0.013130 -0.013750 1.714940 
# 
# From -- ./inp_files/153817.got.cif
#   From: 2010.05.17/outbox.cif.g08.bks.cpg/sg2_77_cif.got.tgz:153817.got - 2010.06.03 11:33:40.
