data_PCOD9090710
_publ_section_title
;
Structure prediction by ZEFSAII (Michael W. Deem and Ramdas Pophale) SiO2 
 PCOD9090710
Probable space group: P -1
;
_chemical_formula_sum "Si O2"
_cell_formula_units_Z 12
_cell_length_a 9.196919
_cell_length_b 7.167381
_cell_length_c 8.851666
_cell_angle_alpha 73.637666
_cell_angle_beta 118.137973
_cell_angle_gamma 81.922454
_cell_volume 467.207591
_symmetry_space_group_name_H-M "P -1"
_symmetry_group_IT_number 2
_symmetry_cell_setting 'triclinic'
loop_
_space_group_symop_operation_xyz
x,y,z
-x,-y,-z
loop_
_atom_site_type_symbol
_atom_site_label
_atom_site_fract_x
_atom_site_fract_y
_atom_site_fract_z
Si Si1 0.126245 0.823129 0.205939
Si Si2 0.992918 0.585302 0.770847
Si Si3 0.547464 0.162129 0.095531
Si Si4 0.283857 0.326894 0.178791
Si Si5 0.478613 0.599966 0.270968
Si Si6 0.812845 0.273640 0.421706
O O1 0.326163 0.766234 0.253261
O O2 0.111330 0.868794 0.366467
O O3 0.057433 0.624417 0.212952
O O4 0.000000 0.000000 0.000000
O O5 0.049518 0.662983 0.627180
O O6 0.832308 0.742597 0.744818
O O7 0.155637 0.520919 0.980136
O O8 0.393219 0.190984 0.133084
O O9 0.707848 0.166442 0.282332
O O10 0.545643 0.333977 0.931637
O O11 0.500000 0.000000 0.000000
O O12 0.420088 0.401861 0.321650
O O13 0.687406 0.487789 0.391965
#
# Coordination Sequence:
#
# PCOD9090710 Si02
#       6
#     2   2   2   2   2   2
#     4  11  26  41  67 107 150 177 224 296 356 395
#     4  10  19  38  72 101 135 187 230 275 343 428
#     4  11  22  39  71 104 139 178 228 298 349 395
#     4   9  18  37  67 100 131 180 228 274 349 411
#     4  10  20  41  70  97 133 186 237 280 341 418
#     4  11  21  45  73 104 132 189 242 273 333 437
#
# _framework density 25.684515000000001
#
# number of rings (size 3 to 8) (size 9 to 14) (size 15 to 20)
#    0.000    1.667    3.333    2.000    2.333    0.000 
#    0.000    2.500   14.667    0.000    0.000    0.000 
#    0.000    0.000    0.000    0.000    0.000    0.000 
#
# Total GULP energy -66850.946171 kJ/mol
# GULP energy per Si atom -5570.912181 kJ/mol
# Density = 2.562606 g / cm^3
# Si number density = 25.684515 Si / 1000 Ang^3
#
#
#
# Elastic Constant Matrix: (Units=GPa)
#
#
# Indices 1 2 3 4 5 6 
#
# 1 213.8715 72.4084 76.1979 -1.2295 -56.4328 -15.8652
# 2 72.4084 79.3213 44.6235 5.2460 -20.4355 6.5228
# 3 76.1979 44.6235 200.6336 -0.3908 -27.0551 5.3116
# 4 -1.2295 5.2460 -0.3908 19.8867 3.8130 -9.5934
# 5 -56.4328 -20.4355 -27.0551 3.8130 48.7610 9.1917
# 6 -15.8652 6.5228 5.3116 -9.5934 9.1917 38.3353
#
#
#
# Elastic Compliance Matrix: (Units=1/GPa)
#
#
# Indices 1 2 3 4 5 6 
#
# 1 0.009507 -0.006938 -0.001350 0.003464 0.006192 0.004684
# 2 -0.006938 0.022336 -0.001644 -0.011906 0.003274 -0.010208
# 3 -0.001350 -0.001644 0.006106 -0.000604 0.001492 -0.001634
# 4 0.003464 -0.011906 -0.000604 0.066724 -0.010839 0.022839
# 5 0.006192 0.003274 0.001492 -0.010839 0.032357 -0.008672
# 6 0.004684 -0.010208 -0.001634 0.022839 -0.008672 0.037782
#
#
# Mechanical properties :
#
#
# Convention : Reuss Voigt Hill
#
# Bulk Modulus (GPa) = 55.29621 97.80954 76.55287
# Shear Modulus (GPa) = 24.91254 41.43638 33.17446
#
# Velocity S-wave (km/s) = 3.11777 4.02093 3.59780
# Velocity P-wave (km/s) = 5.87677 7.72793 6.86503
#
# Compressibility (1/GPa) = 0.01808442
#
# Stress axis : x y z
#
# Youngs Moduli (GPa) = 105.18878 44.77163 163.78030
#
# Poissons Ratio (x) = 0.31062 0.22106
# Poissons Ratio (y) = 0.72979 0.26929
# Poissons Ratio (z) = 0.14197 0.07361
#
# Static dielectric constant tensor:
#      x y z
#    x 2.045350 -0.025880 0.087780 
#    y -0.025880 2.173830 0.060870 
#    z 0.087780 0.060870 1.953780 
# 
# From -- ./inp_files/149483.got.cif
#   From: 2010.05.17/outbox.cif.g08.bks.cpg/sg2_75_cif.got.tgz:149483.got - 2010.06.03 11:33:40.
