data_PCOD9090140
_publ_section_title
;
Structure prediction by ZEFSAII (Michael W. Deem and Ramdas Pophale) SiO2 
 PCOD9090140
Probable space group: P -1
;
_chemical_formula_sum "Si O2"
_cell_formula_units_Z 16
_cell_length_a 9.186467
_cell_length_b 10.143748
_cell_length_c 11.203022
_cell_angle_alpha 100.658927
_cell_angle_beta 97.536286
_cell_angle_gamma 136.074197
_cell_volume 656.032932
_symmetry_space_group_name_H-M "P -1"
_symmetry_group_IT_number 2
_symmetry_cell_setting 'triclinic'
loop_
_space_group_symop_operation_xyz
x,y,z
-x,-y,-z
loop_
_atom_site_type_symbol
_atom_site_label
_atom_site_fract_x
_atom_site_fract_y
_atom_site_fract_z
Si Si1 0.351765 0.075688 0.806965
Si Si2 0.845454 0.585424 0.329222
Si Si3 0.988767 0.942350 0.126317
Si Si4 0.660102 0.984589 0.487755
Si Si5 0.738760 0.469161 0.560719
Si Si6 0.375113 0.378775 0.275443
Si Si7 0.803367 0.555346 0.948557
Si Si8 0.874244 0.336308 0.177699
O O1 0.168981 0.060548 0.823824
O O2 0.596449 0.309124 0.904140
O O3 0.324346 0.026167 0.655044
O O4 0.299926 0.900693 0.840565
O O5 0.827549 0.505107 0.445040
O O6 0.640096 0.546817 0.307741
O O7 0.799175 0.436472 0.203509
O O8 0.094844 0.823806 0.394068
O O9 0.883800 0.720798 0.082252
O O10 0.250064 0.147817 0.225048
O O11 0.000000 0.000000 0.000000
O O12 0.500000 0.000000 0.500000
O O13 0.512996 0.761262 0.485797
O O14 0.713005 0.606830 0.614285
O O15 0.911403 0.526156 0.684177
O O16 0.286083 0.411336 0.164045
O O17 0.021760 0.631009 0.932579
#
# Coordination Sequence:
#
# PCOD9090140 Si02
#       8
#     2   2   2   2   2   2   2   2
#     4  12  19  35  66  86 109 149 199 238 280 332
#     4  12  23  36  57  84 122 159 183 237 292 329
#     4  10  19  38  64  85 109 148 196 247 284 340
#     4  12  22  35  58  88 118 155 192 231 275 346
#     4  11  20  38  56  81 120 155 199 224 275 351
#     4  10  21  39  56  86 118 149 191 242 287 341
#     4  10  21  40  62  85 112 144 200 243 283 342
#     4  11  20  36  58  85 113 153 196 233 273 351
#
# _framework density 24.389019999999999
#
# number of rings (size 3 to 8) (size 9 to 14) (size 15 to 20)
#    0.000    1.000    8.750    1.875    0.000    0.500 
#    2.250    0.625    0.000    0.750    0.000    0.000 
#    0.000    0.000    0.000    0.000    0.000    0.000 
#
# Total GULP energy -89556.339791 kJ/mol
# GULP energy per Si atom -5597.271237 kJ/mol
# Density = 2.433351 g / cm^3
# Si number density = 24.389020 Si / 1000 Ang^3
#
#
#
# Elastic Constant Matrix: (Units=GPa)
#
#
# Indices 1 2 3 4 5 6 
#
# 1 83.5991 13.7638 47.6940 0.3989 -23.5267 14.6981
# 2 13.7638 149.2235 48.9276 51.7729 -13.3570 -2.8964
# 3 47.6940 48.9276 100.4141 19.6886 -30.7151 0.5629
# 4 0.3989 51.7729 19.6886 44.3723 -8.2698 -4.0252
# 5 -23.5267 -13.3570 -30.7151 -8.2698 40.9698 -4.4690
# 6 14.6981 -2.8964 0.5629 -4.0252 -4.4690 37.5013
#
#
#
# Elastic Compliance Matrix: (Units=1/GPa)
#
#
# Indices 1 2 3 4 5 6 
#
# 1 0.019203 -0.000110 -0.008326 0.003973 0.004853 -0.006405
# 2 -0.000110 0.012363 -0.003920 -0.013043 -0.001663 -0.000542
# 3 -0.008326 -0.003920 0.018566 -0.001812 0.007868 0.003425
# 4 0.003973 -0.013043 -0.001812 0.039651 0.004925 0.002306
# 5 0.004853 -0.001663 0.007868 0.004925 0.033808 0.002409
# 6 -0.006405 -0.000542 0.003425 0.002306 0.002409 0.029617
#
#
# Mechanical properties :
#
#
# Convention : Reuss Voigt Hill
#
# Bulk Modulus (GPa) = 39.33872 61.55642 50.44757
# Shear Modulus (GPa) = 26.82497 39.42543 33.12520
#
# Velocity S-wave (km/s) = 3.32004 4.02496 3.68938
# Velocity P-wave (km/s) = 5.55532 6.84797 6.23523
#
# Compressibility (1/GPa) = 0.02542024
#
# Stress axis : x y z
#
# Youngs Moduli (GPa) = 52.07565 80.88771 53.86094
#
# Poissons Ratio (x) = 0.00886 0.44846
# Poissons Ratio (y) = 0.00571 0.21114
# Poissons Ratio (z) = 0.43359 0.31708
#
# Static dielectric constant tensor:
#      x y z
#    x 1.923700 -0.059870 0.012520 
#    y -0.059870 1.938860 0.012040 
#    z 0.012520 0.012040 1.938790 
# 
# From -- ./inp_files/258814.got.cif
#   From: 2010.05.17/outbox.cif.g08.bks.cpg/sg2_130_cif.got.tgz:258814.got - 2010.06.03 11:33:40.
