data_PCOD9090938
_publ_section_title
;
Structure prediction by ZEFSAII (Michael W. Deem and Ramdas Pophale) SiO2 
 PCOD9090938
Probable space group: P -1
;
_chemical_formula_sum "Si O2"
_cell_formula_units_Z 14
_cell_length_a 14.615081
_cell_length_b 9.727391
_cell_length_c 14.563811
_cell_angle_alpha 100.182501
_cell_angle_beta 34.980617
_cell_angle_gamma 126.801304
_cell_volume 693.250514
_symmetry_space_group_name_H-M "P -1"
_symmetry_group_IT_number 2
_symmetry_cell_setting 'triclinic'
loop_
_space_group_symop_operation_xyz
x,y,z
-x,-y,-z
loop_
_atom_site_type_symbol
_atom_site_label
_atom_site_fract_x
_atom_site_fract_y
_atom_site_fract_z
Si Si1 0.349851 0.798163 0.344954
Si Si2 0.543473 0.787266 0.931148
Si Si3 0.395265 0.317778 0.488817
Si Si4 0.311407 0.946649 0.578055
Si Si5 0.307775 0.439078 0.920438
Si Si6 0.761614 0.890829 0.953988
Si Si7 0.122451 0.725298 0.332223
O O1 0.328169 0.875620 0.460589
O O2 0.206733 0.775105 0.375292
O O3 0.179630 0.535769 0.464989
O O4 0.645820 0.957224 0.092239
O O5 0.470351 0.640715 0.887965
O O6 0.601155 0.748531 0.974232
O O7 0.802139 0.068449 0.737825
O O8 0.304557 0.732841 0.135726
O O9 0.500000 0.500000 0.500000
O O10 0.562443 0.449205 0.272711
O O11 0.407689 0.171552 0.504528
O O12 0.079690 0.120266 0.704253
O O13 0.500000 0.000000 0.500000
O O14 0.003518 0.731792 0.840458
O O15 0.296488 0.271136 0.943957
#
# Coordination Sequence:
#
# PCOD9090938 Si02
#       7
#     2   2   2   2   2   2   2
#     4  10  20  41  63  98 129 169 216 262 325 378
#     4  10  19  39  62 102 129 166 214 258 328 385
#     4  11  28  48  64  94 131 175 222 268 322 383
#     4  11  26  44  71  95 125 171 224 271 318 381
#     4  11  24  45  66  93 137 169 210 274 321 386
#     4  10  25  40  68  97 131 175 208 262 328 396
#     4   9  19  34  66  94 136 165 202 273 316 385
#
# _framework density 20.194721000000001
#
# number of rings (size 3 to 8) (size 9 to 14) (size 15 to 20)
#    0.000    1.714    1.429    1.286    6.000    2.286 
#    2.571    0.000    0.000    0.000    0.000    0.000 
#    0.000    0.000    0.000    0.000    0.000    0.000 
#
# Total GULP energy -78236.214192 kJ/mol
# GULP energy per Si atom -5588.301014 kJ/mol
# Density = 2.014876 g / cm^3
# Si number density = 20.194721 Si / 1000 Ang^3
#
#
#
# Elastic Constant Matrix: (Units=GPa)
#
#
# Indices 1 2 3 4 5 6 
#
# 1 94.1780 69.3813 68.4790 6.8772 6.0482 1.4038
# 2 69.3813 100.3057 61.4100 8.0516 11.5028 14.1944
# 3 68.4790 61.4100 110.7442 14.7954 15.0785 0.0953
# 4 6.8772 8.0516 14.7954 20.6411 -1.9939 15.8031
# 5 6.0482 11.5028 15.0785 -1.9939 38.3726 5.5322
# 6 1.4038 14.1944 0.0953 15.8031 5.5322 22.5623
#
#
#
# Elastic Compliance Matrix: (Units=1/GPa)
#
#
# Indices 1 2 3 4 5 6 
#
# 1 0.028835 -0.017048 -0.007185 -0.009674 0.000640 0.015581
# 2 -0.017048 0.035174 -0.016798 0.049198 0.009636 -0.057819
# 3 -0.007185 -0.016798 0.033580 -0.062058 -0.018749 0.058937
# 4 -0.009674 0.049198 -0.062058 0.249758 0.055666 -0.218672
# 5 0.000640 0.009636 -0.018749 0.055666 0.041280 -0.055134
# 6 0.015581 -0.057819 0.058937 -0.218672 -0.055134 0.246159
#
#
# Mechanical properties :
#
#
# Convention : Reuss Voigt Hill
#
# Bulk Modulus (GPa) = 64.40169 78.19651 71.29910
# Shear Modulus (GPa) = 6.92500 23.37903 15.15201
#
# Velocity S-wave (km/s) = 1.85380 3.40616 2.74212
# Velocity P-wave (km/s) = 6.04497 7.36713 6.73855
#
# Compressibility (1/GPa) = 0.01552754
#
# Stress axis : x y z
#
# Youngs Moduli (GPa) = 34.68042 28.43048 29.77935
#
# Poissons Ratio (x) = 0.48468 0.21395
# Poissons Ratio (y) = 0.59123 0.50023
# Poissons Ratio (z) = 0.24917 0.47757
#
# Static dielectric constant tensor:
#      x y z
#    x 1.705120 -0.023980 0.019310 
#    y -0.023980 1.688850 -0.009070 
#    z 0.019310 -0.009070 1.768170 
# 
# From -- ./inp_files/187209.got.cif
#   From: 2010.05.17/outbox.cif.g08.bks.cpg/sg2_94_cif.got.tgz:187209.got - 2010.06.03 11:33:40.
