data_PCOD9090364
_publ_section_title
;
Structure prediction by ZEFSAII (Michael W. Deem and Ramdas Pophale) SiO2 
 PCOD9090364
Probable space group: P -1
;
_chemical_formula_sum "Si O2"
_cell_formula_units_Z 16
_cell_length_a 6.884196
_cell_length_b 11.731627
_cell_length_c 11.934404
_cell_angle_alpha 123.392525
_cell_angle_beta 82.133556
_cell_angle_gamma 121.800918
_cell_volume 667.814973
_symmetry_space_group_name_H-M "P -1"
_symmetry_group_IT_number 2
_symmetry_cell_setting 'triclinic'
loop_
_space_group_symop_operation_xyz
x,y,z
-x,-y,-z
loop_
_atom_site_type_symbol
_atom_site_label
_atom_site_fract_x
_atom_site_fract_y
_atom_site_fract_z
Si Si1 0.723533 0.405388 0.607711
Si Si2 0.067255 0.867390 0.921285
Si Si3 0.718147 0.558335 0.096250
Si Si4 0.820427 0.174845 0.873746
Si Si5 0.536925 0.618318 0.776147
Si Si6 0.474847 0.869284 0.340337
Si Si7 0.257557 0.710734 0.693138
Si Si8 0.930102 0.917060 0.340646
O O1 0.552381 0.472205 0.641231
O O2 0.648732 0.298403 0.668673
O O3 0.692481 0.295018 0.443868
O O4 0.001680 0.547904 0.657899
O O5 0.799180 0.713922 0.856684
O O6 0.214559 0.853014 0.802819
O O7 0.210548 0.870131 0.019483
O O8 0.000000 0.000000 0.000000
O O9 0.633712 0.425580 0.127274
O O10 0.795968 0.720967 0.251092
O O11 0.951696 0.638290 0.047845
O O12 0.500000 0.500000 0.000000
O O13 0.656321 0.168579 0.786934
O O14 0.876054 0.046320 0.744631
O O15 0.455079 0.703413 0.742916
O O16 0.738806 0.943422 0.323294
O O17 0.500000 0.000000 0.500000
O O18 0.000000 0.000000 0.500000
#
# Coordination Sequence:
#
# PCOD9090364 Si02
#       8
#     2   2   2   2   2   2   2   2
#     4  10  22  42  63 101 132 166 225 280 328 400
#     4  11  26  45  62  94 134 176 226 277 335 406
#     4  10  19  38  65  93 128 172 213 274 334 394
#     4  10  23  39  64  95 131 169 220 271 332 398
#     4  11  20  43  68  92 131 174 224 279 341 395
#     4  12  22  38  67 100 133 171 216 276 343 402
#     4  10  24  42  68  94 126 179 227 271 333 404
#     4  10  21  40  60  98 133 169 212 271 342 389
#
# _framework density 23.958732999999999
#
# number of rings (size 3 to 8) (size 9 to 14) (size 15 to 20)
#    0.750    0.750    3.750    1.125    0.000    4.500 
#    0.000    2.500    0.000    0.000    0.000    0.000 
#    0.000    0.000    0.000    0.000    0.000    0.000 
#
# Total GULP energy -89137.317274 kJ/mol
# GULP energy per Si atom -5571.082330 kJ/mol
# Density = 2.390420 g / cm^3
# Si number density = 23.958733 Si / 1000 Ang^3
#
#
#
# Elastic Constant Matrix: (Units=GPa)
#
#
# Indices 1 2 3 4 5 6 
#
# 1 104.2652 26.7847 33.0535 -14.0900 14.0580 -24.7853
# 2 26.7847 62.6531 41.7545 -16.0022 2.2653 -15.4695
# 3 33.0535 41.7545 103.0092 -15.1607 4.2745 -11.6138
# 4 -14.0900 -16.0022 -15.1607 33.4497 -6.6116 3.8180
# 5 14.0580 2.2653 4.2745 -6.6116 50.6111 2.4185
# 6 -24.7853 -15.4695 -11.6138 3.8180 2.4185 30.0256
#
#
#
# Elastic Compliance Matrix: (Units=1/GPa)
#
#
# Indices 1 2 3 4 5 6 
#
# 1 0.013806 -0.001168 -0.002343 0.002323 -0.003754 0.009895
# 2 -0.001168 0.025708 -0.008065 0.007298 0.000416 0.008200
# 3 -0.002343 -0.008065 0.013848 0.001556 0.000090 -0.000938
# 4 0.002323 0.007298 0.001556 0.035589 0.003475 0.001474
# 5 -0.003754 0.000416 0.000090 0.003475 0.021469 -0.005021
# 6 0.009895 0.008200 -0.000938 0.001474 -0.005021 0.045552
#
#
# Mechanical properties :
#
#
# Convention : Reuss Voigt Hill
#
# Bulk Modulus (GPa) = 33.10094 52.56811 42.83452
# Shear Modulus (GPa) = 26.42759 34.03961 30.23360
#
# Velocity S-wave (km/s) = 3.32482 3.77339 3.55618
# Velocity P-wave (km/s) = 5.34650 6.40104 5.89739
#
# Compressibility (1/GPa) = 0.03021062
#
# Stress axis : x y z
#
# Youngs Moduli (GPa) = 72.43086 38.89765 72.21096
#
# Poissons Ratio (x) = 0.04545 0.16920
# Poissons Ratio (y) = 0.08463 0.58236
# Poissons Ratio (z) = 0.16972 0.31370
#
# Static dielectric constant tensor:
#      x y z
#    x 1.960050 0.068340 -0.064900 
#    y 0.068340 1.867950 0.183720 
#    z -0.064900 0.183720 1.925120 
# 
# From -- ./inp_files/365267.got.cif
#   From: 2010.05.17/outbox.cif.g08.bks.cpg/sg2_183_cif.got.tgz:365267.got - 2010.06.03 11:33:40.
