data_PCOD9090395
_publ_section_title
;
Structure prediction by ZEFSAII (Michael W. Deem and Ramdas Pophale) SiO2 
 PCOD9090395
Probable space group: P -1
;
_chemical_formula_sum "Si O2"
_cell_formula_units_Z 12
_cell_length_a 13.244219
_cell_length_b 10.229722
_cell_length_c 8.565209
_cell_angle_alpha 124.877568
_cell_angle_beta 109.698956
_cell_angle_gamma 31.442933
_cell_volume 464.769135
_symmetry_space_group_name_H-M "P -1"
_symmetry_group_IT_number 2
_symmetry_cell_setting 'triclinic'
loop_
_space_group_symop_operation_xyz
x,y,z
-x,-y,-z
loop_
_atom_site_type_symbol
_atom_site_label
_atom_site_fract_x
_atom_site_fract_y
_atom_site_fract_z
Si Si1 0.732641 0.185090 0.717120
Si Si2 0.711255 0.339093 0.488967
Si Si3 0.262350 0.754738 0.900376
Si Si4 0.373439 0.266907 0.736013
Si Si5 0.076204 0.378733 0.636241
Si Si6 0.342971 0.214107 0.204287
O O1 0.810118 0.186500 0.608764
O O2 0.493484 0.533548 0.856185
O O3 0.755444 0.974898 0.529522
O O4 0.833409 0.064090 0.860858
O O5 0.500000 0.500000 0.500000
O O6 0.819439 0.138858 0.247887
O O7 0.666712 0.585787 0.615783
O O8 0.298372 0.524819 0.803522
O O9 0.178376 0.406953 0.777042
O O10 0.500000 0.000000 0.500000
O O11 0.546887 0.055860 0.811953
O O12 0.000000 0.500000 0.500000
O O13 0.891204 0.547753 0.760808
O O14 0.500000 0.000000 0.000000
#
# Coordination Sequence:
#
# PCOD9090395 Si02
#       6
#     2   2   2   2   2   2
#     4  10  21  37  64  95 131 173 220 270 335 403
#     4  10  20  39  63  91 132 174 214 270 335 392
#     4  10  19  38  65  97 130 174 216 273 338 390
#     4  12  20  43  72  93 134 176 219 277 329 393
#     4  12  24  43  71  99 130 180 227 273 337 403
#     4  12  26  44  67  99 137 176 224 281 335 395
#
# _framework density 25.819271000000001
#
# number of rings (size 3 to 8) (size 9 to 14) (size 15 to 20)
#    0.000    1.000    5.000    2.000    0.000    4.000 
#    0.000    6.667    0.000    0.000    0.000    0.000 
#    0.000    0.000    0.000    0.000    0.000    0.000 
#
# Total GULP energy -67014.197162 kJ/mol
# GULP energy per Si atom -5584.516430 kJ/mol
# Density = 2.576051 g / cm^3
# Si number density = 25.819271 Si / 1000 Ang^3
#
#
#
# Elastic Constant Matrix: (Units=GPa)
#
#
# Indices 1 2 3 4 5 6 
#
# 1 146.9174 10.1773 40.2745 13.4298 -0.9069 -0.3813
# 2 10.1773 71.5919 18.9611 -16.8224 -1.9775 9.6356
# 3 40.2745 18.9611 120.2529 -23.1102 -17.1252 7.0590
# 4 13.4298 -16.8224 -23.1102 33.4706 19.0988 -6.9862
# 5 -0.9069 -1.9775 -17.1252 19.0988 47.7853 3.0074
# 6 -0.3813 9.6356 7.0590 -6.9862 3.0074 43.1160
#
#
#
# Elastic Compliance Matrix: (Units=1/GPa)
#
#
# Indices 1 2 3 4 5 6 
#
# 1 0.008844 -0.002134 -0.003963 -0.008650 0.002138 -0.000347
# 2 -0.002134 0.017063 -0.000291 0.010991 -0.003722 -0.001744
# 3 -0.003963 -0.000291 0.011517 0.009052 0.000449 -0.000420
# 4 -0.008650 0.010991 0.009052 0.057989 -0.020069 0.006781
# 5 0.002138 -0.003722 0.000449 -0.020069 0.029280 -0.004517
# 6 -0.000347 -0.001744 -0.000420 0.006781 -0.004517 0.025063
#
#
# Mechanical properties :
#
#
# Convention : Reuss Voigt Hill
#
# Bulk Modulus (GPa) = 40.57201 53.06533 46.81867
# Shear Modulus (GPa) = 29.28290 42.83098 36.05694
#
# Velocity S-wave (km/s) = 3.37137 4.07735 3.74105
# Velocity P-wave (km/s) = 5.55903 6.53939 6.06904
#
# Compressibility (1/GPa) = 0.02464753
#
# Stress axis : x y z
#
# Youngs Moduli (GPa) = 113.07443 58.60572 86.82736
#
# Poissons Ratio (x) = 0.12509 0.34408
# Poissons Ratio (y) = 0.24135 0.02526
# Poissons Ratio (z) = 0.44809 0.01705
#
# Static dielectric constant tensor:
#      x y z
#    x 2.045390 -0.028290 0.005990 
#    y -0.028290 2.047880 -0.046720 
#    z 0.005990 -0.046720 2.054330 
# 
# From -- ./inp_files/171695.got.cif
#   From: 2010.05.17/outbox.cif.g08.bks.cpg/sg2_86_cif.got.tgz:171695.got - 2010.06.03 11:33:40.
