data_PCOD9090622
_publ_section_title
;
Structure prediction by ZEFSAII (Michael W. Deem and Ramdas Pophale) SiO2 
 PCOD9090622
Probable space group: P -1
;
_chemical_formula_sum "Si O2"
_cell_formula_units_Z 12
_cell_length_a 8.631157
_cell_length_b 16.322794
_cell_length_c 10.468984
_cell_angle_alpha 28.623157
_cell_angle_beta 70.762510
_cell_angle_gamma 55.441406
_cell_volume 526.179459
_symmetry_space_group_name_H-M "P -1"
_symmetry_group_IT_number 2
_symmetry_cell_setting 'triclinic'
loop_
_space_group_symop_operation_xyz
x,y,z
-x,-y,-z
loop_
_atom_site_type_symbol
_atom_site_label
_atom_site_fract_x
_atom_site_fract_y
_atom_site_fract_z
Si Si1 0.187389 0.488527 0.409265
Si Si2 0.082342 0.934835 0.923156
Si Si3 0.031772 0.714271 0.698630
Si Si4 0.526801 0.688470 0.210176
Si Si5 0.348693 0.102856 0.276588
Si Si6 0.276914 0.334029 0.309751
O O1 0.393820 0.303168 0.685450
O O2 0.216397 0.438855 0.321249
O O3 0.000000 0.500000 0.500000
O O4 0.128082 0.719210 0.150247
O O5 0.941620 0.127234 0.599627
O O6 0.305627 0.882762 0.948416
O O7 0.000000 0.000000 0.000000
O O8 0.904036 0.675342 0.686350
O O9 0.870613 0.826344 0.708917
O O10 0.247944 0.502937 0.981868
O O11 0.500000 0.500000 0.500000
O O12 0.673897 0.694905 0.059769
O O13 0.491712 0.892706 0.435280
O O14 0.500000 0.000000 0.500000
#
# Coordination Sequence:
#
# PCOD9090622 Si02
#       6
#     2   2   2   2   2   2
#     4  11  24  41  64  97 137 166 225 278 334 391
#     4  11  23  43  66  96 131 178 220 271 337 400
#     4  10  21  42  68  90 135 173 227 262 337 404
#     4  10  22  41  66  95 133 172 221 270 328 394
#     4  10  19  38  68  92 125 175 223 261 328 396
#     4  10  21  38  64  97 124 175 214 272 327 391
#
# _framework density 22.805907000000001
#
# number of rings (size 3 to 8) (size 9 to 14) (size 15 to 20)
#    0.000    1.667    3.333    2.000    0.000    8.000 
#    3.000    0.833    0.000    0.000    0.000    0.000 
#    0.000    0.000    0.000    0.000    0.000    0.000 
#
# Total GULP energy -66883.601233 kJ/mol
# GULP energy per Si atom -5573.633436 kJ/mol
# Density = 2.275400 g / cm^3
# Si number density = 22.805907 Si / 1000 Ang^3
#
#
#
# Elastic Constant Matrix: (Units=GPa)
#
#
# Indices 1 2 3 4 5 6 
#
# 1 49.7856 23.4814 13.0183 2.2648 6.7488 11.1832
# 2 23.4814 156.6438 39.1288 7.5426 -11.8298 18.2174
# 3 13.0183 39.1288 156.4807 16.2753 0.0683 8.7569
# 4 2.2648 7.5426 16.2753 32.7920 -4.8744 7.8416
# 5 6.7488 -11.8298 0.0683 -4.8744 20.7052 10.7621
# 6 11.1832 18.2174 8.7569 7.8416 10.7621 29.6452
#
#
#
# Elastic Compliance Matrix: (Units=1/GPa)
#
#
# Indices 1 2 3 4 5 6 
#
# 1 0.023900 -0.003576 -0.000814 -0.000859 -0.008298 -0.003338
# 2 -0.003576 0.009111 -0.001795 0.002829 0.011543 -0.008658
# 3 -0.000814 -0.001795 0.007234 -0.003700 -0.002202 0.001052
# 4 -0.000859 0.002829 -0.003700 0.039129 0.020544 -0.018130
# 5 -0.008298 0.011543 -0.002202 0.020544 0.082567 -0.038721
# 6 -0.003338 -0.008658 0.001052 -0.018130 -0.038721 0.058854
#
#
# Mechanical properties :
#
#
# Convention : Reuss Voigt Hill
#
# Bulk Modulus (GPa) = 35.87749 57.12969 46.50359
# Shear Modulus (GPa) = 20.62213 35.78060 28.20137
#
# Velocity S-wave (km/s) = 3.01033 3.96525 3.52032
# Velocity P-wave (km/s) = 5.27718 6.78742 6.07938
#
# Compressibility (1/GPa) = 0.02787263
#
# Stress axis : x y z
#
# Youngs Moduli (GPa) = 41.84186 109.75722 138.23207
#
# Poissons Ratio (x) = 0.39253 0.11256
# Poissons Ratio (y) = 0.14964 0.24819
# Poissons Ratio (z) = 0.03407 0.19706
#
# Static dielectric constant tensor:
#      x y z
#    x 1.855440 -0.079000 -0.008890 
#    y -0.079000 1.852540 0.011660 
#    z -0.008890 0.011660 1.985290 
# 
# From -- ./inp_files/159974.got.cif
#   From: 2010.05.17/outbox.cif.g08.bks.cpg/sg2_80_cif.got.tgz:159974.got - 2010.06.03 11:33:40.
