data_PCOD9090584
_publ_section_title
;
Structure prediction by ZEFSAII (Michael W. Deem and Ramdas Pophale) SiO2 
 PCOD9090584
Probable space group: P -1
;
_chemical_formula_sum "Si O2"
_cell_formula_units_Z 14
_cell_length_a 7.973216
_cell_length_b 10.783396
_cell_length_c 9.306225
_cell_angle_alpha 76.458998
_cell_angle_beta 46.772766
_cell_angle_gamma 84.368206
_cell_volume 564.614777
_symmetry_space_group_name_H-M "P -1"
_symmetry_group_IT_number 2
_symmetry_cell_setting 'triclinic'
loop_
_space_group_symop_operation_xyz
x,y,z
-x,-y,-z
loop_
_atom_site_type_symbol
_atom_site_label
_atom_site_fract_x
_atom_site_fract_y
_atom_site_fract_z
Si Si1 0.646075 0.022144 0.725880
Si Si2 0.727801 0.983353 0.273111
Si Si3 0.573181 0.209290 0.959925
Si Si4 0.941339 0.721106 0.233322
Si Si5 0.496810 0.400969 0.396774
Si Si6 0.154444 0.795878 0.679095
Si Si7 0.245835 0.374666 0.942614
O O1 0.674502 0.098777 0.835172
O O2 0.819667 0.100114 0.492449
O O3 0.389441 0.034779 0.807651
O O4 0.625527 0.869440 0.805953
O O5 0.876030 0.115617 0.186680
O O6 0.500000 0.000000 0.500000
O O7 0.868808 0.864932 0.255796
O O8 0.460646 0.300438 0.888539
O O9 0.787296 0.278789 0.899864
O O10 0.771186 0.638959 0.467119
O O11 0.855859 0.666713 0.142942
O O12 0.500000 0.500000 0.500000
O O13 0.613317 0.275395 0.415299
O O14 0.658245 0.477255 0.163939
O O15 0.958230 0.678969 0.816622
#
# Coordination Sequence:
#
# PCOD9090584 Si02
#       7
#     2   2   2   2   2   2   2
#     4  10  21  40  58  95 139 158 213 256 322 387
#     4  10  19  38  67  95 132 163 210 267 323 381
#     4  11  24  39  64 100 130 174 212 256 327 389
#     4  11  22  43  68  98 129 175 211 262 329 380
#     4  10  21  43  70  90 124 175 222 263 316 381
#     4  11  22  40  68 100 125 173 214 267 329 376
#     4  11  24  42  67  93 136 170 218 263 310 393
#
# _framework density 24.795665
#
# number of rings (size 3 to 8) (size 9 to 14) (size 15 to 20)
#    0.000    1.429    4.286    2.143    4.000    2.286 
#    2.571    0.000    0.000    7.714    0.000    0.000 
#    0.000    0.000    0.000    0.000    0.000    0.000 
#
# Total GULP energy -78187.001391 kJ/mol
# GULP energy per Si atom -5584.785814 kJ/mol
# Density = 2.473923 g / cm^3
# Si number density = 24.795665 Si / 1000 Ang^3
#
#
#
# Elastic Constant Matrix: (Units=GPa)
#
#
# Indices 1 2 3 4 5 6 
#
# 1 127.2225 27.3636 47.5843 -7.7504 -3.1313 -3.3739
# 2 27.3636 81.1427 27.5337 -13.8981 -4.0224 6.9399
# 3 47.5843 27.5337 165.9916 -32.8710 -15.8470 9.4189
# 4 -7.7504 -13.8981 -32.8710 34.7498 -3.4045 -3.7896
# 5 -3.1313 -4.0224 -15.8470 -3.4045 25.2877 -0.0258
# 6 -3.3739 6.9399 9.4189 -3.7896 -0.0258 16.9698
#
#
#
# Elastic Compliance Matrix: (Units=1/GPa)
#
#
# Indices 1 2 3 4 5 6 
#
# 1 0.009579 -0.002927 -0.002920 -0.001444 -0.001299 0.004398
# 2 -0.002927 0.014766 -0.000102 0.004810 0.002565 -0.005486
# 3 -0.002920 -0.000102 0.009402 0.008431 0.006645 -0.003864
# 4 -0.001444 0.004810 0.008431 0.039664 0.011212 0.001941
# 5 -0.001299 0.002565 0.006645 0.011212 0.045463 -0.002423
# 6 0.004398 -0.005486 -0.003864 0.001941 -0.002423 0.064621
#
#
# Mechanical properties :
#
#
# Convention : Reuss Voigt Hill
#
# Bulk Modulus (GPa) = 45.76976 64.36888 55.06932
# Shear Modulus (GPa) = 24.67020 33.52648 29.09834
#
# Velocity S-wave (km/s) = 3.15769 3.68109 3.42939
# Velocity P-wave (km/s) = 5.63857 6.63953 6.15942
#
# Compressibility (1/GPa) = 0.02184849
#
# Stress axis : x y z
#
# Youngs Moduli (GPa) = 104.39901 67.72457 106.36584
#
# Poissons Ratio (x) = 0.19825 0.31057
# Poissons Ratio (y) = 0.30560 0.01080
# Poissons Ratio (z) = 0.30483 0.00688
#
# Static dielectric constant tensor:
#      x y z
#    x 1.976290 0.003000 0.008120 
#    y 0.003000 1.936090 0.000210 
#    z 0.008120 0.000210 2.196750 
# 
# From -- ./inp_files/389287.got.cif
#   From: 2010.05.17/outbox.cif.g08.bks.cpg/sg2_195_cif.got.tgz:389287.got - 2010.06.03 11:33:40.
