data_PCOD9090236
_publ_section_title
;
Structure prediction by ZEFSAII (Michael W. Deem and Ramdas Pophale) SiO2 
 PCOD9090236
Probable space group: P -1
;
_chemical_formula_sum "Si O2"
_cell_formula_units_Z 16
_cell_length_a 11.349477
_cell_length_b 11.927215
_cell_length_c 11.587649
_cell_angle_alpha 142.076917
_cell_angle_beta 134.726520
_cell_angle_gamma 53.478690
_cell_volume 682.061089
_symmetry_space_group_name_H-M "P -1"
_symmetry_group_IT_number 2
_symmetry_cell_setting 'triclinic'
loop_
_space_group_symop_operation_xyz
x,y,z
-x,-y,-z
loop_
_atom_site_type_symbol
_atom_site_label
_atom_site_fract_x
_atom_site_fract_y
_atom_site_fract_z
Si Si1 0.973691 0.986888 0.239102
Si Si2 0.130157 0.125592 0.249954
Si Si3 0.817453 0.542649 0.572236
Si Si4 0.955784 0.282477 0.641766
Si Si5 0.421071 0.308199 0.281310
Si Si6 0.622956 0.010325 0.873283
Si Si7 0.484556 0.384613 0.131845
Si Si8 0.832178 0.396527 0.881111
O O1 0.970195 0.076043 0.436071
O O2 0.107379 0.083971 0.332990
O O3 0.788692 0.024428 0.082678
O O4 0.049670 0.773456 0.123611
O O5 0.088182 0.332693 0.346905
O O6 0.305654 0.072505 0.265306
O O7 0.000000 0.000000 0.000000
O O8 0.922572 0.379847 0.574633
O O9 0.744590 0.655671 0.726277
O O10 0.658093 0.469072 0.342884
O O11 0.816213 0.332028 0.684161
O O12 0.093213 0.405074 0.892134
O O13 0.500000 0.500000 0.500000
O O14 0.421270 0.290496 0.130155
O O15 0.490972 0.122214 0.242414
O O16 0.528601 0.207233 0.941087
O O17 0.348278 0.551764 0.145682
#
# Coordination Sequence:
#
# PCOD9090236 Si02
#       8
#     2   2   2   2   2   2   2   2
#     4  11  23  43  65  89 127 177 214 258 323 379
#     4   9  20  39  64  93 123 162 220 273 306 364
#     4  10  19  38  64  94 120 159 216 270 305 377
#     4  11  22  42  65  92 129 170 213 255 328 388
#     4   9  18  33  56  90 127 158 193 261 322 365
#     4  10  20  38  65  95 124 162 223 268 305 380
#     4  11  21  38  61  96 127 164 205 265 328 368
#     4  11  25  41  62  94 138 163 207 266 326 390
#
# _framework density 23.458307999999999
#
# number of rings (size 3 to 8) (size 9 to 14) (size 15 to 20)
#    0.000    1.750    2.500    3.000    1.750    0.500 
#    9.000    1.250    0.000    0.000    0.000    0.000 
#    0.000    0.000    0.000    0.000    0.000    0.000 
#
# Total GULP energy -89069.231848 kJ/mol
# GULP energy per Si atom -5566.826991 kJ/mol
# Density = 2.340492 g / cm^3
# Si number density = 23.458308 Si / 1000 Ang^3
#
#
#
# Elastic Constant Matrix: (Units=GPa)
#
#
# Indices 1 2 3 4 5 6 
#
# 1 54.9980 25.9946 33.9760 5.9550 -0.3297 4.8294
# 2 25.9946 69.3079 19.7654 13.1228 6.5934 -7.5603
# 3 33.9760 19.7654 75.1604 6.3808 3.6127 -14.2509
# 4 5.9550 13.1228 6.3808 18.9780 1.2141 -7.5414
# 5 -0.3297 6.5934 3.6127 1.2141 36.8123 16.2715
# 6 4.8294 -7.5603 -14.2509 -7.5414 16.2715 32.1662
#
#
#
# Elastic Compliance Matrix: (Units=1/GPa)
#
#
# Indices 1 2 3 4 5 6 
#
# 1 0.040728 -0.012382 -0.020813 -0.010233 0.018145 -0.029824
# 2 -0.012382 0.021612 0.003068 -0.007068 -0.008997 0.011192
# 3 -0.020813 0.003068 0.026694 0.006012 -0.014303 0.024317
# 4 -0.010233 -0.007068 0.006012 0.069706 -0.012958 0.025436
# 5 0.018145 -0.008997 -0.014303 -0.012958 0.047723 -0.038355
# 6 -0.029824 0.011192 0.024317 0.025436 -0.038355 0.074336
#
#
# Mechanical properties :
#
#
# Convention : Reuss Voigt Hill
#
# Bulk Modulus (GPa) = 34.74510 39.88204 37.31357
# Shear Modulus (GPa) = 14.25933 25.57329 19.91631
#
# Velocity S-wave (km/s) = 2.46815 3.30534 2.91694
# Velocity P-wave (km/s) = 4.79228 5.62185 5.22356
#
# Compressibility (1/GPa) = 0.02878104
#
# Stress axis : x y z
#
# Youngs Moduli (GPa) = 24.55298 46.26987 37.46108
#
# Poissons Ratio (x) = 0.57292 0.77969
# Poissons Ratio (y) = 0.30402 -0.11494
# Poissons Ratio (z) = 0.51103 -0.14197
#
# Static dielectric constant tensor:
#      x y z
#    x 1.937060 -0.054650 0.003440 
#    y -0.054650 2.047950 0.073200 
#    z 0.003440 0.073200 1.983980 
# 
# From -- ./inp_files/427061.got.cif
#   From: 2010.05.17/outbox.cif.g08.bks.cpg/sg2_214_cif.got.tgz:427061.got - 2010.06.03 11:33:40.
