data_PCOD9090955
_publ_section_title
;
Structure prediction by ZEFSAII (Michael W. Deem and Ramdas Pophale) SiO2 
 PCOD9090955
Probable space group: P -1
;
_chemical_formula_sum "Si O2"
_cell_formula_units_Z 16
_cell_length_a 14.272131
_cell_length_b 13.661502
_cell_length_c 8.344190
_cell_angle_alpha 133.697641
_cell_angle_beta 57.774308
_cell_angle_gamma 135.933785
_cell_volume 815.883181
_symmetry_space_group_name_H-M "P -1"
_symmetry_group_IT_number 2
_symmetry_cell_setting 'triclinic'
loop_
_space_group_symop_operation_xyz
x,y,z
-x,-y,-z
loop_
_atom_site_type_symbol
_atom_site_label
_atom_site_fract_x
_atom_site_fract_y
_atom_site_fract_z
Si Si1 0.972183 0.303758 0.626672
Si Si2 0.568799 0.598976 0.713744
Si Si3 0.620575 0.219556 0.252837
Si Si4 0.699567 0.606275 0.115521
Si Si5 0.636844 0.924179 0.879364
Si Si6 0.133250 0.026151 0.482064
Si Si7 0.809873 0.435983 0.028593
Si Si8 0.228092 0.439837 0.350456
O O1 0.066561 0.407721 0.811491
O O2 0.074942 0.365568 0.454686
O O3 0.904684 0.112778 0.508776
O O4 0.866525 0.353294 0.775086
O O5 0.500000 0.500000 0.500000
O O6 0.461343 0.491586 0.828709
O O7 0.596393 0.776627 0.869194
O O8 0.706469 0.614907 0.638680
O O9 0.470010 0.151625 0.256832
O O10 0.711792 0.306332 0.107894
O O11 0.682736 0.362172 0.488724
O O12 0.627941 0.067984 0.120296
O O13 0.772738 0.788999 0.326609
O O14 0.737370 0.501681 0.069237
O O15 0.751573 0.613810 0.899207
O O16 0.782849 0.992695 0.752951
O O17 0.000000 0.000000 0.500000
#
# Coordination Sequence:
#
# PCOD9090955 Si02
#       8
#     2   2   2   2   2   2   2   2
#     4  10  21  38  60  84 118 157 202 244 278 352
#     4  12  20  40  64  90 115 154 204 243 287 352
#     4  10  20  39  63  88 115 148 203 253 284 345
#     4  12  24  38  61  89 123 160 188 244 304 352
#     4  11  21  35  66  92 109 148 206 255 283 326
#     4  12  22  36  59  91 118 151 201 243 289 345
#     4  10  19  39  62  86 113 157 206 241 285 343
#     4  11  24  40  58  89 127 156 189 239 308 354
#
# _framework density 19.610651000000001
#
# number of rings (size 3 to 8) (size 9 to 14) (size 15 to 20)
#    0.000    1.000    6.250    1.875    0.000    1.000 
#    0.000    1.875    0.000    0.000    0.000    0.000 
#    0.000    0.000    0.000    0.000    0.000    0.000 
#
# Total GULP energy -89423.446211 kJ/mol
# GULP energy per Si atom -5588.965388 kJ/mol
# Density = 1.956602 g / cm^3
# Si number density = 19.610651 Si / 1000 Ang^3
#
#
#
# Elastic Constant Matrix: (Units=GPa)
#
#
# Indices 1 2 3 4 5 6 
#
# 1 32.4769 6.6965 13.0993 6.4862 -20.9810 3.1605
# 2 6.6965 67.1382 10.7230 14.9130 -16.0292 -2.7541
# 3 13.0993 10.7230 59.2362 -0.1884 -19.9911 -10.5348
# 4 6.4862 14.9130 -0.1884 41.6144 -6.5528 -15.4141
# 5 -20.9810 -16.0292 -19.9911 -6.5528 29.3246 -5.2900
# 6 3.1605 -2.7541 -10.5348 -15.4141 -5.2900 26.5092
#
#
#
# Elastic Compliance Matrix: (Units=1/GPa)
#
#
# Indices 1 2 3 4 5 6 
#
# 1 0.059327 0.005666 0.001644 -0.003516 0.046119 0.001328
# 2 0.005666 0.018681 -0.000007 -0.005147 0.013276 0.000919
# 3 0.001644 -0.000007 0.032035 0.015018 0.031331 0.027519
# 4 -0.003516 -0.005147 0.015018 0.042632 0.020708 0.034774
# 5 0.046119 0.013276 0.031331 0.020708 0.107901 0.041905
# 6 0.001328 0.000919 0.027519 0.034774 0.041905 0.077178
#
#
# Mechanical properties :
#
#
# Convention : Reuss Voigt Hill
#
# Bulk Modulus (GPa) = 8.02251 24.43208 16.22729
# Shear Modulus (GPa) = 13.71002 28.04514 20.87758
#
# Velocity S-wave (km/s) = 2.64694 3.78577 3.26637
# Velocity P-wave (km/s) = 3.66626 5.62094 4.74534
#
# Compressibility (1/GPa) = 0.12464929
#
# Stress axis : x y z
#
# Youngs Moduli (GPa) = 16.85583 53.52949 31.21615
#
# Poissons Ratio (x) = -0.30332 -0.05132
# Poissons Ratio (y) = -0.09551 0.00022
# Poissons Ratio (z) = -0.02771 0.00038
#
# Static dielectric constant tensor:
#      x y z
#    x 1.677320 0.011040 -0.014710 
#    y 0.011040 1.699370 -0.006670 
#    z -0.014710 -0.006670 1.678340 
# 
# From -- ./inp_files/175201.got.cif
#   From: 2010.05.17/outbox.cif.g08.bks.cpg/sg2_88_cif.got.tgz:175201.got - 2010.06.03 11:33:40.
