data_PCOD9090532
_publ_section_title
;
Structure prediction by ZEFSAII (Michael W. Deem and Ramdas Pophale) SiO2 
 PCOD9090532
Probable space group: P -1
;
_chemical_formula_sum "Si O2"
_cell_formula_units_Z 10
_cell_length_a 12.160992
_cell_length_b 5.931011
_cell_length_c 7.442860
_cell_angle_alpha 66.956105
_cell_angle_beta 78.195012
_cell_angle_gamma 119.891841
_cell_volume 370.661756
_symmetry_space_group_name_H-M "P -1"
_symmetry_group_IT_number 2
_symmetry_cell_setting 'triclinic'
loop_
_space_group_symop_operation_xyz
x,y,z
-x,-y,-z
loop_
_atom_site_type_symbol
_atom_site_label
_atom_site_fract_x
_atom_site_fract_y
_atom_site_fract_z
Si Si1 0.213249 0.787988 0.866577
Si Si2 0.025462 0.898137 0.713751
Si Si3 0.539171 0.161350 0.739711
Si Si4 0.083282 0.823523 0.258818
Si Si5 0.370127 0.244196 0.261328
O O1 0.139830 0.839544 0.714402
O O2 0.385634 0.998781 0.743375
O O3 0.124761 0.417525 0.053291
O O4 0.161740 0.861460 0.037989
O O5 0.047853 0.169404 0.740211
O O6 0.000000 0.000000 0.500000
O O7 0.613200 0.529733 0.651039
O O8 0.616133 0.038531 0.649401
O O9 0.500000 0.000000 0.000000
O O10 0.000000 0.500000 0.500000
O O11 0.221685 0.088582 0.252757
O O12 0.500000 0.500000 0.000000
#
# Coordination Sequence:
#
# PCOD9090532 Si02
#       5
#     2   2   2   2   2
#     4  11  23  41  69  99 134 185 227 285 354 405
#     4  11  24  42  65 101 137 176 235 291 343 413
#     4  10  19  38  66  99 130 183 232 276 345 413
#     4  12  23  39  67 103 139 180 222 288 351 416
#     4  10  20  36  67  97 136 180 229 280 346 410
#
# _framework density 26.978777999999998
#
# number of rings (size 3 to 8) (size 9 to 14) (size 15 to 20)
#    0.000    1.200    6.000    3.000    0.000    0.000 
#    0.000    0.000    0.000   13.200    0.000    0.000 
#    0.000    0.000    0.000    0.000    0.000    0.000 
#
# Total GULP energy -55787.901772 kJ/mol
# GULP energy per Si atom -5578.790177 kJ/mol
# Density = 2.691737 g / cm^3
# Si number density = 26.978778 Si / 1000 Ang^3
#
#
#
# Elastic Constant Matrix: (Units=GPa)
#
#
# Indices 1 2 3 4 5 6 
#
# 1 196.7694 82.3140 38.3606 -6.5152 24.8671 -31.0870
# 2 82.3140 151.3502 44.3996 -13.8718 13.6572 -13.5604
# 3 38.3606 44.3996 118.0539 0.4274 36.8725 8.6705
# 4 -6.5152 -13.8718 0.4274 58.9708 1.6809 -3.2870
# 5 24.8671 13.6572 36.8725 1.6809 50.2560 -4.2136
# 6 -31.0870 -13.5604 8.6705 -3.2870 -4.2136 63.0392
#
#
#
# Elastic Compliance Matrix: (Units=1/GPa)
#
#
# Indices 1 2 3 4 5 6 
#
# 1 0.007319 -0.003307 -0.000739 0.000252 -0.001948 0.002883
# 2 -0.003307 0.009415 -0.002936 0.001890 0.001251 0.000981
# 3 -0.000739 -0.002936 0.012687 -0.000811 -0.008398 -0.003345
# 4 0.000252 0.001890 -0.000811 0.017535 -0.000502 0.001523
# 5 -0.001948 0.001251 -0.008398 -0.000502 0.026888 0.002235
# 6 0.002883 0.000981 -0.003345 0.001523 0.002235 0.018184
#
#
# Mechanical properties :
#
#
# Convention : Reuss Voigt Hill
#
# Bulk Modulus (GPa) = 64.69371 88.48021 76.58696
# Shear Modulus (GPa) = 44.98655 54.52648 49.75652
#
# Velocity S-wave (km/s) = 4.08791 4.50053 4.29917
# Velocity P-wave (km/s) = 6.80536 7.73781 7.28652
#
# Compressibility (1/GPa) = 0.01545745
#
# Stress axis : x y z
#
# Youngs Moduli (GPa) = 136.62275 106.21215 78.82336
#
# Poissons Ratio (x) = 0.35122 0.05825
# Poissons Ratio (y) = 0.45179 0.23142
# Poissons Ratio (z) = 0.10097 0.31184
#
# Static dielectric constant tensor:
#      x y z
#    x 2.348710 -0.333720 -0.108570 
#    y -0.333720 2.474450 0.059590 
#    z -0.108570 0.059590 1.991450 
# 
# From -- ./inp_files/228840.got.cif
#   From: 2010.05.17/outbox.cif.g08.bks.cpg/sg2_115_cif.got.tgz:228840.got - 2010.06.03 11:33:40.
