data_PCOD9090733
_publ_section_title
;
Structure prediction by ZEFSAII (Michael W. Deem and Ramdas Pophale) SiO2 
 PCOD9090733
Probable space group: P -1
;
_chemical_formula_sum "Si O2"
_cell_formula_units_Z 16
_cell_length_a 17.319157
_cell_length_b 7.867393
_cell_length_c 5.503428
_cell_angle_alpha 122.558081
_cell_angle_beta 82.013443
_cell_angle_gamma 101.761215
_cell_volume 618.374386
_symmetry_space_group_name_H-M "P -1"
_symmetry_group_IT_number 2
_symmetry_cell_setting 'triclinic'
loop_
_space_group_symop_operation_xyz
x,y,z
-x,-y,-z
loop_
_atom_site_type_symbol
_atom_site_label
_atom_site_fract_x
_atom_site_fract_y
_atom_site_fract_z
Si Si1 0.294260 0.518287 0.304472
Si Si2 0.414086 0.822252 0.769255
Si Si3 0.919121 0.850807 0.899388
Si Si4 0.847250 0.300205 0.027503
Si Si5 0.288685 0.081051 0.173883
Si Si6 0.550415 0.318047 0.857322
Si Si7 0.172473 0.222487 0.625317
Si Si8 0.883598 0.385553 0.577946
O O1 0.344960 0.628402 0.591826
O O2 0.280127 0.276049 0.160201
O O3 0.355781 0.592127 0.121475
O O4 0.210915 0.595762 0.369660
O O5 0.459294 0.818281 0.489122
O O6 0.536223 0.216916 0.047360
O O7 0.369775 0.010280 0.005111
O O8 0.865879 0.865625 0.175475
O O9 0.894901 0.283991 0.239826
O O10 0.929628 0.612760 0.727194
O O11 0.000000 0.000000 0.000000
O O12 0.895120 0.278112 0.742914
O O13 0.771043 0.131773 0.962664
O O14 0.876322 0.859687 0.661453
O O15 0.828716 0.533631 0.198734
O O16 0.260696 0.168759 0.510083
O O17 0.500000 0.500000 0.000000
#
# Coordination Sequence:
#
# PCOD9090733 Si02
#       8
#     2   2   2   2   2   2   2   2
#     4  10  22  38  62  94 120 160 207 254 301 360
#     4  10  23  40  63  94 121 159 205 245 315 353
#     4  10  20  38  63  86 120 168 208 244 306 374
#     4  10  20  36  54  85 118 157 189 252 306 355
#     4  12  20  39  61  98 123 156 205 267 299 363
#     4  10  22  46  67  85 130 169 197 246 309 369
#     4  10  22  37  60  88 121 159 206 255 312 354
#     4  10  19  39  56  85 123 152 206 248 304 349
#
# _framework density 25.874290999999999
#
# number of rings (size 3 to 8) (size 9 to 14) (size 15 to 20)
#    0.750    1.000    3.750    1.500    0.000    2.000 
#    4.500    1.250    0.000   18.000    0.000    0.000 
#    0.000    0.000    0.000    0.000    0.000    0.000 
#
# Total GULP energy -89388.884097 kJ/mol
# GULP energy per Si atom -5586.805256 kJ/mol
# Density = 2.581540 g / cm^3
# Si number density = 25.874291 Si / 1000 Ang^3
#
#
#
# Elastic Constant Matrix: (Units=GPa)
#
#
# Indices 1 2 3 4 5 6 
#
# 1 85.5745 46.2471 57.0533 -12.6309 4.0093 -4.5940
# 2 46.2471 156.6694 54.2323 -19.5395 20.6967 -12.4787
# 3 57.0533 54.2323 150.3971 -16.9861 9.9509 -39.3463
# 4 -12.6309 -19.5395 -16.9861 48.4599 -16.8375 14.1256
# 5 4.0093 20.6967 9.9509 -16.8375 48.5742 -1.0306
# 6 -4.5940 -12.4787 -39.3463 14.1256 -1.0306 36.3145
#
#
#
# Elastic Compliance Matrix: (Units=1/GPa)
#
#
# Indices 1 2 3 4 5 6 
#
# 1 0.018866 -0.003344 -0.008018 0.004391 0.002840 -0.009077
# 2 -0.003344 0.008337 -0.001300 0.000932 -0.002674 0.000595
# 3 -0.008018 -0.001300 0.013787 -0.002797 -0.002271 0.014501
# 4 0.004391 0.000932 -0.002797 0.028149 0.009299 -0.012840
# 5 0.002840 -0.002674 -0.002271 0.009299 0.025055 -0.005926
# 6 -0.009077 0.000595 0.014501 -0.012840 -0.005926 0.047132
#
#
# Mechanical properties :
#
#
# Convention : Reuss Voigt Hill
#
# Bulk Modulus (GPa) = 63.82748 78.63403 71.23075
# Shear Modulus (GPa) = 29.09149 42.34360 35.71754
#
# Velocity S-wave (km/s) = 3.35675 4.04977 3.71944
# Velocity P-wave (km/s) = 6.30441 7.23355 6.78491
#
# Compressibility (1/GPa) = 0.01566723
#
# Stress axis : x y z
#
# Youngs Moduli (GPa) = 53.00457 119.94967 72.53063
#
# Poissons Ratio (x) = 0.40114 0.58153
# Poissons Ratio (y) = 0.17726 0.09427
# Poissons Ratio (z) = 0.42497 0.15590
#
# Static dielectric constant tensor:
#      x y z
#    x 2.033670 0.016720 0.022730 
#    y 0.016720 2.058500 -0.024150 
#    z 0.022730 -0.024150 2.115210 
# 
# From -- ./inp_files/351563.got.cif
#   From: 2010.05.17/outbox.cif.g08.bks.cpg/sg2_176_cif.got.tgz:351563.got - 2010.06.03 11:33:40.
