data_PCOD9090160
_publ_section_title
;
Structure prediction by ZEFSAII (Michael W. Deem and Ramdas Pophale) SiO2 
 PCOD9090160
Probable space group: P -1
;
_chemical_formula_sum "Si O2"
_cell_formula_units_Z 16
_cell_length_a 9.320754
_cell_length_b 13.398530
_cell_length_c 7.468224
_cell_angle_alpha 65.376501
_cell_angle_beta 62.590536
_cell_angle_gamma 87.090493
_cell_volume 741.087626
_symmetry_space_group_name_H-M "P -1"
_symmetry_group_IT_number 2
_symmetry_cell_setting 'triclinic'
loop_
_space_group_symop_operation_xyz
x,y,z
-x,-y,-z
loop_
_atom_site_type_symbol
_atom_site_label
_atom_site_fract_x
_atom_site_fract_y
_atom_site_fract_z
Si Si1 0.277779 0.430649 0.805576
Si Si2 0.597036 0.514502 0.751033
Si Si3 0.592683 0.771366 0.306687
Si Si4 0.808732 0.996325 0.094316
Si Si5 0.576767 0.118245 0.958519
Si Si6 0.134587 0.574196 0.493491
Si Si7 0.644964 0.859024 0.586443
Si Si8 0.139327 0.312876 0.339504
O O1 0.446418 0.511284 0.704607
O O2 0.330760 0.331732 0.731928
O O3 0.169182 0.501475 0.700301
O O4 0.190061 0.374329 0.075862
O O5 0.694009 0.414391 0.720312
O O6 0.743547 0.616508 0.630248
O O7 0.500000 0.500000 0.000000
O O8 0.734630 0.880981 0.121742
O O9 0.554150 0.782246 0.532509
O O10 0.444573 0.792529 0.248522
O O11 0.715008 0.974490 0.357014
O O12 0.751171 0.098462 0.949420
O O13 0.000000 0.000000 0.000000
O O14 0.467865 0.135755 0.181850
O O15 0.500000 0.000000 0.000000
O O16 0.000000 0.500000 0.500000
O O17 0.047330 0.676725 0.520800
O O18 0.801591 0.805049 0.597662
#
# Coordination Sequence:
#
# PCOD9090160 Si02
#       8
#     2   2   2   2   2   2   2   2
#     4  11  19  37  60  83 120 159 205 241 286 352
#     4   9  20  35  58  83 117 159 199 246 281 344
#     4   9  20  34  64  83 115 156 198 236 293 355
#     4   9  21  39  61  86 118 145 192 249 310 341
#     4  10  19  38  64  88 109 153 200 235 304 374
#     4  10  20  34  55  82 119 162 198 239 296 345
#     4  10  20  37  65  82 123 152 197 242 295 361
#     4  10  20  37  57  88 119 160 197 244 303 340
#
# _framework density 21.58989
#
# number of rings (size 3 to 8) (size 9 to 14) (size 15 to 20)
#    0.750    1.500    1.250    2.625    0.000    0.000 
#    2.250    2.500    5.500    0.000    0.000    0.000 
#    0.000    0.000    0.000    0.000    0.000    0.000 
#
# Total GULP energy -89117.840788 kJ/mol
# GULP energy per Si atom -5569.865049 kJ/mol
# Density = 2.154075 g / cm^3
# Si number density = 21.589890 Si / 1000 Ang^3
#
#
#
# Elastic Constant Matrix: (Units=GPa)
#
#
# Indices 1 2 3 4 5 6 
#
# 1 136.6465 34.8616 39.0988 1.8689 21.4135 -34.1634
# 2 34.8616 79.8710 25.5389 10.2301 12.9230 -19.4862
# 3 39.0988 25.5389 96.9742 18.1237 25.7690 -11.9022
# 4 1.8689 10.2301 18.1237 26.9582 3.4793 3.5338
# 5 21.4135 12.9230 25.7690 3.4793 36.4223 -1.9756
# 6 -34.1634 -19.4862 -11.9022 3.5338 -1.9756 44.4582
#
#
#
# Elastic Compliance Matrix: (Units=1/GPa)
#
#
# Indices 1 2 3 4 5 6 
#
# 1 0.010628 -0.001879 -0.002189 0.001084 -0.003784 0.006503
# 2 -0.001879 0.016293 -0.000897 -0.005797 -0.003174 0.005777
# 3 -0.002189 -0.000897 0.015740 -0.009320 -0.008505 0.002501
# 4 0.001084 -0.005797 -0.009320 0.046085 0.003192 -0.007724
# 5 -0.003784 -0.003174 -0.008505 0.003192 0.036235 -0.005219
# 6 0.006503 0.005777 0.002501 -0.007724 -0.005219 0.031074
#
#
# Mechanical properties :
#
#
# Convention : Reuss Voigt Hill
#
# Bulk Modulus (GPa) = 30.55385 56.94336 43.74860
# Shear Modulus (GPa) = 28.26538 35.83389 32.04964
#
# Velocity S-wave (km/s) = 3.62221 4.07843 3.85707
# Velocity P-wave (km/s) = 5.62819 6.97211 6.33588
#
# Compressibility (1/GPa) = 0.03272910
#
# Stress axis : x y z
#
# Youngs Moduli (GPa) = 94.09277 61.37749 63.53390
#
# Poissons Ratio (x) = 0.11532 0.13909
# Poissons Ratio (y) = 0.17679 0.05702
# Poissons Ratio (z) = 0.20599 0.05508
#
# Static dielectric constant tensor:
#      x y z
#    x 1.813420 -0.011920 0.035160 
#    y -0.011920 1.846110 -0.024380 
#    z 0.035160 -0.024380 1.828070 
# 
# From -- ./inp_files/200691.got.cif
#   From: 2010.05.17/outbox.cif.g08.bks.cpg/sg2_101_cif.got.tgz:200691.got - 2010.06.03 11:33:40.
