data_PCOD9090027
_publ_section_title
;
Structure prediction by ZEFSAII (Michael W. Deem and Ramdas Pophale) SiO2 
 PCOD9090027
Probable space group: P -1
;
_chemical_formula_sum "Si O2"
_cell_formula_units_Z 14
_cell_length_a 16.588996
_cell_length_b 19.737923
_cell_length_c 10.392158
_cell_angle_alpha 28.467039
_cell_angle_beta 142.025090
_cell_angle_gamma 160.601924
_cell_volume 520.391902
_symmetry_space_group_name_H-M "P -1"
_symmetry_group_IT_number 2
_symmetry_cell_setting 'triclinic'
loop_
_space_group_symop_operation_xyz
x,y,z
-x,-y,-z
loop_
_atom_site_type_symbol
_atom_site_label
_atom_site_fract_x
_atom_site_fract_y
_atom_site_fract_z
Si Si1 0.442141 0.041566 0.171732
Si Si2 0.516962 0.346284 0.534636
Si Si3 0.921418 0.578489 0.996844
Si Si4 0.778109 0.767724 0.463863
Si Si5 0.345300 0.006812 0.643223
Si Si6 0.593509 0.679667 0.938058
Si Si7 0.043492 0.292647 0.896579
O O1 0.525891 0.247108 0.832642
O O2 0.661474 0.257324 0.192267
O O3 0.167136 0.811883 0.272066
O O4 0.478875 0.933863 0.315481
O O5 0.269662 0.209775 0.491462
O O6 0.488230 0.221324 0.581469
O O7 0.683349 0.640343 0.215902
O O8 0.879943 0.705307 0.696220
O O9 0.023224 0.690198 0.081319
O O10 0.129176 0.717485 0.925879
O O11 0.500000 0.500000 0.500000
O O12 0.944288 0.043436 0.150136
O O13 0.233155 0.029369 0.374820
O O14 0.500000 0.500000 0.000000
O O15 0.337754 0.534365 0.885564
#
# Coordination Sequence:
#
# PCOD9090027 Si02
#       7
#     2   2   2   2   2   2   2
#     4  11  24  39  65  97 120 163 222 251 296 375
#     4  10  19  38  63  88 120 158 205 258 298 362
#     4  12  21  38  67  92 123 165 211 261 302 362
#     4  11  18  34  63  96 117 146 219 262 294 351
#     4  11  23  41  62  91 133 167 201 254 317 369
#     4  10  22  39  65  91 127 168 198 253 329 366
#     4  11  22  38  67  89 124 167 207 259 306 368
#
# _framework density 26.902802000000001
#
# number of rings (size 3 to 8) (size 9 to 14) (size 15 to 20)
#    0.000    1.143    7.143    3.000    0.000    0.571 
#    0.000    1.429    9.429    0.000    0.000    0.000 
#    0.000    0.000    0.000    0.000    0.000    0.000 
#
# Total GULP energy -77988.136619 kJ/mol
# GULP energy per Si atom -5570.581187 kJ/mol
# Density = 2.684157 g / cm^3
# Si number density = 26.902802 Si / 1000 Ang^3
#
#
#
# Elastic Constant Matrix: (Units=GPa)
#
#
# Indices 1 2 3 4 5 6 
#
# 1 95.3068 0.5292 4.3547 -2.3421 41.3203 5.3499
# 2 0.5292 84.8164 18.1371 -1.0250 5.0131 -2.3099
# 3 4.3547 18.1371 119.8353 14.7007 12.7567 -5.8319
# 4 -2.3421 -1.0250 14.7007 33.8698 5.1060 5.1327
# 5 41.3203 5.0131 12.7567 5.1060 33.0330 1.9642
# 6 5.3499 -2.3099 -5.8319 5.1327 1.9642 30.6655
#
#
#
# Elastic Compliance Matrix: (Units=1/GPa)
#
#
# Indices 1 2 3 4 5 6 
#
# 1 0.025009 0.001483 0.001418 0.006569 -0.032895 -0.002974
# 2 0.001483 0.012384 -0.001770 0.001708 -0.003331 0.000265
# 3 0.001418 -0.001770 0.009652 -0.003786 -0.004790 0.002395
# 4 0.006569 0.001708 -0.003786 0.034497 -0.011945 -0.006746
# 5 -0.032895 -0.003331 -0.004790 -0.011945 0.075519 0.001739
# 6 -0.002974 0.000265 0.002395 -0.006746 0.001739 0.034622
#
#
# Mechanical properties :
#
#
# Convention : Reuss Voigt Hill
#
# Bulk Modulus (GPa) = 20.28082 38.44451 29.36267
# Shear Modulus (GPa) = 24.28869 37.97615 31.13242
#
# Velocity S-wave (km/s) = 3.00797 3.76121 3.40548
# Velocity P-wave (km/s) = 4.42931 5.76051 5.13820
#
# Compressibility (1/GPa) = 0.04930767
#
# Stress axis : x y z
#
# Youngs Moduli (GPa) = 39.98498 80.74801 103.60497
#
# Poissons Ratio (x) = -0.11978 -0.14690
# Poissons Ratio (y) = -0.05931 0.18341
# Poissons Ratio (z) = -0.05669 0.14295
#
# Static dielectric constant tensor:
#      x y z
#    x 2.174240 0.071890 -0.192310 
#    y 0.071890 2.193380 -0.073380 
#    z -0.192310 -0.073380 2.305850 
# 
# From -- ./inp_files/332674.got.cif
#   From: 2010.05.17/outbox.cif.g08.bks.cpg/sg2_167_cif.got.tgz:332674.got - 2010.06.03 11:33:40.
