data_PCOD9090375
_publ_section_title
;
Structure prediction by ZEFSAII (Michael W. Deem and Ramdas Pophale) SiO2 
 PCOD9090375
Probable space group: P -1
;
_chemical_formula_sum "Si O2"
_cell_formula_units_Z 14
_cell_length_a 9.119736
_cell_length_b 12.885033
_cell_length_c 9.487924
_cell_angle_alpha 129.077082
_cell_angle_beta 135.896658
_cell_angle_gamma 48.549725
_cell_volume 555.307073
_symmetry_space_group_name_H-M "P -1"
_symmetry_group_IT_number 2
_symmetry_cell_setting 'triclinic'
loop_
_space_group_symop_operation_xyz
x,y,z
-x,-y,-z
loop_
_atom_site_type_symbol
_atom_site_label
_atom_site_fract_x
_atom_site_fract_y
_atom_site_fract_z
Si Si1 0.030064 0.321815 0.269993
Si Si2 0.078086 0.608970 0.449812
Si Si3 0.688655 0.460592 0.733984
Si Si4 0.457450 0.777959 0.458174
Si Si5 0.210310 0.275590 0.898716
Si Si6 0.241356 0.969606 0.722178
Si Si7 0.974886 0.060254 0.877900
O O1 0.009707 0.472063 0.315109
O O2 0.290880 0.251352 0.442397
O O3 0.880935 0.342639 0.326101
O O4 0.998002 0.213051 0.045175
O O5 0.286160 0.564122 0.442135
O O6 0.865040 0.723451 0.315786
O O7 0.571154 0.374253 0.671375
O O8 0.961489 0.365311 0.872700
O O9 0.650201 0.623909 0.890378
O O10 0.269057 0.892426 0.326801
O O11 0.419073 0.841380 0.645134
O O12 0.299820 0.111903 0.872225
O O13 0.171681 0.955945 0.822064
O O14 0.000000 0.000000 0.500000
O O15 0.000000 0.000000 0.000000
#
# Coordination Sequence:
#
# PCOD9090375 Si02
#       7
#     2   2   2   2   2   2   2
#     4  11  24  40  64  95 134 160 213 268 322 372
#     4   9  19  38  63  90 124 172 198 263 326 371
#     4   9  17  35  67  90 119 166 218 251 314 379
#     4  11  24  42  68  95 126 170 219 260 312 386
#     4   9  16  34  68  87 118 170 212 247 319 378
#     4  10  19  38  65  94 124 171 211 257 319 376
#     4  11  24  40  64  91 135 170 207 259 324 375
#
# _framework density 25.211276999999999
#
# number of rings (size 3 to 8) (size 9 to 14) (size 15 to 20)
#    0.857    1.143    2.857    1.714    6.000    1.714 
#    0.000    6.429    6.286    0.000    0.000    0.000 
#    0.000    0.000    0.000    0.000    0.000    0.000 
#
# Total GULP energy -78272.484724 kJ/mol
# GULP energy per Si atom -5590.891766 kJ/mol
# Density = 2.515389 g / cm^3
# Si number density = 25.211277 Si / 1000 Ang^3
#
#
#
# Elastic Constant Matrix: (Units=GPa)
#
#
# Indices 1 2 3 4 5 6 
#
# 1 110.3859 26.3595 27.8758 -10.1772 -30.0294 4.9939
# 2 26.3595 99.6815 4.0776 -6.9046 -9.3232 17.3723
# 3 27.8758 4.0776 70.6071 7.0714 -11.9693 8.4857
# 4 -10.1772 -6.9046 7.0714 46.0393 12.0025 -7.5899
# 5 -30.0294 -9.3232 -11.9693 12.0025 35.0355 -10.2283
# 6 4.9939 17.3723 8.4857 -7.5899 -10.2283 32.5179
#
#
#
# Elastic Compliance Matrix: (Units=1/GPa)
#
#
# Indices 1 2 3 4 5 6 
#
# 1 0.013506 -0.003089 -0.004039 0.001167 0.010172 0.004102
# 2 -0.003089 0.011837 0.001121 0.000130 -0.001039 -0.006438
# 3 -0.004039 0.001121 0.017270 -0.004948 0.003066 -0.004675
# 4 0.001167 0.000130 -0.004948 0.025613 -0.008126 0.004465
# 5 0.010172 -0.001039 0.003066 -0.008126 0.043752 0.010058
# 6 0.004102 -0.006438 -0.004675 0.004465 0.010058 0.038988
#
#
# Mechanical properties :
#
#
# Convention : Reuss Voigt Hill
#
# Bulk Modulus (GPa) = 32.68242 44.14448 38.41345
# Shear Modulus (GPa) = 28.87171 37.54264 33.20718
#
# Velocity S-wave (km/s) = 3.38774 3.86310 3.63320
# Velocity P-wave (km/s) = 5.31920 6.11930 5.73323
#
# Compressibility (1/GPa) = 0.03059749
#
# Stress axis : x y z
#
# Youngs Moduli (GPa) = 74.04113 84.48234 57.90356
#
# Poissons Ratio (x) = 0.26096 0.23389
# Poissons Ratio (y) = 0.22871 -0.06489
# Poissons Ratio (z) = 0.29908 -0.09467
#
# Static dielectric constant tensor:
#      x y z
#    x 1.984460 -0.040340 0.051810 
#    y -0.040340 2.095920 -0.096740 
#    z 0.051810 -0.096740 2.077960 
# 
# From -- ./inp_files/190964.got.cif
#   From: 2010.05.17/outbox.cif.g08.bks.cpg/sg2_96_cif.got.tgz:190964.got - 2010.06.03 11:33:40.
