data_PCOD9090287
_publ_section_title
;
Structure prediction by ZEFSAII (Michael W. Deem and Ramdas Pophale) SiO2 
 PCOD9090287
Probable space group: P -1
;
_chemical_formula_sum "Si O2"
_cell_formula_units_Z 14
_cell_length_a 7.985122
_cell_length_b 7.721563
_cell_length_c 9.389818
_cell_angle_alpha 94.905159
_cell_angle_beta 105.621702
_cell_angle_gamma 98.317510
_cell_volume 546.977080
_symmetry_space_group_name_H-M "P -1"
_symmetry_group_IT_number 2
_symmetry_cell_setting 'triclinic'
loop_
_space_group_symop_operation_xyz
x,y,z
-x,-y,-z
loop_
_atom_site_type_symbol
_atom_site_label
_atom_site_fract_x
_atom_site_fract_y
_atom_site_fract_z
Si Si1 0.015316 0.543712 0.174475
Si Si2 0.633297 0.565572 0.719484
Si Si3 0.708980 0.668749 0.422427
Si Si4 0.595618 0.025200 0.370669
Si Si5 0.943913 0.924311 0.199405
Si Si6 0.717191 0.931727 0.899735
Si Si7 0.928171 0.265860 0.376977
O O1 0.935292 0.716969 0.206830
O O2 0.928205 0.377139 0.239609
O O3 0.225622 0.566197 0.257548
O O4 0.000000 0.500000 0.000000
O O5 0.641075 0.653387 0.570733
O O6 0.436257 0.471373 0.700306
O O7 0.702474 0.723088 0.853321
O O8 0.908714 0.640870 0.483800
O O9 0.693111 0.857616 0.369945
O O10 0.454767 0.021289 0.211479
O O11 0.740805 0.203950 0.404904
O O12 0.500000 0.000000 0.500000
O O13 0.985808 0.078307 0.335509
O O14 0.770788 0.961592 0.077813
O O15 0.114949 0.966005 0.139107
#
# Coordination Sequence:
#
# PCOD9090287 Si02
#       7
#     2   2   2   2   2   2   2
#     4  11  20  40  73 104 138 187 220 280 350 409
#     4  10  19  38  65 105 138 176 231 276 333 426
#     4  10  21  40  65  96 141 177 222 290 340 404
#     4  12  24  44  70  94 136 190 233 286 353 400
#     4  11  21  42  71 101 139 180 226 285 349 405
#     4  11  21  40  69 103 136 180 234 275 341 425
#     4  11  25  45  65 107 141 173 241 287 332 424
#
# _framework density 25.595222
#
# number of rings (size 3 to 8) (size 9 to 14) (size 15 to 20)
#    0.000    1.143    5.714    2.143    0.000    0.571 
#    5.143    1.429    0.000    0.000    0.000    0.000 
#    0.000    0.000    0.000    0.000    0.000    0.000 
#
# Total GULP energy -78416.242984 kJ/mol
# GULP energy per Si atom -5601.160213 kJ/mol
# Density = 2.553697 g / cm^3
# Si number density = 25.595222 Si / 1000 Ang^3
#
#
#
# Elastic Constant Matrix: (Units=GPa)
#
#
# Indices 1 2 3 4 5 6 
#
# 1 122.2216 61.4264 52.1195 -27.7920 20.8241 17.9185
# 2 61.4264 141.5728 43.4479 -18.2751 11.9618 10.3335
# 3 52.1195 43.4479 127.2911 -18.9570 23.4973 12.6246
# 4 -27.7920 -18.2751 -18.9570 32.3576 -8.0438 4.1231
# 5 20.8241 11.9618 23.4973 -8.0438 52.5129 -0.6892
# 6 17.9185 10.3335 12.6246 4.1231 -0.6892 68.1144
#
#
#
# Elastic Compliance Matrix: (Units=1/GPa)
#
#
# Indices 1 2 3 4 5 6 
#
# 1 0.013817 -0.003778 -0.002415 0.008138 -0.002333 -0.003130
# 2 -0.003778 0.009310 -0.001465 0.001237 0.000220 -0.000220
# 3 -0.002415 -0.001465 0.010410 0.002616 -0.002982 -0.001260
# 4 0.008138 0.001237 0.002616 0.041188 0.001560 -0.005291
# 5 -0.002333 0.000220 -0.002982 0.001560 0.021508 0.001256
# 6 -0.003130 -0.000220 -0.001260 -0.005291 0.001256 0.016105
#
#
# Mechanical properties :
#
#
# Convention : Reuss Voigt Hill
#
# Bulk Modulus (GPa) = 54.88260 78.34144 66.61202
# Shear Modulus (GPa) = 37.38953 46.20310 41.79631
#
# Velocity S-wave (km/s) = 3.82619 4.25331 4.04539
# Velocity P-wave (km/s) = 6.40380 7.40237 6.92112
#
# Compressibility (1/GPa) = 0.01822071
#
# Stress axis : x y z
#
# Youngs Moduli (GPa) = 72.37311 107.41696 96.06006
#
# Poissons Ratio (x) = 0.40581 0.23198
# Poissons Ratio (y) = 0.27342 0.14075
# Poissons Ratio (z) = 0.17478 0.15739
#
# Static dielectric constant tensor:
#      x y z
#    x 2.082530 -0.008810 -0.034960 
#    y -0.008810 2.013350 -0.034160 
#    z -0.034960 -0.034160 1.996310 
# 
# From -- ./inp_files/376497.got.cif
#   From: 2010.05.17/outbox.cif.g08.bks.cpg/sg2_189_cif.got.tgz:376497.got - 2010.06.03 11:33:40.
