data_PCOD9090919
_publ_section_title
;
Structure prediction by ZEFSAII (Michael W. Deem and Ramdas Pophale) SiO2 
 PCOD9090919
Probable space group: P -1
;
_chemical_formula_sum "Si O2"
_cell_formula_units_Z 14
_cell_length_a 8.706283
_cell_length_b 19.866782
_cell_length_c 5.212174
_cell_angle_alpha 62.172061
_cell_angle_beta 59.484100
_cell_angle_gamma 63.436633
_cell_volume 660.192340
_symmetry_space_group_name_H-M "P -1"
_symmetry_group_IT_number 2
_symmetry_cell_setting 'triclinic'
loop_
_space_group_symop_operation_xyz
x,y,z
-x,-y,-z
loop_
_atom_site_type_symbol
_atom_site_label
_atom_site_fract_x
_atom_site_fract_y
_atom_site_fract_z
Si Si1 0.571865 0.082694 0.664988
Si Si2 0.577662 0.447583 0.774273
Si Si3 0.626857 0.685151 0.737261
Si Si4 0.766208 0.961483 0.097566
Si Si5 0.990540 0.447408 0.354406
Si Si6 0.499407 0.783140 0.160057
Si Si7 0.173137 0.878889 0.990917
O O1 0.413630 0.068345 0.640378
O O2 0.471054 0.135630 0.895266
O O3 0.702090 0.132211 0.348954
O O4 0.708296 0.000306 0.795983
O O5 0.500000 0.500000 0.500000
O O6 0.797799 0.426082 0.590513
O O7 0.500000 0.500000 0.000000
O O8 0.502788 0.370963 0.981343
O O9 0.564810 0.721637 0.445089
O O10 0.835132 0.629183 0.655949
O O11 0.605121 0.748726 0.871329
O O12 0.797369 0.037203 0.085390
O O13 0.957873 0.893991 0.086654
O O14 0.000000 0.500000 0.500000
O O15 0.000000 0.500000 0.000000
O O16 0.280975 0.810515 0.213732
#
# Coordination Sequence:
#
# PCOD9090919 Si02
#       7
#     2   2   2   2   2   2   2
#     4  10  19  39  61  92 127 165 221 265 328 369
#     4  12  23  43  72 101 125 165 214 273 321 379
#     4  12  24  44  66  94 138 168 216 258 336 382
#     4   9  20  34  66  96 115 168 220 282 309 372
#     4  12  23  43  72 101 125 165 214 273 321 379
#     4  11  24  42  64  88 137 182 202 266 323 406
#     4  10  19  39  61  92 127 165 221 265 328 369
#
# _framework density 21.205943000000001
#
# number of rings (size 3 to 8) (size 9 to 14) (size 15 to 20)
#    0.000    1.143    4.286    2.571    0.000    0.000 
#    2.571    2.857    0.000    0.000    0.000    0.000 
#    0.000    0.000    0.000    0.000    0.000    0.000 
#
# Total GULP energy -78115.135741 kJ/mol
# GULP energy per Si atom -5579.652553 kJ/mol
# Density = 2.115768 g / cm^3
# Si number density = 21.205943 Si / 1000 Ang^3
#
#
#
# Elastic Constant Matrix: (Units=GPa)
#
#
# Indices 1 2 3 4 5 6 
#
# 1 132.2836 62.2911 46.0965 15.3729 -1.2574 -42.0664
# 2 62.2911 119.2524 37.7995 12.9923 17.6079 -37.2186
# 3 46.0965 37.7995 108.6313 1.1432 26.6568 -25.4790
# 4 15.3729 12.9923 1.1432 37.1062 -5.6636 7.7763
# 5 -1.2574 17.6079 26.6568 -5.6636 43.4758 2.0614
# 6 -42.0664 -37.2186 -25.4790 7.7763 2.0614 53.5111
#
#
#
# Elastic Compliance Matrix: (Units=1/GPa)
#
#
# Indices 1 2 3 4 5 6 
#
# 1 0.013263 -0.003530 -0.003421 -0.005173 0.002905 0.006982
# 2 -0.003530 0.014762 0.000409 -0.006763 -0.007638 0.008965
# 3 -0.003421 0.000409 0.013926 -0.001573 -0.009236 0.004811
# 4 -0.005173 -0.006763 -0.001573 0.036043 0.008966 -0.015103
# 5 0.002905 -0.007638 -0.009236 0.008966 0.033485 -0.010019
# 6 0.006982 0.008965 0.004811 -0.015103 -0.010019 0.035283
#
#
# Mechanical properties :
#
#
# Convention : Reuss Voigt Hill
#
# Bulk Modulus (GPa) = 34.63990 72.50461 53.57225
# Shear Modulus (GPa) = 29.50433 41.08399 35.29416
#
# Velocity S-wave (km/s) = 3.73409 4.40634 4.08407
# Velocity P-wave (km/s) = 5.91284 7.75582 6.89617
#
# Compressibility (1/GPa) = 0.02886845
#
# Stress axis : x y z
#
# Youngs Moduli (GPa) = 75.39894 67.74113 71.80879
#
# Poissons Ratio (x) = 0.23911 0.24562
# Poissons Ratio (y) = 0.26614 -0.02938
# Poissons Ratio (z) = 0.25791 -0.02772
#
# Static dielectric constant tensor:
#      x y z
#    x 1.805170 0.016540 0.006060 
#    y 0.016540 1.815460 0.026750 
#    z 0.006060 0.026750 1.828560 
# 
# From -- ./inp_files/52345.got.cif
#   From: 2010.05.17/outbox.cif.g08.bks.cpg/sg2_27_cif.got.tgz:52345.got - 2010.06.03 11:33:40.
