data_PCOD9090756
_publ_section_title
;
Structure prediction by ZEFSAII (Michael W. Deem and Ramdas Pophale) SiO2 
 PCOD9090756
Probable space group: P -1
;
_chemical_formula_sum "Si O2"
_cell_formula_units_Z 14
_cell_length_a 5.210664
_cell_length_b 8.022926
_cell_length_c 19.519164
_cell_angle_alpha 128.499308
_cell_angle_beta 109.875045
_cell_angle_gamma 67.412494
_cell_volume 583.851400
_symmetry_space_group_name_H-M "P -1"
_symmetry_group_IT_number 2
_symmetry_cell_setting 'triclinic'
loop_
_space_group_symop_operation_xyz
x,y,z
-x,-y,-z
loop_
_atom_site_type_symbol
_atom_site_label
_atom_site_fract_x
_atom_site_fract_y
_atom_site_fract_z
Si Si1 0.162785 0.932967 0.314027
Si Si2 0.862447 0.514065 0.844078
Si Si3 0.250659 0.328363 0.355498
Si Si4 0.539095 0.296540 0.583213
Si Si5 0.170053 0.087705 0.977660
Si Si6 0.799765 0.311546 0.200827
Si Si7 0.074851 0.741716 0.515465
O O1 0.070535 0.747842 0.213935
O O2 0.340469 0.798098 0.357498
O O3 0.324263 0.078059 0.320512
O O4 0.931061 0.114432 0.380708
O O5 0.534998 0.602301 0.814301
O O6 0.060536 0.579522 0.820509
O O7 0.897735 0.651341 0.950721
O O8 0.443257 0.448986 0.358517
O O9 0.960187 0.363541 0.295790
O O10 0.206893 0.478656 0.458643
O O11 0.242889 0.243207 0.531401
O O12 0.748780 0.189923 0.513339
O O13 0.120955 0.951702 0.871814
O O14 0.500000 0.000000 0.000000
O O15 0.000000 0.000000 0.000000
#
# Coordination Sequence:
#
# PCOD9090756 Si02
#       7
#     2   2   2   2   2   2   2
#     4  12  22  40  60  89 114 154 194 241 281 342
#     4  10  20  36  59  86 113 148 192 232 281 340
#     4  10  24  39  59  86 117 155 191 236 289 338
#     4  10  23  42  58  81 116 151 199 236 283 335
#     4   8  16  31  58  82 107 148 185 224 282 339
#     4  10  19  39  58  83 118 148 185 235 285 341
#     4  10  23  43  58  81 118 155 193 238 286 334
#
# _framework density 23.978705000000001
#
# number of rings (size 3 to 8) (size 9 to 14) (size 15 to 20)
#    0.857    1.143    1.429    2.143    0.000    1.714 
#    5.143    0.714    0.000    0.000    0.000   12.000 
#    0.000    0.000    0.000    0.000    0.000    0.000 
#
# Total GULP energy -78147.389200 kJ/mol
# GULP energy per Si atom -5581.956371 kJ/mol
# Density = 2.392413 g / cm^3
# Si number density = 23.978705 Si / 1000 Ang^3
#
#
#
# Elastic Constant Matrix: (Units=GPa)
#
#
# Indices 1 2 3 4 5 6 
#
# 1 130.6792 12.0947 10.9898 -2.9585 10.8980 18.0193
# 2 12.0947 127.5839 34.4700 31.4634 6.6485 27.9013
# 3 10.9898 34.4700 148.4409 59.9218 -0.4812 4.9310
# 4 -2.9585 31.4634 59.9218 48.3047 1.5067 10.3299
# 5 10.8980 6.6485 -0.4812 1.5067 27.2888 3.1966
# 6 18.0193 27.9013 4.9310 10.3299 3.1966 22.1181
#
#
#
# Elastic Compliance Matrix: (Units=1/GPa)
#
#
# Indices 1 2 3 4 5 6 
#
# 1 0.009743 0.000911 -0.003130 0.006312 -0.003244 -0.010869
# 2 0.000911 0.011976 -0.000954 -0.003574 -0.001490 -0.013752
# 3 -0.003130 -0.000954 0.015140 -0.020479 0.001745 0.009690
# 4 0.006312 -0.003574 -0.020479 0.053304 -0.002541 -0.020595
# 5 -0.003244 -0.001490 0.001745 -0.002541 0.038503 -0.000244
# 6 -0.010869 -0.013752 0.009690 -0.020595 -0.000244 0.078908
#
#
# Mechanical properties :
#
#
# Convention : Reuss Voigt Hill
#
# Bulk Modulus (GPa) = 32.77100 57.97921 45.37511
# Shear Modulus (GPa) = 22.31235 42.81895 32.56565
#
# Velocity S-wave (km/s) = 3.05373 4.23035 3.68925
# Velocity P-wave (km/s) = 5.11176 6.93492 6.09193
#
# Compressibility (1/GPa) = 0.03051478
#
# Stress axis : x y z
#
# Youngs Moduli (GPa) = 102.63494 83.50130 66.04856
#
# Poissons Ratio (x) = -0.07611 0.20675
# Poissons Ratio (y) = -0.09355 0.06298
# Poissons Ratio (z) = 0.32128 0.07962
#
# Static dielectric constant tensor:
#      x y z
#    x 1.918170 -0.015340 -0.040060 
#    y -0.015340 1.934520 0.074290 
#    z -0.040060 0.074290 1.984180 
# 
# From -- ./inp_files/582073.got.cif
#   From: 2010.05.17/outbox.cif.g08.bks.cpg/sg2_292_cif.got.tgz:582073.got - 2010.06.03 11:33:40.
