data_PCOD9090442
_publ_section_title
;
Structure prediction by ZEFSAII (Michael W. Deem and Ramdas Pophale) SiO2 
 PCOD9090442
Probable space group: P -1
;
_chemical_formula_sum "Si O2"
_cell_formula_units_Z 14
_cell_length_a 20.320663
_cell_length_b 14.808915
_cell_length_c 9.426459
_cell_angle_alpha 144.658093
_cell_angle_beta 56.538186
_cell_angle_gamma 149.265254
_cell_volume 723.031742
_symmetry_space_group_name_H-M "P -1"
_symmetry_group_IT_number 2
_symmetry_cell_setting 'triclinic'
loop_
_space_group_symop_operation_xyz
x,y,z
-x,-y,-z
loop_
_atom_site_type_symbol
_atom_site_label
_atom_site_fract_x
_atom_site_fract_y
_atom_site_fract_z
Si Si1 0.456504 0.111216 0.700067
Si Si2 0.824541 0.937049 0.867452
Si Si3 0.343764 0.796510 0.859522
Si Si4 0.286411 0.450447 0.241569
Si Si5 0.828955 0.669642 0.313916
Si Si6 0.597699 0.794911 0.840851
Si Si7 0.827174 0.530129 0.843215
O O1 0.562470 0.356005 0.765043
O O2 0.500000 0.000000 0.500000
O O3 0.279852 0.795898 0.480101
O O4 0.482474 0.246835 0.988624
O O5 0.780223 0.792854 0.888567
O O6 0.770252 0.720873 0.534914
O O7 0.739756 0.950573 0.944020
O O8 0.003702 0.240653 0.041059
O O9 0.320328 0.653842 0.564248
O O10 0.209827 0.533221 0.789937
O O11 0.500000 0.000000 0.000000
O O12 0.354852 0.994294 0.057707
O O13 0.183375 0.354399 0.118355
O O14 0.767411 0.512021 0.034426
O O15 0.000000 0.000000 0.500000
O O16 0.500000 0.500000 0.500000
#
# Coordination Sequence:
#
# PCOD9090442 Si02
#       7
#     2   2   2   2   2   2   2
#     4  10  21  38  65  90 123 165 218 254 313 369
#     4  10  23  38  61  98 130 162 207 266 326 368
#     4  11  21  39  65  89 119 173 218 251 312 387
#     4  10  20  38  66  91 120 170 219 253 307 382
#     4   9  20  38  64  91 122 170 212 249 306 390
#     4  12  25  40  62  97 135 164 209 275 322 370
#     4  10  19  38  66  89 127 164 214 255 313 382
#
# _framework density 19.362912000000001
#
# number of rings (size 3 to 8) (size 9 to 14) (size 15 to 20)
#    0.000    1.714    2.857    3.000    6.000    1.143 
#    0.000    2.857    0.000    0.000    0.000    0.000 
#    0.000    0.000    0.000    0.000    0.000    0.000 
#
# Total GULP energy -78042.222549 kJ/mol
# GULP energy per Si atom -5574.444468 kJ/mol
# Density = 1.931884 g / cm^3
# Si number density = 19.362912 Si / 1000 Ang^3
#
#
#
# Elastic Constant Matrix: (Units=GPa)
#
#
# Indices 1 2 3 4 5 6 
#
# 1 122.0086 53.6720 35.3492 0.2182 -5.2564 1.0753
# 2 53.6720 132.1845 48.8905 0.0100 -3.7819 -15.2497
# 3 35.3492 48.8905 111.2930 -9.7397 7.3778 -7.3332
# 4 0.2182 0.0100 -9.7397 34.3824 -7.0096 9.4320
# 5 -5.2564 -3.7819 7.3778 -7.0096 28.3909 0.7174
# 6 1.0753 -15.2497 -7.3332 9.4320 0.7174 29.0296
#
#
#
# Elastic Compliance Matrix: (Units=1/GPa)
#
#
# Indices 1 2 3 4 5 6 
#
# 1 0.010594 -0.003887 -0.001953 0.000712 0.002208 -0.003214
# 2 -0.003887 0.011163 -0.003556 -0.002401 0.000950 0.005866
# 3 -0.001953 -0.003556 0.011631 0.002538 -0.003241 0.000398
# 4 0.000712 -0.002401 0.002538 0.034771 0.008044 -0.012143
# 5 0.002208 0.000950 -0.003241 0.008044 0.038687 -0.003971
# 6 -0.003214 0.005866 0.000398 -0.012143 -0.003971 0.041792
#
#
# Mechanical properties :
#
#
# Convention : Reuss Voigt Hill
#
# Bulk Modulus (GPa) = 68.51185 71.25662 69.88423
# Shear Modulus (GPa) = 29.02005 33.53219 31.27612
#
# Velocity S-wave (km/s) = 3.87556 4.16597 4.02339
# Velocity P-wave (km/s) = 7.44892 7.74732 7.59959
#
# Compressibility (1/GPa) = 0.01459601
#
# Stress axis : x y z
#
# Youngs Moduli (GPa) = 94.39260 89.58415 85.97746
#
# Poissons Ratio (x) = 0.34819 0.16794
# Poissons Ratio (y) = 0.36688 0.30572
# Poissons Ratio (z) = 0.18437 0.31854
#
# Static dielectric constant tensor:
#      x y z
#    x 1.690010 0.001600 0.019770 
#    y 0.001600 1.730990 0.030160 
#    z 0.019770 0.030160 1.724010 
# 
# From -- ./inp_files/235140.got.cif
#   From: 2010.05.17/outbox.cif.g08.bks.cpg/sg2_118_cif.got.tgz:235140.got - 2010.06.03 11:33:40.
