data_PCOD9090273
_publ_section_title
;
Structure prediction by ZEFSAII (Michael W. Deem and Ramdas Pophale) SiO2 
 PCOD9090273
Probable space group: P -1
;
_chemical_formula_sum "Si O2"
_cell_formula_units_Z 16
_cell_length_a 9.019066
_cell_length_b 14.356141
_cell_length_c 8.405296
_cell_angle_alpha 110.160165
_cell_angle_beta 63.963052
_cell_angle_gamma 141.088282
_cell_volume 614.205082
_symmetry_space_group_name_H-M "P -1"
_symmetry_group_IT_number 2
_symmetry_cell_setting 'triclinic'
loop_
_space_group_symop_operation_xyz
x,y,z
-x,-y,-z
loop_
_atom_site_type_symbol
_atom_site_label
_atom_site_fract_x
_atom_site_fract_y
_atom_site_fract_z
Si Si1 0.634758 0.711661 0.117967
Si Si2 0.805356 0.997935 0.531460
Si Si3 0.757288 0.720922 0.390768
Si Si4 0.176674 0.419183 0.004776
Si Si5 0.711757 0.167781 0.220060
Si Si6 0.384515 0.090502 0.784288
Si Si7 0.079424 0.638884 0.462177
Si Si8 0.331422 0.537042 0.710684
O O1 0.675071 0.757662 0.312436
O O2 0.362243 0.548257 0.125682
O O3 0.701550 0.840910 0.067787
O O4 0.804762 0.691531 0.006648
O O5 0.959822 0.158565 0.627476
O O6 0.539070 0.880766 0.669201
O O7 0.763096 0.995227 0.362685
O O8 0.000000 0.000000 0.500000
O O9 0.598417 0.670432 0.592178
O O10 0.679814 0.579174 0.269487
O O11 0.879472 0.287956 0.074391
O O12 0.238517 0.538678 0.916500
O O13 0.868738 0.261730 0.361293
O O14 0.641903 0.020227 0.164493
O O15 0.666033 0.239963 0.685646
O O16 0.000000 0.500000 0.500000
O O17 0.851640 0.554160 0.401969
#
# Coordination Sequence:
#
# PCOD9090273 Si02
#       8
#     2   2   2   2   2   2   2   2
#     4  10  21  41  68  97 132 183 220 278 325 404
#     4  11  22  38  67  98 131 167 227 279 329 389
#     4  10  19  38  64  97 127 165 227 270 326 380
#     4  10  23  43  67  97 142 173 224 269 342 395
#     4  11  24  42  67 101 139 177 212 281 339 404
#     4  11  22  40  66  98 133 174 225 270 337 395
#     4  11  22  40  69  95 125 168 229 278 330 384
#     4  10  21  37  67  97 124 171 218 279 322 390
#
# _framework density 26.049931000000001
#
# number of rings (size 3 to 8) (size 9 to 14) (size 15 to 20)
#    0.000    1.500    1.250    5.250    1.750    4.500 
#    0.000    8.125    2.750    0.000    0.000    0.000 
#    0.000    0.000    0.000    0.000    0.000    0.000 
#
# Total GULP energy -89134.232504 kJ/mol
# GULP energy per Si atom -5570.889532 kJ/mol
# Density = 2.599064 g / cm^3
# Si number density = 26.049931 Si / 1000 Ang^3
#
#
#
# Elastic Constant Matrix: (Units=GPa)
#
#
# Indices 1 2 3 4 5 6 
#
# 1 103.6001 42.2913 39.1493 -10.6604 -4.8078 2.0994
# 2 42.2913 127.5426 61.2597 -27.2910 -1.1642 14.2501
# 3 39.1493 61.2597 109.1609 -30.7329 0.8687 20.4079
# 4 -10.6604 -27.2910 -30.7329 32.5802 -2.1656 -13.1525
# 5 -4.8078 -1.1642 0.8687 -2.1656 14.8145 -0.1206
# 6 2.0994 14.2501 20.4079 -13.1525 -0.1206 56.7343
#
#
#
# Elastic Compliance Matrix: (Units=1/GPa)
#
#
# Indices 1 2 3 4 5 6 
#
# 1 0.012066 -0.002667 -0.003267 -0.000603 0.003820 0.001267
# 2 -0.002667 0.011885 -0.004264 0.005059 0.001057 -0.000178
# 3 -0.003267 -0.004264 0.015768 0.009220 -0.000991 -0.002344
# 4 -0.000603 0.005059 0.009220 0.046365 0.006489 0.006197
# 5 0.003820 0.001057 -0.000991 0.006489 0.069844 0.001603
# 6 0.001267 -0.000178 -0.002344 0.006197 0.001603 0.019907
#
#
# Mechanical properties :
#
#
# Convention : Reuss Voigt Hill
#
# Bulk Modulus (GPa) = 51.75750 69.52270 60.64010
# Shear Modulus (GPa) = 24.67050 33.99937 29.33494
#
# Velocity S-wave (km/s) = 3.08075 3.61662 3.35939
# Velocity P-wave (km/s) = 5.70670 6.64726 6.19486
#
# Compressibility (1/GPa) = 0.01932087
#
# Stress axis : x y z
#
# Youngs Moduli (GPa) = 82.88064 84.14007 63.42115
#
# Poissons Ratio (x) = 0.22441 0.20723
# Poissons Ratio (y) = 0.22105 0.27043
# Poissons Ratio (z) = 0.27081 0.35878
#
# Static dielectric constant tensor:
#      x y z
#    x 2.079260 -0.158510 -0.002450 
#    y -0.158510 2.173200 0.218160 
#    z -0.002450 0.218160 1.747210 
# 
# From -- ./inp_files/207717.got.cif
#   From: 2010.05.17/outbox.cif.g08.bks.cpg/sg2_104_cif.got.tgz:207717.got - 2010.06.03 11:33:40.
