data_PCOD9090483
_publ_section_title
;
Structure prediction by ZEFSAII (Michael W. Deem and Ramdas Pophale) SiO2 
 PCOD9090483
Probable space group: P -1
;
_chemical_formula_sum "Si O2"
_cell_formula_units_Z 16
_cell_length_a 7.887357
_cell_length_b 8.802778
_cell_length_c 11.842405
_cell_angle_alpha 89.835048
_cell_angle_beta 69.595428
_cell_angle_gamma 128.773590
_cell_volume 572.612746
_symmetry_space_group_name_H-M "P -1"
_symmetry_group_IT_number 2
_symmetry_cell_setting 'triclinic'
loop_
_space_group_symop_operation_xyz
x,y,z
-x,-y,-z
loop_
_atom_site_type_symbol
_atom_site_label
_atom_site_fract_x
_atom_site_fract_y
_atom_site_fract_z
Si Si1 0.856473 0.035974 0.882243
Si Si2 0.685044 0.149450 0.724658
Si Si3 0.675484 0.318444 0.264540
Si Si4 0.868320 0.987111 0.356345
Si Si5 0.433956 0.636051 0.101428
Si Si6 0.746519 0.680350 0.573447
Si Si7 0.168538 0.389942 0.966676
Si Si8 0.310372 0.693469 0.491002
O O1 0.825789 0.147945 0.794348
O O2 0.046702 0.024211 0.784957
O O3 0.949402 0.162258 0.975840
O O4 0.601470 0.812584 0.966767
O O5 0.597694 0.259582 0.794927
O O6 0.808796 0.268024 0.577539
O O7 0.476575 0.912022 0.740904
O O8 0.484521 0.345403 0.341036
O O9 0.819174 0.465995 0.124922
O O10 0.795874 0.356260 0.358389
O O11 0.866303 0.838899 0.440537
O O12 0.597745 0.900747 0.426582
O O13 0.073744 0.208559 0.362087
O O14 0.591619 0.581726 0.104155
O O15 0.192449 0.450956 0.090905
O O16 0.675938 0.473502 0.552144
#
# Coordination Sequence:
#
# PCOD9090483 Si02
#       8
#     2   2   2   2   2   2   2   2
#     4  12  23  42  68  96 131 169 214 270 323 376
#     4  12  25  43  64  95 141 171 205 265 334 379
#     4  11  21  44  67  94 135 170 209 268 326 379
#     4  10  20  37  67  92 122 167 221 264 307 375
#     4  11  25  46  67  96 130 165 220 272 316 383
#     4  10  19  38  66  93 121 169 222 261 307 373
#     4  11  24  44  74  94 120 172 227 263 316 381
#     4  11  24  42  67  96 131 174 215 260 318 386
#
# _framework density 27.942093
#
# number of rings (size 3 to 8) (size 9 to 14) (size 15 to 20)
#    0.000    1.000    2.500    5.625    0.000    1.500 
#    2.250    1.250    0.000    0.000    0.000    0.000 
#    0.000    0.000    0.000    0.000    0.000    0.000 
#
# Total GULP energy -89880.209495 kJ/mol
# GULP energy per Si atom -5617.513093 kJ/mol
# Density = 2.787850 g / cm^3
# Si number density = 27.942093 Si / 1000 Ang^3
#
#
#
# Elastic Constant Matrix: (Units=GPa)
#
#
# Indices 1 2 3 4 5 6 
#
# 1 118.7922 30.0958 37.8284 9.7043 27.7248 -6.9385
# 2 30.0958 138.7485 42.5328 35.8388 21.4122 -5.0638
# 3 37.8284 42.5328 156.6431 8.7355 18.5645 -12.5833
# 4 9.7043 35.8388 8.7355 40.1196 -3.1370 8.2522
# 5 27.7248 21.4122 18.5645 -3.1370 53.8146 1.9549
# 6 -6.9385 -5.0638 -12.5833 8.2522 1.9549 42.5033
#
#
#
# Elastic Compliance Matrix: (Units=1/GPa)
#
#
# Indices 1 2 3 4 5 6 
#
# 1 0.010487 -0.000229 -0.001561 -0.002795 -0.005009 0.001996
# 2 -0.000229 0.011348 -0.001635 -0.010726 -0.004572 0.003123
# 3 -0.001561 -0.001635 0.007517 -0.000282 -0.001224 0.001887
# 4 -0.002795 -0.010726 -0.000282 0.037863 0.008359 -0.009553
# 5 -0.005009 -0.004572 -0.001224 0.008359 0.024053 -0.004454
# 6 0.001996 0.003123 0.001887 -0.009553 -0.004454 0.026844
#
#
# Mechanical properties :
#
#
# Convention : Reuss Voigt Hill
#
# Bulk Modulus (GPa) = 44.43790 70.56642 57.50216
# Shear Modulus (GPa) = 37.74656 47.53597 42.64126
#
# Velocity S-wave (km/s) = 3.67943 4.12907 3.91072
# Velocity P-wave (km/s) = 5.83001 6.93121 6.40432
#
# Compressibility (1/GPa) = 0.02250332
#
# Stress axis : x y z
#
# Youngs Moduli (GPa) = 95.35791 88.11923 133.02870
#
# Poissons Ratio (x) = 0.02014 0.20761
# Poissons Ratio (y) = 0.02180 0.21753
# Poissons Ratio (z) = 0.14882 0.14409
#
# Static dielectric constant tensor:
#      x y z
#    x 2.152600 0.012430 0.005460 
#    y 0.012430 2.106340 0.007650 
#    z 0.005460 0.007650 2.123080 
# 
# From -- ./inp_files/382287.got.cif
#   From: 2010.05.17/outbox.cif.g08.bks.cpg/sg2_192_cif.got.tgz:382287.got - 2010.06.03 11:33:40.
