data_PCOD9090463
_publ_section_title
;
Structure prediction by ZEFSAII (Michael W. Deem and Ramdas Pophale) SiO2 
 PCOD9090463
Probable space group: P -1
;
_chemical_formula_sum "Si O2"
_cell_formula_units_Z 16
_cell_length_a 12.301857
_cell_length_b 9.374286
_cell_length_c 11.087134
_cell_angle_alpha 86.479601
_cell_angle_beta 58.675150
_cell_angle_gamma 49.434110
_cell_volume 750.502181
_symmetry_space_group_name_H-M "P -1"
_symmetry_group_IT_number 2
_symmetry_cell_setting 'triclinic'
loop_
_space_group_symop_operation_xyz
x,y,z
-x,-y,-z
loop_
_atom_site_type_symbol
_atom_site_label
_atom_site_fract_x
_atom_site_fract_y
_atom_site_fract_z
Si Si1 0.128043 0.353433 0.583059
Si Si2 0.096994 0.437526 0.075468
Si Si3 0.251496 0.447519 0.311291
Si Si4 0.684129 0.297663 0.835538
Si Si5 0.408839 0.399307 0.817673
Si Si6 0.371343 0.993799 0.897001
Si Si7 0.191005 0.857128 0.966288
Si Si8 0.475736 0.922995 0.397502
O O1 0.232659 0.404734 0.461825
O O2 0.255700 0.113374 0.495572
O O3 0.081383 0.404596 0.746140
O O4 0.923315 0.490384 0.646149
O O5 0.242936 0.449438 0.980492
O O6 0.000000 0.500000 0.000000
O O7 0.221723 0.198416 0.053133
O O8 0.242510 0.623343 0.282991
O O9 0.439660 0.232307 0.154455
O O10 0.599280 0.250146 0.794253
O O11 0.500000 0.500000 0.000000
O O12 0.812500 0.150481 0.883434
O O13 0.330952 0.623338 0.847722
O O14 0.448462 0.295133 0.669828
O O15 0.269885 0.948834 0.890563
O O16 0.434191 0.061027 0.763360
O O17 0.000000 0.000000 0.000000
O O18 0.500000 0.000000 0.500000
#
# Coordination Sequence:
#
# PCOD9090463 Si02
#       8
#     2   2   2   2   2   2   2   2
#     4  10  21  37  62  91 132 165 223 269 318 380
#     4  11  22  38  65  97 126 167 222 275 325 383
#     4  10  20  39  61  93 126 174 207 273 325 387
#     4  10  19  38  66  91 131 168 215 266 326 390
#     4  10  21  40  69  93 126 173 221 259 335 390
#     4  10  21  38  63  93 123 165 217 265 323 385
#     4  11  22  38  65 101 129 160 215 279 326 384
#     4  10  22  41  65  88 130 173 215 263 330 392
#
# _framework density 21.319057999999998
#
# number of rings (size 3 to 8) (size 9 to 14) (size 15 to 20)
#    0.000    1.750    2.500    3.750    0.000    1.500 
#    6.750    1.250    8.250    0.000    0.000    0.000 
#    0.000    0.000    0.000    0.000    0.000    0.000 
#
# Total GULP energy -89085.270691 kJ/mol
# GULP energy per Si atom -5567.829418 kJ/mol
# Density = 2.127053 g / cm^3
# Si number density = 21.319058 Si / 1000 Ang^3
#
#
#
# Elastic Constant Matrix: (Units=GPa)
#
#
# Indices 1 2 3 4 5 6 
#
# 1 91.1047 11.6871 10.3029 6.7919 -6.2604 -8.9440
# 2 11.6871 33.0120 12.3062 11.4646 -6.8316 -3.7562
# 3 10.3029 12.3062 91.0949 7.3615 4.6390 7.8298
# 4 6.7919 11.4646 7.3615 33.9102 -1.3678 0.5520
# 5 -6.2604 -6.8316 4.6390 -1.3678 37.0768 3.5725
# 6 -8.9440 -3.7562 7.8298 0.5520 3.5725 39.2660
#
#
#
# Elastic Compliance Matrix: (Units=1/GPa)
#
#
# Indices 1 2 3 4 5 6 
#
# 1 0.011899 -0.002802 -0.001162 -0.001171 0.001348 0.002568
# 2 -0.002802 0.038681 -0.004630 -0.011308 0.006474 0.003555
# 3 -0.001162 -0.004630 0.012175 -0.000891 -0.002325 -0.002911
# 4 -0.001171 -0.011308 -0.000891 0.033735 -0.000774 -0.001575
# 5 0.001348 0.006474 -0.002325 -0.000774 0.028771 -0.001217
# 6 0.002568 0.003555 -0.002911 -0.001575 -0.001217 0.027106
#
#
# Mechanical properties :
#
#
# Convention : Reuss Voigt Hill
#
# Bulk Modulus (GPa) = 21.94516 31.53378 26.73947
# Shear Modulus (GPa) = 27.06439 34.11163 30.58801
#
# Velocity S-wave (km/s) = 3.56686 4.00441 3.79195
# Velocity P-wave (km/s) = 5.22296 6.01696 5.63397
#
# Compressibility (1/GPa) = 0.04556814
#
# Stress axis : x y z
#
# Youngs Moduli (GPa) = 84.03906 25.85230 82.13446
#
# Poissons Ratio (x) = 0.07243 0.09544
# Poissons Ratio (y) = 0.23544 0.38029
# Poissons Ratio (z) = 0.09766 0.11970
#
# Static dielectric constant tensor:
#      x y z
#    x 1.870330 -0.082280 0.091270 
#    y -0.082280 1.893980 -0.069220 
#    z 0.091270 -0.069220 1.885800 
# 
# From -- ./inp_files/419436.got.cif
#   From: 2010.05.17/outbox.cif.g08.bks.cpg/sg2_210_cif.got.tgz:419436.got - 2010.06.03 11:33:40.
