data_PCOD9090182
_publ_section_title
;
Structure prediction by ZEFSAII (Michael W. Deem and Ramdas Pophale) SiO2 
 PCOD9090182
Probable space group: P -1
;
_chemical_formula_sum "Si O2"
_cell_formula_units_Z 15
_cell_length_a 15.998053
_cell_length_b 16.561433
_cell_length_c 7.312374
_cell_angle_alpha 120.474395
_cell_angle_beta 107.626297
_cell_angle_gamma 23.899777
_cell_volume 600.424900
_symmetry_space_group_name_H-M "P -1"
_symmetry_group_IT_number 2
_symmetry_cell_setting 'triclinic'
loop_
_space_group_symop_operation_xyz
x,y,z
-x,-y,-z
loop_
_atom_site_type_symbol
_atom_site_label
_atom_site_fract_x
_atom_site_fract_y
_atom_site_fract_z
Si Si1 0.301270 0.463322 0.980982
Si Si2 0.779591 0.051862 0.806569
Si Si3 0.155542 0.163731 0.899056
Si Si4 0.500000 0.000000 0.500000
Si Si5 0.839676 0.236033 0.505364
Si Si6 0.652216 0.225786 0.336307
Si Si7 0.574595 0.822592 0.986666
Si Si8 0.945837 0.686780 0.417360
O O1 0.527986 0.273900 0.809042
O O2 0.400370 0.299301 0.020334
O O3 0.183813 0.668841 0.233051
O O4 0.100464 0.600749 0.911769
O O5 0.914778 0.819450 0.640293
O O6 0.730085 0.141673 0.077581
O O7 0.928422 0.974678 0.695659
O O8 0.285173 0.935514 0.722687
O O9 0.099879 0.248090 0.753560
O O10 0.329265 0.060873 0.996786
O O11 0.403004 0.121862 0.779876
O O12 0.256178 0.182411 0.502013
O O13 0.784762 0.183712 0.458981
O O14 0.621451 0.481450 0.511895
O O15 0.789560 0.609962 0.743471
#
# Coordination Sequence:
#
# PCOD9090182 Si02
#       8
#     2   2   2   1   2   2   2   2
#     4  10  21  39  62  89 130 166 209 258 312 363
#     4  11  18  41  60  87 127 170 203 258 311 362
#     4  11  21  43  64  92 128 167 207 255 312 374
#     4  12  24  46  70  96 124 160 202 268 316 380
#     4  10  19  38  64  89 129 172 212 260 301 366
#     4  10  21  36  64  95 124 171 220 252 306 362
#     4  11  22  46  66  92 124 166 206 253 322 375
#     4  11  24  42  69  91 129 163 206 257 320 373
#
# _framework density 24.982309000000001
#
# number of rings (size 3 to 8) (size 9 to 14) (size 15 to 20)
#    0.000    1.333    6.667    0.800    0.000    1.067 
#    7.200    4.000    0.000    0.000    0.000    0.000 
#    0.000    0.000    0.000    0.000    0.000    0.000 
#
# Total GULP energy -83737.411889 kJ/mol
# GULP energy per Si atom -5582.494126 kJ/mol
# Density = 2.492545 g / cm^3
# Si number density = 24.982309 Si / 1000 Ang^3
#
#
#
# Elastic Constant Matrix: (Units=GPa)
#
#
# Indices 1 2 3 4 5 6 
#
# 1 85.2709 34.2521 14.1509 11.2491 -2.8593 -20.0777
# 2 34.2521 103.1092 24.6604 14.1643 -4.5842 -10.9685
# 3 14.1509 24.6604 88.4223 -1.6125 -5.9059 -10.3434
# 4 11.2491 14.1643 -1.6125 33.5042 -18.5117 -6.8375
# 5 -2.8593 -4.5842 -5.9059 -18.5117 36.9082 6.6290
# 6 -20.0777 -10.9685 -10.3434 -6.8375 6.6290 34.3261
#
#
#
# Elastic Compliance Matrix: (Units=1/GPa)
#
#
# Indices 1 2 3 4 5 6 
#
# 1 0.015507 -0.003807 -0.000784 -0.003494 -0.002478 0.007400
# 2 -0.003807 0.012313 -0.003020 -0.005039 -0.001802 0.000142
# 3 -0.000784 -0.003020 0.012911 0.004630 0.003464 0.002720
# 4 -0.003494 -0.005039 0.004630 0.046427 0.022661 0.002613
# 5 -0.002478 -0.001802 0.003464 0.022661 0.039328 -0.004063
# 6 0.007400 0.000142 0.002720 0.002613 -0.004063 0.035631
#
#
# Mechanical properties :
#
#
# Convention : Reuss Voigt Hill
#
# Bulk Modulus (GPa) = 39.20170 46.99214 43.09692
# Shear Modulus (GPa) = 26.90459 34.53030 30.71745
#
# Velocity S-wave (km/s) = 3.28525 3.72182 3.51032
# Velocity P-wave (km/s) = 5.48783 6.10903 5.80674
#
# Compressibility (1/GPa) = 0.02550910
#
# Stress axis : x y z
#
# Youngs Moduli (GPa) = 64.48790 81.21731 77.45242
#
# Poissons Ratio (x) = 0.30918 0.06069
# Poissons Ratio (y) = 0.24550 0.23393
# Poissons Ratio (z) = 0.05053 0.24530
#
# Static dielectric constant tensor:
#      x y z
#    x 1.921200 -0.003340 -0.002880 
#    y -0.003340 2.045630 0.015930 
#    z -0.002880 0.015930 1.946400 
# 
# From -- ./inp_files/337350.got.cif
#   From: 2010.05.17/outbox.cif.g08.bks.cpg/sg2_169_cif.got.tgz:337350.got - 2010.06.03 11:33:40.
