data_PCOD9090325
_publ_section_title
;
Structure prediction by ZEFSAII (Michael W. Deem and Ramdas Pophale) SiO2 
 PCOD9090325
Probable space group: P -1
;
_chemical_formula_sum "Si O2"
_cell_formula_units_Z 16
_cell_length_a 23.291038
_cell_length_b 10.651634
_cell_length_c 17.268705
_cell_angle_alpha 30.617375
_cell_angle_beta 16.308928
_cell_angle_gamma 37.141471
_cell_volume 600.159300
_symmetry_space_group_name_H-M "P -1"
_symmetry_group_IT_number 2
_symmetry_cell_setting 'triclinic'
loop_
_space_group_symop_operation_xyz
x,y,z
-x,-y,-z
loop_
_atom_site_type_symbol
_atom_site_label
_atom_site_fract_x
_atom_site_fract_y
_atom_site_fract_z
Si Si1 0.776583 0.910395 0.215882
Si Si2 0.895127 0.405702 0.026776
Si Si3 0.702245 0.748632 0.728170
Si Si4 0.545991 0.931475 0.216982
Si Si5 0.178893 0.244683 0.177951
Si Si6 0.907789 0.142205 0.365024
Si Si7 0.549332 0.419423 0.701736
Si Si8 0.655934 0.193382 0.086936
O O1 0.696116 0.686497 0.378026
O O2 0.595300 0.866359 0.538823
O O3 0.989164 0.829016 0.009419
O O4 0.754743 0.150403 0.065663
O O5 0.949885 0.589876 0.933606
O O6 0.648104 0.303243 0.399572
O O7 0.965634 0.594431 0.763396
O O8 0.573275 0.853501 0.773026
O O9 0.891396 0.961608 0.406118
O O10 0.544051 0.671714 0.045813
O O11 0.750012 0.478648 0.787965
O O12 0.703522 0.881826 0.973233
O O13 0.670322 0.010637 0.093312
O O14 0.360192 0.438927 0.881991
O O15 0.099084 0.044823 0.453877
O O16 0.682859 0.222595 0.605118
#
# Coordination Sequence:
#
# PCOD9090325 Si02
#       8
#     2   2   2   2   2   2   2   2
#     4   9  21  43  64  89 118 168 222 253 300 368
#     4  11  25  38  64  98 128 156 204 275 319 351
#     4  10  19  38  65  89 119 168 211 246 298 380
#     4  12  23  39  60 100 134 158 199 256 324 375
#     4  11  20  39  63  98 127 161 205 255 320 373
#     4  10  19  40  65  91 121 165 211 257 305 366
#     4   9  16  36  68  85 117 165 215 252 292 372
#     4  10  22  42  69  86 121 175 216 248 298 381
#
# _framework density 26.659589
#
# number of rings (size 3 to 8) (size 9 to 14) (size 15 to 20)
#    0.000    1.750    2.500    2.625    0.000    2.000 
#    2.250    0.625    0.000    0.000    0.000    0.000 
#    0.000    0.000    0.000    0.000    0.000    0.000 
#
# Total GULP energy -89488.901035 kJ/mol
# GULP energy per Si atom -5593.056315 kJ/mol
# Density = 2.659891 g / cm^3
# Si number density = 26.659589 Si / 1000 Ang^3
#
#
#
# Elastic Constant Matrix: (Units=GPa)
#
#
# Indices 1 2 3 4 5 6 
#
# 1 93.0299 12.2950 14.2202 0.6400 11.6004 -7.8257
# 2 12.2950 79.7669 18.0403 3.5531 15.2558 -1.0748
# 3 14.2202 18.0403 67.4405 1.1997 -5.2268 -2.5611
# 4 0.6400 3.5531 1.1997 38.1809 2.9559 1.9968
# 5 11.6004 15.2558 -5.2268 2.9559 44.0241 -11.2245
# 6 -7.8257 -1.0748 -2.5611 1.9968 -11.2245 48.0092
#
#
#
# Elastic Compliance Matrix: (Units=1/GPa)
#
#
# Indices 1 2 3 4 5 6 
#
# 1 0.011662 -0.000685 -0.002458 0.000110 -0.002859 0.001081
# 2 -0.000685 0.014715 -0.004272 -0.000712 -0.005714 -0.001316
# 3 -0.002458 -0.004272 0.016908 -0.000523 0.004551 0.001491
# 4 0.000110 -0.000712 -0.000523 0.026513 -0.002033 -0.001604
# 5 -0.002859 -0.005714 0.004551 -0.002033 0.027709 0.006212
# 6 0.001081 -0.001316 0.001491 -0.001604 0.006212 0.022575
#
#
# Mechanical properties :
#
#
# Convention : Reuss Voigt Hill
#
# Bulk Modulus (GPa) = 35.14414 36.59426 35.86920
# Shear Modulus (GPa) = 34.62669 39.08827 36.85748
#
# Velocity S-wave (km/s) = 3.60786 3.83325 3.72226
# Velocity P-wave (km/s) = 5.52872 5.77478 5.65309
#
# Compressibility (1/GPa) = 0.02845424
#
# Stress axis : x y z
#
# Youngs Moduli (GPa) = 85.74648 67.95754 59.14494
#
# Poissons Ratio (x) = 0.04656 0.14539
# Poissons Ratio (y) = 0.05875 0.25266
# Poissons Ratio (z) = 0.21079 0.29031
#
# Static dielectric constant tensor:
#      x y z
#    x 2.075650 -0.076900 -0.024140 
#    y -0.076900 2.227660 -0.020220 
#    z -0.024140 -0.020220 2.141140 
# 
# From -- ./inp_files/579220.got.cif
#   From: 2010.05.17/outbox.cif.g08.bks.cpg/sg2_290_cif.got.tgz:579220.got - 2010.06.03 11:33:40.
