data_PCOD9090563
_publ_section_title
;
Structure prediction by ZEFSAII (Michael W. Deem and Ramdas Pophale) SiO2 
 PCOD9090563
Probable space group: P -1
;
_chemical_formula_sum "Si O2"
_cell_formula_units_Z 14
_cell_length_a 15.570672
_cell_length_b 8.771229
_cell_length_c 11.377652
_cell_angle_alpha 125.660953
_cell_angle_beta 129.946517
_cell_angle_gamma 32.923381
_cell_volume 643.856108
_symmetry_space_group_name_H-M "P -1"
_symmetry_group_IT_number 2
_symmetry_cell_setting 'triclinic'
loop_
_space_group_symop_operation_xyz
x,y,z
-x,-y,-z
loop_
_atom_site_type_symbol
_atom_site_label
_atom_site_fract_x
_atom_site_fract_y
_atom_site_fract_z
Si Si1 0.322714 0.831919 0.512226
Si Si2 0.752112 0.474862 0.217164
Si Si3 0.924267 0.692105 0.669926
Si Si4 0.513839 0.063480 0.170185
Si Si5 0.814948 0.393248 0.740160
Si Si6 0.111585 0.678475 0.483292
Si Si7 0.903159 0.975740 0.991488
O O1 0.500000 0.500000 0.500000
O O2 0.363122 0.910532 0.695033
O O3 0.195494 0.817691 0.385293
O O4 0.242193 0.069011 0.449400
O O5 0.774670 0.408851 0.345009
O O6 0.915363 0.391877 0.277008
O O7 0.591328 0.801275 0.198079
O O8 0.753112 0.284949 0.054338
O O9 0.972464 0.413250 0.593284
O O10 0.876080 0.835111 0.819344
O O11 0.336334 0.349463 0.195296
O O12 0.500000 0.000000 0.000000
O O13 0.801999 0.483744 0.637371
O O14 0.982188 0.221684 0.884741
O O15 0.000000 0.000000 0.500000
O O16 0.000000 0.000000 0.000000
#
# Coordination Sequence:
#
# PCOD9090563 Si02
#       7
#     2   2   2   2   2   2   2
#     4  10  21  39  64  92 122 168 216 256 318 389
#     4  11  22  40  67  94 125 170 217 266 311 388
#     4  11  22  40  68  94 125 172 221 255 330 373
#     4  11  24  40  66  96 124 164 219 265 320 379
#     4  11  23  43  60  97 132 168 210 263 330 367
#     4  12  24  40  63  94 136 166 215 271 310 390
#     4  10  19  38  67  90 125 162 215 275 300 381
#
# _framework density 21.743988999999999
#
# number of rings (size 3 to 8) (size 9 to 14) (size 15 to 20)
#    0.000    1.143    5.714    2.143    4.000    1.143 
#    0.000    0.000    0.000    1.714    0.000    0.000 
#    0.000    0.000    0.000    0.000    0.000    0.000 
#
# Total GULP energy -78084.888575 kJ/mol
# GULP energy per Si atom -5577.492041 kJ/mol
# Density = 2.169450 g / cm^3
# Si number density = 21.743989 Si / 1000 Ang^3
#
#
#
# Elastic Constant Matrix: (Units=GPa)
#
#
# Indices 1 2 3 4 5 6 
#
# 1 30.0289 13.6844 23.6677 6.2022 -18.3658 9.4332
# 2 13.6844 110.4481 31.8901 14.0677 6.7044 19.8230
# 3 23.6677 31.8901 183.2545 17.9129 -20.5738 12.9096
# 4 6.2022 14.0677 17.9129 37.7560 3.5899 -6.0402
# 5 -18.3658 6.7044 -20.5738 3.5899 31.9131 -0.6488
# 6 9.4332 19.8230 12.9096 -6.0402 -0.6488 25.1815
#
#
#
# Elastic Compliance Matrix: (Units=1/GPa)
#
#
# Indices 1 2 3 4 5 6 
#
# 1 0.077723 -0.004762 0.000151 -0.020233 0.047512 -0.029073
# 2 -0.004762 0.012383 -0.001200 -0.004063 -0.005831 -0.008473
# 3 0.000151 -0.001200 0.006837 -0.003852 0.005110 -0.003409
# 4 -0.020233 -0.004063 -0.003852 0.038217 -0.017136 0.021478
# 5 0.047512 -0.005831 0.005110 -0.017136 0.064754 -0.018270
# 6 -0.029073 -0.008473 -0.003409 0.021478 -0.018270 0.063702
#
#
# Mechanical properties :
#
#
# Convention : Reuss Voigt Hill
#
# Bulk Modulus (GPa) = 11.72081 51.35734 31.53908
# Shear Modulus (GPa) = 16.46480 35.93607 26.20043
#
# Velocity S-wave (km/s) = 2.75473 4.06974 3.47501
# Velocity P-wave (km/s) = 3.93956 6.76418 5.53508
#
# Compressibility (1/GPa) = 0.08531831
#
# Stress axis : x y z
#
# Youngs Moduli (GPa) = 12.86623 80.75633 146.26765
#
# Poissons Ratio (x) = 0.38458 -0.02202
# Poissons Ratio (y) = 0.06127 0.17558
# Poissons Ratio (z) = -0.00194 0.09694
#
# Static dielectric constant tensor:
#      x y z
#    x 1.864820 -0.009150 -0.002250 
#    y -0.009150 1.782780 0.015530 
#    z -0.002250 0.015530 1.798850 
# 
# From -- ./inp_files/206297.got.cif
#   From: 2010.05.17/outbox.cif.g08.bks.cpg/sg2_104_cif.got.tgz:206297.got - 2010.06.03 11:33:40.
