data_PCOD9090766
_publ_section_title
;
Structure prediction by ZEFSAII (Michael W. Deem and Ramdas Pophale) SiO2 
 PCOD9090766
Probable space group: P -1
;
_chemical_formula_sum "Si O2"
_cell_formula_units_Z 16
_cell_length_a 7.206648
_cell_length_b 18.196294
_cell_length_c 10.271029
_cell_angle_alpha 136.689172
_cell_angle_beta 139.349889
_cell_angle_gamma 54.606134
_cell_volume 600.755317
_symmetry_space_group_name_H-M "P -1"
_symmetry_group_IT_number 2
_symmetry_cell_setting 'triclinic'
loop_
_space_group_symop_operation_xyz
x,y,z
-x,-y,-z
loop_
_atom_site_type_symbol
_atom_site_label
_atom_site_fract_x
_atom_site_fract_y
_atom_site_fract_z
Si Si1 0.113063 0.671795 0.323840
Si Si2 0.958398 0.470404 0.122226
Si Si3 0.634609 0.401316 0.074519
Si Si4 0.519722 0.819080 0.787370
Si Si5 0.693453 0.777503 0.445433
Si Si6 0.078870 0.011480 0.707301
Si Si7 0.717367 0.242417 0.139152
Si Si8 0.270243 0.991961 0.234370
O O1 0.887163 0.752972 0.384698
O O2 0.975429 0.630678 0.065151
O O3 0.411861 0.723052 0.518514
O O4 0.142067 0.568285 0.302281
O O5 0.919643 0.444997 0.220218
O O6 0.634736 0.513260 0.963851
O O7 0.545444 0.305934 0.806791
O O8 0.653300 0.346102 0.152340
O O9 0.419396 0.771473 0.810520
O O10 0.325118 0.920787 0.760268
O O11 0.813822 0.871796 0.043605
O O12 0.940431 0.758809 0.660310
O O13 0.577234 0.898578 0.569986
O O14 0.835098 0.990631 0.653113
O O15 0.000000 0.000000 0.500000
O O16 0.626767 0.131531 0.882648
O O17 0.000000 0.000000 0.000000
#
# Coordination Sequence:
#
# PCOD9090766 Si02
#       8
#     2   2   2   2   2   2   2   2
#     4   9  17  38  64  82 117 163 191 251 318 348
#     4   9  20  37  61  90 117 152 208 263 301 358
#     4  10  21  38  59  87 116 153 203 251 305 356
#     4  10  22  40  60  86 123 162 200 250 305 360
#     4   9  19  37  58  80 122 154 189 248 295 359
#     4  11  23  38  60  90 125 163 202 247 297 369
#     4  10  21  38  60  84 118 165 199 241 306 367
#     4  10  19  39  58  87 127 161 196 250 301 362
#
# _framework density 26.633139
#
# number of rings (size 3 to 8) (size 9 to 14) (size 15 to 20)
#    0.000    2.250    3.750    0.000    1.750    3.500 
#    0.000   13.750    0.000    1.500    0.000    0.000 
#    0.000    0.000    0.000    0.000    0.000    0.000 
#
# Total GULP energy -89377.341676 kJ/mol
# GULP energy per Si atom -5586.083855 kJ/mol
# Density = 2.657252 g / cm^3
# Si number density = 26.633139 Si / 1000 Ang^3
#
#
#
# Elastic Constant Matrix: (Units=GPa)
#
#
# Indices 1 2 3 4 5 6 
#
# 1 58.7637 19.8254 7.8033 1.6985 -3.5662 18.4483
# 2 19.8254 115.4192 26.5325 -12.8372 -4.2933 14.1961
# 3 7.8033 26.5325 96.4366 15.4958 0.7474 -2.5644
# 4 1.6985 -12.8372 15.4958 51.5212 12.7522 1.8922
# 5 -3.5662 -4.2933 0.7474 12.7522 45.7312 6.1116
# 6 18.4483 14.1961 -2.5644 1.8922 6.1116 34.6105
#
#
#
# Elastic Compliance Matrix: (Units=1/GPa)
#
#
# Indices 1 2 3 4 5 6 
#
# 1 0.021685 -0.002038 -0.001322 -0.001246 0.003386 -0.011351
# 2 -0.002038 0.010737 -0.003514 0.003855 0.000346 -0.003850
# 3 -0.001322 -0.003514 0.012285 -0.004707 0.000242 0.003271
# 4 -0.001246 0.003855 -0.004707 0.023360 -0.005973 -0.001488
# 5 0.003386 0.000346 0.000242 -0.005973 0.024620 -0.005950
# 6 -0.011351 -0.003850 0.003271 -0.001488 -0.005950 0.037897
#
#
# Mechanical properties :
#
#
# Convention : Reuss Voigt Hill
#
# Bulk Modulus (GPa) = 32.29927 42.10468 37.20198
# Shear Modulus (GPa) = 32.33106 40.80313 36.56709
#
# Velocity S-wave (km/s) = 3.48795 3.91838 3.70941
# Velocity P-wave (km/s) = 5.32680 6.02620 5.68726
#
# Compressibility (1/GPa) = 0.03096045
#
# Stress axis : x y z
#
# Youngs Moduli (GPa) = 46.11438 93.13635 81.40302
#
# Poissons Ratio (x) = 0.18977 0.10761
# Poissons Ratio (y) = 0.09396 0.28602
# Poissons Ratio (z) = 0.06096 0.32725
#
# Static dielectric constant tensor:
#      x y z
#    x 2.222400 -0.073090 0.110450 
#    y -0.073090 2.111730 -0.071880 
#    z 0.110450 -0.071880 2.256240 
# 
# From -- ./inp_files/216042.got.cif
#   From: 2010.05.17/outbox.cif.g08.bks.cpg/sg2_109_cif.got.tgz:216042.got - 2010.06.03 11:33:40.
