data_PCOD9090904
_publ_section_title
;
Structure prediction by ZEFSAII (Michael W. Deem and Ramdas Pophale) SiO2 
 PCOD9090904
Probable space group: P -1
;
_chemical_formula_sum "Si O2"
_cell_formula_units_Z 16
_cell_length_a 15.451954
_cell_length_b 9.044128
_cell_length_c 14.648860
_cell_angle_alpha 137.861803
_cell_angle_beta 139.378958
_cell_angle_gamma 64.662963
_cell_volume 850.500616
_symmetry_space_group_name_H-M "P -1"
_symmetry_group_IT_number 2
_symmetry_cell_setting 'triclinic'
loop_
_space_group_symop_operation_xyz
x,y,z
-x,-y,-z
loop_
_atom_site_type_symbol
_atom_site_label
_atom_site_fract_x
_atom_site_fract_y
_atom_site_fract_z
Si Si1 0.465152 0.728493 0.328550
Si Si2 0.152116 0.598360 0.291566
Si Si3 0.561425 0.430445 0.425352
Si Si4 0.160551 0.110432 0.589602
Si Si5 0.154860 0.546534 0.055932
Si Si6 0.150430 0.071059 0.768048
Si Si7 0.592331 0.051561 0.006943
Si Si8 0.606620 0.563488 0.196692
O O1 0.518636 0.580037 0.379796
O O2 0.296149 0.643971 0.156270
O O3 0.540487 0.682496 0.276516
O O4 0.500000 0.000000 0.500000
O O5 0.272900 0.521326 0.403217
O O6 0.180744 0.628478 0.218993
O O7 0.160527 0.847152 0.454173
O O8 0.990866 0.430968 0.089507
O O9 0.500000 0.500000 0.500000
O O10 0.488701 0.155752 0.221352
O O11 0.208546 0.172009 0.760785
O O12 0.252889 0.267371 0.657342
O O13 0.000782 0.109581 0.454594
O O14 0.127975 0.271114 0.905113
O O15 0.259390 0.974598 0.860844
O O16 0.500000 0.000000 0.000000
O O17 0.616589 0.315889 0.121696
O O18 0.500000 0.500000 0.000000
#
# Coordination Sequence:
#
# PCOD9090904 Si02
#       8
#     2   2   2   2   2   2   2   2
#     4  12  25  41  62  92 129 163 206 262 312 367
#     4  10  20  36  66  88 117 159 209 254 299 375
#     4  12  23  40  64  95 121 162 216 256 308 367
#     4  10  22  38  63  90 122 159 206 253 315 371
#     4  10  19  39  61  89 119 159 204 249 309 365
#     4  10  20  40  63  89 119 161 205 255 310 375
#     4  12  22  39  64  90 125 163 210 258 305 372
#     4  12  25  39  61  90 127 164 208 259 314 366
#
# _framework density 18.812449999999998
#
# number of rings (size 3 to 8) (size 9 to 14) (size 15 to 20)
#    0.000    1.000    3.750    3.750    1.750    0.500 
#    0.000    0.625    2.750    0.000    0.000    0.000 
#    0.000    0.000    0.000    0.000    0.000    0.000 
#
# Total GULP energy -89278.934140 kJ/mol
# GULP energy per Si atom -5579.933384 kJ/mol
# Density = 1.876963 g / cm^3
# Si number density = 18.812450 Si / 1000 Ang^3
#
#
#
# Elastic Constant Matrix: (Units=GPa)
#
#
# Indices 1 2 3 4 5 6 
#
# 1 129.2276 34.7165 46.0770 -3.5955 0.7602 -5.3674
# 2 34.7165 79.9271 39.3853 -12.2163 15.9787 -20.3466
# 3 46.0770 39.3853 88.3431 -5.1488 2.8243 -11.2061
# 4 -3.5955 -12.2163 -5.1488 31.5160 -9.4225 5.2074
# 5 0.7602 15.9787 2.8243 -9.4225 50.8088 1.7264
# 6 -5.3674 -20.3466 -11.2061 5.2074 1.7264 29.1546
#
#
#
# Elastic Compliance Matrix: (Units=1/GPa)
#
#
# Indices 1 2 3 4 5 6 
#
# 1 0.009924 -0.002984 -0.004123 -0.000065 0.001071 -0.001893
# 2 -0.002984 0.021637 -0.006186 0.003195 -0.006230 0.011971
# 3 -0.004123 -0.006186 0.016337 -0.000078 0.001045 0.001155
# 4 -0.000065 0.003195 -0.000078 0.035397 0.005717 -0.004473
# 5 0.001071 -0.006230 0.001045 0.005717 0.022835 -0.006122
# 6 -0.001893 0.011971 0.001155 -0.004473 -0.006122 0.043912
#
#
# Mechanical properties :
#
#
# Convention : Reuss Voigt Hill
#
# Bulk Modulus (GPa) = 46.92628 59.76169 53.34398
# Shear Modulus (GPa) = 27.21368 34.11715 30.66541
#
# Velocity S-wave (km/s) = 3.80752 4.26319 4.04178
# Velocity P-wave (km/s) = 6.65793 7.48793 7.08509
#
# Compressibility (1/GPa) = 0.02131002
#
# Stress axis : x y z
#
# Youngs Moduli (GPa) = 100.77052 46.21656 61.21259
#
# Poissons Ratio (x) = 0.13793 0.25241
# Poissons Ratio (y) = 0.30074 0.37865
# Poissons Ratio (z) = 0.41552 0.28589
#
# Static dielectric constant tensor:
#      x y z
#    x 1.687920 0.028060 0.061700 
#    y 0.028060 1.665540 0.032440 
#    z 0.061700 0.032440 1.757390 
# 
# From -- ./inp_files/312376.got.cif
#   From: 2010.05.17/outbox.cif.g08.bks.cpg/sg2_157_cif.got.tgz:312376.got - 2010.06.03 11:33:40.
