data_PCOD9090980
_publ_section_title
;
Structure prediction by ZEFSAII (Michael W. Deem and Ramdas Pophale) SiO2 
 PCOD9090980
Probable space group: P -1
;
_chemical_formula_sum "Si O2"
_cell_formula_units_Z 16
_cell_length_a 15.165741
_cell_length_b 16.157358
_cell_length_c 8.632288
_cell_angle_alpha 138.367425
_cell_angle_beta 69.689662
_cell_angle_gamma 143.989825
_cell_volume 621.243636
_symmetry_space_group_name_H-M "P -1"
_symmetry_group_IT_number 2
_symmetry_cell_setting 'triclinic'
loop_
_space_group_symop_operation_xyz
x,y,z
-x,-y,-z
loop_
_atom_site_type_symbol
_atom_site_label
_atom_site_fract_x
_atom_site_fract_y
_atom_site_fract_z
Si Si1 0.159929 0.930275 0.900722
Si Si2 0.354531 0.010436 0.460164
Si Si3 0.438592 0.868794 0.016070
Si Si4 0.772960 0.916238 0.578342
Si Si5 0.847505 0.307171 0.566631
Si Si6 0.227518 0.407093 0.327966
Si Si7 0.803651 0.535139 0.915858
Si Si8 0.551400 0.588382 0.771486
O O1 0.039837 0.662847 0.564422
O O2 0.008368 0.867383 0.887504
O O3 0.231912 0.019889 0.159505
O O4 0.319791 0.139098 0.958736
O O5 0.583118 0.276970 0.762979
O O6 0.319867 0.097945 0.509843
O O7 0.187613 0.790592 0.381423
O O8 0.336958 0.864834 0.162231
O O9 0.326502 0.608268 0.681738
O O10 0.500000 0.000000 0.000000
O O11 0.636598 0.068787 0.271077
O O12 0.635065 0.635522 0.311202
O O13 0.002734 0.155361 0.730438
O O14 0.904037 0.515934 0.840471
O O15 0.250390 0.502134 0.282080
O O16 0.317931 0.377294 0.211336
O O17 0.500000 0.500000 0.500000
#
# Coordination Sequence:
#
# PCOD9090980 Si02
#       8
#     2   2   2   2   2   2   2   2
#     4  10  23  37  61  92 120 158 206 252 294 361
#     4  11  22  39  58  88 130 165 194 245 302 362
#     4  11  18  34  60  86 119 158 197 241 301 352
#     4  10  21  37  66  84 116 159 204 249 300 348
#     4  11  23  39  55  90 132 163 195 241 304 364
#     4  11  20  35  63  95 116 154 204 258 300 352
#     4  10  21  36  61  94 118 156 204 241 304 363
#     4  10  19  39  62  89 117 152 204 260 307 340
#
# _framework density 25.754792999999999
#
# number of rings (size 3 to 8) (size 9 to 14) (size 15 to 20)
#    0.000    1.500    3.750    4.125    1.750    1.500 
#    2.250    0.625    0.000    0.750    0.000    0.000 
#    0.000    0.000    0.000    0.000    0.000    0.000 
#
# Total GULP energy -89394.958164 kJ/mol
# GULP energy per Si atom -5587.184885 kJ/mol
# Density = 2.569617 g / cm^3
# Si number density = 25.754793 Si / 1000 Ang^3
#
#
#
# Elastic Constant Matrix: (Units=GPa)
#
#
# Indices 1 2 3 4 5 6 
#
# 1 81.6860 19.4200 15.5742 2.5151 -0.0163 -17.1898
# 2 19.4200 71.6334 2.1827 16.2480 1.3358 -18.4424
# 3 15.5742 2.1827 53.2695 12.0096 -2.5387 -2.7262
# 4 2.5151 16.2480 12.0096 33.3296 4.0260 -5.1664
# 5 -0.0163 1.3358 -2.5387 4.0260 35.3946 4.0937
# 6 -17.1898 -18.4424 -2.7262 -5.1664 4.0937 36.1988
#
#
#
# Elastic Compliance Matrix: (Units=1/GPa)
#
#
# Indices 1 2 3 4 5 6 
#
# 1 0.015003 -0.003129 -0.004730 0.003140 -0.001238 0.005763
# 2 -0.003129 0.018455 0.002416 -0.008515 -0.000357 0.006924
# 3 -0.004730 0.002416 0.022232 -0.009305 0.002672 -0.000971
# 4 0.003140 -0.008515 -0.009305 0.038256 -0.004982 0.002476
# 5 -0.001238 -0.000357 0.002672 -0.004982 0.029559 -0.004622
# 6 0.005763 0.006924 -0.000971 0.002476 -0.004622 0.034692
#
#
# Mechanical properties :
#
#
# Convention : Reuss Voigt Hill
#
# Bulk Modulus (GPa) = 22.31999 31.21584 26.76791
# Shear Modulus (GPa) = 27.17114 32.27875 29.72495
#
# Velocity S-wave (km/s) = 3.25159 3.54405 3.40097
# Velocity P-wave (km/s) = 4.77308 5.37530 5.08311
#
# Compressibility (1/GPa) = 0.04480289
#
# Stress axis : x y z
#
# Youngs Moduli (GPa) = 66.65117 54.18549 44.98047
#
# Poissons Ratio (x) = 0.16955 0.21278
# Poissons Ratio (y) = 0.20855 -0.10865
# Poissons Ratio (z) = 0.31529 -0.13089
#
# Static dielectric constant tensor:
#      x y z
#    x 2.006220 0.031090 -0.017310 
#    y 0.031090 2.058870 0.099770 
#    z -0.017310 0.099770 2.160810 
# 
# From -- ./inp_files/254446.got.cif
#   From: 2010.05.17/outbox.cif.g08.bks.cpg/sg2_128_cif.got.tgz:254446.got - 2010.06.03 11:33:40.
