data_PCOD9090961
_publ_section_title
;
Structure prediction by ZEFSAII (Michael W. Deem and Ramdas Pophale) SiO2 
 PCOD9090961
Probable space group: P -1
;
_chemical_formula_sum "Si O2"
_cell_formula_units_Z 16
_cell_length_a 16.464929
_cell_length_b 12.953842
_cell_length_c 13.184705
_cell_angle_alpha 63.635232
_cell_angle_beta 133.155549
_cell_angle_gamma 155.993467
_cell_volume 662.008317
_symmetry_space_group_name_H-M "P -1"
_symmetry_group_IT_number 2
_symmetry_cell_setting 'triclinic'
loop_
_space_group_symop_operation_xyz
x,y,z
-x,-y,-z
loop_
_atom_site_type_symbol
_atom_site_label
_atom_site_fract_x
_atom_site_fract_y
_atom_site_fract_z
Si Si1 0.204968 0.582408 0.141718
Si Si2 0.735022 0.942446 0.751071
Si Si3 0.212077 0.610698 0.910120
Si Si4 0.590377 0.867241 0.971922
Si Si5 0.780851 0.866136 0.292368
Si Si6 0.471266 0.509529 0.586070
Si Si7 0.572119 0.472112 0.156928
Si Si8 0.680648 0.274400 0.595620
O O1 0.391023 0.767996 0.326809
O O2 0.937384 0.226466 0.074795
O O3 0.000000 0.500000 0.000000
O O4 0.346133 0.713592 0.091964
O O5 0.740318 0.856377 0.700379
O O6 0.704846 0.831052 0.871441
O O7 0.420912 0.712979 0.561558
O O8 0.986185 0.284131 0.832820
O O9 0.019816 0.544484 0.773110
O O10 0.444290 0.835117 0.916054
O O11 0.615173 0.797298 0.111465
O O12 0.375407 0.599432 0.821248
O O13 0.572165 0.641049 0.310338
O O14 0.803101 0.762700 0.300267
O O15 0.136439 0.245304 0.434646
O O16 0.500000 0.500000 0.500000
O O17 0.500000 0.500000 0.000000
O O18 0.500000 0.000000 0.500000
#
# Coordination Sequence:
#
# PCOD9090961 Si02
#       8
#     2   2   2   2   2   2   2   2
#     4  10  21  39  63  86 121 158 200 254 305 359
#     4  10  19  39  62  86 126 169 200 256 311 358
#     4  10  22  38  63  93 121 160 216 245 304 375
#     4  11  21  37  62  89 122 160 204 254 306 357
#     4   9  21  38  54  88 125 159 204 256 299 369
#     4  10  21  37  60  87 125 164 206 248 310 367
#     4   9  19  37  59  86 123 162 199 252 309 356
#     4   9  20  38  63  87 121 160 200 252 306 362
#
# _framework density 24.168880999999999
#
# number of rings (size 3 to 8) (size 9 to 14) (size 15 to 20)
#    0.000    2.250    1.250    0.750    1.750    4.000 
#    0.000    2.500    5.500    0.000    0.000    0.000 
#    0.000    0.000    0.000    0.000    0.000    0.000 
#
# Total GULP energy -89106.742213 kJ/mol
# GULP energy per Si atom -5569.171388 kJ/mol
# Density = 2.411387 g / cm^3
# Si number density = 24.168881 Si / 1000 Ang^3
#
#
#
# Elastic Constant Matrix: (Units=GPa)
#
#
# Indices 1 2 3 4 5 6 
#
# 1 101.2595 34.4737 32.1026 -2.2454 -39.7266 -3.0331
# 2 34.4737 103.7759 28.5536 2.0366 -23.6559 -18.0398
# 3 32.1026 28.5536 78.8362 -9.9442 -24.1425 -1.3737
# 4 -2.2454 2.0366 -9.9442 37.1249 -5.4178 -12.4771
# 5 -39.7266 -23.6559 -24.1425 -5.4178 48.5933 0.1322
# 6 -3.0331 -18.0398 -1.3737 -12.4771 0.1322 35.3113
#
#
#
# Elastic Compliance Matrix: (Units=1/GPa)
#
#
# Indices 1 2 3 4 5 6 
#
# 1 0.015609 -0.001984 -0.001886 0.002547 0.011139 0.001112
# 2 -0.001984 0.012954 -0.002510 0.001301 0.003564 0.006796
# 3 -0.001886 -0.002510 0.017096 0.005975 0.006393 0.001308
# 4 0.002547 0.001301 0.005975 0.034460 0.009491 0.013257
# 5 0.011139 0.003564 0.006393 0.009491 0.035638 0.006246
# 6 0.001112 0.006796 0.001308 0.013257 0.006246 0.036599
#
#
# Mechanical properties :
#
#
# Convention : Reuss Voigt Hill
#
# Bulk Modulus (GPa) = 30.39548 52.68125 41.53837
# Shear Modulus (GPa) = 28.39614 36.78869 32.59241
#
# Velocity S-wave (km/s) = 3.43141 3.90571 3.67621
# Velocity P-wave (km/s) = 5.32006 6.49491 5.93662
#
# Compressibility (1/GPa) = 0.03289963
#
# Stress axis : x y z
#
# Youngs Moduli (GPa) = 64.06680 77.19568 58.49423
#
# Poissons Ratio (x) = 0.15314 0.11030
# Poissons Ratio (y) = 0.12709 0.14682
# Poissons Ratio (z) = 0.12081 0.19376
#
# Static dielectric constant tensor:
#      x y z
#    x 2.031670 -0.002690 -0.037250 
#    y -0.002690 2.023040 0.018690 
#    z -0.037250 0.018690 1.984110 
# 
# From -- ./inp_files/466082.got.cif
#   From: 2010.05.17/outbox.cif.g08.bks.cpg/sg2_234_cif.got.tgz:466082.got - 2010.06.03 11:33:40.
