data_PCOD9090648
_publ_section_title
;
Structure prediction by ZEFSAII (Michael W. Deem and Ramdas Pophale) SiO2 
 PCOD9090648
Probable space group: P -1
;
_chemical_formula_sum "Si O2"
_cell_formula_units_Z 14
_cell_length_a 8.882064
_cell_length_b 9.617945
_cell_length_c 8.976228
_cell_angle_alpha 56.646082
_cell_angle_beta 82.869380
_cell_angle_gamma 92.040893
_cell_volume 630.548691
_symmetry_space_group_name_H-M "P -1"
_symmetry_group_IT_number 2
_symmetry_cell_setting 'triclinic'
loop_
_space_group_symop_operation_xyz
x,y,z
-x,-y,-z
loop_
_atom_site_type_symbol
_atom_site_label
_atom_site_fract_x
_atom_site_fract_y
_atom_site_fract_z
Si Si1 0.659072 0.514929 0.190466
Si Si2 0.560334 0.154979 0.298430
Si Si3 0.109413 0.882060 0.188199
Si Si4 0.101575 0.370098 0.139070
Si Si5 0.074301 0.599585 0.572504
Si Si6 0.405169 0.133775 0.012339
Si Si7 0.111390 0.886925 0.854884
O O1 0.566350 0.333445 0.276980
O O2 0.797851 0.485122 0.302404
O O3 0.734277 0.575278 0.985035
O O4 0.578571 0.673875 0.161037
O O5 0.458687 0.146574 0.168287
O O6 0.731069 0.131248 0.234611
O O7 0.500000 0.000000 0.500000
O O8 0.151699 0.770754 0.385723
O O9 0.232083 0.047185 0.067399
O O10 0.111478 0.802156 0.069374
O O11 0.940419 0.932232 0.209435
O O12 0.063513 0.372099 0.315552
O O13 0.022187 0.195835 0.186803
O O14 0.000000 0.500000 0.000000
O O15 0.000000 0.500000 0.500000
O O16 0.500000 0.000000 0.000000
#
# Coordination Sequence:
#
# PCOD9090648 Si02
#       7
#     2   2   2   2   2   2   2
#     4  11  24  48  69 100 145 188 236 291 354 428
#     4  12  26  46  72 106 143 189 236 289 349 431
#     4  11  24  42  69 106 136 182 239 296 344 425
#     4  10  19  38  68  99 133 177 223 289 349 408
#     4  11  24  37  67 108 140 169 236 299 351 408
#     4  12  26  45  72 101 142 191 236 284 367 420
#     4  11  22  42  73  97 144 182 234 289 362 405
#
# _framework density 22.202884999999998
#
# number of rings (size 3 to 8) (size 9 to 14) (size 15 to 20)
#    0.000    0.857    5.714    3.000    2.000    1.714 
#    0.000    4.286    0.000    0.000    0.000    0.000 
#    0.000    0.000    0.000    0.000    0.000    0.000 
#
# Total GULP energy -78177.924343 kJ/mol
# GULP energy per Si atom -5584.137453 kJ/mol
# Density = 2.215235 g / cm^3
# Si number density = 22.202885 Si / 1000 Ang^3
#
#
#
# Elastic Constant Matrix: (Units=GPa)
#
#
# Indices 1 2 3 4 5 6 
#
# 1 48.5521 45.1912 24.1431 -7.0168 17.6657 -5.0021
# 2 45.1912 149.8739 61.7774 -1.0635 5.2473 2.1864
# 3 24.1431 61.7774 123.9500 -0.9726 11.5734 -4.0322
# 4 -7.0168 -1.0635 -0.9726 35.6500 3.7869 3.7828
# 5 17.6657 5.2473 11.5734 3.7869 30.0952 3.4673
# 6 -5.0021 2.1864 -4.0322 3.7828 3.4673 51.6981
#
#
#
# Elastic Compliance Matrix: (Units=1/GPa)
#
#
# Indices 1 2 3 4 5 6 
#
# 1 0.043056 -0.012249 0.000335 0.010195 -0.025201 0.005654
# 2 -0.012249 0.011909 -0.004337 -0.002712 0.007390 -0.002324
# 3 0.000335 -0.004337 0.010554 0.000485 -0.003705 0.001252
# 4 0.010195 -0.002712 0.000485 0.031056 -0.009549 -0.000493
# 5 -0.025201 0.007390 -0.003705 -0.009549 0.050015 -0.005695
# 6 0.005654 -0.002324 0.001252 -0.000493 -0.005695 0.020504
#
#
# Mechanical properties :
#
#
# Convention : Reuss Voigt Hill
#
# Bulk Modulus (GPa) = 30.28528 64.95550 47.62039
# Shear Modulus (GPa) = 23.74161 36.23959 29.99060
#
# Velocity S-wave (km/s) = 3.27357 4.04443 3.67925
# Velocity P-wave (km/s) = 5.28755 7.15045 6.28836
#
# Compressibility (1/GPa) = 0.03301934
#
# Stress axis : x y z
#
# Youngs Moduli (GPa) = 23.22566 83.96971 94.74776
#
# Poissons Ratio (x) = 1.02851 -0.03177
# Poissons Ratio (y) = 0.28448 0.41089
# Poissons Ratio (z) = -0.00779 0.36415
#
# Static dielectric constant tensor:
#      x y z
#    x 1.864920 0.034710 -0.002300 
#    y 0.034710 2.442900 -0.019720 
#    z -0.002300 -0.019720 1.831500 
# 
# From -- ./inp_files/156669.got.cif
#   From: 2010.05.17/outbox.cif.g08.bks.cpg/sg2_79_cif.got.tgz:156669.got - 2010.06.03 11:33:40.
