data_PCOD9090800
_publ_section_title
;
Structure prediction by ZEFSAII (Michael W. Deem and Ramdas Pophale) SiO2 
 PCOD9090800
Probable space group: P -1
;
_chemical_formula_sum "Si O2"
_cell_formula_units_Z 16
_cell_length_a 11.465774
_cell_length_b 11.405429
_cell_length_c 23.020493
_cell_angle_alpha 31.465356
_cell_angle_beta 156.743565
_cell_angle_gamma 141.078305
_cell_volume 620.228663
_symmetry_space_group_name_H-M "P -1"
_symmetry_group_IT_number 2
_symmetry_cell_setting 'triclinic'
loop_
_space_group_symop_operation_xyz
x,y,z
-x,-y,-z
loop_
_atom_site_type_symbol
_atom_site_label
_atom_site_fract_x
_atom_site_fract_y
_atom_site_fract_z
Si Si1 0.345255 0.820675 0.079106
Si Si2 0.718614 0.275102 0.524258
Si Si3 0.975496 0.940018 0.356867
Si Si4 0.670136 0.232572 0.295158
Si Si5 0.653273 0.170054 0.665320
Si Si6 0.335072 0.334705 0.822055
Si Si7 0.053111 0.461724 0.155145
Si Si8 0.938364 0.527302 0.715482
O O1 0.443953 0.704336 0.113334
O O2 0.057428 0.692186 0.022749
O O3 0.650334 0.835415 0.249634
O O4 0.287778 0.085391 0.929561
O O5 0.813809 0.155579 0.558591
O O6 0.679422 0.125060 0.627588
O O7 0.405195 0.404415 0.325295
O O8 0.011167 0.412437 0.616760
O O9 0.126769 0.886566 0.510781
O O10 0.936093 0.205994 0.210083
O O11 0.554428 0.468958 0.169475
O O12 0.853436 0.301941 0.293849
O O13 0.430478 0.052747 0.246130
O O14 0.909034 0.312497 0.751113
O O15 0.372776 0.341271 0.472505
O O16 0.978708 0.538385 0.154034
#
# Coordination Sequence:
#
# PCOD9090800 Si02
#       8
#     2   2   2   2   2   2   2   2
#     4  10  24  42  58  84 127 162 193 241 298 355
#     4  10  19  39  59  92 119 142 203 246 297 351
#     4  11  23  35  61  96 117 150 196 251 303 349
#     4  12  21  36  63  89 119 152 199 250 288 349
#     4  10  21  34  58  90 117 155 186 249 294 348
#     4  10  22  42  60  86 122 163 197 237 298 358
#     4  11  22  39  63  90 120 154 195 251 297 350
#     4  10  22  37  55  92 122 152 197 237 302 348
#
# _framework density 25.796937
#
# number of rings (size 3 to 8) (size 9 to 14) (size 15 to 20)
#    0.000    1.500    3.750    2.250    5.250    2.000 
#    2.250    2.500    0.000    1.500    0.000    0.000 
#    0.000    0.000    0.000    0.000    0.000    0.000 
#
# Total GULP energy -89427.275240 kJ/mol
# GULP energy per Si atom -5589.204702 kJ/mol
# Density = 2.573822 g / cm^3
# Si number density = 25.796937 Si / 1000 Ang^3
#
#
#
# Elastic Constant Matrix: (Units=GPa)
#
#
# Indices 1 2 3 4 5 6 
#
# 1 114.7994 20.8623 13.6812 -21.0175 -11.6024 11.8877
# 2 20.8623 105.8170 5.7081 -38.1716 -5.1754 24.0720
# 3 13.6812 5.7081 68.7888 -9.2552 -11.5685 -0.1231
# 4 -21.0175 -38.1716 -9.2552 6.1910 32.5747 -3.3628
# 5 -11.6024 -5.1754 -11.5685 32.5747 4.9370 -12.9885
# 6 11.8877 24.0720 -0.1231 -3.3628 -12.9885 43.9986
#
#
#
# Elastic Compliance Matrix: (Units=1/GPa)
#
#
# Indices 1 2 3 4 5 6 
#
# 1 0.009887 -0.000753 -0.000815 0.002113 0.004793 -0.000685
# 2 -0.000753 0.010276 0.001176 -0.000802 0.011838 -0.001982
# 3 -0.000815 0.001176 0.016103 0.005478 0.004529 0.001377
# 4 0.002113 -0.000802 0.005478 0.001436 0.033423 0.009860
# 5 0.004793 0.011838 0.004529 0.033423 0.011719 -0.001745
# 6 -0.000685 -0.001982 0.001377 0.009860 -0.001745 0.024240
#
#
# Mechanical properties :
#
#
# Convention : Reuss Voigt Hill
#
# Bulk Modulus (GPa) = 28.18249 41.10092 34.64170
# Shear Modulus (GPa) = 57.95728 27.63558 42.79643
#
# Velocity S-wave (km/s) = 4.74505 3.27658 4.07747
# Velocity P-wave (km/s) = 6.40071 5.50288 5.96870
#
# Compressibility (1/GPa) = 0.03548303
#
# Stress axis : x y z
#
# Youngs Moduli (GPa) = 101.14322 97.31687 62.10077
#
# Poissons Ratio (x) = 0.07326 0.05060
# Poissons Ratio (y) = 0.07614 -0.07305
# Poissons Ratio (z) = 0.08241 -0.11448
#
# Static dielectric constant tensor:
#      x y z
#    x 1.952530 0.022330 0.012490 
#    y 0.022330 2.110280 0.035660 
#    z 0.012490 0.035660 2.243350 
# 
# From -- ./inp_files/610257.got.cif
#   From: 2010.05.17/outbox.cif.g08.bks.cpg/sg2_306_cif.got.tgz:610257.got - 2010.06.03 11:33:40.
