data_PCOD9090771
_publ_section_title
;
Structure prediction by ZEFSAII (Michael W. Deem and Ramdas Pophale) SiO2 
 PCOD9090771
Probable space group: P -1
;
_chemical_formula_sum "Si O2"
_cell_formula_units_Z 16
_cell_length_a 8.683269
_cell_length_b 17.988231
_cell_length_c 11.134103
_cell_angle_alpha 73.377461
_cell_angle_beta 132.643355
_cell_angle_gamma 142.556047
_cell_volume 642.802538
_symmetry_space_group_name_H-M "P -1"
_symmetry_group_IT_number 2
_symmetry_cell_setting 'triclinic'
loop_
_space_group_symop_operation_xyz
x,y,z
-x,-y,-z
loop_
_atom_site_type_symbol
_atom_site_label
_atom_site_fract_x
_atom_site_fract_y
_atom_site_fract_z
Si Si1 0.286139 0.602606 0.796220
Si Si2 0.492112 0.910362 0.498038
Si Si3 0.213524 0.115626 0.953684
Si Si4 0.954801 0.308373 0.093430
Si Si5 0.598410 0.915517 0.285885
Si Si6 0.104584 0.638144 0.440793
Si Si7 0.865143 0.794024 0.655707
Si Si8 0.438977 0.562533 0.366202
O O1 0.140125 0.608491 0.602285
O O2 0.254965 0.507350 0.764920
O O3 0.937980 0.507276 0.752486
O O4 0.674335 0.765057 0.984133
O O5 0.431168 0.891159 0.333355
O O6 0.157982 0.745587 0.443663
O O7 0.500000 0.000000 0.500000
O O8 0.914186 0.016021 0.728791
O O9 0.635030 0.217821 0.076249
O O10 0.000000 0.000000 0.000000
O O11 0.123639 0.275120 0.216469
O O12 0.291284 0.480517 0.201053
O O13 0.705574 0.234088 0.875389
O O14 0.000000 0.000000 0.500000
O O15 0.737618 0.030340 0.222790
O O16 0.503351 0.735190 0.534296
O O17 0.791722 0.731280 0.514391
O O18 0.500000 0.500000 0.500000
#
# Coordination Sequence:
#
# PCOD9090771 Si02
#       8
#     2   2   2   2   2   2   2   2
#     4   9  19  33  65  87 120 155 200 258 305 349
#     4  12  27  41  59  87 128 168 203 252 317 367
#     4  11  21  38  61  92 123 158 208 255 301 365
#     4  10  21  38  64  92 119 157 208 250 302 366
#     4  12  23  40  57  86 127 161 200 249 301 366
#     4  10  19  39  58  92 121 158 201 253 309 361
#     4  10  20  36  64  90 120 156 204 254 299 359
#     4   8  17  34  57  94 119 145 197 253 299 354
#
# _framework density 24.891005
#
# number of rings (size 3 to 8) (size 9 to 14) (size 15 to 20)
#    0.000    1.750    3.750    0.375    1.750    2.000 
#    0.000    2.500    0.000    0.000    0.000    0.000 
#    0.000    0.000    0.000    0.000    0.000    0.000 
#
# Total GULP energy -89353.220311 kJ/mol
# GULP energy per Si atom -5584.576269 kJ/mol
# Density = 2.483435 g / cm^3
# Si number density = 24.891005 Si / 1000 Ang^3
#
#
#
# Elastic Constant Matrix: (Units=GPa)
#
#
# Indices 1 2 3 4 5 6 
#
# 1 59.8755 18.8174 42.6932 5.8634 -16.0812 -14.9995
# 2 18.8174 54.5978 17.3908 20.1891 0.9850 -21.0544
# 3 42.6932 17.3908 119.6026 31.9328 -33.3865 -11.7580
# 4 5.8634 20.1891 31.9328 37.7925 -11.0240 -12.2246
# 5 -16.0812 0.9850 -33.3865 -11.0240 43.9553 13.7860
# 6 -14.9995 -21.0544 -11.7580 -12.2246 13.7860 39.1504
#
#
#
# Elastic Compliance Matrix: (Units=1/GPa)
#
#
# Indices 1 2 3 4 5 6 
#
# 1 0.028013 -0.008860 -0.010260 0.011905 0.004012 0.005191
# 2 -0.008860 0.032225 0.000713 -0.015473 -0.011494 0.013366
# 3 -0.010260 0.000713 0.016838 -0.012459 0.007466 -0.005010
# 4 0.011905 -0.015473 -0.012459 0.046633 0.005307 0.005191
# 5 0.004012 -0.011494 0.007466 0.005307 0.035648 -0.013298
# 6 0.005191 0.013366 -0.005010 0.005191 -0.013298 0.039519
#
#
# Mechanical properties :
#
#
# Convention : Reuss Voigt Hill
#
# Bulk Modulus (GPa) = 24.83600 43.54209 34.18904
# Shear Modulus (GPa) = 20.07146 34.52460 27.29803
#
# Velocity S-wave (km/s) = 2.84275 3.72833 3.31524
# Velocity P-wave (km/s) = 4.55791 6.00541 5.33102
#
# Compressibility (1/GPa) = 0.04026414
#
# Stress axis : x y z
#
# Youngs Moduli (GPa) = 35.69724 31.03146 59.39083
#
# Poissons Ratio (x) = 0.27493 0.60933
# Poissons Ratio (y) = 0.31627 -0.04236
# Poissons Ratio (z) = 0.36624 -0.02213
#
# Static dielectric constant tensor:
#      x y z
#    x 2.090560 0.045210 0.054740 
#    y 0.045210 2.104160 0.033080 
#    z 0.054740 0.033080 2.048290 
# 
# From -- ./inp_files/306853.got.cif
#   From: 2010.05.17/outbox.cif.g08.bks.cpg/sg2_154_cif.got.tgz:306853.got - 2010.06.03 11:33:40.
