data_PCOD9090560
_publ_section_title
;
Structure prediction by ZEFSAII (Michael W. Deem and Ramdas Pophale) SiO2 
 PCOD9090560
Probable space group: P -1
;
_chemical_formula_sum "Si O2"
_cell_formula_units_Z 16
_cell_length_a 11.140919
_cell_length_b 10.017515
_cell_length_c 9.657235
_cell_angle_alpha 84.537069
_cell_angle_beta 46.273078
_cell_angle_gamma 68.289023
_cell_volume 702.624799
_symmetry_space_group_name_H-M "P -1"
_symmetry_group_IT_number 2
_symmetry_cell_setting 'triclinic'
loop_
_space_group_symop_operation_xyz
x,y,z
-x,-y,-z
loop_
_atom_site_type_symbol
_atom_site_label
_atom_site_fract_x
_atom_site_fract_y
_atom_site_fract_z
Si Si1 0.163205 0.357313 0.951865
Si Si2 0.313592 0.483577 0.622865
Si Si3 0.434255 0.335265 0.955290
Si Si4 0.244243 0.054754 0.057176
Si Si5 0.079741 0.038843 0.738430
Si Si6 0.437305 0.417067 0.248371
Si Si7 0.639159 0.994183 0.727030
Si Si8 0.814066 0.238782 0.127215
O O1 0.172061 0.201168 0.006627
O O2 0.318061 0.343150 0.716117
O O3 0.241123 0.404366 0.022407
O O4 0.000000 0.500000 0.000000
O O5 0.500000 0.500000 0.500000
O O6 0.288520 0.461245 0.484583
O O7 0.184704 0.641627 0.775227
O O8 0.542333 0.433594 0.822097
O O9 0.551404 0.169063 0.823154
O O10 0.403949 0.348773 0.141816
O O11 0.099537 0.983148 0.170358
O O12 0.262250 0.086869 0.202115
O O13 0.456737 0.967548 0.847880
O O14 0.218138 0.037644 0.508688
O O15 0.177177 0.902775 0.780629
O O16 0.986383 0.186049 0.890811
O O17 0.629902 0.310125 0.176161
#
# Coordination Sequence:
#
# PCOD9090560 Si02
#       8
#     2   2   2   2   2   2   2   2
#     4  11  22  39  66  95 138 171 210 283 338 388
#     4  10  19  38  67  90 122 173 224 265 332 396
#     4  10  20  37  64  98 133 167 222 277 326 400
#     4  10  23  39  65  99 133 172 223 275 332 411
#     4  11  22  39  67  95 132 180 219 278 333 398
#     4  10  20  35  65  98 124 170 226 279 326 397
#     4  10  22  42  67  94 134 181 221 267 346 401
#     4  10  21  36  62  99 133 166 234 275 327 405
#
# _framework density 22.771756
#
# number of rings (size 3 to 8) (size 9 to 14) (size 15 to 20)
#    0.000    1.750    2.500    2.625    5.250    0.000 
#    0.000    4.375   30.250    0.000    0.000    0.000 
#    0.000    0.000    0.000    0.000    0.000    0.000 
#
# Total GULP energy -89247.428864 kJ/mol
# GULP energy per Si atom -5577.964304 kJ/mol
# Density = 2.271993 g / cm^3
# Si number density = 22.771756 Si / 1000 Ang^3
#
#
#
# Elastic Constant Matrix: (Units=GPa)
#
#
# Indices 1 2 3 4 5 6 
#
# 1 92.5978 23.1123 51.1427 1.2778 13.7703 -28.0731
# 2 23.1123 97.7167 53.6383 1.2689 8.9275 -13.3567
# 3 51.1427 53.6383 194.3254 -4.1222 24.7225 -8.7606
# 4 1.2778 1.2689 -4.1222 34.0342 5.0490 4.9998
# 5 13.7703 8.9275 24.7225 5.0490 42.5102 -8.7590
# 6 -28.0731 -13.3567 -8.7606 4.9998 -8.7590 28.9632
#
#
#
# Elastic Compliance Matrix: (Units=1/GPa)
#
#
# Indices 1 2 3 4 5 6 
#
# 1 0.018359 0.000418 -0.004308 -0.003880 0.000541 0.017518
# 2 0.000418 0.012814 -0.003506 -0.001857 0.000620 0.005762
# 3 -0.004308 -0.003506 0.007528 0.002473 -0.003575 -0.005024
# 4 -0.003880 -0.001857 0.002473 0.032438 -0.005967 -0.011273
# 5 0.000541 0.000620 -0.003575 -0.005967 0.027901 0.009197
# 6 0.017518 0.005762 -0.005024 -0.011273 0.009197 0.057371
#
#
# Mechanical properties :
#
#
# Convention : Reuss Voigt Hill
#
# Bulk Modulus (GPa) = 41.82478 71.15851 56.49165
# Shear Modulus (GPa) = 27.90608 38.21795 33.06202
#
# Velocity S-wave (km/s) = 3.50447 4.10116 3.81450
# Velocity P-wave (km/s) = 5.89762 7.33092 6.65298
#
# Compressibility (1/GPa) = 0.02390927
#
# Stress axis : x y z
#
# Youngs Moduli (GPa) = 54.47053 78.03899 132.83137
#
# Poissons Ratio (x) = -0.03263 0.57230
# Poissons Ratio (y) = -0.02278 0.46564
# Poissons Ratio (z) = 0.23469 0.27357
#
# Static dielectric constant tensor:
#      x y z
#    x 2.169390 0.012710 -0.286070 
#    y 0.012710 1.858270 -0.003750 
#    z -0.286070 -0.003750 2.202120 
# 
# From -- ./inp_files/262357.got.cif
#   From: 2010.05.17/outbox.cif.g08.bks.cpg/sg2_132_cif.got.tgz:262357.got - 2010.06.03 11:33:40.
