data_PCOD9090005
_publ_section_title
;
Structure prediction by ZEFSAII (Michael W. Deem and Ramdas Pophale) SiO2 
 PCOD9090005
Probable space group: P -1
;
_chemical_formula_sum "Si O2"
_cell_formula_units_Z 16
_cell_length_a 14.255747
_cell_length_b 14.092165
_cell_length_c 14.645221
_cell_angle_alpha 30.619000
_cell_angle_beta 148.305098
_cell_angle_gamma 148.434619
_cell_volume 703.980781
_symmetry_space_group_name_H-M "P -1"
_symmetry_group_IT_number 2
_symmetry_cell_setting 'triclinic'
loop_
_space_group_symop_operation_xyz
x,y,z
-x,-y,-z
loop_
_atom_site_type_symbol
_atom_site_label
_atom_site_fract_x
_atom_site_fract_y
_atom_site_fract_z
Si Si1 0.932871 0.820746 0.454864
Si Si2 0.720896 0.524056 0.676938
Si Si3 0.817237 0.249329 0.844862
Si Si4 0.733512 0.289716 0.258860
Si Si5 0.476834 0.811087 0.501335
Si Si6 0.349737 0.244231 0.882442
Si Si7 0.674021 0.479185 0.217790
Si Si8 0.181635 0.295301 0.203306
O O1 0.869495 0.738110 0.572423
O O2 0.730072 0.719652 0.310263
O O3 0.087739 0.735910 0.619787
O O4 0.041774 0.067028 0.321244
O O5 0.500000 0.500000 0.500000
O O6 0.744485 0.342376 0.792055
O O7 0.768942 0.540259 0.810281
O O8 0.723275 0.284894 0.645567
O O9 0.051156 0.327498 0.989003
O O10 0.728700 0.001726 0.978432
O O11 0.804680 0.448340 0.272007
O O12 0.591833 0.059655 0.376198
O O13 0.581385 0.327672 0.033344
O O14 0.419086 0.724473 0.626692
O O15 0.626337 0.723687 0.658604
O O16 0.249684 0.328470 0.807624
O O17 0.500000 0.500000 0.000000
#
# Coordination Sequence:
#
# PCOD9090005 Si02
#       8
#     2   2   2   2   2   2   2   2
#     4  10  22  41  62  88 123 161 198 251 301 355
#     4  12  23  40  64  91 122 158 204 252 303 360
#     4  10  21  39  59  88 119 161 200 249 301 354
#     4   9  20  38  61  90 119 164 201 245 302 355
#     4  10  19  38  63  86 127 159 199 253 298 353
#     4   9  20  38  59  85 126 157 198 249 298 352
#     4  10  20  36  62  93 122 161 202 243 303 363
#     4  10  22  41  62  88 123 159 204 245 302 361
#
# _framework density 22.727893999999999
#
# number of rings (size 3 to 8) (size 9 to 14) (size 15 to 20)
#    0.000    2.000    1.250    1.875    0.000    2.500 
#    2.250    3.750    0.000   13.500    0.000    0.000 
#    0.000    0.000    0.000    0.000    0.000    0.000 
#
# Total GULP energy -89401.512180 kJ/mol
# GULP energy per Si atom -5587.594511 kJ/mol
# Density = 2.267616 g / cm^3
# Si number density = 22.727894 Si / 1000 Ang^3
#
#
#
# Elastic Constant Matrix: (Units=GPa)
#
#
# Indices 1 2 3 4 5 6 
#
# 1 102.7187 29.7868 34.3659 28.9779 -2.5809 -2.1115
# 2 29.7868 83.5298 26.8235 3.0372 13.7101 0.5999
# 3 34.3659 26.8235 117.9783 19.1473 -1.4950 1.1387
# 4 28.9779 3.0372 19.1473 41.2997 -3.8445 2.7267
# 5 -2.5809 13.7101 -1.4950 -3.8445 31.5131 1.4234
# 6 -2.1115 0.5999 1.1387 2.7267 1.4234 36.6281
#
#
#
# Elastic Compliance Matrix: (Units=1/GPa)
#
#
# Indices 1 2 3 4 5 6 
#
# 1 0.014149 -0.004517 -0.001666 -0.008746 0.001909 0.001518
# 2 -0.004517 0.015495 -0.002725 0.002675 -0.006898 -0.000361
# 3 -0.001666 -0.002725 0.010117 -0.003203 0.001146 -0.000172
# 4 -0.008746 0.002675 -0.003203 0.032017 0.002005 -0.002910
# 5 0.001909 -0.006898 0.001146 0.002005 0.035249 -0.001332
# 6 0.001518 -0.000361 -0.000172 -0.002910 -0.001332 0.027669
#
#
# Mechanical properties :
#
#
# Convention : Reuss Voigt Hill
#
# Bulk Modulus (GPa) = 45.56752 54.01991 49.79371
# Shear Modulus (GPa) = 31.28392 36.10489 33.69441
#
# Velocity S-wave (km/s) = 3.71409 3.99001 3.85452
# Velocity P-wave (km/s) = 6.20365 6.71168 6.46266
#
# Compressibility (1/GPa) = 0.02194546
#
# Stress axis : x y z
#
# Youngs Moduli (GPa) = 70.67730 64.53614 98.84368
#
# Poissons Ratio (x) = 0.29151 0.16463
# Poissons Ratio (y) = 0.31925 0.26938
# Poissons Ratio (z) = 0.11771 0.17588
#
# Static dielectric constant tensor:
#      x y z
#    x 1.805820 0.008020 -0.012410 
#    y 0.008020 1.878900 -0.028610 
#    z -0.012410 -0.028610 1.839200 
# 
# From -- ./inp_files/216635.got.cif
#   From: 2010.05.17/outbox.cif.g08.bks.cpg/sg2_109_cif.got.tgz:216635.got - 2010.06.03 11:33:40.
