data_PCOD9090076
_publ_section_title
;
Structure prediction by ZEFSAII (Michael W. Deem and Ramdas Pophale) SiO2 
 PCOD9090076
Probable space group: P -1
;
_chemical_formula_sum "Si O2"
_cell_formula_units_Z 14
_cell_length_a 5.165088
_cell_length_b 20.732612
_cell_length_c 11.805011
_cell_angle_alpha 150.878312
_cell_angle_beta 103.295799
_cell_angle_gamma 61.544442
_cell_volume 486.948435
_symmetry_space_group_name_H-M "P -1"
_symmetry_group_IT_number 2
_symmetry_cell_setting 'triclinic'
loop_
_space_group_symop_operation_xyz
x,y,z
-x,-y,-z
loop_
_atom_site_type_symbol
_atom_site_label
_atom_site_fract_x
_atom_site_fract_y
_atom_site_fract_z
Si Si1 0.868078 0.850474 0.778499
Si Si2 0.971436 0.079411 0.331146
Si Si3 0.215034 0.187399 0.784086
Si Si4 0.796834 0.399276 0.737459
Si Si5 0.592151 0.273154 0.163569
Si Si6 0.446992 0.747419 0.267836
Si Si7 0.263520 0.536258 0.701699
O O1 0.015678 0.905227 0.779016
O O2 0.926517 0.692952 0.476392
O O3 0.078075 0.791644 0.823734
O O4 0.500000 0.000000 0.000000
O O5 0.916325 0.252361 0.611400
O O6 0.673271 0.116679 0.437370
O O7 0.293673 0.908264 0.137159
O O8 0.319717 0.265393 0.824386
O O9 0.885460 0.198385 0.746572
O O10 0.500000 0.000000 0.500000
O O11 0.101469 0.311918 0.070558
O O12 0.478262 0.458803 0.718515
O O13 0.671283 0.560227 0.042111
O O14 0.319682 0.388107 0.406120
O O15 0.594523 0.382367 0.233388
#
# Coordination Sequence:
#
# PCOD9090076 Si02
#       7
#     2   2   2   2   2   2   2
#     4   9  20  35  57  90 131 166 222 268 330 390
#     4  10  21  37  64  92 131 170 225 265 335 393
#     4  11  24  43  69  98 136 175 223 274 337 397
#     4   8  20  40  60  92 134 167 220 272 335 388
#     4  10  19  38  63  92 129 175 223 270 336 393
#     4  11  23  44  66 100 132 175 224 277 330 397
#     4   9  20  38  64  94 131 172 221 280 330 397
#
# _framework density 28.750475999999999
#
# number of rings (size 3 to 8) (size 9 to 14) (size 15 to 20)
#    0.857    1.429    0.000    2.143    0.000    4.571 
#    2.571    3.571    0.000   11.143    0.000    0.000 
#    0.000    0.000    0.000    0.000    0.000    0.000 
#
# Total GULP energy -78111.655176 kJ/mol
# GULP energy per Si atom -5579.403941 kJ/mol
# Density = 2.868504 g / cm^3
# Si number density = 28.750476 Si / 1000 Ang^3
#
#
#
# Elastic Constant Matrix: (Units=GPa)
#
#
# Indices 1 2 3 4 5 6 
#
# 1 53.6157 -4.4552 32.7498 -1.4298 -25.5921 7.6643
# 2 -4.4552 36.0829 47.9891 -5.2166 -4.3123 15.4875
# 3 32.7498 47.9891 301.0699 -7.6962 -44.8752 -6.3447
# 4 -1.4298 -5.2166 -7.6962 72.7325 4.4666 -11.0090
# 5 -25.5921 -4.3123 -44.8752 4.4666 45.7690 10.8122
# 6 7.6643 15.4875 -6.3447 -11.0090 10.8122 39.7751
#
#
#
# Elastic Compliance Matrix: (Units=1/GPa)
#
#
# Indices 1 2 3 4 5 6 
#
# 1 0.040760 0.026547 -0.005327 -0.003651 0.026889 -0.027361
# 2 0.026547 0.063776 -0.011060 -0.002970 0.019218 -0.037759
# 3 -0.005327 -0.011060 0.005834 0.000684 0.000115 0.006422
# 4 -0.003651 -0.002970 0.000684 0.014961 -0.004866 0.007433
# 5 0.026889 0.019218 0.000115 -0.004866 0.045511 -0.026364
# 6 -0.027361 -0.037759 0.006422 0.007433 -0.026364 0.055364
#
#
# Mechanical properties :
#
#
# Convention : Reuss Voigt Hill
#
# Bulk Modulus (GPa) = 7.65179 60.37067 34.01123
# Shear Modulus (GPa) = 20.04414 52.62097 36.33256
#
# Velocity S-wave (km/s) = 2.64327 4.28280 3.55874
# Velocity P-wave (km/s) = 3.46166 6.74539 5.36112
#
# Compressibility (1/GPa) = 0.13068837
#
# Stress axis : x y z
#
# Youngs Moduli (GPa) = 24.53398 15.67989 171.40962
#
# Poissons Ratio (x) = -0.41626 0.91315
# Poissons Ratio (y) = -0.65131 1.89587
# Poissons Ratio (z) = 0.13070 0.17343
#
# Static dielectric constant tensor:
#      x y z
#    x 0.105160 -1.252500 0.037330 
#    y -1.252500 1.699950 -0.187120 
#    z 0.037330 -0.187120 2.502600 
# 
# From -- ./inp_files/485766.got.cif
#   From: 2010.05.17/outbox.cif.g08.bks.cpg/sg2_243_cif.got.tgz:485766.got - 2010.06.03 11:33:40.
