data_PCOD9090153
_publ_section_title
;
Structure prediction by ZEFSAII (Michael W. Deem and Ramdas Pophale) SiO2 
 PCOD9090153
Probable space group: P -1
;
_chemical_formula_sum "Si O2"
_cell_formula_units_Z 14
_cell_length_a 8.244618
_cell_length_b 18.692827
_cell_length_c 12.459172
_cell_angle_alpha 154.205844
_cell_angle_beta 61.664842
_cell_angle_gamma 122.098181
_cell_volume 707.773805
_symmetry_space_group_name_H-M "P -1"
_symmetry_group_IT_number 2
_symmetry_cell_setting 'triclinic'
loop_
_space_group_symop_operation_xyz
x,y,z
-x,-y,-z
loop_
_atom_site_type_symbol
_atom_site_label
_atom_site_fract_x
_atom_site_fract_y
_atom_site_fract_z
Si Si1 0.891352 0.080389 0.229121
Si Si2 0.262535 0.567502 0.588545
Si Si3 0.834388 0.421837 0.604633
Si Si4 0.618269 0.194849 0.740410
Si Si5 0.235483 0.514929 0.064988
Si Si6 0.557632 0.747220 0.907925
Si Si7 0.972097 0.722095 0.346977
O O1 0.843752 0.243125 0.410994
O O2 0.021603 0.143491 0.378982
O O3 0.698894 0.936197 0.122677
O O4 0.000000 0.000000 0.000000
O O5 0.274147 0.612332 0.519974
O O6 0.405518 0.707185 0.805277
O O7 0.320136 0.388843 0.333185
O O8 0.047707 0.532522 0.654497
O O9 0.747889 0.509834 0.847643
O O10 0.615387 0.317907 0.805220
O O11 0.842488 0.199537 0.679473
O O12 0.500000 0.000000 0.500000
O O13 0.552427 0.276563 0.976445
O O14 0.033338 0.567549 0.181640
O O15 0.208132 0.357039 0.778704
#
# Coordination Sequence:
#
# PCOD9090153 Si02
#       7
#     2   2   2   2   2   2   2
#     4  11  20  33  57  79 111 139 182 220 268 322
#     4  10  23  34  57  78 114 139 180 224 266 317
#     4  10  19  39  55  80 106 149 175 217 273 318
#     4  10  16  28  50  78 105 133 172 221 262 309
#     4   8  16  29  53  71 101 139 179 206 255 325
#     4  11  21  35  53  87 105 140 182 227 261 316
#     4   8  16  28  48  79  98 138 173 217 254 317
#
# _framework density 19.780331
#
# number of rings (size 3 to 8) (size 9 to 14) (size 15 to 20)
#    0.857    1.429    2.857    0.857    2.000    0.571 
#    0.000    0.714    0.000    2.571    0.000    0.000 
#    0.000    0.000    0.000    0.000    0.000    0.000 
#
# Total GULP energy -77945.620192 kJ/mol
# GULP energy per Si atom -5567.544299 kJ/mol
# Density = 1.973531 g / cm^3
# Si number density = 19.780331 Si / 1000 Ang^3
#
#
#
# Elastic Constant Matrix: (Units=GPa)
#
#
# Indices 1 2 3 4 5 6 
#
# 1 28.9444 23.5703 22.2561 -9.4860 14.7039 -9.6347
# 2 23.5703 115.7936 43.9109 -19.7414 29.0780 -8.4570
# 3 22.2561 43.9109 114.2495 -15.3851 36.3068 -3.1296
# 4 -9.4860 -19.7414 -15.3851 36.9967 -3.7292 7.2971
# 5 14.7039 29.0780 36.3068 -3.7292 24.3757 -8.0931
# 6 -9.6347 -8.4570 -3.1296 7.2971 -8.0931 18.1291
#
#
#
# Elastic Compliance Matrix: (Units=1/GPa)
#
#
# Indices 1 2 3 4 5 6 
#
# 1 0.057075 -0.003160 -0.001542 0.006938 -0.021995 0.015981
# 2 -0.003160 0.013887 0.001810 0.006639 -0.018233 -0.005700
# 3 -0.001542 0.001810 0.020342 0.008560 -0.035441 -0.015730
# 4 0.006938 0.006639 0.008560 0.036889 -0.025121 -0.017801
# 5 -0.021995 -0.018233 -0.035441 -0.025121 0.140420 0.046484
# 6 0.015981 -0.005700 -0.015730 -0.017801 0.046484 0.086194
#
#
# Mechanical properties :
#
#
# Convention : Reuss Voigt Hill
#
# Bulk Modulus (GPa) = 11.69317 48.71802 30.20559
# Shear Modulus (GPa) = 12.85026 27.18366 20.01696
#
# Velocity S-wave (km/s) = 2.55159 3.71115 3.18459
# Velocity P-wave (km/s) = 3.82167 6.56098 5.36897
#
# Compressibility (1/GPa) = 0.08552002
#
# Stress axis : x y z
#
# Youngs Moduli (GPa) = 17.52095 72.00971 49.16001
#
# Poissons Ratio (x) = 0.22753 0.07582
# Poissons Ratio (y) = 0.05536 -0.08899
# Poissons Ratio (z) = 0.02702 -0.13036
#
# Static dielectric constant tensor:
#      x y z
#    x 1.746110 0.008400 -0.003230 
#    y 0.008400 1.715110 -0.029970 
#    z -0.003230 -0.029970 1.763400 
# 
# From -- ./inp_files/402467.got.cif
#   From: 2010.05.17/outbox.cif.g08.bks.cpg/sg2_202_cif.got.tgz:402467.got - 2010.06.03 11:33:40.
