data_PCOD9090370
_publ_section_title
;
Structure prediction by ZEFSAII (Michael W. Deem and Ramdas Pophale) SiO2 
 PCOD9090370
Probable space group: P -1
;
_chemical_formula_sum "Si O2"
_cell_formula_units_Z 16
_cell_length_a 9.228355
_cell_length_b 10.795942
_cell_length_c 21.592009
_cell_angle_alpha 146.597583
_cell_angle_beta 48.230435
_cell_angle_gamma 111.984764
_cell_volume 792.013903
_symmetry_space_group_name_H-M "P -1"
_symmetry_group_IT_number 2
_symmetry_cell_setting 'triclinic'
loop_
_space_group_symop_operation_xyz
x,y,z
-x,-y,-z
loop_
_atom_site_type_symbol
_atom_site_label
_atom_site_fract_x
_atom_site_fract_y
_atom_site_fract_z
Si Si1 0.172339 0.482288 0.813345
Si Si2 0.125314 0.262990 0.620215
Si Si3 0.776658 0.285647 0.656125
Si Si4 0.630034 0.051636 0.402084
Si Si5 0.463349 0.541984 0.955028
Si Si6 0.053097 0.803042 0.102930
Si Si7 0.428312 0.480030 0.312044
Si Si8 0.376352 0.019124 0.107812
O O1 0.037358 0.437125 0.778078
O O2 0.316299 0.602812 0.790388
O O3 0.326804 0.193335 0.670486
O O4 0.074463 0.643523 0.969007
O O5 0.379616 0.186596 0.508721
O O6 0.963219 0.369718 0.653706
O O7 0.122203 0.994361 0.516482
O O8 0.633483 0.313329 0.769787
O O9 0.617933 0.456124 0.720547
O O10 0.676870 0.262170 0.512113
O O11 0.808437 0.937582 0.250882
O O12 0.496734 0.778513 0.017841
O O13 0.500000 0.500000 0.000000
O O14 0.217542 0.621032 0.033452
O O15 0.154857 0.999562 0.146891
O O16 0.354839 0.264085 0.252971
O O17 0.500000 0.000000 0.000000
#
# Coordination Sequence:
#
# PCOD9090370 Si02
#       8
#     2   2   2   2   2   2   2   2
#     4  11  18  36  58  94 120 164 212 255 300 375
#     4  10  22  32  57  89 125 163 204 252 308 367
#     4  11  19  37  59  89 125 161 203 260 306 364
#     4  11  21  35  55  95 129 157 206 256 312 366
#     4  10  22  37  60  98 126 150 204 268 317 344
#     4  10  22  35  63  91 125 161 206 262 309 362
#     4  11  18  37  66  86 122 160 220 247 298 375
#     4  10  19  38  65  94 116 169 211 256 294 383
#
# _framework density 20.201664000000001
#
# number of rings (size 3 to 8) (size 9 to 14) (size 15 to 20)
#    0.750    0.750    6.250    1.125    1.750    0.500 
#    0.000    0.000    0.000    7.500    0.000    0.000 
#    0.000    0.000    0.000    0.000    0.000    0.000 
#
# Total GULP energy -89104.531060 kJ/mol
# GULP energy per Si atom -5569.033191 kJ/mol
# Density = 2.015568 g / cm^3
# Si number density = 20.201664 Si / 1000 Ang^3
#
#
#
# Elastic Constant Matrix: (Units=GPa)
#
#
# Indices 1 2 3 4 5 6 
#
# 1 95.0192 19.0706 43.4407 -5.9672 25.6782 18.1917
# 2 19.0706 71.5595 29.0111 10.1464 13.3238 14.3708
# 3 43.4407 29.0111 134.1452 -0.0222 31.5554 13.6782
# 4 -5.9672 10.1464 -0.0222 34.6920 11.2442 8.7796
# 5 25.6782 13.3238 31.5554 11.2442 34.2225 0.2326
# 6 18.1917 14.3708 13.6782 8.7796 0.2326 28.7506
#
#
#
# Elastic Compliance Matrix: (Units=1/GPa)
#
#
# Indices 1 2 3 4 5 6 
#
# 1 0.019793 -0.000340 -0.000219 0.013763 -0.018928 -0.016299
# 2 -0.000340 0.017267 -0.002032 -0.002154 -0.003840 -0.006760
# 3 -0.000219 -0.002032 0.011188 0.005656 -0.011179 -0.005805
# 4 0.013763 -0.002154 0.005656 0.047888 -0.030270 -0.024701
# 5 -0.018928 -0.003840 -0.011179 -0.030270 0.064981 0.027932
# 6 -0.016299 -0.006760 -0.005805 -0.024701 0.027932 0.058553
#
#
# Mechanical properties :
#
#
# Convention : Reuss Voigt Hill
#
# Bulk Modulus (GPa) = 23.22086 53.75208 38.48647
# Shear Modulus (GPa) = 20.90244 33.47976 27.19110
#
# Velocity S-wave (km/s) = 3.22015 4.07538 3.67274
# Velocity P-wave (km/s) = 5.03441 6.98645 6.08916
#
# Compressibility (1/GPa) = 0.04306473
#
# Stress axis : x y z
#
# Youngs Moduli (GPa) = 50.52385 57.91479 89.38504
#
# Poissons Ratio (x) = 0.01968 0.01960
# Poissons Ratio (y) = 0.01717 0.18162
# Poissons Ratio (z) = 0.01108 0.11768
#
# Static dielectric constant tensor:
#      x y z
#    x 1.766530 0.018400 -0.006290 
#    y 0.018400 1.746810 0.016620 
#    z -0.006290 0.016620 1.764270 
# 
# From -- ./inp_files/589187.got.cif
#   From: 2010.05.17/outbox.cif.g08.bks.cpg/sg2_295_cif.got.tgz:589187.got - 2010.06.03 11:33:40.
