data_PCOD9090157
_publ_section_title
;
Structure prediction by ZEFSAII (Michael W. Deem and Ramdas Pophale) SiO2 
 PCOD9090157
Probable space group: P -1
;
_chemical_formula_sum "Si O2"
_cell_formula_units_Z 16
_cell_length_a 15.182664
_cell_length_b 11.948105
_cell_length_c 9.242494
_cell_angle_alpha 113.105661
_cell_angle_beta 50.990754
_cell_angle_gamma 72.108763
_cell_volume 756.620787
_symmetry_space_group_name_H-M "P -1"
_symmetry_group_IT_number 2
_symmetry_cell_setting 'triclinic'
loop_
_space_group_symop_operation_xyz
x,y,z
-x,-y,-z
loop_
_atom_site_type_symbol
_atom_site_label
_atom_site_fract_x
_atom_site_fract_y
_atom_site_fract_z
Si Si1 0.473468 0.149403 0.284184
Si Si2 0.863129 0.413733 0.483408
Si Si3 0.559892 0.480885 0.762999
Si Si4 0.557610 0.653907 0.322137
Si Si5 0.920958 0.556144 0.272076
Si Si6 0.038010 0.712994 0.369043
Si Si7 0.525115 0.841268 0.182141
Si Si8 0.296425 0.914820 0.215499
O O1 0.447597 0.287036 0.483739
O O2 0.291749 0.276799 0.448333
O O3 0.517136 0.991160 0.245660
O O4 0.626657 0.054349 0.965134
O O5 0.744808 0.401851 0.536955
O O6 0.968383 0.400019 0.243764
O O7 0.973694 0.276804 0.439162
O O8 0.709826 0.633184 0.817928
O O9 0.569435 0.352032 0.592267
O O10 0.500000 0.500000 0.000000
O O11 0.405078 0.699935 0.976947
O O12 0.518085 0.799059 0.329855
O O13 0.755702 0.442758 0.967660
O O14 0.982157 0.625395 0.327268
O O15 0.000000 0.500000 0.000000
O O16 0.912417 0.912442 0.515822
O O17 0.360302 0.916808 0.303297
#
# Coordination Sequence:
#
# PCOD9090157 Si02
#       8
#     2   2   2   2   2   2   2   2
#     4  12  22  39  60  97 129 159 207 258 320 371
#     4  10  22  41  64  91 122 172 209 252 310 374
#     4  11  20  43  69  86 122 171 220 248 294 383
#     4  11  24  40  63  96 124 170 206 254 316 368
#     4  12  22  37  60  95 133 160 197 263 327 368
#     4  11  22  38  63  97 124 157 211 261 316 365
#     4  10  19  38  64  87 124 162 207 251 304 376
#     4  11  22  38  66  92 121 168 210 258 302 371
#
# _framework density 21.146656
#
# number of rings (size 3 to 8) (size 9 to 14) (size 15 to 20)
#    0.000    1.000    8.750    1.875    0.000    2.000 
#    2.250    0.000    0.000    0.750    0.000    0.000 
#    0.000    0.000    0.000    0.000    0.000    0.000 
#
# Total GULP energy -89434.526570 kJ/mol
# GULP energy per Si atom -5589.657911 kJ/mol
# Density = 2.109853 g / cm^3
# Si number density = 21.146656 Si / 1000 Ang^3
#
#
#
# Elastic Constant Matrix: (Units=GPa)
#
#
# Indices 1 2 3 4 5 6 
#
# 1 95.7168 15.5935 3.2877 -4.8157 3.8364 6.3274
# 2 15.5935 63.3249 6.5655 8.1024 -4.3493 -10.0106
# 3 3.2877 6.5655 17.4219 -8.4832 -1.8535 -11.7402
# 4 -4.8157 8.1024 -8.4832 26.0532 -4.2015 -4.7966
# 5 3.8364 -4.3493 -1.8535 -4.2015 14.1390 4.3001
# 6 6.3274 -10.0106 -11.7402 -4.7966 4.3001 41.3835
#
#
#
# Elastic Compliance Matrix: (Units=1/GPa)
#
#
# Indices 1 2 3 4 5 6 
#
# 1 0.011467 -0.003405 -0.002436 0.001353 -0.003232 -0.002775
# 2 -0.003405 0.019211 -0.010315 -0.009408 0.002412 0.000900
# 3 -0.002436 -0.010315 0.107543 0.046196 0.015543 0.032126
# 4 0.001353 -0.009408 0.046196 0.062212 0.016375 0.016132
# 5 -0.003232 0.002412 0.015543 0.016375 0.079516 -0.000878
# 6 -0.002775 0.000900 0.032126 0.016132 -0.000878 0.035881
#
#
# Mechanical properties :
#
#
# Convention : Reuss Voigt Hill
#
# Bulk Modulus (GPa) = 9.44203 25.26189 17.35196
# Shear Modulus (GPa) = 13.03970 26.38291 19.71131
#
# Velocity S-wave (km/s) = 2.48590 3.53599 3.05638
# Velocity P-wave (km/s) = 3.56571 5.35191 4.54738
#
# Compressibility (1/GPa) = 0.10590947
#
# Stress axis : x y z
#
# Youngs Moduli (GPa) = 87.20713 52.05294 9.29862
#
# Poissons Ratio (x) = 0.17724 0.02265
# Poissons Ratio (y) = 0.29694 0.09591
# Poissons Ratio (z) = 0.21243 0.53692
#
# Static dielectric constant tensor:
#      x y z
#    x 1.770930 -0.013640 -0.039400 
#    y -0.013640 1.778220 0.009340 
#    z -0.039400 0.009340 1.797640 
# 
# From -- ./inp_files/207934.got.cif
#   From: 2010.05.17/outbox.cif.g08.bks.cpg/sg2_104_cif.got.tgz:207934.got - 2010.06.03 11:33:40.
