data_PCOD9090689
_publ_section_title
;
Structure prediction by ZEFSAII (Michael W. Deem and Ramdas Pophale) SiO2 
 PCOD9090689
Probable space group: P -1
;
_chemical_formula_sum "Si O2"
_cell_formula_units_Z 16
_cell_length_a 12.341835
_cell_length_b 11.743030
_cell_length_c 13.017662
_cell_angle_alpha 136.576496
_cell_angle_beta 71.154965
_cell_angle_gamma 73.623644
_cell_volume 746.080739
_symmetry_space_group_name_H-M "P -1"
_symmetry_group_IT_number 2
_symmetry_cell_setting 'triclinic'
loop_
_space_group_symop_operation_xyz
x,y,z
-x,-y,-z
loop_
_atom_site_type_symbol
_atom_site_label
_atom_site_fract_x
_atom_site_fract_y
_atom_site_fract_z
Si Si1 0.247095 0.975838 0.337180
Si Si2 0.412089 0.257820 0.389204
Si Si3 0.835786 0.729756 0.624581
Si Si4 0.521651 0.662144 0.786552
Si Si5 0.804446 0.351754 0.887803
Si Si6 0.649090 0.664901 0.940448
Si Si7 0.522188 0.671529 0.368001
Si Si8 0.869826 0.807274 0.261888
O O1 0.217866 0.813608 0.244789
O O2 0.115779 0.197146 0.432255
O O3 0.211119 0.103338 0.539619
O O4 0.459783 0.781102 0.111547
O O5 0.238794 0.345686 0.461429
O O6 0.435075 0.369325 0.367362
O O7 0.392289 0.347238 0.568259
O O8 0.586802 0.926938 0.120304
O O9 0.000000 0.500000 0.500000
O O10 0.659347 0.012979 0.924336
O O11 0.680097 0.554409 0.744941
O O12 0.479542 0.524189 0.743070
O O13 0.788000 0.473790 0.867018
O O14 0.998206 0.181295 0.771183
O O15 0.640793 0.577672 0.168311
O O16 0.307759 0.976118 0.616607
O O17 0.000000 0.500000 0.000000
#
# Coordination Sequence:
#
# PCOD9090689 Si02
#       8
#     2   2   2   2   2   2   2   2
#     4  10  21  43  61  96 132 170 222 269 331 385
#     4  10  23  39  64  95 129 179 210 261 339 381
#     4  10  22  40  68  95 126 167 225 276 310 391
#     4  10  21  43  66  91 127 179 222 261 329 384
#     4  12  23  42  71  96 132 174 220 271 332 383
#     4  10  19  38  70  91 124 177 218 271 321 388
#     4  12  24  45  66  95 142 173 212 272 330 397
#     4  12  28  39  64 103 133 173 219 269 331 399
#
# _framework density 21.445398999999998
#
# number of rings (size 3 to 8) (size 9 to 14) (size 15 to 20)
#    0.000    1.500    3.750    4.125    3.500    5.000 
#    0.000    0.625    0.000    0.000    0.000    0.000 
#    0.000    0.000    0.000    0.000    0.000    0.000 
#
# Total GULP energy -89450.833605 kJ/mol
# GULP energy per Si atom -5590.677100 kJ/mol
# Density = 2.139659 g / cm^3
# Si number density = 21.445399 Si / 1000 Ang^3
#
#
#
# Elastic Constant Matrix: (Units=GPa)
#
#
# Indices 1 2 3 4 5 6 
#
# 1 55.4253 27.8333 28.7494 2.7666 2.1290 -24.5245
# 2 27.8333 123.2555 29.4338 -10.3739 -3.0631 -25.5665
# 3 28.7494 29.4338 71.3448 -11.5211 12.5061 -20.1232
# 4 2.7666 -10.3739 -11.5211 23.6606 -7.0879 -0.4745
# 5 2.1290 -3.0631 12.5061 -7.0879 32.0784 -5.7709
# 6 -24.5245 -25.5665 -20.1232 -0.4745 -5.7709 41.2181
#
#
#
# Elastic Compliance Matrix: (Units=1/GPa)
#
#
# Indices 1 2 3 4 5 6 
#
# 1 0.029692 -0.002783 -0.009193 -0.008470 0.001558 0.011573
# 2 -0.002783 0.010702 -0.001774 0.005432 0.003950 0.004732
# 3 -0.009193 -0.001774 0.021898 0.009415 -0.005391 0.003474
# 4 -0.008470 0.005432 0.009415 0.053342 0.010088 0.004953
# 5 0.001558 0.003950 -0.005391 0.010088 0.036862 0.006022
# 6 0.011573 0.004732 0.003474 0.004953 0.006022 0.036678
#
#
# Mechanical properties :
#
#
# Convention : Reuss Voigt Hill
#
# Bulk Modulus (GPa) = 28.74334 46.89541 37.81937
# Shear Modulus (GPa) = 21.90356 30.32535 26.11446
#
# Velocity S-wave (km/s) = 3.19935 3.76450 3.49337
# Velocity P-wave (km/s) = 5.20383 6.38827 5.82623
#
# Compressibility (1/GPa) = 0.03479067
#
# Stress axis : x y z
#
# Youngs Moduli (GPa) = 33.67876 93.43809 45.66561
#
# Poissons Ratio (x) = 0.26007 0.41983
# Poissons Ratio (y) = 0.09374 0.08103
# Poissons Ratio (z) = 0.30962 0.16579
#
# Static dielectric constant tensor:
#      x y z
#    x 1.798400 0.006310 -0.036910 
#    y 0.006310 1.797450 -0.002270 
#    z -0.036910 -0.002270 1.795560 
# 
# From -- ./inp_files/429069.got.cif
#   From: 2010.05.17/outbox.cif.g08.bks.cpg/sg2_215_cif.got.tgz:429069.got - 2010.06.03 11:33:40.
