data_PCOD9090750
_publ_section_title
;
Structure prediction by ZEFSAII (Michael W. Deem and Ramdas Pophale) SiO2 
 PCOD9090750
Probable space group: P -1
;
_chemical_formula_sum "Si O2"
_cell_formula_units_Z 16
_cell_length_a 14.111297
_cell_length_b 24.182470
_cell_length_c 9.237972
_cell_angle_alpha 148.972396
_cell_angle_beta 53.297228
_cell_angle_gamma 149.419632
_cell_volume 698.860602
_symmetry_space_group_name_H-M "P -1"
_symmetry_group_IT_number 2
_symmetry_cell_setting 'triclinic'
loop_
_space_group_symop_operation_xyz
x,y,z
-x,-y,-z
loop_
_atom_site_type_symbol
_atom_site_label
_atom_site_fract_x
_atom_site_fract_y
_atom_site_fract_z
Si Si1 0.544341 0.780786 0.126686
Si Si2 0.339254 0.690527 0.851293
Si Si3 0.846825 0.562726 0.798906
Si Si4 0.392601 0.164687 0.479900
Si Si5 0.182716 0.806239 0.305947
Si Si6 0.807658 0.078900 0.151148
Si Si7 0.070996 0.075078 0.941098
Si Si8 0.251308 0.279617 0.781045
O O1 0.527742 0.799365 0.350917
O O2 0.688954 0.988286 0.395294
O O3 0.338785 0.625065 0.855604
O O4 0.682432 0.776987 0.977800
O O5 0.151004 0.513854 0.512690
O O6 0.312651 0.795254 0.143814
O O7 0.578838 0.854650 0.925912
O O8 0.610046 0.362443 0.637988
O O9 0.851994 0.686242 0.002446
O O10 0.002865 0.666149 0.026566
O O11 0.259475 0.176595 0.636240
O O12 0.267703 0.978415 0.079004
O O13 0.135178 0.786544 0.478155
O O14 0.007354 0.147703 0.127071
O O15 0.902432 0.872550 0.551646
O O16 0.000000 0.000000 0.000000
O O17 0.500000 0.500000 0.000000
#
# Coordination Sequence:
#
# PCOD9090750 Si02
#       8
#     2   2   2   2   2   2   2   2
#     4  11  21  36  57  88 119 137 189 239 276 328
#     4  10  21  36  58  81 113 152 194 231 272 327
#     4  10  19  39  58  79 112 155 190 222 281 342
#     4   9  21  36  56  85 119 147 173 233 297 331
#     4  11  20  37  61  84 105 150 203 232 261 335
#     4   9  18  34  55  81 112 145 182 224 285 334
#     4  11  17  31  57  85 108 144 183 225 279 339
#     4   9  18  32  56  78 112 146 182 215 278 342
#
# _framework density 22.894407000000001
#
# number of rings (size 3 to 8) (size 9 to 14) (size 15 to 20)
#    0.000    2.000    3.750    2.625    0.000    2.000 
#    0.000    8.125    0.000    0.000    0.000    0.000 
#    0.000    0.000    0.000    0.000    0.000    0.000 
#
# Total GULP energy -89076.188591 kJ/mol
# GULP energy per Si atom -5567.261787 kJ/mol
# Density = 2.284230 g / cm^3
# Si number density = 22.894407 Si / 1000 Ang^3
#
#
#
# Elastic Constant Matrix: (Units=GPa)
#
#
# Indices 1 2 3 4 5 6 
#
# 1 66.9773 25.8444 35.2846 -11.7951 25.6531 16.2291
# 2 25.8444 44.9435 32.5666 -13.0079 4.6323 -9.2049
# 3 35.2846 32.5666 122.6872 -28.1910 26.3304 -0.5566
# 4 -11.7951 -13.0079 -28.1910 30.1774 -2.4954 8.4595
# 5 25.6531 4.6323 26.3304 -2.4954 48.3705 -16.3886
# 6 16.2291 -9.2049 -0.5566 8.4595 -16.3886 22.0896
#
#
#
# Elastic Compliance Matrix: (Units=1/GPa)
#
#
# Indices 1 2 3 4 5 6 
#
# 1 -0.023524 0.025862 -0.014450 -0.027139 0.039232 0.067196
# 2 0.025862 0.005010 0.004580 0.028425 -0.032863 -0.052065
# 3 -0.014450 0.004580 0.009512 0.000645 0.008444 0.018783
# 4 -0.027139 0.028425 0.000645 0.025891 0.026809 0.041774
# 5 0.039232 -0.032863 0.008444 0.026809 -0.024059 -0.070422
# 6 0.067196 -0.052065 0.018783 0.041774 -0.070422 -0.093566
#
#
# Mechanical properties :
#
#
# Convention : Reuss Voigt Hill
#
# Bulk Modulus (GPa) = 43.51145 46.88877 45.20011
# Shear Modulus (GPa) = -39.98075 29.52165 -5.22955
#
# Velocity S-wave (km/s) = -4.18342 3.59481 -1.51300
# Velocity P-wave (km/s) = 2.07079 6.14452 4.09066
#
# Compressibility (1/GPa) = 0.02298246
#
# Stress axis : x y z
#
# Youngs Moduli (GPa) = -42.50953 199.60628 105.12975
#
# Poissons Ratio (x) = -5.16230 1.51917
# Poissons Ratio (y) = 1.09940 -0.48153
# Poissons Ratio (z) = -0.61428 -0.91426
#
# Static dielectric constant tensor:
#      x y z
#    x 1.906150 0.009780 0.053070 
#    y 0.009780 1.895580 0.002630 
#    z 0.053070 0.002630 1.946080 
# 
# From -- ./inp_files/303019.got.cif
#   From: 2010.05.17/outbox.cif.g08.bks.cpg/sg2_152_cif.got.tgz:303019.got - 2010.06.03 11:33:40.
