data_PCOD9090227
_publ_section_title
;
Structure prediction by ZEFSAII (Michael W. Deem and Ramdas Pophale) SiO2 
 PCOD9090227
Probable space group: P -1
;
_chemical_formula_sum "Si O2"
_cell_formula_units_Z 12
_cell_length_a 11.982844
_cell_length_b 15.175111
_cell_length_c 8.179644
_cell_angle_alpha 95.382001
_cell_angle_beta 133.175226
_cell_angle_gamma 122.525668
_cell_volume 604.032705
_symmetry_space_group_name_H-M "P -1"
_symmetry_group_IT_number 2
_symmetry_cell_setting 'triclinic'
loop_
_space_group_symop_operation_xyz
x,y,z
-x,-y,-z
loop_
_atom_site_type_symbol
_atom_site_label
_atom_site_fract_x
_atom_site_fract_y
_atom_site_fract_z
Si Si1 0.085790 0.969041 0.215582
Si Si2 0.804206 0.169888 0.769715
Si Si3 0.370332 0.205834 0.029761
Si Si4 0.612121 0.140296 0.225105
Si Si5 0.937696 0.530016 0.788226
Si Si6 0.371449 0.721902 0.008683
O O1 0.041225 0.849449 0.081403
O O2 0.401954 0.132367 0.613006
O O3 0.910649 0.896758 0.193698
O O4 0.000000 0.000000 0.000000
O O5 0.777243 0.191636 0.559477
O O6 0.500000 0.000000 0.500000
O O7 0.949907 0.317245 0.043249
O O8 0.392407 0.109385 0.058572
O O9 0.617761 0.369719 0.404122
O O10 0.456212 0.259678 0.935622
O O11 0.739934 0.256435 0.223340
O O12 0.500000 0.000000 0.000000
O O13 0.111622 0.568529 0.823756
O O14 0.000000 0.500000 0.000000
#
# Coordination Sequence:
#
# PCOD9090227 Si02
#       6
#     2   2   2   2   2   2
#     4  12  23  40  63  93 132 165 209 266 317 374
#     4  12  22  40  66  97 122 168 221 254 309 389
#     4  10  23  37  60  93 128 161 207 259 325 355
#     4  10  19  38  64  93 121 163 220 259 299 376
#     4  12  21  40  66  95 127 165 211 270 311 374
#     4  10  22  38  65  88 124 170 213 252 315 374
#
# _framework density 19.866472999999999
#
# number of rings (size 3 to 8) (size 9 to 14) (size 15 to 20)
#    1.000    0.000    5.000    3.000    0.000    0.667 
#    0.000    0.000    0.000    3.000    0.000    0.000 
#    0.000    0.000    0.000    0.000    0.000    0.000 
#
# Total GULP energy -66871.375568 kJ/mol
# GULP energy per Si atom -5572.614631 kJ/mol
# Density = 1.982126 g / cm^3
# Si number density = 19.866473 Si / 1000 Ang^3
#
#
#
# Elastic Constant Matrix: (Units=GPa)
#
#
# Indices 1 2 3 4 5 6 
#
# 1 85.5800 36.4333 0.9724 2.5410 -3.4743 -22.4990
# 2 36.4333 91.7139 16.1538 -8.7463 -1.3976 4.9246
# 3 0.9724 16.1538 74.6947 8.1880 -17.0420 -13.1334
# 4 2.5410 -8.7463 8.1880 29.1563 -0.8219 -15.5743
# 5 -3.4743 -1.3976 -17.0420 -0.8219 35.9666 6.6659
# 6 -22.4990 4.9246 -13.1334 -15.5743 6.6659 44.2044
#
#
#
# Elastic Compliance Matrix: (Units=1/GPa)
#
#
# Indices 1 2 3 4 5 6 
#
# 1 0.018284 -0.008431 0.003756 0.001027 0.001100 0.011557
# 2 -0.008431 0.015800 -0.005093 0.003619 -0.001405 -0.006078
# 3 0.003756 -0.005093 0.017455 -0.003756 0.007381 0.005229
# 4 0.001027 0.003619 -0.003756 0.044335 -0.003330 0.015126
# 5 0.001100 -0.001405 0.007381 -0.003330 0.031845 -0.003066
# 6 0.011557 -0.006078 0.005229 0.015126 -0.003066 0.036527
#
#
# Mechanical properties :
#
#
# Convention : Reuss Voigt Hill
#
# Bulk Modulus (GPa) = 31.24692 39.90082 35.57387
# Shear Modulus (GPa) = 25.71378 35.09407 30.40392
#
# Velocity S-wave (km/s) = 3.60158 4.20753 3.91629
# Velocity P-wave (km/s) = 5.74959 6.61306 6.19638
#
# Compressibility (1/GPa) = 0.03200316
#
# Stress axis : x y z
#
# Youngs Moduli (GPa) = 54.69293 63.29301 57.28881
#
# Poissons Ratio (x) = 0.53360 -0.21515
# Poissons Ratio (y) = 0.46109 0.29176
# Poissons Ratio (z) = -0.20540 0.32234
#
# Static dielectric constant tensor:
#      x y z
#    x 1.764420 -0.001350 -0.038780 
#    y -0.001350 1.709680 0.013220 
#    z -0.038780 0.013220 1.732960 
# 
# From -- ./inp_files/146163.got.cif
#   From: 2010.05.17/outbox.cif.g08.bks.cpg/sg2_74_cif.got.tgz:146163.got - 2010.06.03 11:33:40.
