data_PCOD9090255
_publ_section_title
;
Structure prediction by ZEFSAII (Michael W. Deem and Ramdas Pophale) SiO2 
 PCOD9090255
Probable space group: P -1
;
_chemical_formula_sum "Si O2"
_cell_formula_units_Z 16
_cell_length_a 10.465057
_cell_length_b 7.851063
_cell_length_c 18.023067
_cell_angle_alpha 38.762296
_cell_angle_beta 62.104285
_cell_angle_gamma 74.157976
_cell_volume 808.026949
_symmetry_space_group_name_H-M "P -1"
_symmetry_group_IT_number 2
_symmetry_cell_setting 'triclinic'
loop_
_space_group_symop_operation_xyz
x,y,z
-x,-y,-z
loop_
_atom_site_type_symbol
_atom_site_label
_atom_site_fract_x
_atom_site_fract_y
_atom_site_fract_z
Si Si1 0.971490 0.191611 0.375480
Si Si2 0.291104 0.059458 0.554409
Si Si3 0.560962 0.222671 0.094688
Si Si4 0.856481 0.301661 0.902993
Si Si5 0.240652 0.742680 0.826861
Si Si6 0.567636 0.340609 0.638115
Si Si7 0.036636 0.179825 0.040144
Si Si8 0.319338 0.652128 0.561841
O O1 0.855216 0.389170 0.365888
O O2 0.113111 0.387146 0.240427
O O3 0.880237 0.004692 0.400879
O O4 0.000000 0.000000 0.500000
O O5 0.347204 0.380839 0.442740
O O6 0.301083 0.889715 0.684914
O O7 0.364771 0.916951 0.514017
O O8 0.635067 0.232887 0.152735
O O9 0.443417 0.943303 0.218623
O O10 0.500000 0.500000 0.000000
O O11 0.693447 0.209269 0.007039
O O12 0.965984 0.283655 0.948777
O O13 0.897301 0.090457 0.903448
O O14 0.165216 0.424650 0.945764
O O15 0.100380 0.873341 0.848651
O O16 0.402194 0.408649 0.649548
O O17 0.633945 0.304565 0.550736
#
# Coordination Sequence:
#
# PCOD9090255 Si02
#       8
#     2   2   2   2   2   2   2   2
#     4  10  23  41  65  95 132 162 202 272 330 368
#     4  10  22  39  71  97 125 166 218 266 315 383
#     4  11  27  42  62  89 134 173 211 268 321 385
#     4  10  21  40  65  90 127 165 211 261 330 374
#     4  10  19  38  64  95 125 158 213 267 316 375
#     4  11  22  42  65  96 124 175 220 258 318 378
#     4   9  19  35  65  98 118 158 213 266 312 389
#     4   9  22  39  67  98 127 163 213 273 306 379
#
# _framework density 19.80132
#
# number of rings (size 3 to 8) (size 9 to 14) (size 15 to 20)
#    0.750    1.250    1.250    1.875   10.500    0.000 
#    2.250    1.250    0.000    0.000    0.000    0.000 
#    0.000    0.000    0.000    0.000    0.000    0.000 
#
# Total GULP energy -89258.258966 kJ/mol
# GULP energy per Si atom -5578.641185 kJ/mol
# Density = 1.975625 g / cm^3
# Si number density = 19.801320 Si / 1000 Ang^3
#
#
#
# Elastic Constant Matrix: (Units=GPa)
#
#
# Indices 1 2 3 4 5 6 
#
# 1 32.1944 24.8098 22.8591 -4.9987 -1.7603 8.9149
# 2 24.8098 113.4905 44.5202 -7.7159 -7.2951 15.3487
# 3 22.8591 44.5202 113.1253 -10.7363 -0.3067 9.1204
# 4 -4.9987 -7.7159 -10.7363 25.2463 1.6908 -1.0193
# 5 -1.7603 -7.2951 -0.3067 1.6908 19.4948 -0.3798
# 6 8.9149 15.3487 9.1204 -1.0193 -0.3798 13.3956
#
#
#
# Elastic Compliance Matrix: (Units=1/GPa)
#
#
# Indices 1 2 3 4 5 6 
#
# 1 0.044713 -0.004572 -0.005157 0.004331 0.001468 -0.020636
# 2 -0.004572 0.012614 -0.003211 0.000952 0.003998 -0.009039
# 3 -0.005157 -0.003211 0.011464 0.002970 -0.001754 -0.000518
# 4 0.004331 0.000952 0.002970 0.042100 -0.002913 -0.002874
# 5 0.001468 0.003998 -0.001754 -0.002913 0.053090 -0.003080
# 6 -0.020636 -0.009039 -0.000518 -0.002874 -0.003080 0.098789
#
#
# Mechanical properties :
#
#
# Convention : Reuss Voigt Hill
#
# Bulk Modulus (GPa) = 23.30306 49.24316 36.27311
# Shear Modulus (GPa) = 16.50414 22.73542 19.61978
#
# Velocity S-wave (km/s) = 2.89015 3.39215 3.15116
# Velocity P-wave (km/s) = 4.78866 6.34546 5.62122
#
# Compressibility (1/GPa) = 0.04291282
#
# Stress axis : x y z
#
# Youngs Moduli (GPa) = 22.36467 79.27421 87.22775
#
# Poissons Ratio (x) = 0.36243 0.44985
# Poissons Ratio (y) = 0.10225 0.28005
# Poissons Ratio (z) = 0.11534 0.25452
#
# Static dielectric constant tensor:
#      x y z
#    x 1.713610 0.008860 -0.031700 
#    y 0.008860 1.713100 0.003380 
#    z -0.031700 0.003380 1.688200 
# 
# From -- ./inp_files/593349.got.cif
#   From: 2010.05.17/outbox.cif.g08.bks.cpg/sg2_297_cif.got.tgz:593349.got - 2010.06.03 11:33:40.
