data_PCOD9090580
_publ_section_title
;
Structure prediction by ZEFSAII (Michael W. Deem and Ramdas Pophale) SiO2 
 PCOD9090580
Probable space group: P -1
;
_chemical_formula_sum "Si O2"
_cell_formula_units_Z 16
_cell_length_a 13.432406
_cell_length_b 9.001104
_cell_length_c 12.655317
_cell_angle_alpha 54.402593
_cell_angle_beta 63.304764
_cell_angle_gamma 108.836041
_cell_volume 660.362131
_symmetry_space_group_name_H-M "P -1"
_symmetry_group_IT_number 2
_symmetry_cell_setting 'triclinic'
loop_
_space_group_symop_operation_xyz
x,y,z
-x,-y,-z
loop_
_atom_site_type_symbol
_atom_site_label
_atom_site_fract_x
_atom_site_fract_y
_atom_site_fract_z
Si Si1 0.898536 0.379359 0.710113
Si Si2 0.918939 0.178297 0.397112
Si Si3 0.237520 0.176140 0.008449
Si Si4 0.441876 0.617125 0.532415
Si Si5 0.735036 0.633944 0.861986
Si Si6 0.375265 0.669335 0.157433
Si Si7 0.808310 0.713598 0.394321
Si Si8 0.815290 0.134636 0.241814
O O1 0.817077 0.475384 0.712359
O O2 0.000000 0.500000 0.500000
O O3 0.026012 0.561035 0.677663
O O4 0.743084 0.015756 0.939720
O O5 0.789303 0.059885 0.409272
O O6 0.102001 0.303346 0.216864
O O7 0.821962 0.912037 0.635219
O O8 0.321710 0.356630 0.003378
O O9 0.320171 0.402144 0.780856
O O10 0.011233 0.893455 0.237875
O O11 0.500000 0.500000 0.500000
O O12 0.312749 0.536446 0.537935
O O13 0.631147 0.964137 0.339379
O O14 0.580111 0.350586 0.971399
O O15 0.317332 0.462654 0.366803
O O16 0.500000 0.000000 0.000000
O O17 0.849706 0.979927 0.239572
O O18 0.000000 0.500000 0.000000
#
# Coordination Sequence:
#
# PCOD9090580 Si02
#       8
#     2   2   2   2   2   2   2   2
#     4  11  22  37  65 110 132 171 231 273 346 418
#     4  10  19  38  67  94 136 171 226 274 344 410
#     4  12  22  44  72 101 140 178 228 292 345 414
#     4  10  27  44  66  96 131 183 236 284 337 407
#     4  10  19  39  68  99 132 180 218 279 348 413
#     4  11  24  41  70 104 143 181 221 280 347 420
#     4  11  22  46  71  97 139 184 230 278 348 403
#     4  11  24  44  70  94 132 187 236 280 338 409
#
# _framework density 24.229129
#
# number of rings (size 3 to 8) (size 9 to 14) (size 15 to 20)
#    0.000    1.250    5.000    1.125    7.000    1.000 
#    2.250    1.875    0.000    0.000    0.000    0.000 
#    0.000    0.000    0.000    0.000    0.000    0.000 
#
# Total GULP energy -89376.658987 kJ/mol
# GULP energy per Si atom -5586.041187 kJ/mol
# Density = 2.417398 g / cm^3
# Si number density = 24.229129 Si / 1000 Ang^3
#
#
#
# Elastic Constant Matrix: (Units=GPa)
#
#
# Indices 1 2 3 4 5 6 
#
# 1 56.6807 27.4715 15.2098 -4.7764 -2.7552 16.0844
# 2 27.4715 183.1425 42.5881 -16.6898 3.5367 37.9201
# 3 15.2098 42.5881 81.1753 -23.9877 -0.7618 20.5367
# 4 -4.7764 -16.6898 -23.9877 42.2662 1.4812 2.6156
# 5 -2.7552 3.5367 -0.7618 1.4812 23.3724 -2.3596
# 6 16.0844 37.9201 20.5367 2.6156 -2.3596 37.3868
#
#
#
# Elastic Compliance Matrix: (Units=1/GPa)
#
#
# Indices 1 2 3 4 5 6 
#
# 1 0.020768 -0.001315 -0.000877 0.001708 0.001791 -0.007126
# 2 -0.001315 0.007650 -0.001283 0.002643 -0.002210 -0.006813
# 3 -0.000877 -0.001283 0.018645 0.010587 -0.000918 -0.009361
# 4 0.001708 0.002643 0.010587 0.031732 -0.003040 -0.011643
# 5 0.001791 -0.002210 -0.000918 -0.003040 0.043995 0.004964
# 6 -0.007126 -0.006813 -0.009361 -0.011643 0.004964 0.042993
#
#
# Mechanical properties :
#
#
# Convention : Reuss Voigt Hill
#
# Bulk Modulus (GPa) = 24.92953 54.61524 39.77239
# Shear Modulus (GPa) = 26.86652 36.32035 31.59343
#
# Velocity S-wave (km/s) = 3.33356 3.87594 3.61493
# Velocity P-wave (km/s) = 5.01280 6.52845 5.82017
#
# Compressibility (1/GPa) = 0.04011307
#
# Stress axis : x y z
#
# Youngs Moduli (GPa) = 48.14990 130.71863 53.63361
#
# Poissons Ratio (x) = 0.17186 0.04705
# Poissons Ratio (y) = 0.06331 0.06883
# Poissons Ratio (z) = 0.04224 0.16775
#
# Static dielectric constant tensor:
#      x y z
#    x 2.124510 0.087190 -0.071840 
#    y 0.087190 2.068280 -0.056070 
#    z -0.071840 -0.056070 1.917380 
# 
# From -- ./inp_files/446949.got.cif
#   From: 2010.05.17/outbox.cif.g08.bks.cpg/sg2_224_cif.got.tgz:446949.got - 2010.06.03 11:33:40.
