data_PCOD9090861
_publ_section_title
;
Structure prediction by ZEFSAII (Michael W. Deem and Ramdas Pophale) SiO2 
 PCOD9090861
Probable space group: P -1
;
_chemical_formula_sum "Si O2"
_cell_formula_units_Z 16
_cell_length_a 8.301786
_cell_length_b 15.462281
_cell_length_c 15.485861
_cell_angle_alpha 34.268113
_cell_angle_beta 141.284466
_cell_angle_gamma 135.479970
_cell_volume 686.812372
_symmetry_space_group_name_H-M "P -1"
_symmetry_group_IT_number 2
_symmetry_cell_setting 'triclinic'
loop_
_space_group_symop_operation_xyz
x,y,z
-x,-y,-z
loop_
_atom_site_type_symbol
_atom_site_label
_atom_site_fract_x
_atom_site_fract_y
_atom_site_fract_z
Si Si1 0.962625 0.766426 0.266976
Si Si2 0.393745 0.461624 0.132136
Si Si3 0.081186 0.196876 0.336637
Si Si4 0.207956 0.908396 0.542106
Si Si5 0.795640 0.950737 0.761887
Si Si6 0.953647 0.341243 0.913353
Si Si7 0.403951 0.768408 0.985619
Si Si8 0.993856 0.503432 0.625911
O O1 0.705711 0.832451 0.077465
O O2 0.042079 0.651524 0.322223
O O3 0.167275 0.917355 0.258271
O O4 0.894479 0.642625 0.420185
O O5 0.406764 0.637439 0.022254
O O6 0.691623 0.437054 0.277452
O O7 0.228360 0.355921 0.224615
O O8 0.222092 0.422646 0.007005
O O9 0.242343 0.067554 0.481802
O O10 0.010340 0.205835 0.399726
O O11 0.805038 0.138950 0.217719
O O12 0.493200 0.864209 0.696843
O O13 0.138312 0.955781 0.378087
O O14 0.977159 0.822979 0.954957
O O15 0.730871 0.305333 0.922090
O O16 0.884095 0.445444 0.720598
#
# Coordination Sequence:
#
# PCOD9090861 Si02
#       8
#     2   2   2   2   2   2   2   2
#     4  10  24  42  60  83 125 169 201 248 294 366
#     4  10  20  39  65  89 121 156 197 257 300 361
#     4  10  19  39  60  91 120 155 198 245 310 353
#     4  10  22  37  62  90 122 154 196 254 305 358
#     4  11  23  40  62  93 127 154 203 254 302 360
#     4  11  22  39  63  95 122 156 203 256 306 353
#     4  10  22  40  60  87 126 160 203 240 303 368
#     4  10  23  42  63  89 121 161 210 246 300 360
#
# _framework density 23.296026999999999
#
# number of rings (size 3 to 8) (size 9 to 14) (size 15 to 20)
#    0.000    1.750    2.500    2.625    5.250    3.500 
#    0.000    3.750    0.000    0.000    0.000    0.000 
#    0.000    0.000    0.000    0.000    0.000    0.000 
#
# Total GULP energy -89419.315850 kJ/mol
# GULP energy per Si atom -5588.707241 kJ/mol
# Density = 2.324300 g / cm^3
# Si number density = 23.296027 Si / 1000 Ang^3
#
#
#
# Elastic Constant Matrix: (Units=GPa)
#
#
# Indices 1 2 3 4 5 6 
#
# 1 49.0572 -1.7932 16.5361 6.3522 -16.6687 -5.3264
# 2 -1.7932 80.0167 4.2051 9.2173 1.4693 -13.2041
# 3 16.5361 4.2051 56.1445 1.1167 -8.7191 -2.3982
# 4 6.3522 9.2173 1.1167 9.7651 -0.9736 2.8466
# 5 -16.6687 1.4693 -8.7191 -0.9736 46.8667 1.5080
# 6 -5.3264 -13.2041 -2.3982 2.8466 1.5080 13.2209
#
#
#
# Elastic Compliance Matrix: (Units=1/GPa)
#
#
# Indices 1 2 3 4 5 6 
#
# 1 0.034929 0.010790 -0.007594 -0.040230 0.008835 0.031125
# 2 0.010790 0.023151 -0.002524 -0.038798 0.000701 0.035284
# 3 -0.007594 -0.002524 0.020182 0.006142 0.001370 -0.003398
# 4 -0.040230 -0.038798 0.006142 0.191557 -0.004928 -0.094524
# 5 0.008835 0.000701 0.001370 -0.004928 0.024521 0.002772
# 6 0.031125 0.035284 -0.003398 -0.094524 0.002772 0.142835
#
#
# Mechanical properties :
#
#
# Convention : Reuss Voigt Hill
#
# Bulk Modulus (GPa) = 12.56198 24.79047 18.67622
# Shear Modulus (GPa) = 10.81393 25.05524 17.93459
#
# Velocity S-wave (km/s) = 2.15686 3.28306 2.77764
# Velocity P-wave (km/s) = 3.40687 5.00359 4.28034
#
# Compressibility (1/GPa) = 0.07960529
#
# Stress axis : x y z
#
# Youngs Moduli (GPa) = 28.62953 43.19535 49.54837
#
# Poissons Ratio (x) = -0.46607 0.37627
# Poissons Ratio (y) = -0.30891 0.12507
# Poissons Ratio (z) = 0.21741 0.10903
#
# Static dielectric constant tensor:
#      x y z
#    x 1.894840 0.010120 -0.010040 
#    y 0.010120 1.852410 0.010900 
#    z -0.010040 0.010900 1.918470 
# 
# From -- ./inp_files/503958.got.cif
#   From: 2010.05.17/outbox.cif.g08.bks.cpg/sg2_252_cif.got.tgz:503958.got - 2010.06.03 11:33:40.
