data_PCOD9090205
_publ_section_title
;
Structure prediction by ZEFSAII (Michael W. Deem and Ramdas Pophale) SiO2 
 PCOD9090205
Probable space group: P -1
;
_chemical_formula_sum "Si O2"
_cell_formula_units_Z 16
_cell_length_a 8.232353
_cell_length_b 9.093971
_cell_length_c 11.020132
_cell_angle_alpha 63.679177
_cell_angle_beta 121.641405
_cell_angle_gamma 98.141878
_cell_volume 625.069277
_symmetry_space_group_name_H-M "P -1"
_symmetry_group_IT_number 2
_symmetry_cell_setting 'triclinic'
loop_
_space_group_symop_operation_xyz
x,y,z
-x,-y,-z
loop_
_atom_site_type_symbol
_atom_site_label
_atom_site_fract_x
_atom_site_fract_y
_atom_site_fract_z
Si Si1 0.353894 0.386864 0.229253
Si Si2 0.322553 0.441971 0.571569
Si Si3 0.880812 0.202367 0.389628
Si Si4 0.869748 0.348841 0.803821
Si Si5 0.593330 0.107863 0.746680
Si Si6 0.784168 0.591747 0.218091
Si Si7 0.488338 0.780366 0.897666
Si Si8 0.267936 0.078428 0.456986
O O1 0.541112 0.431896 0.361200
O O2 0.200524 0.549767 0.138850
O O3 0.428376 0.326272 0.148174
O O4 0.264017 0.227117 0.305997
O O5 0.222631 0.530998 0.384575
O O6 0.461902 0.279331 0.655404
O O7 0.180132 0.377196 0.638563
O O8 0.836836 0.397368 0.303373
O O9 0.736768 0.167935 0.234536
O O10 0.102322 0.149270 0.464106
O O11 0.804728 0.103655 0.511360
O O12 0.798111 0.171505 0.818736
O O13 0.092518 0.333762 0.863966
O O14 0.487153 0.052865 0.603230
O O15 0.574109 0.953353 0.881007
O O16 0.562996 0.664074 0.080483
#
# Coordination Sequence:
#
# PCOD9090205 Si02
#       8
#     2   2   2   2   2   2   2   2
#     4  11  20  39  66  93 123 158 203 259 309 369
#     4  11  21  39  67  92 120 160 211 258 312 353
#     4  10  21  38  61  91 125 156 200 259 302 365
#     4  11  22  41  67  92 122 157 211 262 306 362
#     4  10  21  42  62  93 124 158 208 258 309 365
#     4  12  24  41  62  89 131 166 211 244 303 377
#     4  11  26  40  61  92 128 172 202 244 311 372
#     4  10  19  38  64  91 124 151 201 261 314 346
#
# _framework density 25.597163999999999
#
# number of rings (size 3 to 8) (size 9 to 14) (size 15 to 20)
#    0.000    1.250    5.000    1.500    0.000    4.500 
#    0.000    2.500    0.000    0.000    0.000    0.000 
#    0.000    0.000    0.000    0.000    0.000    0.000 
#
# Total GULP energy -89297.077655 kJ/mol
# GULP energy per Si atom -5581.067353 kJ/mol
# Density = 2.553890 g / cm^3
# Si number density = 25.597164 Si / 1000 Ang^3
#
#
#
# Elastic Constant Matrix: (Units=GPa)
#
#
# Indices 1 2 3 4 5 6 
#
# 1 79.4825 15.6407 -0.4220 6.6362 8.0459 16.5766
# 2 15.6407 104.3859 18.9239 -15.6074 -0.3007 25.5428
# 3 -0.4220 18.9239 80.4667 -8.9137 11.8435 -2.2082
# 4 6.6362 -15.6074 -8.9137 27.2594 2.3842 -6.2137
# 5 8.0459 -0.3007 11.8435 2.3842 27.7503 -4.3000
# 6 16.5766 25.5428 -2.2082 -6.2137 -4.3000 39.0777
#
#
#
# Elastic Compliance Matrix: (Units=1/GPa)
#
#
# Indices 1 2 3 4 5 6 
#
# 1 0.015329 -0.001520 0.000396 -0.005600 -0.005226 -0.006952
# 2 -0.001520 0.012785 -0.002657 0.005207 0.000179 -0.007014
# 3 0.000396 -0.002657 0.014520 0.004223 -0.006337 0.002363
# 4 -0.005600 0.005207 0.004223 0.044012 -0.002993 0.005880
# 5 -0.005226 0.000179 -0.006337 -0.002993 0.041417 0.005824
# 6 -0.006952 -0.007014 0.002363 0.005880 0.005824 0.034833
#
#
# Mechanical properties :
#
#
# Convention : Reuss Voigt Hill
#
# Bulk Modulus (GPa) = 28.51248 36.95781 32.73515
# Shear Modulus (GPa) = 27.45024 34.16365 30.80695
#
# Velocity S-wave (km/s) = 3.27830 3.65727 3.47296
# Velocity P-wave (km/s) = 5.04903 5.68364 5.37571
#
# Compressibility (1/GPa) = 0.03507236
#
# Stress axis : x y z
#
# Youngs Moduli (GPa) = 65.23534 78.21952 68.87148
#
# Poissons Ratio (x) = 0.11888 -0.02726
# Poissons Ratio (y) = 0.09914 0.18297
# Poissons Ratio (z) = -0.02582 0.20780
#
# Static dielectric constant tensor:
#      x y z
#    x 2.147320 0.042510 -0.014170 
#    y 0.042510 2.110560 0.054860 
#    z -0.014170 0.054860 1.977010 
# 
# From -- ./inp_files/381464.got.cif
#   From: 2010.05.17/outbox.cif.g08.bks.cpg/sg2_191_cif.got.tgz:381464.got - 2010.06.03 11:33:40.
