data_PCOD9090830
_publ_section_title
;
Structure prediction by ZEFSAII (Michael W. Deem and Ramdas Pophale) SiO2 
 PCOD9090830
Probable space group: P -1
;
_chemical_formula_sum "Si O2"
_cell_formula_units_Z 15
_cell_length_a 11.328457
_cell_length_b 20.218015
_cell_length_c 4.907997
_cell_angle_alpha 84.428293
_cell_angle_beta 88.141450
_cell_angle_gamma 36.218182
_cell_volume 659.046207
_symmetry_space_group_name_H-M "P -1"
_symmetry_group_IT_number 2
_symmetry_cell_setting 'triclinic'
loop_
_space_group_symop_operation_xyz
x,y,z
-x,-y,-z
loop_
_atom_site_type_symbol
_atom_site_label
_atom_site_fract_x
_atom_site_fract_y
_atom_site_fract_z
Si Si1 0.270524 0.293903 0.705336
Si Si2 0.692864 0.606324 0.957333
Si Si3 0.800339 0.251277 0.456829
Si Si4 0.652334 0.174318 0.430605
Si Si5 0.230225 0.017172 0.635106
Si Si6 0.481375 0.934858 0.141876
Si Si7 0.434829 0.599035 0.092340
Si Si8 0.000000 0.500000 0.500000
O O1 0.487778 0.216889 0.621942
O O2 0.103214 0.377457 0.456602
O O3 0.194461 0.398164 0.821996
O O4 0.317288 0.201271 0.860541
O O5 0.490110 0.739200 0.845331
O O6 0.823620 0.542985 0.702133
O O7 0.615552 0.570658 0.080232
O O8 0.741100 0.201136 0.531309
O O9 0.661279 0.358521 0.619261
O O10 0.033898 0.149161 0.542535
O O11 0.740183 0.293624 0.135727
O O12 0.799315 0.047348 0.404189
O O13 0.304779 0.984909 0.950562
O O14 0.408137 0.963614 0.447800
O O15 0.500000 0.000000 0.000000
O O16 0.500000 0.500000 0.000000
#
# Coordination Sequence:
#
# PCOD9090830 Si02
#       8
#     2   2   2   2   2   2   2   1
#     4  10  19  39  60  86 121 161 213 259 319 371
#     4  10  19  39  60  86 121 161 213 259 319 371
#     4  11  22  40  65  96 126 160 215 259 311 386
#     4   9  19  35  63  92 124 160 195 263 323 375
#     4  11  22  40  65  96 126 160 215 259 311 386
#     4  11  24  43  63  89 132 175 202 260 330 387
#     4  11  24  43  63  89 132 175 202 260 330 387
#     4  10  22  36  62  94 114 160 226 276 300 366
#
# _framework density 22.760166000000002
#
# number of rings (size 3 to 8) (size 9 to 14) (size 15 to 20)
#    0.000    1.600    2.667    2.400    0.000    0.000 
#    4.800    4.000    0.000    0.000    0.000    0.000 
#    0.000    0.000    0.000    0.000    0.000    0.000 
#
# Total GULP energy -83506.432007 kJ/mol
# GULP energy per Si atom -5567.095467 kJ/mol
# Density = 2.270836 g / cm^3
# Si number density = 22.760166 Si / 1000 Ang^3
#
#
#
# Elastic Constant Matrix: (Units=GPa)
#
#
# Indices 1 2 3 4 5 6 
#
# 1 52.4545 37.3218 0.9919 -2.8066 -0.7174 25.5881
# 2 37.3218 112.6329 -2.6334 -17.1279 0.8080 3.1977
# 3 0.9919 -2.6334 61.0379 2.1664 7.0692 -4.4505
# 4 -2.8066 -17.1279 2.1664 37.5137 4.4168 -1.0749
# 5 -0.7174 0.8080 7.0692 4.4168 23.1811 -4.0570
# 6 25.5881 3.1977 -4.4505 -1.0749 -4.0570 34.5394
#
#
#
# Elastic Compliance Matrix: (Units=1/GPa)
#
#
# Indices 1 2 3 4 5 6 
#
# 1 0.045700 -0.014851 -0.003429 -0.003869 -0.002112 -0.033292
# 2 -0.014851 0.014435 0.001474 0.005770 -0.000771 0.009945
# 3 -0.003429 0.001474 0.017347 0.000091 -0.004750 0.004084
# 4 -0.003869 0.005770 0.000091 0.029726 -0.005554 0.002616
# 5 -0.002112 -0.000771 -0.004750 -0.005554 0.046716 0.006338
# 6 -0.033292 0.009945 0.004084 0.002616 0.006338 0.054048
#
#
# Mechanical properties :
#
#
# Convention : Reuss Voigt Hill
#
# Bulk Modulus (GPa) = 22.79511 33.05399 27.92455
# Shear Modulus (GPa) = 19.51539 31.74317 25.62928
#
# Velocity S-wave (km/s) = 2.93138 3.73859 3.35932
# Velocity P-wave (km/s) = 4.63620 5.76111 5.22900
#
# Compressibility (1/GPa) = 0.04386905
#
# Stress axis : x y z
#
# Youngs Moduli (GPa) = 21.88169 69.27794 57.64591
#
# Poissons Ratio (x) = 1.02887 0.19766
# Poissons Ratio (y) = 0.32497 -0.08495
# Poissons Ratio (z) = 0.07503 -0.10210
#
# Static dielectric constant tensor:
#      x y z
#    x 1.920410 -0.021900 0.099350 
#    y -0.021900 1.937260 -0.121350 
#    z 0.099350 -0.121350 2.066150 
# 
# From -- ./inp_files/71123.got.cif
#   From: 2010.05.17/outbox.cif.g08.bks.cpg/sg2_36_cif.got.tgz:71123.got - 2010.06.03 11:33:40.
