data_PCOD9090108
_publ_section_title
;
Structure prediction by ZEFSAII (Michael W. Deem and Ramdas Pophale) SiO2 
 PCOD9090108
Probable space group: P -1
;
_chemical_formula_sum "Si O2"
_cell_formula_units_Z 16
_cell_length_a 5.424673
_cell_length_b 15.972702
_cell_length_c 17.519598
_cell_angle_alpha 149.675161
_cell_angle_beta 73.030615
_cell_angle_gamma 99.421247
_cell_volume 720.737722
_symmetry_space_group_name_H-M "P -1"
_symmetry_group_IT_number 2
_symmetry_cell_setting 'triclinic'
loop_
_space_group_symop_operation_xyz
x,y,z
-x,-y,-z
loop_
_atom_site_type_symbol
_atom_site_label
_atom_site_fract_x
_atom_site_fract_y
_atom_site_fract_z
Si Si1 0.004046 0.741756 0.380291
Si Si2 0.674833 0.255431 0.353392
Si Si3 0.723705 0.061000 0.740971
Si Si4 0.827817 0.513410 0.438644
Si Si5 0.692624 0.380322 0.609563
Si Si6 0.211583 0.611591 0.096642
Si Si7 0.784587 0.412110 0.198979
Si Si8 0.877118 0.933666 0.155126
O O1 0.248194 0.728256 0.406050
O O2 0.098926 0.708693 0.260208
O O3 0.884622 0.578418 0.289254
O O4 0.816805 0.916511 0.555311
O O5 0.855924 0.379313 0.399021
O O6 0.398228 0.327355 0.394883
O O7 0.587777 0.283232 0.472470
O O8 0.826158 0.066051 0.193656
O O9 0.766240 0.243585 0.852513
O O10 0.414800 0.074831 0.795589
O O11 0.919923 0.012961 0.758437
O O12 0.734709 0.412605 0.294762
O O13 0.058986 0.576835 0.423587
O O14 0.506378 0.555980 0.784696
O O15 0.500000 0.500000 0.000000
O O16 0.000000 0.500000 0.000000
O O17 0.979195 0.248476 0.028024
#
# Coordination Sequence:
#
# PCOD9090108 Si02
#       8
#     2   2   2   2   2   2   2   2
#     4  11  24  43  71  96 136 178 228 275 333 409
#     4  10  20  39  62  97 132 176 232 280 336 399
#     4  12  26  47  70 103 134 181 226 280 332 405
#     4   9  20  37  64  92 134 178 228 281 337 399
#     4  10  19  38  63  95 126 178 226 274 336 399
#     4  12  28  48  72 106 141 176 218 278 346 404
#     4  10  23  39  62  97 136 179 225 278 343 402
#     4  12  26  43  69 100 141 178 227 283 340 398
#
# _framework density 22.199476000000001
#
# number of rings (size 3 to 8) (size 9 to 14) (size 15 to 20)
#    0.000    1.250    1.250    5.250    7.000    0.500 
#    0.000    3.125    0.000    0.000    0.000    0.000 
#    0.000    0.000    0.000    0.000    0.000    0.000 
#
# Total GULP energy -89203.260895 kJ/mol
# GULP energy per Si atom -5575.203806 kJ/mol
# Density = 2.214895 g / cm^3
# Si number density = 22.199476 Si / 1000 Ang^3
#
#
#
# Elastic Constant Matrix: (Units=GPa)
#
#
# Indices 1 2 3 4 5 6 
#
# 1 74.5588 9.9977 37.7789 1.1787 -21.7888 3.5268
# 2 9.9977 83.1922 16.3151 16.5186 -5.2688 2.9300
# 3 37.7789 16.3151 129.2952 21.7979 -28.3050 7.1949
# 4 1.1787 16.5186 21.7979 42.7822 -3.7304 3.9806
# 5 -21.7888 -5.2688 -28.3050 -3.7304 32.9301 0.2186
# 6 3.5268 2.9300 7.1949 3.9806 0.2186 30.2463
#
#
#
# Elastic Compliance Matrix: (Units=1/GPa)
#
#
# Indices 1 2 3 4 5 6 
#
# 1 0.018041 -0.001403 -0.003495 0.002759 0.009031 -0.001565
# 2 -0.001403 0.013253 -0.000349 -0.004833 0.000347 -0.000404
# 3 -0.003495 -0.000349 0.011151 -0.004714 0.006693 -0.001639
# 4 0.002759 -0.004833 -0.004714 0.027803 0.000165 -0.002392
# 5 0.009031 0.000347 0.006693 0.000165 0.042190 -0.003005
# 6 -0.001565 -0.000404 -0.001639 -0.002392 -0.003005 0.034010
#
#
# Mechanical properties :
#
#
# Convention : Reuss Voigt Hill
#
# Bulk Modulus (GPa) = 31.29922 46.13661 38.71791
# Shear Modulus (GPa) = 29.83407 36.05535 32.94471
#
# Velocity S-wave (km/s) = 3.66991 4.03445 3.85649
# Velocity P-wave (km/s) = 5.66457 6.52152 6.10809
#
# Compressibility (1/GPa) = 0.03194968
#
# Stress axis : x y z
#
# Youngs Moduli (GPa) = 55.42900 75.45311 89.67997
#
# Poissons Ratio (x) = 0.10588 0.31346
# Poissons Ratio (y) = 0.07778 0.03131
# Poissons Ratio (z) = 0.19374 0.02634
#
# Static dielectric constant tensor:
#      x y z
#    x 2.117160 -0.068770 0.056600 
#    y -0.068770 1.805300 0.009000 
#    z 0.056600 0.009000 1.879200 
# 
# From -- ./inp_files/56311.got.cif
#   From: 2010.05.17/outbox.cif.g08.bks.cpg/sg2_29_cif.got.tgz:56311.got - 2010.06.03 11:33:40.
