data_PCOD9090786
_publ_section_title
;
Structure prediction by ZEFSAII (Michael W. Deem and Ramdas Pophale) SiO2 
 PCOD9090786
Probable space group: P -1
;
_chemical_formula_sum "Si O2"
_cell_formula_units_Z 16
_cell_length_a 14.814985
_cell_length_b 8.777935
_cell_length_c 5.621674
_cell_angle_alpha 83.265536
_cell_angle_beta 100.157785
_cell_angle_gamma 63.342607
_cell_volume 626.888992
_symmetry_space_group_name_H-M "P -1"
_symmetry_group_IT_number 2
_symmetry_cell_setting 'triclinic'
loop_
_space_group_symop_operation_xyz
x,y,z
-x,-y,-z
loop_
_atom_site_type_symbol
_atom_site_label
_atom_site_fract_x
_atom_site_fract_y
_atom_site_fract_z
Si Si1 0.581608 0.911911 0.848398
Si Si2 0.762786 0.831180 0.306814
Si Si3 0.197074 0.846551 0.713331
Si Si4 0.388222 0.528042 0.699027
Si Si5 0.582918 0.225826 0.655201
Si Si6 0.889448 0.643865 0.010921
Si Si7 0.710410 0.614422 0.695891
Si Si8 0.166790 0.954912 0.177780
O O1 0.610869 0.724372 0.796558
O O2 0.564623 0.062185 0.627286
O O3 0.688835 0.870022 0.039119
O O4 0.500000 0.000000 0.000000
O O5 0.720085 0.753559 0.499550
O O6 0.762768 0.009713 0.329454
O O7 0.872611 0.683107 0.279022
O O8 0.296007 0.650527 0.815479
O O9 0.142085 0.878823 0.421143
O O10 0.132536 0.905782 0.918616
O O11 0.496019 0.343265 0.792202
O O12 0.432053 0.652433 0.596725
O O13 0.319355 0.500547 0.465355
O O14 0.706127 0.148592 0.777681
O O15 0.813818 0.563039 0.906267
O O16 0.868232 0.836596 0.865955
O O17 0.000000 0.500000 0.000000
#
# Coordination Sequence:
#
# PCOD9090786 Si02
#       8
#     2   2   2   2   2   2   2   2
#     4  11  22  36  59  88 121 171 211 263 314 378
#     4  10  20  39  62  86 122 163 209 265 324 381
#     4  10  19  39  59  86 119 171 209 250 313 378
#     4  10  23  34  60  88 124 173 212 261 304 388
#     4  10  19  40  53  88 123 175 216 244 314 381
#     4  10  21  39  66  97 119 157 215 274 335 385
#     4  11  21  42  57  91 130 156 215 271 325 373
#     4  10  19  39  63  85 123 165 215 261 312 386
#
# _framework density 25.522860000000001
#
# number of rings (size 3 to 8) (size 9 to 14) (size 15 to 20)
#    0.000    1.750    5.000    1.500    0.000    6.000 
#   13.500    0.000    0.000    6.000    0.000    0.000 
#    0.000    0.000    0.000    0.000    0.000    0.000 
#
# Total GULP energy -89189.020362 kJ/mol
# GULP energy per Si atom -5574.313773 kJ/mol
# Density = 2.546477 g / cm^3
# Si number density = 25.522860 Si / 1000 Ang^3
#
#
#
# Elastic Constant Matrix: (Units=GPa)
#
#
# Indices 1 2 3 4 5 6 
#
# 1 51.8134 35.4300 9.5095 13.0800 0.2869 -14.1693
# 2 35.4300 153.5480 20.7477 31.3459 -3.3152 -24.7012
# 3 9.5095 20.7477 74.2940 22.5359 -4.6289 -9.4089
# 4 13.0800 31.3459 22.5359 38.5352 6.4436 -6.8071
# 5 0.2869 -3.3152 -4.6289 6.4436 19.8380 4.8446
# 6 -14.1693 -24.7012 -9.4089 -6.8071 4.8446 44.2021
#
#
#
# Elastic Compliance Matrix: (Units=1/GPa)
#
#
# Indices 1 2 3 4 5 6 
#
# 1 0.024460 -0.004047 -0.000288 -0.003763 -0.001111 0.005060
# 2 -0.004047 0.009183 0.000422 -0.006410 0.003140 0.002593
# 3 -0.000288 0.000422 0.017511 -0.011534 0.007599 0.001262
# 4 -0.003763 -0.006410 -0.011534 0.042376 -0.017773 0.001231
# 5 -0.001111 0.003140 0.007599 -0.017773 0.060034 -0.006300
# 6 0.005060 0.002593 0.001262 0.001231 -0.006300 0.026843
#
#
# Mechanical properties :
#
#
# Convention : Reuss Voigt Hill
#
# Bulk Modulus (GPa) = 23.07956 45.66997 34.37477
# Shear Modulus (GPa) = 24.67014 34.77961 29.72487
#
# Velocity S-wave (km/s) = 3.11238 3.69546 3.41638
# Velocity P-wave (km/s) = 4.68809 6.01175 5.39070
#
# Compressibility (1/GPa) = 0.04332838
#
# Stress axis : x y z
#
# Youngs Moduli (GPa) = 40.88319 108.89879 57.10728
#
# Poissons Ratio (x) = 0.44070 0.01643
# Poissons Ratio (y) = 0.16545 -0.02409
# Poissons Ratio (z) = 0.01176 -0.04594
#
# Static dielectric constant tensor:
#      x y z
#    x 2.218580 -0.296680 -0.109550 
#    y -0.296680 2.309460 0.110130 
#    z -0.109550 0.110130 2.244210 
# 
# From -- ./inp_files/107230.got.cif
#   From: 2010.05.17/outbox.cif.g08.bks.cpg/sg2_54_cif.got.tgz:107230.got - 2010.06.03 11:33:40.
