data_PCOD9090021
_publ_section_title
;
Structure prediction by ZEFSAII (Michael W. Deem and Ramdas Pophale) SiO2 
 PCOD9090021
Probable space group: P -1
;
_chemical_formula_sum "Si O2"
_cell_formula_units_Z 16
_cell_length_a 20.461178
_cell_length_b 11.769993
_cell_length_c 9.202307
_cell_angle_alpha 34.903640
_cell_angle_beta 127.399045
_cell_angle_gamma 141.824023
_cell_volume 779.397690
_symmetry_space_group_name_H-M "P -1"
_symmetry_group_IT_number 2
_symmetry_cell_setting 'triclinic'
loop_
_space_group_symop_operation_xyz
x,y,z
-x,-y,-z
loop_
_atom_site_type_symbol
_atom_site_label
_atom_site_fract_x
_atom_site_fract_y
_atom_site_fract_z
Si Si1 0.418080 0.393598 0.131833
Si Si2 0.468997 0.747569 0.076491
Si Si3 0.682630 0.184811 0.374061
Si Si4 0.061973 0.018469 0.747262
Si Si5 0.851181 0.434638 0.093681
Si Si6 0.335924 0.674155 0.232548
Si Si7 0.727941 0.530570 0.316010
Si Si8 0.065505 0.788026 0.723760
O O1 0.362965 0.102732 0.390123
O O2 0.500000 0.500000 0.000000
O O3 0.469243 0.554783 0.179347
O O4 0.332682 0.415014 0.929761
O O5 0.407153 0.815705 0.822098
O O6 0.585081 0.014197 0.984172
O O7 0.397650 0.625141 0.254121
O O8 0.786800 0.357517 0.235347
O O9 0.712040 0.297045 0.458304
O O10 0.117866 0.987098 0.720016
O O11 0.152540 0.206420 0.786598
O O12 0.011607 0.156556 0.496530
O O13 0.962759 0.722212 0.958442
O O14 0.864828 0.223555 0.287850
O O15 0.777157 0.428968 0.878203
O O16 0.319533 0.563258 0.487663
O O17 0.000000 0.500000 0.000000
#
# Coordination Sequence:
#
# PCOD9090021 Si02
#       8
#     2   2   2   2   2   2   2   2
#     4  11  23  40  62  86 117 157 193 235 295 354
#     4   9  21  40  60  86 121 151 189 242 295 347
#     4  10  23  41  58  85 120 156 194 238 292 348
#     4  10  21  37  57  85 119 156 194 237 291 340
#     4  10  22  39  61  86 118 155 195 242 287 342
#     4  10  19  38  63  88 117 151 191 244 293 340
#     4  11  23  38  60  87 119 154 194 238 288 347
#     4   9  18  34  56  83 116 150 190 240 286 334
#
# _framework density 20.528673000000001
#
# number of rings (size 3 to 8) (size 9 to 14) (size 15 to 20)
#    0.000    2.000    0.000    3.750    0.000   10.500 
#    0.000   12.500    0.000    0.000    0.000    0.000 
#    0.000    0.000    0.000    0.000    0.000    0.000 
#
# Total GULP energy -89271.965682 kJ/mol
# GULP energy per Si atom -5579.497855 kJ/mol
# Density = 2.048195 g / cm^3
# Si number density = 20.528673 Si / 1000 Ang^3
#
#
#
# Elastic Constant Matrix: (Units=GPa)
#
#
# Indices 1 2 3 4 5 6 
#
# 1 54.1511 34.6105 18.5824 -14.2253 -2.7184 -17.2235
# 2 34.6105 102.2489 9.0605 -17.3792 -7.3532 -12.6605
# 3 18.5824 9.0605 61.6930 -13.7665 -1.5769 -12.7968
# 4 -14.2253 -17.3792 -13.7665 27.3636 -5.7022 -0.1766
# 5 -2.7184 -7.3532 -1.5769 -5.7022 31.1095 -2.7744
# 6 -17.2235 -12.6605 -12.7968 -0.1766 -2.7744 34.8636
#
#
#
# Elastic Compliance Matrix: (Units=1/GPa)
#
#
# Indices 1 2 3 4 5 6 
#
# 1 0.030617 -0.006395 -0.003188 0.011188 0.004125 0.012018
# 2 -0.006395 0.013714 0.002339 0.007510 0.004452 0.003072
# 3 -0.003188 0.002339 0.020970 0.011271 0.004059 0.007352
# 4 0.011188 0.007510 0.011271 0.055979 0.014820 0.013855
# 5 0.004125 0.004452 0.004059 0.014820 0.037209 0.008180
# 6 0.012018 0.003072 0.007352 0.013855 0.008180 0.039156
#
#
# Mechanical properties :
#
#
# Convention : Reuss Voigt Hill
#
# Bulk Modulus (GPa) = 19.67982 38.06664 28.87323
# Shear Modulus (GPa) = 21.82739 29.05664 25.44202
#
# Velocity S-wave (km/s) = 3.26431 3.76629 3.52425
# Velocity P-wave (km/s) = 4.88006 6.12345 5.53677
#
# Compressibility (1/GPa) = 0.05081346
#
# Stress axis : x y z
#
# Youngs Moduli (GPa) = 32.66206 72.91616 47.68762
#
# Poissons Ratio (x) = 0.46627 0.15202
# Poissons Ratio (y) = 0.20886 -0.11153
# Poissons Ratio (z) = 0.10412 -0.17054
#
# Static dielectric constant tensor:
#      x y z
#    x 1.848540 -0.018250 0.042760 
#    y -0.018250 1.719950 0.010530 
#    z 0.042760 0.010530 1.724780 
# 
# From -- ./inp_files/46251.got.cif
#   From: 2010.05.17/outbox.cif.g08.bks.cpg/sg2_24_cif.got.tgz:46251.got - 2010.06.03 11:33:40.
