data_PCOD9090969
_publ_section_title
;
Structure prediction by ZEFSAII (Michael W. Deem and Ramdas Pophale) SiO2 
 PCOD9090969
Probable space group: P -1
;
_chemical_formula_sum "Si O2"
_cell_formula_units_Z 15
_cell_length_a 11.906010
_cell_length_b 19.146737
_cell_length_c 23.858164
_cell_angle_alpha 20.760904
_cell_angle_beta 158.982679
_cell_angle_gamma 145.501949
_cell_volume 638.653585
_symmetry_space_group_name_H-M "P -1"
_symmetry_group_IT_number 2
_symmetry_cell_setting 'triclinic'
loop_
_space_group_symop_operation_xyz
x,y,z
-x,-y,-z
loop_
_atom_site_type_symbol
_atom_site_label
_atom_site_fract_x
_atom_site_fract_y
_atom_site_fract_z
Si Si1 0.810657 0.576240 0.593773
Si Si2 0.043358 0.575852 0.400141
Si Si3 0.566855 0.814201 0.595130
Si Si4 0.250112 0.506222 0.176679
Si Si5 0.194838 0.684666 0.605403
Si Si6 0.000000 0.000000 0.000000
Si Si7 0.422722 0.130734 0.190599
Si Si8 0.898922 0.343943 0.220844
O O1 0.500000 0.500000 0.500000
O O2 0.879396 0.739559 0.459799
O O3 0.839469 0.656535 0.608779
O O4 0.134616 0.361899 0.894510
O O5 0.452392 0.484320 0.653185
O O6 0.932529 0.823966 0.145570
O O7 0.000000 0.500000 0.500000
O O8 0.875962 0.473335 0.353518
O O9 0.594953 0.611415 0.720819
O O10 0.285422 0.848697 0.485661
O O11 0.483062 0.007346 0.369427
O O12 0.947688 0.732467 0.857502
O O13 0.075057 0.357133 0.235071
O O14 0.553146 0.559191 0.898140
O O15 0.265547 0.029778 0.145962
O O16 0.755772 0.163542 0.300766
#
# Coordination Sequence:
#
# PCOD9090969 Si02
#       8
#     2   2   2   2   2   1   2   2
#     4  11  23  42  66  88 122 171 221 266 320 387
#     4  12  21  38  61  91 134 171 204 266 331 382
#     4  10  21  38  61  91 126 169 205 268 323 393
#     4  10  21  38  59  91 129 165 216 247 335 390
#     4  10  19  39  62  87 124 169 208 252 337 378
#     4  12  22  36  64 100 124 168 214 262 334 396
#     4  11  22  41  62  94 130 163 221 267 322 387
#     4  10  22  39  63  90 125 175 214 261 316 386
#
# _framework density 23.486910999999999
#
# number of rings (size 3 to 8) (size 9 to 14) (size 15 to 20)
#    0.000    1.333    5.333    2.400    0.000    0.533 
#    2.400    8.000    0.000    0.000    0.000    0.000 
#    0.000    0.000    0.000    0.000    0.000    0.000 
#
# Total GULP energy -83517.279554 kJ/mol
# GULP energy per Si atom -5567.818637 kJ/mol
# Density = 2.343345 g / cm^3
# Si number density = 23.486911 Si / 1000 Ang^3
#
#
#
# Elastic Constant Matrix: (Units=GPa)
#
#
# Indices 1 2 3 4 5 6 
#
# 1 119.1563 29.9264 29.7322 -12.8031 -27.3242 36.0246
# 2 29.9264 105.0494 26.5955 10.4871 -17.2403 18.5621
# 3 29.7322 26.5955 59.2785 -10.3478 -25.5269 18.9144
# 4 -12.8031 10.4871 -10.3478 19.9464 7.8807 -7.0862
# 5 -27.3242 -17.2403 -25.5269 7.8807 40.6399 -10.8433
# 6 36.0246 18.5621 18.9144 -7.0862 -10.8433 50.7644
#
#
#
# Elastic Compliance Matrix: (Units=1/GPa)
#
#
# Indices 1 2 3 4 5 6 
#
# 1 0.012505 -0.002036 -0.000540 0.004767 0.004605 -0.006279
# 2 -0.002036 0.013795 -0.005324 -0.013524 0.002997 -0.002863
# 3 -0.000540 -0.005324 0.027691 0.010811 0.011608 -0.003999
# 4 0.004767 -0.013524 0.010811 0.071116 -0.007997 0.005753
# 5 0.004605 0.002997 0.011608 -0.007997 0.037327 -0.001832
# 6 -0.006279 -0.002863 -0.003999 0.005753 -0.001832 0.027103
#
#
# Mechanical properties :
#
#
# Convention : Reuss Voigt Hill
#
# Bulk Modulus (GPa) = 26.18453 50.66582 38.42518
# Shear Modulus (GPa) = 22.92844 35.41881 29.17363
#
# Velocity S-wave (km/s) = 3.12784 3.88754 3.52820
# Velocity P-wave (km/s) = 4.92111 6.46293 5.74398
#
# Compressibility (1/GPa) = 0.03819048
#
# Stress axis : x y z
#
# Youngs Moduli (GPa) = 79.96722 72.48857 36.11261
#
# Poissons Ratio (x) = 0.14762 0.01949
# Poissons Ratio (y) = 0.16285 0.19228
# Poissons Ratio (z) = 0.04316 0.38596
#
# Static dielectric constant tensor:
#      x y z
#    x 1.939400 0.047130 0.008490 
#    y 0.047130 1.935650 -0.039670 
#    z 0.008490 -0.039670 1.929450 
# 
# From -- ./inp_files/209389.got.cif
#   From: 2010.05.17/outbox.cif.g08.bks.cpg/sg2_105_cif.got.tgz:209389.got - 2010.06.03 11:33:40.
