data_PCOD9090114
_publ_section_title
;
Structure prediction by ZEFSAII (Michael W. Deem and Ramdas Pophale) SiO2 
 PCOD9090114
Probable space group: P -1
;
_chemical_formula_sum "Si O2"
_cell_formula_units_Z 14
_cell_length_a 12.083501
_cell_length_b 10.598627
_cell_length_c 5.739982
_cell_angle_alpha 91.956957
_cell_angle_beta 66.398635
_cell_angle_gamma 123.419456
_cell_volume 545.299815
_symmetry_space_group_name_H-M "P -1"
_symmetry_group_IT_number 2
_symmetry_cell_setting 'triclinic'
loop_
_space_group_symop_operation_xyz
x,y,z
-x,-y,-z
loop_
_atom_site_type_symbol
_atom_site_label
_atom_site_fract_x
_atom_site_fract_y
_atom_site_fract_z
Si Si1 0.831002 0.802393 0.006250
Si Si2 0.469774 0.881157 0.305580
Si Si3 0.240300 0.981332 0.193906
Si Si4 0.557392 0.481560 0.192980
Si Si5 0.134001 0.590007 0.583955
Si Si6 0.005388 0.709698 0.067500
Si Si7 0.638606 0.828125 0.495499
O O1 0.804923 0.903258 0.856324
O O2 0.729897 0.618189 0.025458
O O3 0.763509 0.808095 0.308340
O O4 0.981471 0.825501 0.951427
O O5 0.602931 0.983456 0.017121
O O6 0.300186 0.737890 0.379515
O O7 0.542490 0.799776 0.351242
O O8 0.500000 0.000000 0.500000
O O9 0.269570 0.008461 0.443793
O O10 0.111757 0.815140 0.195980
O O11 0.500000 0.500000 0.500000
O O12 0.487516 0.300139 0.234913
O O13 0.500000 0.500000 0.000000
O O14 0.000000 0.500000 0.500000
O O15 0.131515 0.450855 0.706245
O O16 0.082969 0.658682 0.827108
#
# Coordination Sequence:
#
# PCOD9090114 Si02
#       7
#     2   2   2   2   2   2   2
#     4  10  22  40  64 100 141 174 224 291 360 424
#     4  11  24  45  69  97 135 177 235 294 344 423
#     4  11  23  41  73 101 133 178 230 287 359 426
#     4  10  19  38  63  96 143 183 232 293 356 439
#     4  11  27  48  68  97 135 185 232 283 352 417
#     4  11  25  45  67  97 141 179 230 287 349 431
#     4  10  23  39  66 103 136 177 232 288 363 426
#
# _framework density 25.673950999999999
#
# number of rings (size 3 to 8) (size 9 to 14) (size 15 to 20)
#    0.000    1.429    2.857    1.286    2.000    6.857 
#    0.000    0.000    0.000    0.000    0.000    0.000 
#    0.000    0.000    0.000    0.000    0.000    0.000 
#
# Total GULP energy -77995.033286 kJ/mol
# GULP energy per Si atom -5571.073806 kJ/mol
# Density = 2.561552 g / cm^3
# Si number density = 25.673951 Si / 1000 Ang^3
#
#
#
# Elastic Constant Matrix: (Units=GPa)
#
#
# Indices 1 2 3 4 5 6 
#
# 1 107.0262 37.0056 1.8909 -6.5696 7.8391 3.8364
# 2 37.0056 156.6737 24.5308 -11.7686 -6.0173 24.9088
# 3 1.8909 24.5308 39.5743 -6.5514 -7.1255 11.3667
# 4 -6.5696 -11.7686 -6.5514 47.3289 5.8819 9.0990
# 5 7.8391 -6.0173 -7.1255 5.8819 32.1994 1.5196
# 6 3.8364 24.9088 11.3667 9.0990 1.5196 47.8274
#
#
#
# Elastic Compliance Matrix: (Units=1/GPa)
#
#
# Indices 1 2 3 4 5 6 
#
# 1 0.010553 -0.002670 0.000723 0.001247 -0.003147 0.000235
# 2 -0.002670 0.008320 -0.003449 0.001767 0.001293 -0.003677
# 3 0.000723 -0.003449 0.030944 0.004095 0.005589 -0.006573
# 4 0.001247 0.001767 0.004095 0.023937 -0.003135 -0.006448
# 5 -0.003147 0.001293 0.005589 -0.003135 0.033979 -0.002232
# 6 0.000235 -0.003677 -0.006573 -0.006448 -0.002232 0.025664
#
#
# Mechanical properties :
#
#
# Convention : Reuss Voigt Hill
#
# Bulk Modulus (GPa) = 25.62394 47.79208 36.70801
# Shear Modulus (GPa) = 31.80704 41.46093 36.63398
#
# Velocity S-wave (km/s) = 3.52360 4.02294 3.78152
# Velocity P-wave (km/s) = 5.15330 6.34304 5.77887
#
# Compressibility (1/GPa) = 0.03902601
#
# Stress axis : x y z
#
# Youngs Moduli (GPa) = 94.76312 120.18822 32.31611
#
# Poissons Ratio (x) = 0.32094 -0.02337
# Poissons Ratio (y) = 0.25305 0.11144
# Poissons Ratio (z) = -0.06854 0.41448
#
# Static dielectric constant tensor:
#      x y z
#    x 2.143180 0.063840 0.006390 
#    y 0.063840 2.164020 -0.155000 
#    z 0.006390 -0.155000 2.691300 
# 
# From -- ./inp_files/71139.got.cif
#   From: 2010.05.17/outbox.cif.g08.bks.cpg/sg2_36_cif.got.tgz:71139.got - 2010.06.03 11:33:40.
