data_PCOD9090479
_publ_section_title
;
Structure prediction by ZEFSAII (Michael W. Deem and Ramdas Pophale) SiO2 
 PCOD9090479
Probable space group: P -1
;
_chemical_formula_sum "Si O2"
_cell_formula_units_Z 16
_cell_length_a 11.634150
_cell_length_b 16.784120
_cell_length_c 9.460352
_cell_angle_alpha 79.889869
_cell_angle_beta 112.388456
_cell_angle_gamma 43.129851
_cell_volume 813.457713
_symmetry_space_group_name_H-M "P -1"
_symmetry_group_IT_number 2
_symmetry_cell_setting 'triclinic'
loop_
_space_group_symop_operation_xyz
x,y,z
-x,-y,-z
loop_
_atom_site_type_symbol
_atom_site_label
_atom_site_fract_x
_atom_site_fract_y
_atom_site_fract_z
Si Si1 0.668781 0.053371 0.456373
Si Si2 0.045830 0.725399 0.563871
Si Si3 0.893661 0.634702 0.817290
Si Si4 0.374412 0.622759 0.527887
Si Si5 0.100122 0.944883 0.228491
Si Si6 0.053843 0.533800 0.631520
Si Si7 0.377863 0.793610 0.868686
Si Si8 0.357488 0.498157 0.035064
O O1 0.385994 0.181597 0.319333
O O2 0.783643 0.038104 0.650713
O O3 0.641848 0.132811 0.291264
O O4 0.833979 0.888825 0.511467
O O5 0.125178 0.726378 0.457959
O O6 0.998573 0.658273 0.525925
O O7 0.280230 0.587796 0.828666
O O8 0.873674 0.616088 0.653592
O O9 0.000000 0.500000 0.000000
O O10 0.110351 0.580491 0.925320
O O11 0.500000 0.500000 0.500000
O O12 0.300160 0.756366 0.404603
O O13 0.584478 0.496991 0.789806
O O14 0.853689 0.068711 0.174232
O O15 0.000000 0.000000 0.000000
O O16 0.000000 0.500000 0.500000
O O17 0.349967 0.356462 0.876084
O O18 0.395798 0.697196 0.828330
#
# Coordination Sequence:
#
# PCOD9090479 Si02
#       8
#     2   2   2   2   2   2   2   2
#     4  12  21  42  69  90 130 167 220 265 306 394
#     4  10  24  41  65  94 123 171 218 255 326 370
#     4  10  19  38  66  93 115 170 222 249 314 379
#     4  12  25  41  62  93 135 163 212 270 326 376
#     4  12  27  39  63 100 130 170 211 270 329 365
#     4  10  24  42  67  92 131 167 208 266 324 384
#     4  10  20  43  65  88 124 173 216 250 318 386
#     4  10  22  41  64  92 123 173 214 257 313 389
#
# _framework density 19.669122999999999
#
# number of rings (size 3 to 8) (size 9 to 14) (size 15 to 20)
#    0.000    1.500    5.000    1.500    7.000    3.000 
#    0.000    1.875    0.000    0.000    0.000    0.000 
#    0.000    0.000    0.000    0.000    0.000    0.000 
#
# Total GULP energy -89187.305426 kJ/mol
# GULP energy per Si atom -5574.206589 kJ/mol
# Density = 1.962436 g / cm^3
# Si number density = 19.669123 Si / 1000 Ang^3
#
#
#
# Elastic Constant Matrix: (Units=GPa)
#
#
# Indices 1 2 3 4 5 6 
#
# 1 56.2937 35.2452 24.7704 13.3063 -5.5398 2.5055
# 2 35.2452 164.2175 43.3576 12.4910 10.7125 0.3033
# 3 24.7704 43.3576 53.6254 14.6171 -1.8859 6.1469
# 4 13.3063 12.4910 14.6171 44.3276 -0.4519 1.3976
# 5 -5.5398 10.7125 -1.8859 -0.4519 27.0713 -2.3123
# 6 2.5055 0.3033 6.1469 1.3976 -2.3123 42.4285
#
#
#
# Elastic Compliance Matrix: (Units=1/GPa)
#
#
# Indices 1 2 3 4 5 6 
#
# 1 0.024646 -0.003433 -0.007335 -0.003955 0.005832 0.000080
# 2 -0.003433 0.008590 -0.005714 0.000426 -0.004432 0.000714
# 3 -0.007335 -0.005714 0.028623 -0.005496 0.002375 -0.003362
# 4 -0.003955 0.000426 -0.005496 0.025425 -0.000925 0.000139
# 5 0.005832 -0.004432 0.002375 -0.000925 0.040170 0.001563
# 6 0.000080 0.000714 -0.003362 0.000139 0.001563 0.024127
#
#
# Mechanical properties :
#
#
# Convention : Reuss Voigt Hill
#
# Bulk Modulus (GPa) = 34.60630 53.43147 44.01888
# Shear Modulus (GPa) = 25.74995 34.14970 29.94982
#
# Velocity S-wave (km/s) = 3.62215 4.17130 3.90639
# Velocity P-wave (km/s) = 5.92670 7.10097 6.54024
#
# Compressibility (1/GPa) = 0.02889647
#
# Stress axis : x y z
#
# Youngs Moduli (GPa) = 40.57461 116.41296 34.93744
#
# Poissons Ratio (x) = 0.39962 0.25626
# Poissons Ratio (y) = 0.13928 0.19962
# Poissons Ratio (z) = 0.29761 0.66513
#
# Static dielectric constant tensor:
#      x y z
#    x 1.773390 0.022950 0.009270 
#    y 0.022950 1.707160 -0.005940 
#    z 0.009270 -0.005940 1.734030 
# 
# From -- ./inp_files/277847.got.cif
#   From: 2010.05.17/outbox.cif.g08.bks.cpg/sg2_139_cif.got.tgz:277847.got - 2010.06.03 11:33:40.
