data_PCOD9090473
_publ_section_title
;
Structure prediction by ZEFSAII (Michael W. Deem and Ramdas Pophale) SiO2 
 PCOD9090473
Probable space group: P -1
;
_chemical_formula_sum "Si O2"
_cell_formula_units_Z 16
_cell_length_a 12.067006
_cell_length_b 7.748304
_cell_length_c 8.473428
_cell_angle_alpha 56.967902
_cell_angle_beta 60.522338
_cell_angle_gamma 71.795058
_cell_volume 577.157150
_symmetry_space_group_name_H-M "P -1"
_symmetry_group_IT_number 2
_symmetry_cell_setting 'triclinic'
loop_
_space_group_symop_operation_xyz
x,y,z
-x,-y,-z
loop_
_atom_site_type_symbol
_atom_site_label
_atom_site_fract_x
_atom_site_fract_y
_atom_site_fract_z
Si Si1 0.272617 0.584963 0.865191
Si Si2 0.685803 0.177846 0.617109
Si Si3 0.176614 0.314485 0.516448
Si Si4 0.061140 0.731648 0.521738
Si Si5 0.919106 0.721499 0.927851
Si Si6 0.803230 0.043904 0.082336
Si Si7 0.436946 0.446440 0.318461
Si Si8 0.534253 0.944602 0.321822
O O1 0.277778 0.704887 0.631704
O O2 0.183782 0.723436 0.982200
O O3 0.418125 0.576114 0.829389
O O4 0.215974 0.364948 0.985113
O O5 0.813542 0.139500 0.647472
O O6 0.595504 0.326995 0.711467
O O7 0.592902 0.007433 0.711996
O O8 0.126387 0.495839 0.582996
O O9 0.314601 0.387399 0.330574
O O10 0.059356 0.284400 0.498789
O O11 0.203320 0.095169 0.687568
O O12 0.000876 0.807403 0.688458
O O13 0.901108 0.901053 0.981209
O O14 0.000000 0.500000 0.000000
O O15 0.659289 0.038993 0.121167
O O16 0.432279 0.299704 0.551716
O O17 0.500000 0.000000 0.500000
#
# Coordination Sequence:
#
# PCOD9090473 Si02
#       8
#     2   2   2   2   2   2   2   2
#     4  11  20  34  57  88 115 144 194 240 287 342
#     4  10  17  31  54  81 115 142 187 235 292 330
#     4   9  19  36  61  83 113 152 191 233 295 334
#     4  10  20  38  56  82 121 155 188 233 278 357
#     4  12  22  38  57  83 120 156 189 234 289 341
#     4  11  21  36  61  90 112 147 191 247 290 336
#     4   9  17  31  55  83 108 142 186 244 284 332
#     4  10  16  28  51  83 112 131 179 243 286 316
#
# _framework density 27.722085
#
# number of rings (size 3 to 8) (size 9 to 14) (size 15 to 20)
#    0.000    1.750    5.000    3.750    0.000    0.500 
#    0.000    1.250    0.000    3.750    0.000    0.000 
#    0.000    0.000    0.000    0.000    0.000    0.000 
#
# Total GULP energy -89460.581447 kJ/mol
# GULP energy per Si atom -5591.286340 kJ/mol
# Density = 2.765899 g / cm^3
# Si number density = 27.722085 Si / 1000 Ang^3
#
#
#
# Elastic Constant Matrix: (Units=GPa)
#
#
# Indices 1 2 3 4 5 6 
#
# 1 179.5435 44.2996 16.0090 3.7506 -43.2087 -0.7787
# 2 44.2996 188.2882 19.6086 35.0151 -9.5280 -4.2739
# 3 16.0090 19.6086 70.3590 11.1859 -14.7303 -8.0428
# 4 3.7506 35.0151 11.1859 33.6531 -7.0734 -8.4049
# 5 -43.2087 -9.5280 -14.7303 -7.0734 34.7049 -5.2218
# 6 -0.7787 -4.2739 -8.0428 -8.4049 -5.2218 35.4771
#
#
#
# Elastic Compliance Matrix: (Units=1/GPa)
#
#
# Indices 1 2 3 4 5 6 
#
# 1 0.008916 -0.002326 0.000791 0.004451 0.012147 0.002937
# 2 -0.002326 0.007269 -0.001110 -0.008084 -0.003294 -0.001827
# 3 0.000791 -0.001110 0.016833 -0.001690 0.008157 0.004500
# 4 0.004451 -0.008084 -0.001690 0.043717 0.013175 0.011037
# 5 0.012147 -0.003294 0.008157 0.013175 0.051040 0.012353
# 6 0.002937 -0.001827 0.004500 0.011037 0.012353 0.033485
#
#
# Mechanical properties :
#
#
# Convention : Reuss Voigt Hill
#
# Bulk Modulus (GPa) = 36.06535 66.44724 51.25629
# Shear Modulus (GPa) = 28.44247 44.65193 36.54720
#
# Velocity S-wave (km/s) = 3.20658 4.01771 3.63484
# Velocity P-wave (km/s) = 5.17179 6.74861 6.01212
#
# Compressibility (1/GPa) = 0.02772745
#
# Stress axis : x y z
#
# Youngs Moduli (GPa) = 112.15515 137.56899 59.40686
#
# Poissons Ratio (x) = 0.32005 -0.04698
# Poissons Ratio (y) = 0.26092 0.06593
# Poissons Ratio (z) = -0.08870 0.15268
#
# Static dielectric constant tensor:
#      x y z
#    x 2.285970 -0.025410 0.043040 
#    y -0.025410 2.186050 -0.041230 
#    z 0.043040 -0.041230 2.204370 
# 
# From -- ./inp_files/416501.got.cif
#   From: 2010.05.17/outbox.cif.g08.bks.cpg/sg2_209_cif.got.tgz:416501.got - 2010.06.03 11:33:40.
