data_PCOD9090103
_publ_section_title
;
Structure prediction by ZEFSAII (Michael W. Deem and Ramdas Pophale) SiO2 
 PCOD9090103
Probable space group: P -1
;
_chemical_formula_sum "Si O2"
_cell_formula_units_Z 15
_cell_length_a 15.854000
_cell_length_b 8.120833
_cell_length_c 9.259015
_cell_angle_alpha 132.216626
_cell_angle_beta 55.641008
_cell_angle_gamma 87.848518
_cell_volume 533.245206
_symmetry_space_group_name_H-M "P -1"
_symmetry_group_IT_number 2
_symmetry_cell_setting 'triclinic'
loop_
_space_group_symop_operation_xyz
x,y,z
-x,-y,-z
loop_
_atom_site_type_symbol
_atom_site_label
_atom_site_fract_x
_atom_site_fract_y
_atom_site_fract_z
Si Si1 0.718320 0.776861 0.610605
Si Si2 0.367007 0.739570 0.583501
Si Si3 0.582978 0.710538 0.494970
Si Si4 0.904579 0.653785 0.865864
Si Si5 0.749420 0.232718 0.815440
Si Si6 0.154210 0.552665 0.441749
Si Si7 0.979418 0.803190 0.131981
Si Si8 0.500000 0.500000 0.000000
O O1 0.602647 0.914710 0.676833
O O2 0.716959 0.651242 0.691374
O O3 0.714373 0.042238 0.804753
O O4 0.857649 0.474723 0.219279
O O5 0.440635 0.854357 0.640163
O O6 0.404067 0.481234 0.498233
O O7 0.421560 0.638886 0.310902
O O8 0.203073 0.013259 0.902879
O O9 0.702854 0.478005 0.124883
O O10 0.849863 0.508745 0.760292
O O11 0.056373 0.503157 0.576275
O O12 0.907246 0.696751 0.059747
O O13 0.908387 0.956818 0.445456
O O14 0.646877 0.396353 0.873009
O O15 0.074781 0.902397 0.729957
#
# Coordination Sequence:
#
# PCOD9090103 Si02
#       8
#     2   2   2   2   2   2   2   1
#     4  11  23  40  63  98 131 171 213 267 321 392
#     4  10  19  41  66  91 126 176 210 269 317 378
#     4  10  23  40  63  92 133 166 215 262 324 382
#     4  10  19  38  63  94 129 164 218 264 312 383
#     4  11  24  43  63  96 131 173 212 266 326 377
#     4  10  22  37  66 100 127 170 217 264 322 384
#     4  11  22  39  66  95 131 171 213 268 325 376
#     4  10  22  42  66  90 128 170 216 262 318 372
#
# _framework density 28.129648
#
# number of rings (size 3 to 8) (size 9 to 14) (size 15 to 20)
#    0.000    1.600    1.333    4.400    0.000    3.733 
#    2.400    8.000    0.000    0.000    0.000    0.000 
#    0.000    0.000    0.000    0.000    0.000    0.000 
#
# Total GULP energy -83708.842196 kJ/mol
# GULP energy per Si atom -5580.589480 kJ/mol
# Density = 2.806562 g / cm^3
# Si number density = 28.129648 Si / 1000 Ang^3
#
#
#
# Elastic Constant Matrix: (Units=GPa)
#
#
# Indices 1 2 3 4 5 6 
#
# 1 141.4565 1.4900 43.8458 -10.1326 28.1735 -33.3716
# 2 1.4900 52.5954 10.8579 -17.7274 11.8375 -7.9497
# 3 43.8458 10.8579 133.0323 -34.0998 8.5213 -10.7204
# 4 -10.1326 -17.7274 -34.0998 41.4605 -4.9820 3.6684
# 5 28.1735 11.8375 8.5213 -4.9820 42.2363 2.5173
# 6 -33.3716 -7.9497 -10.7204 3.6684 2.5173 32.8980
#
#
#
# Elastic Compliance Matrix: (Units=1/GPa)
#
#
# Indices 1 2 3 4 5 6 
#
# 1 0.013567 0.005025 -0.002874 0.000505 -0.010701 0.014802
# 2 0.005025 0.026374 0.000491 0.010684 -0.010251 0.011223
# 3 -0.002874 0.000491 0.010461 0.008222 0.000660 -0.000355
# 4 0.000505 0.010684 0.008222 0.035291 -0.000941 0.001910
# 5 -0.010701 -0.010251 0.000660 -0.000941 0.034375 -0.015642
# 6 0.014802 0.011223 -0.000355 0.001910 -0.015642 0.048992
#
#
# Mechanical properties :
#
#
# Convention : Reuss Voigt Hill
#
# Bulk Modulus (GPa) = 17.95823 48.83020 33.39422
# Shear Modulus (GPa) = 27.42164 41.37832 34.39998
#
# Velocity S-wave (km/s) = 3.12562 3.83950 3.50080
# Velocity P-wave (km/s) = 4.40726 6.08707 5.31396
#
# Compressibility (1/GPa) = 0.05568477
#
# Stress axis : x y z
#
# Youngs Moduli (GPa) = 73.71083 37.91623 95.59627
#
# Poissons Ratio (x) = -0.19052 0.27473
# Poissons Ratio (y) = -0.37038 -0.04693
# Poissons Ratio (z) = 0.21183 -0.01861
#
# Static dielectric constant tensor:
#      x y z
#    x 2.353610 0.066630 -0.159060 
#    y 0.066630 2.305110 -0.097260 
#    z -0.159060 -0.097260 1.462360 
# 
# From -- ./inp_files/299624.got.cif
#   From: 2010.05.17/outbox.cif.g08.bks.cpg/sg2_150_cif.got.tgz:299624.got - 2010.06.03 11:33:40.
