data_PCOD9090971
_publ_section_title
;
Structure prediction by ZEFSAII (Michael W. Deem and Ramdas Pophale) SiO2 
 PCOD9090971
Probable space group: P -1
;
_chemical_formula_sum "Si O2"
_cell_formula_units_Z 16
_cell_length_a 13.697101
_cell_length_b 8.662362
_cell_length_c 15.451091
_cell_angle_alpha 138.769165
_cell_angle_beta 43.767806
_cell_angle_gamma 116.501262
_cell_volume 816.731631
_symmetry_space_group_name_H-M "P -1"
_symmetry_group_IT_number 2
_symmetry_cell_setting 'triclinic'
loop_
_space_group_symop_operation_xyz
x,y,z
-x,-y,-z
loop_
_atom_site_type_symbol
_atom_site_label
_atom_site_fract_x
_atom_site_fract_y
_atom_site_fract_z
Si Si1 0.909579 0.014154 0.651903
Si Si2 0.368562 0.925348 0.905687
Si Si3 0.709477 0.769268 0.578298
Si Si4 0.686273 0.399691 0.040594
Si Si5 0.797582 0.069987 0.487565
Si Si6 0.664709 0.939055 0.339417
Si Si7 0.346276 0.682858 0.647887
Si Si8 0.590148 0.551503 0.879259
O O1 0.803857 0.834836 0.624533
O O2 0.808579 0.273974 0.842308
O O3 0.000000 0.000000 0.500000
O O4 0.030829 0.959402 0.624458
O O5 0.542748 0.841529 0.745275
O O6 0.313893 0.792183 0.964349
O O7 0.297611 0.829690 0.827389
O O8 0.349172 0.209315 0.046128
O O9 0.744106 0.495854 0.410599
O O10 0.738459 0.912036 0.533247
O O11 0.705646 0.658801 0.169113
O O12 0.530182 0.423734 0.107585
O O13 0.716847 0.334892 0.678341
O O14 0.755214 0.998576 0.388983
O O15 0.500000 0.000000 0.500000
O O16 0.656779 0.115855 0.337590
O O17 0.500000 0.500000 0.500000
O O18 0.500000 0.500000 0.000000
#
# Coordination Sequence:
#
# PCOD9090971 Si02
#       8
#     2   2   2   2   2   2   2   2
#     4  10  23  43  63  91 129 176 211 252 322 391
#     4  11  21  37  62  97 125 159 215 266 320 369
#     4  10  19  39  62  87 130 167 208 256 320 377
#     4  12  24  39  68  92 129 167 212 266 319 377
#     4  11  23  39  65  94 127 170 212 260 315 381
#     4  12  22  39  63  97 129 160 217 268 317 375
#     4  10  22  35  59  91 129 163 199 265 329 370
#     4  12  21  37  62  94 125 161 214 266 307 365
#
# _framework density 19.59028
#
# number of rings (size 3 to 8) (size 9 to 14) (size 15 to 20)
#    0.000    1.000    3.750    5.625    0.000    0.500 
#    0.000    2.500    0.000    4.500    0.000    0.000 
#    0.000    0.000    0.000    0.000    0.000    0.000 
#
# Total GULP energy -89282.791110 kJ/mol
# GULP energy per Si atom -5580.174444 kJ/mol
# Density = 1.954569 g / cm^3
# Si number density = 19.590280 Si / 1000 Ang^3
#
#
#
# Elastic Constant Matrix: (Units=GPa)
#
#
# Indices 1 2 3 4 5 6 
#
# 1 62.9616 -0.1447 9.5801 15.8980 15.8413 10.5704
# 2 -0.1447 94.5099 42.6247 30.0567 19.0359 -10.1845
# 3 9.5801 42.6247 80.9187 34.1517 12.9543 25.8961
# 4 15.8980 30.0567 34.1517 38.1335 11.1476 10.2422
# 5 15.8413 19.0359 12.9543 11.1476 35.5140 2.2470
# 6 10.5704 -10.1845 25.8961 10.2422 2.2470 30.5476
#
#
#
# Elastic Compliance Matrix: (Units=1/GPa)
#
#
# Indices 1 2 3 4 5 6 
#
# 1 0.020956 0.003071 0.003095 -0.010105 -0.008645 -0.004827
# 2 0.003071 0.025843 -0.015870 -0.012210 -0.007222 0.025632
# 3 0.003095 -0.015870 0.036008 -0.012191 -0.000107 -0.032792
# 4 -0.010105 -0.012210 -0.012191 0.053364 -0.000741 -0.008077
# 5 -0.008645 -0.007222 -0.000107 -0.000741 0.036267 -0.001745
# 6 -0.004827 0.025632 -0.032792 -0.008077 -0.001745 0.073587
#
#
# Mechanical properties :
#
#
# Convention : Reuss Voigt Hill
#
# Bulk Modulus (GPa) = 15.77307 38.05672 26.91490
# Shear Modulus (GPa) = 17.44788 33.26101 25.35445
#
# Velocity S-wave (km/s) = 2.98760 4.12495 3.60145
# Velocity P-wave (km/s) = 4.46877 6.49272 5.57339
#
# Compressibility (1/GPa) = 0.06339919
#
# Stress axis : x y z
#
# Youngs Moduli (GPa) = 47.71886 38.69494 27.77153
#
# Poissons Ratio (x) = -0.11884 -0.08596
# Poissons Ratio (y) = -0.14655 0.44074
# Poissons Ratio (z) = -0.14770 0.61410
#
# Static dielectric constant tensor:
#      x y z
#    x 1.713420 0.021930 0.006190 
#    y 0.021930 1.645350 0.015560 
#    z 0.006190 0.015560 1.683040 
# 
# From -- ./inp_files/516351.got.cif
#   From: 2010.05.17/outbox.cif.g08.bks.cpg/sg2_259_cif.got.tgz:516351.got - 2010.06.03 11:33:40.
