data_PCOD9090324
_publ_section_title
;
Structure prediction by ZEFSAII (Michael W. Deem and Ramdas Pophale) SiO2 
 PCOD9090324
Probable space group: P -1
;
_chemical_formula_sum "Si O2"
_cell_formula_units_Z 16
_cell_length_a 16.608273
_cell_length_b 9.273903
_cell_length_c 8.817891
_cell_angle_alpha 50.588763
_cell_angle_beta 119.920894
_cell_angle_gamma 81.161938
_cell_volume 647.378099
_symmetry_space_group_name_H-M "P -1"
_symmetry_group_IT_number 2
_symmetry_cell_setting 'triclinic'
loop_
_space_group_symop_operation_xyz
x,y,z
-x,-y,-z
loop_
_atom_site_type_symbol
_atom_site_label
_atom_site_fract_x
_atom_site_fract_y
_atom_site_fract_z
Si Si1 0.729486 0.956165 0.563968
Si Si2 0.544907 0.744888 0.789334
Si Si3 0.822881 0.963398 0.277368
Si Si4 0.762559 0.104938 0.779585
Si Si5 0.803268 0.408494 0.451880
Si Si6 0.088066 0.962358 0.432010
Si Si7 0.534384 0.435444 0.752240
Si Si8 0.138646 0.458009 0.284631
O O1 0.795484 0.055727 0.502252
O O2 0.775562 0.719312 0.663093
O O3 0.573171 0.176284 0.275786
O O4 0.767058 0.914815 0.805454
O O5 0.571478 0.568945 0.791297
O O6 0.500000 0.000000 0.500000
O O7 0.664679 0.608945 0.103792
O O8 0.879705 0.069971 0.337300
O O9 0.913892 0.670411 0.624398
O O10 0.809313 0.998091 0.062768
O O11 0.672163 0.130098 0.078769
O O12 0.839398 0.166226 0.736544
O O13 0.612807 0.395000 0.439851
O O14 0.803416 0.553622 0.492724
O O15 0.896614 0.255760 0.493737
O O16 0.963082 0.248457 0.064634
O O17 0.500000 0.500000 0.500000
#
# Coordination Sequence:
#
# PCOD9090324 Si02
#       8
#     2   2   2   2   2   2   2   2
#     4   9  21  39  63  91 124 156 211 250 307 365
#     4  11  24  39  63  97 131 160 198 262 323 373
#     4  10  19  38  65  89 119 165 213 255 299 370
#     4   9  21  37  60  91 125 160 204 247 320 376
#     4  11  24  40  63  90 131 162 201 261 322 367
#     4  10  21  44  66  86 122 171 216 256 298 368
#     4   9  19  35  60  88 122 159 202 241 308 376
#     4  11  24  40  64  92 126 166 216 254 305 360
#
# _framework density 24.715078999999999
#
# number of rings (size 3 to 8) (size 9 to 14) (size 15 to 20)
#    0.000    2.000    1.250    1.875    8.750    4.000 
#    0.000    6.250    2.750    0.000    0.000    0.000 
#    0.000    0.000    0.000    0.000    0.000    0.000 
#
# Total GULP energy -89189.215041 kJ/mol
# GULP energy per Si atom -5574.325940 kJ/mol
# Density = 2.465883 g / cm^3
# Si number density = 24.715079 Si / 1000 Ang^3
#
#
#
# Elastic Constant Matrix: (Units=GPa)
#
#
# Indices 1 2 3 4 5 6 
#
# 1 30.2598 18.9696 25.4734 1.2982 -2.6685 -1.5948
# 2 18.9696 216.8008 62.4795 35.5159 3.5489 -27.2435
# 3 25.4734 62.4795 133.3651 24.2322 -0.5910 -14.9477
# 4 1.2982 35.5159 24.2322 53.1036 -0.5365 -5.1088
# 5 -2.6685 3.5489 -0.5910 -0.5365 31.9276 3.9072
# 6 -1.5948 -27.2435 -14.9477 -5.1088 3.9072 27.3012
#
#
#
# Elastic Compliance Matrix: (Units=1/GPa)
#
#
# Indices 1 2 3 4 5 6 
#
# 1 0.041257 -0.002611 -0.007842 0.003940 0.004192 -0.004352
# 2 -0.002611 0.006423 -0.001372 -0.003127 -0.001641 0.005156
# 3 -0.007842 -0.001372 0.010647 -0.003423 -0.000789 0.003474
# 4 0.003940 -0.003127 -0.003423 0.022327 0.001079 -0.000740
# 5 0.004192 -0.001641 -0.000789 0.001079 0.032627 -0.006292
# 6 -0.004352 0.005156 0.003474 -0.000740 -0.006292 0.044184
#
#
# Mechanical properties :
#
#
# Convention : Reuss Voigt Hill
#
# Bulk Modulus (GPa) = 28.83733 66.03006 47.43370
# Shear Modulus (GPa) = 25.95067 40.70002 33.32535
#
# Velocity S-wave (km/s) = 3.24388 4.06244 3.67601
# Velocity P-wave (km/s) = 5.07184 6.98420 6.10339
#
# Compressibility (1/GPa) = 0.03467727
#
# Stress axis : x y z
#
# Youngs Moduli (GPa) = 24.23847 155.68413 93.92638
#
# Poissons Ratio (x) = 0.40644 0.73659
# Poissons Ratio (y) = 0.06328 0.12885
# Poissons Ratio (z) = 0.19008 0.21357
#
# Static dielectric constant tensor:
#      x y z
#    x 2.093730 -0.092430 0.018000 
#    y -0.092430 2.093890 0.021450 
#    z 0.018000 0.021450 1.959100 
# 
# From -- ./inp_files/237895.got.cif
#   From: 2010.05.17/outbox.cif.g08.bks.cpg/sg2_119_cif.got.tgz:237895.got - 2010.06.03 11:33:40.
