data_PCOD9090878
_publ_section_title
;
Structure prediction by ZEFSAII (Michael W. Deem and Ramdas Pophale) SiO2 
 PCOD9090878
Probable space group: P -1
;
_chemical_formula_sum "Si O2"
_cell_formula_units_Z 12
_cell_length_a 14.532296
_cell_length_b 7.460880
_cell_length_c 15.519939
_cell_angle_alpha 73.964726
_cell_angle_beta 150.888966
_cell_angle_gamma 126.315353
_cell_volume 520.014326
_symmetry_space_group_name_H-M "P -1"
_symmetry_group_IT_number 2
_symmetry_cell_setting 'triclinic'
loop_
_space_group_symop_operation_xyz
x,y,z
-x,-y,-z
loop_
_atom_site_type_symbol
_atom_site_label
_atom_site_fract_x
_atom_site_fract_y
_atom_site_fract_z
Si Si1 0.466364 0.090325 0.824050
Si Si2 0.355092 0.402942 0.142158
Si Si3 0.840265 0.859682 0.168823
Si Si4 0.375288 0.511064 0.481065
Si Si5 0.713857 0.371404 0.169175
Si Si6 0.025742 0.498520 0.920081
O O1 0.402347 0.257785 0.725618
O O2 0.678390 0.180173 0.910235
O O3 0.238067 0.769516 0.710382
O O4 0.675868 0.266672 0.055518
O O5 0.429250 0.336360 0.294555
O O6 0.088441 0.335811 0.961578
O O7 0.287955 0.257213 0.016900
O O8 0.906697 0.698929 0.279017
O O9 0.596155 0.774022 0.038312
O O10 0.113697 0.188844 0.340509
O O11 0.500000 0.500000 0.500000
O O12 0.243974 0.608876 0.331562
O O13 0.000000 0.500000 0.000000
#
# Coordination Sequence:
#
# PCOD9090878 Si02
#       6
#     2   2   2   2   2   2
#     4   8  16  34  61  85 116 161 192 237 304 341
#     4   9  21  38  59  88 120 153 204 238 297 354
#     4  10  20  36  60  93 118 154 203 249 292 352
#     4  12  22  39  63  86 120 163 199 243 303 354
#     4   9  16  34  64  83 122 162 191 245 303 343
#     4  10  19  39  61  84 122 159 193 248 298 349
#
# _framework density 23.076288000000002
#
# number of rings (size 3 to 8) (size 9 to 14) (size 15 to 20)
#    1.000    1.333    3.333    0.000    0.000    0.667 
#    0.000   12.500    0.000    0.000    0.000    0.000 
#    0.000    0.000    0.000    0.000    0.000    0.000 
#
# Total GULP energy -66923.201175 kJ/mol
# GULP energy per Si atom -5576.933431 kJ/mol
# Density = 2.302377 g / cm^3
# Si number density = 23.076288 Si / 1000 Ang^3
#
#
#
# Elastic Constant Matrix: (Units=GPa)
#
#
# Indices 1 2 3 4 5 6 
#
# 1 114.5234 27.0955 16.8489 -5.4227 -12.0775 22.5149
# 2 27.0955 73.3347 30.4033 -19.7464 -9.0848 7.0494
# 3 16.8489 30.4033 63.8996 -30.1325 -14.5384 4.2397
# 4 -5.4227 -19.7464 -30.1325 41.2307 12.6337 -5.6584
# 5 -12.0775 -9.0848 -14.5384 12.6337 19.7703 -6.3253
# 6 22.5149 7.0494 4.2397 -5.6584 -6.3253 38.4546
#
#
#
# Elastic Compliance Matrix: (Units=1/GPa)
#
#
# Indices 1 2 3 4 5 6 
#
# 1 0.011143 -0.003287 -0.001584 -0.003417 0.004555 -0.005500
# 2 -0.003287 0.018428 -0.006113 0.004119 -0.000763 -0.000299
# 3 -0.001584 -0.006113 0.027673 0.015056 0.007748 0.002487
# 4 -0.003417 0.004119 0.015056 0.041752 -0.014747 0.003304
# 5 0.004555 -0.000763 0.007748 -0.014747 0.070045 0.005970
# 6 -0.005500 -0.000299 0.002487 0.003304 0.005970 0.030474
#
#
# Mechanical properties :
#
#
# Convention : Reuss Voigt Hill
#
# Bulk Modulus (GPa) = 28.34818 44.49479 36.42148
# Shear Modulus (GPa) = 21.43703 31.71845 26.57774
#
# Velocity S-wave (km/s) = 3.05120 3.71145 3.39740
# Velocity P-wave (km/s) = 4.97235 6.13922 5.58633
#
# Compressibility (1/GPa) = 0.03527564
#
# Stress axis : x y z
#
# Youngs Moduli (GPa) = 89.74600 54.26463 36.13619
#
# Poissons Ratio (x) = 0.17839 0.05724
# Poissons Ratio (y) = 0.29502 0.22089
# Poissons Ratio (z) = 0.14216 0.33171
#
# Static dielectric constant tensor:
#      x y z
#    x 1.810140 -0.001540 0.021290 
#    y -0.001540 1.984150 0.009430 
#    z 0.021290 0.009430 1.931340 
# 
# From -- ./inp_files/165159.got.cif
#   From: 2010.05.17/outbox.cif.g08.bks.cpg/sg2_83_cif.got.tgz:165159.got - 2010.06.03 11:33:40.
