data_PCOD9090135
_publ_section_title
;
Structure prediction by ZEFSAII (Michael W. Deem and Ramdas Pophale) SiO2 
 PCOD9090135
Probable space group: P -1
;
_chemical_formula_sum "Si O2"
_cell_formula_units_Z 16
_cell_length_a 16.779935
_cell_length_b 5.537713
_cell_length_c 7.507271
_cell_angle_alpha 117.833066
_cell_angle_beta 105.836753
_cell_angle_gamma 90.688644
_cell_volume 585.450198
_symmetry_space_group_name_H-M "P -1"
_symmetry_group_IT_number 2
_symmetry_cell_setting 'triclinic'
loop_
_space_group_symop_operation_xyz
x,y,z
-x,-y,-z
loop_
_atom_site_type_symbol
_atom_site_label
_atom_site_fract_x
_atom_site_fract_y
_atom_site_fract_z
Si Si1 0.820222 0.992616 0.245969
Si Si2 0.404530 0.751333 0.026578
Si Si3 0.537458 0.609202 0.753286
Si Si4 0.691093 0.580042 0.421916
Si Si5 0.300680 0.868558 0.484949
Si Si6 0.124788 0.365913 0.540022
Si Si7 0.855199 0.479316 0.904606
Si Si8 0.003187 0.695312 0.827466
O O1 0.870718 0.850797 0.375260
O O2 0.736615 0.020577 0.316015
O O3 0.857501 0.300296 0.316507
O O4 0.820715 0.767526 0.014223
O O5 0.469397 0.678883 0.886578
O O6 0.319991 0.584883 0.829571
O O7 0.420384 0.614312 0.180084
O O8 0.409418 0.082164 0.142344
O O9 0.500000 0.500000 0.500000
O O10 0.660140 0.383941 0.500209
O O11 0.791665 0.670103 0.536780
O O12 0.649453 0.854217 0.472234
O O13 0.225717 0.743386 0.265395
O O14 0.031244 0.281207 0.382762
O O15 0.921006 0.500031 0.790842
O O16 0.915894 0.405278 0.073717
O O17 0.000000 0.000000 0.000000
#
# Coordination Sequence:
#
# PCOD9090135 Si02
#       8
#     2   2   2   2   2   2   2   2
#     4  10  22  39  59  81 107 149 192 243 306 359
#     4  10  21  38  65  95 127 173 205 246 310 358
#     4  10  21  40  64  96 133 163 208 255 294 356
#     4  10  19  38  64  83 123 164 195 241 303 356
#     4  10  21  41  58  84 121 155 197 255 299 351
#     4  10  22  41  57  82 120 150 192 250 302 352
#     4  11  24  38  60  83 110 153 203 251 305 362
#     4  11  23  39  59  83 112 152 199 253 306 358
#
# _framework density 27.329395999999999
#
# number of rings (size 3 to 8) (size 9 to 14) (size 15 to 20)
#    0.000    1.750    2.500    2.625    3.500    1.000 
#    0.000    7.500    0.000    0.000    0.000    0.000 
#    0.000    0.000    0.000    0.000    0.000    0.000 
#
# Total GULP energy -89358.890707 kJ/mol
# GULP energy per Si atom -5584.930669 kJ/mol
# Density = 2.726719 g / cm^3
# Si number density = 27.329396 Si / 1000 Ang^3
#
#
#
# Elastic Constant Matrix: (Units=GPa)
#
#
# Indices 1 2 3 4 5 6 
#
# 1 60.5594 10.4497 16.3487 -13.3561 -1.8654 -3.3116
# 2 10.4497 226.7954 69.6904 -0.5576 16.4889 2.0918
# 3 16.3487 69.6904 119.6861 -3.7565 16.6259 3.5211
# 4 -13.3561 -0.5576 -3.7565 65.0689 2.5275 -7.7978
# 5 -1.8654 16.4889 16.6259 2.5275 31.6884 -4.9324
# 6 -3.3116 2.0918 3.5211 -7.7978 -4.9324 34.8632
#
#
#
# Elastic Compliance Matrix: (Units=1/GPa)
#
#
# Indices 1 2 3 4 5 6 
#
# 1 0.018428 -0.000231 -0.002754 0.003909 0.002855 0.003321
# 2 -0.000231 0.005421 -0.002938 -0.000152 -0.001323 -0.000272
# 3 -0.002754 -0.002938 0.011163 0.000014 -0.004785 -0.001887
# 4 0.003909 -0.000152 0.000014 0.016671 -0.000397 0.004052
# 5 0.002855 -0.001323 -0.004785 -0.000397 0.035862 0.005819
# 6 0.003321 -0.000272 -0.001887 0.004052 0.005819 0.030935
#
#
# Mechanical properties :
#
#
# Convention : Reuss Voigt Hill
#
# Bulk Modulus (GPa) = 43.16924 66.66874 54.91899
# Shear Modulus (GPa) = 36.21941 47.02759 41.62350
#
# Velocity S-wave (km/s) = 3.64440 4.15272 3.90684
# Velocity P-wave (km/s) = 5.79130 6.88773 6.36317
#
# Compressibility (1/GPa) = 0.02316464
#
# Stress axis : x y z
#
# Youngs Moduli (GPa) = 54.26625 184.46722 89.58441
#
# Poissons Ratio (x) = 0.04268 0.24672
# Poissons Ratio (y) = 0.01256 0.26319
# Poissons Ratio (z) = 0.14945 0.54194
#
# Static dielectric constant tensor:
#      x y z
#    x 2.239230 -0.018560 -0.073170 
#    y -0.018560 2.137410 -0.008810 
#    z -0.073170 -0.008810 2.209450 
# 
# From -- ./inp_files/355859.got.cif
#   From: 2010.05.17/outbox.cif.g08.bks.cpg/sg2_178_cif.got.tgz:355859.got - 2010.06.03 11:33:40.
