data_PCOD9090953
_publ_section_title
;
Structure prediction by ZEFSAII (Michael W. Deem and Ramdas Pophale) SiO2 
 PCOD9090953
Probable space group: P -1
;
_chemical_formula_sum "Si O2"
_cell_formula_units_Z 14
_cell_length_a 11.829981
_cell_length_b 9.676417
_cell_length_c 10.966860
_cell_angle_alpha 62.091928
_cell_angle_beta 142.280004
_cell_angle_gamma 131.973134
_cell_volume 565.866052
_symmetry_space_group_name_H-M "P -1"
_symmetry_group_IT_number 2
_symmetry_cell_setting 'triclinic'
loop_
_space_group_symop_operation_xyz
x,y,z
-x,-y,-z
loop_
_atom_site_type_symbol
_atom_site_label
_atom_site_fract_x
_atom_site_fract_y
_atom_site_fract_z
Si Si1 0.283921 0.070692 0.063576
Si Si2 0.005483 0.061376 0.620481
Si Si3 0.586900 0.682362 0.414366
Si Si4 0.872089 0.600871 0.537350
Si Si5 0.164437 0.605344 0.984726
Si Si6 0.072105 0.242810 0.943889
Si Si7 0.317704 0.833307 0.502718
O O1 0.529939 0.118660 0.267758
O O2 0.087447 0.867820 0.031118
O O3 0.213850 0.096549 0.860465
O O4 0.252445 0.199236 0.079856
O O5 0.012198 0.253074 0.534332
O O6 0.000000 0.000000 0.500000
O O7 0.785679 0.874941 0.562231
O O8 0.500000 0.500000 0.500000
O O9 0.677589 0.626099 0.401236
O O10 0.403790 0.722706 0.201468
O O11 0.769990 0.382521 0.517715
O O12 0.048337 0.675055 0.768723
O O13 0.176924 0.457044 0.972810
O O14 0.000000 0.500000 0.000000
O O15 0.901220 0.169621 0.715296
O O16 0.500000 0.000000 0.500000
#
# Coordination Sequence:
#
# PCOD9090953 Si02
#       7
#     2   2   2   2   2   2   2
#     4  10  19  39  62  85 128 161 205 262 311 370
#     4  10  24  41  61  93 133 171 207 255 321 385
#     4  11  21  38  63  91 120 169 215 254 310 373
#     4  10  22  41  59  93 133 158 212 262 314 383
#     4  11  21  37  63  94 125 163 209 268 315 368
#     4   9  20  36  60  95 117 154 213 266 311 361
#     4   9  19  36  61  90 117 159 207 259 311 368
#
# _framework density 24.740836999999999
#
# number of rings (size 3 to 8) (size 9 to 14) (size 15 to 20)
#    0.000    2.000    1.429    1.714    2.000    3.429 
#    2.571    5.714    0.000    0.000    0.000    0.000 
#    0.000    0.000    0.000    0.000    0.000    0.000 
#
# Total GULP energy -78152.199880 kJ/mol
# GULP energy per Si atom -5582.299991 kJ/mol
# Density = 2.468453 g / cm^3
# Si number density = 24.740837 Si / 1000 Ang^3
#
#
#
# Elastic Constant Matrix: (Units=GPa)
#
#
# Indices 1 2 3 4 5 6 
#
# 1 36.0793 12.0284 10.4804 -3.6329 2.0686 -2.1673
# 2 12.0284 143.9577 33.7786 -5.0213 -10.2329 -2.5362
# 3 10.4804 33.7786 211.6400 -6.4468 -4.4052 17.6066
# 4 -3.6329 -5.0213 -6.4468 34.2183 9.3165 -10.4485
# 5 2.0686 -10.2329 -4.4052 9.3165 41.3104 -7.9228
# 6 -2.1673 -2.5362 17.6066 -10.4485 -7.9228 33.5758
#
#
#
# Elastic Compliance Matrix: (Units=1/GPa)
#
#
# Indices 1 2 3 4 5 6 
#
# 1 0.029568 -0.002138 -0.001309 0.004223 -0.002496 0.003159
# 2 -0.002138 0.007603 -0.001191 0.000638 0.002054 0.001744
# 3 -0.001309 -0.001191 0.005221 -0.000196 -0.000208 -0.003022
# 4 0.004223 0.000638 -0.000196 0.034311 -0.005953 0.009696
# 5 -0.002496 0.002054 -0.000208 -0.005953 0.027050 0.004634
# 6 0.003159 0.001744 -0.003022 0.009696 0.004634 0.035815
#
#
# Mechanical properties :
#
#
# Convention : Reuss Voigt Hill
#
# Bulk Modulus (GPa) = 30.19576 56.02798 43.11187
# Shear Modulus (GPa) = 31.27317 44.18018 37.72668
#
# Velocity S-wave (km/s) = 3.55918 4.23036 3.90920
# Velocity P-wave (km/s) = 5.39645 6.82322 6.15134
#
# Compressibility (1/GPa) = 0.03311723
#
# Stress axis : x y z
#
# Youngs Moduli (GPa) = 33.82048 131.51925 191.53499
#
# Poissons Ratio (x) = 0.28117 0.25074
# Poissons Ratio (y) = 0.07230 0.22803
# Poissons Ratio (z) = 0.04427 0.15658
#
# Static dielectric constant tensor:
#      x y z
#    x 2.126340 0.082250 -0.025360 
#    y 0.082250 2.080110 -0.011290 
#    z -0.025360 -0.011290 1.977250 
# 
# From -- ./inp_files/402648.got.cif
#   From: 2010.05.17/outbox.cif.g08.bks.cpg/sg2_202_cif.got.tgz:402648.got - 2010.06.03 11:33:40.
