data_PCOD9090662
_publ_section_title
;
Structure prediction by ZEFSAII (Michael W. Deem and Ramdas Pophale) SiO2 
 PCOD9090662
Probable space group: P -1
;
_chemical_formula_sum "Si O2"
_cell_formula_units_Z 16
_cell_length_a 12.997218
_cell_length_b 8.772940
_cell_length_c 9.340522
_cell_angle_alpha 80.770457
_cell_angle_beta 130.033429
_cell_angle_gamma 129.194275
_cell_volume 575.079553
_symmetry_space_group_name_H-M "P -1"
_symmetry_group_IT_number 2
_symmetry_cell_setting 'triclinic'
loop_
_space_group_symop_operation_xyz
x,y,z
-x,-y,-z
loop_
_atom_site_type_symbol
_atom_site_label
_atom_site_fract_x
_atom_site_fract_y
_atom_site_fract_z
Si Si1 0.171398 0.102865 0.925213
Si Si2 0.208990 0.055843 0.275645
Si Si3 0.397435 0.850572 0.761177
Si Si4 0.488022 0.415358 0.662206
Si Si5 0.714205 0.564865 0.265146
Si Si6 0.278070 0.778430 0.357598
Si Si7 0.903065 0.250754 0.284834
Si Si8 0.748663 0.360078 0.941741
O O1 0.255474 0.285766 0.855154
O O2 0.142257 0.918197 0.845771
O O3 0.280493 0.173413 0.165220
O O4 0.968107 0.993750 0.816998
O O5 0.350566 0.166346 0.519211
O O6 0.162824 0.843167 0.231502
O O7 0.408825 0.683924 0.856232
O O8 0.296004 0.732051 0.539101
O O9 0.261612 0.844564 0.736329
O O10 0.584701 0.099782 0.865594
O O11 0.500000 0.500000 0.500000
O O12 0.377928 0.424178 0.681689
O O13 0.668625 0.466978 0.873748
O O14 0.920585 0.669149 0.478788
O O15 0.216322 0.618171 0.199771
O O16 0.500000 0.000000 0.500000
O O17 0.910746 0.419124 0.177666
#
# Coordination Sequence:
#
# PCOD9090662 Si02
#       8
#     2   2   2   2   2   2   2   2
#     4  11  25  43  74 101 140 186 243 291 355 424
#     4  11  22  44  71 102 134 188 238 291 354 422
#     4  11  24  43  70 101 144 188 234 289 361 418
#     4  12  26  46  74 107 144 187 237 298 359 426
#     4  12  27  45  71 108 148 188 235 301 356 421
#     4  10  19  38  69  91 127 183 234 275 346 419
#     4  12  24  45  69 105 135 189 237 291 353 423
#     4  11  24  45  72 101 141 189 241 289 350 433
#
# _framework density 27.822237000000001
#
# number of rings (size 3 to 8) (size 9 to 14) (size 15 to 20)
#    0.000    0.750    5.000    3.375    1.750    1.000 
#    0.000    5.625    0.000    0.000    0.000    0.000 
#    0.000    0.000    0.000    0.000    0.000    0.000 
#
# Total GULP energy -89683.444154 kJ/mol
# GULP energy per Si atom -5605.215260 kJ/mol
# Density = 2.775891 g / cm^3
# Si number density = 27.822237 Si / 1000 Ang^3
#
#
#
# Elastic Constant Matrix: (Units=GPa)
#
#
# Indices 1 2 3 4 5 6 
#
# 1 169.1241 50.2793 37.0464 -14.5301 -21.1314 -16.4970
# 2 50.2793 119.7447 30.4314 -41.4454 -9.3405 -6.8552
# 3 37.0464 30.4314 138.7602 -19.5808 -0.5498 3.6841
# 4 -14.5301 -41.4454 -19.5808 54.5265 1.3317 -3.2650
# 5 -21.1314 -9.3405 -0.5498 1.3317 52.3554 -13.2713
# 6 -16.4970 -6.8552 3.6841 -3.2650 -13.2713 47.2808
#
#
#
# Elastic Compliance Matrix: (Units=1/GPa)
#
#
# Indices 1 2 3 4 5 6 
#
# 1 0.007765 -0.002459 -0.001650 -0.000272 0.003563 0.003462
# 2 -0.002459 0.012983 -0.000979 0.008952 0.001638 0.002179
# 3 -0.001650 -0.000979 0.008135 0.001673 -0.001196 -0.001572
# 4 -0.000272 0.008952 0.001673 0.025831 0.001692 0.003331
# 5 0.003563 0.001638 -0.001196 0.001692 0.022828 0.008098
# 6 0.003462 0.002179 -0.001572 0.003331 0.008098 0.025300
#
#
# Mechanical properties :
#
#
# Convention : Reuss Voigt Hill
#
# Bulk Modulus (GPa) = 53.45567 73.68259 63.56913
# Shear Modulus (GPa) = 41.92772 51.49067 46.70919
#
# Velocity S-wave (km/s) = 3.88620 4.30665 4.10181
# Velocity P-wave (km/s) = 6.27629 7.16034 6.73284
#
# Compressibility (1/GPa) = 0.01870709
#
# Stress axis : x y z
#
# Youngs Moduli (GPa) = 128.78616 77.02106 122.92718
#
# Poissons Ratio (x) = 0.18941 0.20283
# Poissons Ratio (y) = 0.31670 0.12034
# Poissons Ratio (z) = 0.21249 0.07540
#
# Static dielectric constant tensor:
#      x y z
#    x 2.121210 0.120990 0.057560 
#    y 0.120990 2.435640 0.036460 
#    z 0.057560 0.036460 2.212370 
# 
# From -- ./inp_files/243659.got.cif
#   From: 2010.05.17/outbox.cif.g08.bks.cpg/sg2_122_cif.got.tgz:243659.got - 2010.06.03 11:33:40.
