data_PCOD9090279
_publ_section_title
;
Structure prediction by ZEFSAII (Michael W. Deem and Ramdas Pophale) SiO2 
 PCOD9090279
Probable space group: P -1
;
_chemical_formula_sum "Si O2"
_cell_formula_units_Z 16
_cell_length_a 12.591477
_cell_length_b 13.746455
_cell_length_c 7.393065
_cell_angle_alpha 146.907622
_cell_angle_beta 79.730458
_cell_angle_gamma 111.257743
_cell_volume 631.032240
_symmetry_space_group_name_H-M "P -1"
_symmetry_group_IT_number 2
_symmetry_cell_setting 'triclinic'
loop_
_space_group_symop_operation_xyz
x,y,z
-x,-y,-z
loop_
_atom_site_type_symbol
_atom_site_label
_atom_site_fract_x
_atom_site_fract_y
_atom_site_fract_z
Si Si1 0.603677 0.421435 0.884490
Si Si2 0.526644 0.994121 0.694923
Si Si3 0.834854 0.790919 0.818780
Si Si4 0.845434 0.752060 0.325379
Si Si5 0.395753 0.569366 0.668417
Si Si6 0.053287 0.677646 0.623799
Si Si7 0.098187 0.784405 0.389004
Si Si8 0.782213 0.082533 0.770183
O O1 0.570005 0.197886 0.487520
O O2 0.500000 0.500000 0.000000
O O3 0.732175 0.567210 0.007671
O O4 0.614321 0.415152 0.088685
O O5 0.645654 0.959612 0.619709
O O6 0.500000 0.000000 0.500000
O O7 0.562250 0.215138 0.092190
O O8 0.824563 0.787028 0.597932
O O9 0.726048 0.599963 0.623090
O O10 0.958239 0.775978 0.802614
O O11 0.841079 0.995662 0.208899
O O12 0.973106 0.749109 0.283062
O O13 0.846483 0.936153 0.502248
O O14 0.500000 0.500000 0.500000
O O15 0.075692 0.652121 0.367036
O O16 0.000000 0.500000 0.500000
O O17 0.173839 0.809181 0.887985
O O18 0.180837 0.769193 0.179214
#
# Coordination Sequence:
#
# PCOD9090279 Si02
#       8
#     2   2   2   2   2   2   2   2
#     4  10  20  38  67  91 132 180 219 276 336 394
#     4  10  23  42  65  98 133 178 227 287 343 400
#     4  10  20  39  65  94 134 178 224 282 340 403
#     4  10  19  38  64  99 133 183 227 274 338 408
#     4  10  23  41  66  92 129 177 227 279 346 403
#     4  11  23  42  64  96 140 177 216 286 346 395
#     4  11  23  39  69 102 132 176 231 274 337 420
#     4  12  22  39  72  96 135 177 230 277 344 410
#
# _framework density 25.35528
#
# number of rings (size 3 to 8) (size 9 to 14) (size 15 to 20)
#    0.000    1.500    3.750    1.875    3.500    1.500 
#    0.000    0.625    5.500    0.000    0.000    0.000 
#    0.000    0.000    0.000    0.000    0.000    0.000 
#
# Total GULP energy -89565.580205 kJ/mol
# GULP energy per Si atom -5597.848763 kJ/mol
# Density = 2.529757 g / cm^3
# Si number density = 25.355280 Si / 1000 Ang^3
#
#
#
# Elastic Constant Matrix: (Units=GPa)
#
#
# Indices 1 2 3 4 5 6 
#
# 1 78.8243 19.7591 49.1362 1.2905 36.9350 -4.4476
# 2 19.7591 125.5431 38.5669 4.9407 11.0204 -14.4135
# 3 49.1362 38.5669 111.0186 42.0260 16.3487 -1.1868
# 4 1.2905 4.9407 42.0260 40.3756 3.8144 2.8536
# 5 36.9350 11.0204 16.3487 3.8144 40.2701 5.8700
# 6 -4.4476 -14.4135 -1.1868 2.8536 5.8700 31.7985
#
#
#
# Elastic Compliance Matrix: (Units=1/GPa)
#
#
# Indices 1 2 3 4 5 6 
#
# 1 0.046257 0.004647 -0.027643 0.029389 -0.036969 0.011732
# 2 0.004647 0.010286 -0.007039 0.006057 -0.005601 0.005540
# 3 -0.027643 -0.007039 0.034419 -0.035322 0.017503 -0.005834
# 4 0.029389 0.006057 -0.035322 0.061533 -0.020660 0.003830
# 5 -0.036969 -0.005601 0.017503 -0.020660 0.057427 -0.015803
# 6 0.011732 0.005540 -0.005834 0.003830 -0.015803 0.037956
#
#
# Mechanical properties :
#
#
# Convention : Reuss Voigt Hill
#
# Bulk Modulus (GPa) = 32.37147 58.92339 45.64743
# Shear Modulus (GPa) = 15.71125 36.35043 26.03084
#
# Velocity S-wave (km/s) = 2.49197 3.79046 3.20760
# Velocity P-wave (km/s) = 4.59072 6.51508 5.63565
#
# Compressibility (1/GPa) = 0.03089140
#
# Stress axis : x y z
#
# Youngs Moduli (GPa) = 21.61855 97.22338 29.05412
#
# Poissons Ratio (x) = -0.45181 0.80314
# Poissons Ratio (y) = -0.10047 0.20451
# Poissons Ratio (z) = 0.59760 0.68433
#
# Static dielectric constant tensor:
#      x y z
#    x 1.920290 -0.040720 -0.000880 
#    y -0.040720 1.937020 0.034760 
#    z -0.000880 0.034760 2.062810 
# 
# From -- ./inp_files/274881.got.cif
#   From: 2010.05.17/outbox.cif.g08.bks.cpg/sg2_138_cif.got.tgz:274881.got - 2010.06.03 11:33:40.
