data_PCOD9090439
_publ_section_title
;
Structure prediction by ZEFSAII (Michael W. Deem and Ramdas Pophale) SiO2 
 PCOD9090439
Probable space group: P -1
;
_chemical_formula_sum "Si O2"
_cell_formula_units_Z 14
_cell_length_a 24.138752
_cell_length_b 24.380582
_cell_length_c 6.927541
_cell_angle_alpha 140.229382
_cell_angle_beta 138.821558
_cell_angle_gamma 11.853530
_cell_volume 535.728966
_symmetry_space_group_name_H-M "P -1"
_symmetry_group_IT_number 2
_symmetry_cell_setting 'triclinic'
loop_
_space_group_symop_operation_xyz
x,y,z
-x,-y,-z
loop_
_atom_site_type_symbol
_atom_site_label
_atom_site_fract_x
_atom_site_fract_y
_atom_site_fract_z
Si Si1 0.000165 0.238820 0.359836
Si Si2 0.125280 0.074669 0.689357
Si Si3 0.553714 0.926033 0.666838
Si Si4 0.661986 0.643291 0.053886
Si Si5 0.098837 0.487170 0.039151
Si Si6 0.165240 0.801052 0.577203
Si Si7 0.539248 0.326748 0.016291
O O1 0.088758 0.133446 0.527726
O O2 0.705894 0.483243 0.217305
O O3 0.230864 0.963288 0.106539
O O4 0.985703 0.355001 0.612214
O O5 0.030851 0.069409 0.465526
O O6 0.913827 0.342875 0.969644
O O7 0.424059 0.811704 0.819286
O O8 0.564737 0.812519 0.399291
O O9 0.841241 0.688040 0.824874
O O10 0.500000 0.000000 0.500000
O O11 0.317651 0.205190 0.914820
O O12 0.762948 0.595202 0.997479
O O13 0.310166 0.742938 0.894159
O O14 0.398642 0.513530 0.327896
O O15 0.000000 0.000000 0.500000
#
# Coordination Sequence:
#
# PCOD9090439 Si02
#       7
#     2   2   2   2   2   2   2
#     4  11  21  39  59  97 119 153 193 249 306 345
#     4  11  24  37  63  88 128 151 196 257 298 343
#     4  10  16  28  51  80 124 165 187 226 289 354
#     4  10  19  33  52  90 122 160 195 237 296 347
#     4  10  18  30  53  83 127 156 188 235 290 353
#     4  11  26  47  63  86 115 160 207 245 294 366
#     4  11  24  42  65  82 122 151 207 242 297 369
#
# _framework density 26.132618000000001
#
# number of rings (size 3 to 8) (size 9 to 14) (size 15 to 20)
#    0.000    1.429    1.429    8.571    4.000    1.143 
#    0.000    0.000    0.000    0.000    0.000   20.000 
#    0.000    0.000    0.000    0.000    0.000    0.000 
#
# Total GULP energy -78506.728090 kJ/mol
# GULP energy per Si atom -5607.623435 kJ/mol
# Density = 2.607314 g / cm^3
# Si number density = 26.132618 Si / 1000 Ang^3
#
#
#
# Elastic Constant Matrix: (Units=GPa)
#
#
# Indices 1 2 3 4 5 6 
#
# 1 108.4646 26.3614 18.8126 -5.3244 13.9383 -4.5662
# 2 26.3614 209.7511 59.4552 -3.3278 14.2653 -1.4232
# 3 18.8126 59.4552 121.3897 5.3690 18.4829 -11.3633
# 4 -5.3244 -3.3278 5.3690 65.1743 -9.4411 16.2362
# 5 13.9383 14.2653 18.4829 -9.4411 28.8750 0.4057
# 6 -4.5662 -1.4232 -11.3633 16.2362 0.4057 34.5752
#
#
#
# Elastic Compliance Matrix: (Units=1/GPa)
#
#
# Indices 1 2 3 4 5 6 
#
# 1 0.010090 -0.000868 -0.000362 -0.000130 -0.004271 0.001289
# 2 -0.000868 0.005677 -0.002710 0.000648 -0.000424 -0.001071
# 3 -0.000362 -0.002710 0.011316 -0.003408 -0.006918 0.005241
# 4 -0.000130 0.000648 -0.003408 0.019443 0.008427 -0.010340
# 5 -0.004271 -0.000424 -0.006918 0.008427 0.044189 -0.007331
# 6 0.001289 -0.001071 0.005241 -0.010340 -0.007331 0.035713
#
#
# Mechanical properties :
#
#
# Convention : Reuss Voigt Hill
#
# Bulk Modulus (GPa) = 52.07717 72.09600 62.08658
# Shear Modulus (GPa) = 35.53418 48.05663 41.79541
#
# Velocity S-wave (km/s) = 3.69150 4.29295 4.00354
# Velocity P-wave (km/s) = 6.17583 7.22641 6.72167
#
# Compressibility (1/GPa) = 0.01920227
#
# Stress axis : x y z
#
# Youngs Moduli (GPa) = 99.10709 176.15727 88.36979
#
# Poissons Ratio (x) = 0.15299 0.03196
# Poissons Ratio (y) = 0.08607 0.23950
# Poissons Ratio (z) = 0.03585 0.47742
#
# Static dielectric constant tensor:
#      x y z
#    x 2.106880 -0.022350 -0.055870 
#    y -0.022350 2.015100 0.082030 
#    z -0.055870 0.082030 2.098860 
# 
# From -- ./inp_files/359112.got.cif
#   From: 2010.05.17/outbox.cif.g08.bks.cpg/sg2_180_cif.got.tgz:359112.got - 2010.06.03 11:33:40.
