data_PCOD9090949
_publ_section_title
;
Structure prediction by ZEFSAII (Michael W. Deem and Ramdas Pophale) SiO2 
 PCOD9090949
Probable space group: P -1
;
_chemical_formula_sum "Si O2"
_cell_formula_units_Z 12
_cell_length_a 10.713124
_cell_length_b 9.956979
_cell_length_c 10.686880
_cell_angle_alpha 41.078347
_cell_angle_beta 132.418900
_cell_angle_gamma 141.634206
_cell_volume 455.079153
_symmetry_space_group_name_H-M "P -1"
_symmetry_group_IT_number 2
_symmetry_cell_setting 'triclinic'
loop_
_space_group_symop_operation_xyz
x,y,z
-x,-y,-z
loop_
_atom_site_type_symbol
_atom_site_label
_atom_site_fract_x
_atom_site_fract_y
_atom_site_fract_z
Si Si1 0.188769 0.574133 0.217404
Si Si2 0.109697 0.320887 0.574953
Si Si3 0.705261 0.187682 0.122104
Si Si4 0.294852 0.987643 0.356218
Si Si5 0.770548 0.842515 0.567357
Si Si6 0.394296 0.275732 0.987964
O O1 0.223306 0.563776 0.395211
O O2 0.941056 0.419960 0.148339
O O3 0.253808 0.403222 0.319750
O O4 0.292206 0.809210 0.030360
O O5 0.008071 0.077986 0.584496
O O6 0.252474 0.304064 0.779125
O O7 0.903738 0.259676 0.546298
O O8 0.677467 0.948514 0.336999
O O9 0.558635 0.248777 0.046977
O O10 0.500000 0.000000 0.500000
O O11 0.316263 0.187894 0.329994
O O12 0.261568 0.040953 0.156345
O O13 0.500000 0.500000 0.000000
#
# Coordination Sequence:
#
# PCOD9090949 Si02
#       6
#     2   2   2   2   2   2
#     4  10  19  40  63  89 120 160 204 248 319 352
#     4   9  21  36  63  87 121 160 202 255 296 368
#     4  10  20  35  63  88 121 159 201 253 298 371
#     4  10  19  39  62  84 120 161 199 248 305 362
#     4   9  19  38  64  87 122 160 192 257 306 358
#     4  12  23  39  59  88 123 164 208 250 307 351
#
# _framework density 26.369039999999998
#
# number of rings (size 3 to 8) (size 9 to 14) (size 15 to 20)
#    1.000    1.000    1.667    3.500    0.000    0.667 
#    0.000   10.833    7.333    0.000    0.000    0.000 
#    0.000    0.000    0.000    0.000    0.000    0.000 
#
# Total GULP energy -67228.981967 kJ/mol
# GULP energy per Si atom -5602.415164 kJ/mol
# Density = 2.630902 g / cm^3
# Si number density = 26.369040 Si / 1000 Ang^3
#
#
#
# Elastic Constant Matrix: (Units=GPa)
#
#
# Indices 1 2 3 4 5 6 
#
# 1 187.6053 33.6863 86.2316 -1.1692 -9.5003 28.2103
# 2 33.6863 94.1477 41.3455 -3.5674 2.9439 -11.1552
# 3 86.2316 41.3455 209.8944 25.1421 -39.8990 9.4495
# 4 -1.1692 -3.5674 25.1421 42.4020 7.0744 -4.4794
# 5 -9.5003 2.9439 -39.8990 7.0744 63.4157 -10.6288
# 6 28.2103 -11.1552 9.4495 -4.4794 -10.6288 33.2417
#
#
#
# Elastic Compliance Matrix: (Units=1/GPa)
#
#
# Indices 1 2 3 4 5 6 
#
# 1 0.008188 -0.002290 -0.003147 0.001470 -0.002030 -0.007274
# 2 -0.002290 0.013836 -0.002988 0.003993 -0.002086 0.007307
# 3 -0.003147 -0.002988 0.008482 -0.006301 0.005748 0.000246
# 4 0.001470 0.003993 -0.006301 0.029184 -0.006562 0.003718
# 5 -0.002030 -0.002086 0.005748 -0.006562 0.020773 0.005147
# 6 -0.007274 0.007307 0.000246 0.003718 0.005147 0.040785
#
#
# Mechanical properties :
#
#
# Convention : Reuss Voigt Hill
#
# Bulk Modulus (GPa) = 73.23628 90.46382 81.85005
# Shear Modulus (GPa) = 35.05051 49.83749 42.44400
#
# Velocity S-wave (km/s) = 3.64982 4.35213 4.01635
# Velocity P-wave (km/s) = 6.75244 7.72244 7.25367
#
# Compressibility (1/GPa) = 0.01365444
#
# Stress axis : x y z
#
# Youngs Moduli (GPa) = 122.12333 72.27670 117.89196
#
# Poissons Ratio (x) = 0.16554 0.37106
# Poissons Ratio (y) = 0.27970 0.35229
# Poissons Ratio (z) = 0.38438 0.21598
#
# Static dielectric constant tensor:
#      x y z
#    x 2.085190 -0.007270 -0.061190 
#    y -0.007270 2.159920 -0.014830 
#    z -0.061190 -0.014830 2.067310 
# 
# From -- ./inp_files/422918.got.cif
#   From: 2010.05.17/outbox.cif.g08.bks.cpg/sg2_212_cif.got.tgz:422918.got - 2010.06.03 11:33:40.
