data_PCOD9090839
_publ_section_title
;
Structure prediction by ZEFSAII (Michael W. Deem and Ramdas Pophale) SiO2 
 PCOD9090839
Probable space group: P -1
;
_chemical_formula_sum "Si O2"
_cell_formula_units_Z 14
_cell_length_a 8.833823
_cell_length_b 12.106361
_cell_length_c 18.355647
_cell_angle_alpha 36.386506
_cell_angle_beta 133.840221
_cell_angle_gamma 143.994041
_cell_volume 679.753634
_symmetry_space_group_name_H-M "P -1"
_symmetry_group_IT_number 2
_symmetry_cell_setting 'triclinic'
loop_
_space_group_symop_operation_xyz
x,y,z
-x,-y,-z
loop_
_atom_site_type_symbol
_atom_site_label
_atom_site_fract_x
_atom_site_fract_y
_atom_site_fract_z
Si Si1 0.423713 0.000070 0.289986
Si Si2 0.190962 0.497556 0.915084
Si Si3 0.520780 0.430001 0.894510
Si Si4 0.741463 0.111728 0.465581
Si Si5 0.731008 0.179490 0.032828
Si Si6 0.016275 0.357259 0.771431
Si Si7 0.892976 0.933508 0.726629
O O1 0.628603 0.240929 0.190457
O O2 0.607057 0.974570 0.418627
O O3 0.229860 0.009854 0.276957
O O4 0.248059 0.812001 0.270085
O O5 0.038805 0.349925 0.870397
O O6 0.955112 0.402514 0.943649
O O7 0.387086 0.476299 0.041825
O O8 0.609181 0.266794 0.999425
O O9 0.222984 0.307577 0.843190
O O10 0.678415 0.665444 0.776784
O O11 0.865626 0.378632 0.349741
O O12 0.500000 0.000000 0.500000
O O13 0.935380 0.082616 0.590791
O O14 0.862727 0.063346 0.170677
O O15 0.500000 0.000000 0.000000
#
# Coordination Sequence:
#
# PCOD9090839 Si02
#       7
#     2   2   2   2   2   2   2
#     4  10  21  35  61  93 118 155 194 247 296 341
#     4  10  22  39  59  86 128 152 191 248 296 353
#     4  11  21  39  60  88 121 158 192 242 302 350
#     4   9  18  37  58  90 123 150 196 248 293 336
#     4  11  25  40  60  92 115 159 202 237 298 363
#     4  11  21  36  64  94 119 153 198 244 294 346
#     4  10  19  39  60  87 125 154 195 247 292 346
#
# _framework density 20.595697000000001
#
# number of rings (size 3 to 8) (size 9 to 14) (size 15 to 20)
#    0.000    1.714    4.286    3.000    4.000    2.857 
#    2.571    0.000    0.000   17.143    0.000    0.000 
#    0.000    0.000    0.000    0.000    0.000    0.000 
#
# Total GULP energy -77964.283195 kJ/mol
# GULP energy per Si atom -5568.877371 kJ/mol
# Density = 2.054882 g / cm^3
# Si number density = 20.595697 Si / 1000 Ang^3
#
#
#
# Elastic Constant Matrix: (Units=GPa)
#
#
# Indices 1 2 3 4 5 6 
#
# 1 40.9470 19.1213 39.6208 11.0016 9.9487 -3.9697
# 2 19.1213 136.7828 33.9594 28.1830 -6.2023 -4.1366
# 3 39.6208 33.9594 131.3570 25.0370 -3.6439 -0.2543
# 4 11.0016 28.1830 25.0370 24.7803 -0.2426 -0.2873
# 5 9.9487 -6.2023 -3.6439 -0.2426 23.2777 0.4162
# 6 -3.9697 -4.1366 -0.2543 -0.2873 0.4162 23.2405
#
#
#
# Elastic Compliance Matrix: (Units=1/GPa)
#
#
# Indices 1 2 3 4 5 6 
#
# 1 0.045467 -0.003201 -0.012777 -0.003770 -0.022457 0.007412
# 2 -0.003201 0.009988 0.000471 -0.010364 0.003977 0.001037
# 3 -0.012777 0.000471 0.013082 -0.008032 0.007589 -0.002191
# 4 -0.003770 -0.010364 -0.008032 0.061893 -0.001731 -0.001780
# 5 -0.022457 0.003977 0.007589 -0.001731 0.054860 -0.004049
# 6 0.007412 0.001037 -0.002191 -0.001780 -0.004049 0.044506
#
#
# Mechanical properties :
#
#
# Convention : Reuss Voigt Hill
#
# Bulk Modulus (GPa) = 26.64959 54.94330 40.79644
# Shear Modulus (GPa) = 18.29376 28.68539 23.48958
#
# Velocity S-wave (km/s) = 2.98356 3.73605 3.38081
# Velocity P-wave (km/s) = 4.98360 6.73393 5.92377
#
# Compressibility (1/GPa) = 0.03752403
#
# Stress axis : x y z
#
# Youngs Moduli (GPa) = 21.99385 100.11540 76.44079
#
# Poissons Ratio (x) = 0.32050 0.97665
# Poissons Ratio (y) = 0.07041 -0.03600
# Poissons Ratio (z) = 0.28101 -0.04715
#
# Static dielectric constant tensor:
#      x y z
#    x 1.826280 -0.030470 -0.010940 
#    y -0.030470 1.762230 0.022020 
#    z -0.010940 0.022020 1.770530 
# 
# From -- ./inp_files/330625.got.cif
#   From: 2010.05.17/outbox.cif.g08.bks.cpg/sg2_166_cif.got.tgz:330625.got - 2010.06.03 11:33:40.
