data_PCOD9090869
_publ_section_title
;
Structure prediction by ZEFSAII (Michael W. Deem and Ramdas Pophale) SiO2 
 PCOD9090869
Probable space group: P -1
;
_chemical_formula_sum "Si O2"
_cell_formula_units_Z 14
_cell_length_a 6.137663
_cell_length_b 7.766213
_cell_length_c 15.228807
_cell_angle_alpha 92.931338
_cell_angle_beta 76.147287
_cell_angle_gamma 69.635131
_cell_volume 653.487806
_symmetry_space_group_name_H-M "P -1"
_symmetry_group_IT_number 2
_symmetry_cell_setting 'triclinic'
loop_
_space_group_symop_operation_xyz
x,y,z
-x,-y,-z
loop_
_atom_site_type_symbol
_atom_site_label
_atom_site_fract_x
_atom_site_fract_y
_atom_site_fract_z
Si Si1 0.401545 0.377268 0.943684
Si Si2 0.803011 0.132143 0.457035
Si Si3 0.360226 0.008965 0.691319
Si Si4 0.431246 0.693301 0.348340
Si Si5 0.803326 0.292208 0.283232
Si Si6 0.153095 0.698094 0.212287
Si Si7 0.933895 0.634492 0.886555
O O1 0.628438 0.265896 0.857963
O O2 0.183456 0.516926 0.909946
O O3 0.500000 0.500000 0.000000
O O4 0.271461 0.277213 0.017901
O O5 0.627835 0.285719 0.542571
O O6 0.900257 0.220617 0.369304
O O7 0.680467 0.015223 0.409341
O O8 0.000000 0.000000 0.500000
O O9 0.537042 0.118703 0.682106
O O10 0.107442 0.139874 0.762404
O O11 0.393509 0.804582 0.717733
O O12 0.669408 0.512987 0.304012
O O13 0.225052 0.670799 0.306849
O O14 0.002580 0.238971 0.187103
O O15 0.138826 0.514465 0.165409
#
# Coordination Sequence:
#
# PCOD9090869 Si02
#       7
#     2   2   2   2   2   2   2
#     4   9  19  34  66  91 122 158 197 249 313 366
#     4  10  22  41  59  90 125 164 206 252 299 355
#     4  10  23  38  60  86 128 157 203 257 294 354
#     4  12  20  42  60  86 126 166 206 244 307 352
#     4  10  22  38  62  90 122 161 206 253 297 361
#     4  11  19  37  64  89 122 166 197 249 310 356
#     4  10  19  39  60  96 122 153 206 252 301 368
#
# _framework density 21.423506
#
# number of rings (size 3 to 8) (size 9 to 14) (size 15 to 20)
#    0.857    0.857    4.286    0.857    0.000    0.000 
#    5.143    2.143    0.000   12.000    0.000    0.000 
#    0.000    0.000    0.000    0.000    0.000    0.000 
#
# Total GULP energy -77986.943212 kJ/mol
# GULP energy per Si atom -5570.495944 kJ/mol
# Density = 2.137475 g / cm^3
# Si number density = 21.423506 Si / 1000 Ang^3
#
#
#
# Elastic Constant Matrix: (Units=GPa)
#
#
# Indices 1 2 3 4 5 6 
#
# 1 60.0876 8.7571 21.3814 -11.0350 6.2578 10.6123
# 2 8.7571 44.2222 17.0253 -6.8261 -5.3052 15.2601
# 3 21.3814 17.0253 104.5415 -22.6803 -12.7754 11.1512
# 4 -11.0350 -6.8261 -22.6803 26.6215 13.0162 -9.7392
# 5 6.2578 -5.3052 -12.7754 13.0162 47.1753 6.6823
# 6 10.6123 15.2601 11.1512 -9.7392 6.6823 20.9123
#
#
#
# Elastic Compliance Matrix: (Units=1/GPa)
#
#
# Indices 1 2 3 4 5 6 
#
# 1 0.020154 -0.001572 -0.002642 0.007290 -0.005207 -0.002613
# 2 -0.001572 0.034508 -0.003053 -0.011171 0.010793 -0.031407
# 3 -0.002642 -0.003053 0.012508 0.008506 0.000970 0.000550
# 4 0.007290 -0.011171 0.008506 0.073250 -0.026134 0.042381
# 5 -0.005207 0.010793 0.000970 -0.026134 0.034684 -0.029005
# 6 -0.002613 -0.031407 0.000550 0.042381 -0.029005 0.100776
#
#
# Mechanical properties :
#
#
# Convention : Reuss Voigt Hill
#
# Bulk Modulus (GPa) = 18.99789 33.68654 26.34221
# Shear Modulus (GPa) = 16.23596 29.72098 22.97847
#
# Velocity S-wave (km/s) = 2.75591 3.72870 3.27858
# Velocity P-wave (km/s) = 4.36047 5.85626 5.16283
#
# Compressibility (1/GPa) = 0.05263743
#
# Stress axis : x y z
#
# Youngs Moduli (GPa) = 49.61758 28.97869 79.94706
#
# Poissons Ratio (x) = 0.04554 0.21123
# Poissons Ratio (y) = 0.07798 0.24407
# Poissons Ratio (z) = 0.13109 0.08847
#
# Static dielectric constant tensor:
#      x y z
#    x 1.809840 0.015440 -0.037130 
#    y 0.015440 1.780940 -0.002910 
#    z -0.037130 -0.002910 1.825430 
# 
# From -- ./inp_files/42601.got.cif
#   From: 2010.05.17/outbox.cif.g08.bks.cpg/sg2_22_cif.got.tgz:42601.got - 2010.06.03 11:33:40.
