data_PCOD9090085
_publ_section_title
;
Structure prediction by ZEFSAII (Michael W. Deem and Ramdas Pophale) SiO2 
 PCOD9090085
Probable space group: P -1
;
_chemical_formula_sum "Si O2"
_cell_formula_units_Z 16
_cell_length_a 12.031542
_cell_length_b 11.163919
_cell_length_c 10.659573
_cell_angle_alpha 116.183564
_cell_angle_beta 123.318824
_cell_angle_gamma 38.875947
_cell_volume 750.674798
_symmetry_space_group_name_H-M "P -1"
_symmetry_group_IT_number 2
_symmetry_cell_setting 'triclinic'
loop_
_space_group_symop_operation_xyz
x,y,z
-x,-y,-z
loop_
_atom_site_type_symbol
_atom_site_label
_atom_site_fract_x
_atom_site_fract_y
_atom_site_fract_z
Si Si1 0.122254 0.331887 0.098033
Si Si2 0.981680 0.140137 0.849468
Si Si3 0.106315 0.779332 0.451027
Si Si4 0.034305 0.611869 0.709672
Si Si5 0.539628 0.059716 0.176456
Si Si6 0.331742 0.763552 0.770815
Si Si7 0.839905 0.762369 0.420747
Si Si8 0.329387 0.578893 0.022351
O O1 0.060099 0.386888 0.227382
O O2 0.330659 0.240858 0.176039
O O3 0.000000 0.500000 0.000000
O O4 0.092454 0.196359 0.984479
O O5 0.878569 0.244609 0.700495
O O6 0.816893 0.230127 0.892476
O O7 0.150900 0.910966 0.822149
O O8 0.287892 0.676670 0.605367
O O9 0.992640 0.736180 0.419632
O O10 0.000000 0.000000 0.500000
O O11 0.144285 0.407469 0.625433
O O12 0.885254 0.782223 0.598543
O O13 0.186888 0.602944 0.855076
O O14 0.649386 0.914539 0.292801
O O15 0.660431 0.101242 0.232979
O O16 0.500000 0.000000 0.000000
O O17 0.540923 0.600128 0.884285
O O18 0.500000 0.500000 0.000000
#
# Coordination Sequence:
#
# PCOD9090085 Si02
#       8
#     2   2   2   2   2   2   2   2
#     4  11  21  37  62  93 125 164 214 263 313 382
#     4  10  21  39  62  91 125 164 206 270 320 373
#     4  10  19  38  63  93 125 163 211 264 326 377
#     4  10  24  40  61  90 127 171 204 261 333 377
#     4  12  20  35  65  92 118 160 209 262 307 380
#     4  11  22  38  66  95 122 165 217 262 323 384
#     4  11  21  40  64  87 129 167 204 265 326 379
#     4  11  24  43  63  93 127 169 219 262 320 395
#
# _framework density 21.314157000000002
#
# number of rings (size 3 to 8) (size 9 to 14) (size 15 to 20)
#    0.000    1.250    3.750    4.500    0.000    1.500 
#    0.000    3.750    0.000    0.000    0.000    0.000 
#    0.000    0.000    0.000    0.000    0.000    0.000 
#
# Total GULP energy -89106.061376 kJ/mol
# GULP energy per Si atom -5569.128836 kJ/mol
# Density = 2.126564 g / cm^3
# Si number density = 21.314157 Si / 1000 Ang^3
#
#
#
# Elastic Constant Matrix: (Units=GPa)
#
#
# Indices 1 2 3 4 5 6 
#
# 1 90.8933 7.8869 15.1230 -8.0308 -3.2910 -24.0483
# 2 7.8869 56.7937 29.7591 -31.2286 -3.0035 -9.1065
# 3 15.1230 29.7591 133.0118 -32.8434 -6.3552 -6.0251
# 4 -8.0308 -31.2286 -32.8434 37.9225 11.1425 -3.4370
# 5 -3.2910 -3.0035 -6.3552 11.1425 30.3824 -2.3633
# 6 -24.0483 -9.1065 -6.0251 -3.4370 -2.3633 34.2576
#
#
#
# Elastic Compliance Matrix: (Units=1/GPa)
#
#
# Indices 1 2 3 4 5 6 
#
# 1 0.014488 0.003960 -0.000215 0.007158 0.000217 0.011918
# 2 0.003960 0.040039 0.000351 0.038036 -0.008187 0.016736
# 3 -0.000215 0.000351 0.009825 0.009320 -0.001155 0.002525
# 4 0.007158 0.038036 0.009320 0.075014 -0.019239 0.022974
# 5 0.000217 -0.008187 -0.001155 -0.019239 0.038827 -0.001479
# 6 0.011918 0.016736 0.002525 0.022974 -0.001479 0.044653
#
#
# Mechanical properties :
#
#
# Convention : Reuss Voigt Hill
#
# Bulk Modulus (GPa) = 13.78532 42.91518 28.35025
# Shear Modulus (GPa) = 20.93487 35.70781 28.32134
#
# Velocity S-wave (km/s) = 3.13742 4.09750 3.64917
# Velocity P-wave (km/s) = 4.42789 6.52413 5.57541
#
# Compressibility (1/GPa) = 0.07254091
#
# Stress axis : x y z
#
# Youngs Moduli (GPa) = 69.02382 24.97575 101.78387
#
# Poissons Ratio (x) = -0.09889 0.02191
# Poissons Ratio (y) = -0.27330 -0.03568
# Poissons Ratio (z) = 0.01486 -0.00875
#
# Static dielectric constant tensor:
#      x y z
#    x 1.737440 0.028040 0.019100 
#    y 0.028040 1.847890 -0.063410 
#    z 0.019100 -0.063410 1.826380 
# 
# From -- ./inp_files/428783.got.cif
#   From: 2010.05.17/outbox.cif.g08.bks.cpg/sg2_215_cif.got.tgz:428783.got - 2010.06.03 11:33:40.
