data_PCOD9090366
_publ_section_title
;
Structure prediction by ZEFSAII (Michael W. Deem and Ramdas Pophale) SiO2 
 PCOD9090366
Probable space group: P -1
;
_chemical_formula_sum "Si O2"
_cell_formula_units_Z 16
_cell_length_a 14.744975
_cell_length_b 9.345448
_cell_length_c 13.054912
_cell_angle_alpha 111.279275
_cell_angle_beta 112.447240
_cell_angle_gamma 27.699085
_cell_volume 771.549788
_symmetry_space_group_name_H-M "P -1"
_symmetry_group_IT_number 2
_symmetry_cell_setting 'triclinic'
loop_
_space_group_symop_operation_xyz
x,y,z
-x,-y,-z
loop_
_atom_site_type_symbol
_atom_site_label
_atom_site_fract_x
_atom_site_fract_y
_atom_site_fract_z
Si Si1 0.993976 0.370285 0.882525
Si Si2 0.777565 0.411972 0.915826
Si Si3 0.595018 0.617280 0.258994
Si Si4 0.557287 0.354722 0.099493
Si Si5 0.914899 0.275687 0.159437
Si Si6 0.911138 0.264640 0.475093
Si Si7 0.234747 0.270144 0.321058
Si Si8 0.080778 0.255868 0.398068
O O1 0.825354 0.473247 0.866043
O O2 0.932784 0.515405 0.782057
O O3 0.210101 0.999033 0.883460
O O4 0.000000 0.500000 0.000000
O O5 0.566560 0.627296 0.913135
O O6 0.868906 0.367646 0.045420
O O7 0.903925 0.089063 0.857840
O O8 0.506106 0.567470 0.206675
O O9 0.729917 0.439604 0.170221
O O10 0.740115 0.447341 0.371517
O O11 0.442041 0.964518 0.276232
O O12 0.500000 0.500000 0.000000
O O13 0.951454 0.366332 0.276165
O O14 0.817119 0.509257 0.579691
O O15 0.081912 0.113718 0.440662
O O16 0.000000 0.000000 0.500000
O O17 0.249477 0.113203 0.371256
O O18 0.000000 0.500000 0.500000
#
# Coordination Sequence:
#
# PCOD9090366 Si02
#       8
#     2   2   2   2   2   2   2   2
#     4  12  26  42  63  98 141 176 225 285 334 402
#     4  11  22  39  65  96 132 178 227 277 335 398
#     4  11  21  40  67  93 131 176 220 275 340 409
#     4  12  22  41  67  96 131 178 229 273 342 402
#     4  10  19  38  65  93 129 173 224 275 335 399
#     4  10  22  41  70  93 129 174 225 284 336 398
#     4  11  23  42  63  97 137 173 224 277 340 404
#     4   9  20  39  65  92 125 176 218 270 342 396
#
# _framework density 20.737480999999999
#
# number of rings (size 3 to 8) (size 9 to 14) (size 15 to 20)
#    0.000    1.250    2.500    4.125    1.750    0.500 
#    4.500    0.625    0.000    0.000    0.000    0.000 
#    0.000    0.000    0.000    0.000    0.000    0.000 
#
# Total GULP energy -89148.860159 kJ/mol
# GULP energy per Si atom -5571.803760 kJ/mol
# Density = 2.069028 g / cm^3
# Si number density = 20.737481 Si / 1000 Ang^3
#
#
#
# Elastic Constant Matrix: (Units=GPa)
#
#
# Indices 1 2 3 4 5 6 
#
# 1 107.0837 26.1265 16.3722 -0.5083 -6.7165 12.1792
# 2 26.1265 108.9335 38.3587 -0.7805 -13.3927 6.8338
# 3 16.3722 38.3587 122.4198 15.5436 7.3817 11.4870
# 4 -0.5083 -0.7805 15.5436 24.3417 9.4801 -4.6708
# 5 -6.7165 -13.3927 7.3817 9.4801 29.7320 0.3446
# 6 12.1792 6.8338 11.4870 -4.6708 0.3446 25.1642
#
#
#
# Elastic Compliance Matrix: (Units=1/GPa)
#
#
# Indices 1 2 3 4 5 6 
#
# 1 0.010504 -0.001856 -0.000338 -0.001347 0.002105 -0.004704
# 2 -0.001856 0.011679 -0.003753 0.000428 0.005643 -0.000558
# 3 -0.000338 -0.003753 0.010919 -0.007264 -0.002102 -0.005121
# 4 -0.001347 0.000428 -0.007264 0.054620 -0.015889 0.014207
# 5 0.002105 0.005643 -0.002102 -0.015889 0.042299 -0.005120
# 6 -0.004704 -0.000558 -0.005121 0.014207 -0.005120 0.047212
#
#
# Mechanical properties :
#
#
# Convention : Reuss Voigt Hill
#
# Bulk Modulus (GPa) = 47.15300 55.57243 51.36272
# Shear Modulus (GPa) = 25.48473 33.01954 29.25214
#
# Velocity S-wave (km/s) = 3.50940 3.99465 3.75986
# Velocity P-wave (km/s) = 6.26168 6.93776 6.60837
#
# Compressibility (1/GPa) = 0.02120756
#
# Stress axis : x y z
#
# Youngs Moduli (GPa) = 95.20540 85.62663 91.57964
#
# Poissons Ratio (x) = 0.15893 0.03092
# Poissons Ratio (y) = 0.17671 0.34373
# Poissons Ratio (z) = 0.03214 0.32139
#
# Static dielectric constant tensor:
#      x y z
#    x 1.868710 -0.005610 0.009800 
#    y -0.005610 1.763150 0.005580 
#    z 0.009800 0.005580 1.758250 
# 
# From -- ./inp_files/200391.got.cif
#   From: 2010.05.17/outbox.cif.g08.bks.cpg/sg2_101_cif.got.tgz:200391.got - 2010.06.03 11:33:40.
