data_PCOD9090184
_publ_section_title
;
Structure prediction by ZEFSAII (Michael W. Deem and Ramdas Pophale) SiO2 
 PCOD9090184
Probable space group: P -1
;
_chemical_formula_sum "Si O2"
_cell_formula_units_Z 12
_cell_length_a 9.102355
_cell_length_b 12.553798
_cell_length_c 11.516043
_cell_angle_alpha 146.542216
_cell_angle_beta 68.377876
_cell_angle_gamma 90.458564
_cell_volume 547.389853
_symmetry_space_group_name_H-M "P -1"
_symmetry_group_IT_number 2
_symmetry_cell_setting 'triclinic'
loop_
_space_group_symop_operation_xyz
x,y,z
-x,-y,-z
loop_
_atom_site_type_symbol
_atom_site_label
_atom_site_fract_x
_atom_site_fract_y
_atom_site_fract_z
Si Si1 0.770397 0.137000 0.813154
Si Si2 0.067667 0.625215 0.174078
Si Si3 0.121900 0.681541 0.572055
Si Si4 0.613603 0.541544 0.906792
Si Si5 0.276755 0.627378 0.715212
Si Si6 0.277455 0.234266 0.268161
O O1 0.850131 0.259269 0.824749
O O2 0.556719 0.243737 0.923419
O O3 0.764860 0.225709 0.024253
O O4 0.898277 0.856006 0.502756
O O5 0.234140 0.440700 0.048205
O O6 0.000000 0.500000 0.000000
O O7 0.155776 0.764724 0.759888
O O8 0.229742 0.399374 0.317793
O O9 0.899484 0.790359 0.706659
O O10 0.247247 0.673225 0.420285
O O11 0.500000 0.500000 0.000000
O O12 0.500000 0.500000 0.500000
O O13 0.247912 0.416468 0.543447
O O14 0.500000 0.000000 0.000000
#
# Coordination Sequence:
#
# PCOD9090184 Si02
#       6
#     2   2   2   2   2   2
#     4  10  21  44  60  92 132 157 219 273 312 388
#     4  10  24  40  67  88 119 176 217 264 322 381
#     4   9  20  37  61  93 133 162 214 266 314 391
#     4  10  21  40  63  91 129 170 218 261 319 389
#     4  10  19  38  64  89 131 163 193 273 329 373
#     4   9  20  38  60  92 128 168 210 257 324 390
#
# _framework density 21.922219999999999
#
# number of rings (size 3 to 8) (size 9 to 14) (size 15 to 20)
#    1.000    1.333    1.667    0.000    2.333    3.333 
#    3.000    1.667    0.000    0.000    0.000    0.000 
#    0.000    0.000    0.000    0.000    0.000    0.000 
#
# Total GULP energy -66874.596689 kJ/mol
# GULP energy per Si atom -5572.883057 kJ/mol
# Density = 2.187232 g / cm^3
# Si number density = 21.922220 Si / 1000 Ang^3
#
#
#
# Elastic Constant Matrix: (Units=GPa)
#
#
# Indices 1 2 3 4 5 6 
#
# 1 204.3618 49.6268 105.1054 3.8842 -1.9837 -47.7750
# 2 49.6268 75.5903 55.1407 -10.1473 -2.7870 -16.6645
# 3 105.1054 55.1407 154.5812 -11.9647 2.7660 -28.2556
# 4 3.8842 -10.1473 -11.9647 37.3359 -7.5125 5.6219
# 5 -1.9837 -2.7870 2.7660 -7.5125 47.6006 -3.1773
# 6 -47.7750 -16.6645 -28.2556 5.6219 -3.1773 33.0098
#
#
#
# Elastic Compliance Matrix: (Units=1/GPa)
#
#
# Indices 1 2 3 4 5 6 
#
# 1 0.010456 -0.001409 -0.004959 -0.004588 0.000653 0.011021
# 2 -0.001409 0.019051 -0.005076 0.003702 0.002123 0.002807
# 3 -0.004959 -0.005076 0.011856 0.002804 -0.000760 -0.000142
# 4 -0.004588 0.003702 0.002804 0.031122 0.004290 -0.007258
# 5 0.000653 0.002123 -0.000760 0.004290 0.022065 0.002760
# 6 0.011021 0.002807 -0.000142 -0.007258 0.002760 0.049042
#
#
# Mechanical properties :
#
#
# Convention : Reuss Voigt Hill
#
# Bulk Modulus (GPa) = 54.12683 94.91990 74.52336
# Shear Modulus (GPa) = 28.96207 38.56661 33.76434
#
# Velocity S-wave (km/s) = 3.63868 4.19889 3.92878
# Velocity P-wave (km/s) = 6.51132 8.17924 7.39247
#
# Compressibility (1/GPa) = 0.01847513
#
# Stress axis : x y z
#
# Youngs Moduli (GPa) = 95.63965 52.48987 84.34376
#
# Poissons Ratio (x) = 0.07398 0.41826
# Poissons Ratio (y) = 0.13479 0.42812
# Poissons Ratio (z) = 0.47427 0.26643
#
# Static dielectric constant tensor:
#      x y z
#    x 0.000000 0.000000 0.000000 
#    y 0.000000 0.000000 0.000000 
#    z 0.000000 0.000000 0.000000 
# 
# From -- ./inp_files/397950.got.cif
#   From: 2010.05.17/outbox.cif.g08.bks.cpg/sg2_199_cif.got.tgz:397950.got - 2010.06.03 11:33:40.
