data_PCOD9090879
_publ_section_title
;
Structure prediction by ZEFSAII (Michael W. Deem and Ramdas Pophale) SiO2 
 PCOD9090879
Probable space group: P -1
;
_chemical_formula_sum "Si O2"
_cell_formula_units_Z 14
_cell_length_a 9.362428
_cell_length_b 7.371454
_cell_length_c 13.909547
_cell_angle_alpha 70.812936
_cell_angle_beta 133.183825
_cell_angle_gamma 83.706748
_cell_volume 577.846663
_symmetry_space_group_name_H-M "P -1"
_symmetry_group_IT_number 2
_symmetry_cell_setting 'triclinic'
loop_
_space_group_symop_operation_xyz
x,y,z
-x,-y,-z
loop_
_atom_site_type_symbol
_atom_site_label
_atom_site_fract_x
_atom_site_fract_y
_atom_site_fract_z
Si Si1 0.433583 0.624886 0.816420
Si Si2 0.282045 0.891504 0.508719
Si Si3 0.127368 0.726565 0.824632
Si Si4 0.561307 0.764022 0.466140
Si Si5 0.590087 0.933958 0.945689
Si Si6 0.253847 0.805449 0.146677
Si Si7 0.090690 0.551773 0.211576
O O1 0.338751 0.714536 0.650745
O O2 0.245209 0.614819 0.797524
O O3 0.473596 0.814568 0.854244
O O4 0.664233 0.394914 0.983717
O O5 0.455527 0.804845 0.516255
O O6 0.332880 0.081722 0.540351
O O7 0.031964 0.018778 0.323501
O O8 0.953685 0.650313 0.795476
O O9 0.366964 0.799141 0.300636
O O10 0.761527 0.517338 0.611755
O O11 0.590267 0.142644 0.859487
O O12 0.851486 0.753708 0.091092
O O13 0.500000 0.000000 0.000000
O O14 0.208137 0.599884 0.167564
O O15 0.000000 0.000000 0.000000
#
# Coordination Sequence:
#
# PCOD9090879 Si02
#       7
#     2   2   2   2   2   2   2
#     4  10  19  39  61  84 128 157 195 254 301 354
#     4  10  20  37  62  90 120 156 202 247 302 363
#     4   9  20  36  59  88 123 159 196 247 300 354
#     4  10  20  38  59  88 119 152 202 248 300 358
#     4  10  21  39  61  88 117 159 203 240 300 361
#     4  10  20  38  62  82 119 160 193 247 299 347
#     4   9  20  39  58  84 122 151 195 253 291 349
#
# _framework density 24.227879000000001
#
# number of rings (size 3 to 8) (size 9 to 14) (size 15 to 20)
#    0.000    2.286    1.429    0.857    0.000    2.286 
#   12.857    3.571    0.000    0.000    0.000    0.000 
#    0.000    0.000    0.000    0.000    0.000    0.000 
#
# Total GULP energy -78047.353040 kJ/mol
# GULP energy per Si atom -5574.810931 kJ/mol
# Density = 2.417274 g / cm^3
# Si number density = 24.227879 Si / 1000 Ang^3
#
#
#
# Elastic Constant Matrix: (Units=GPa)
#
#
# Indices 1 2 3 4 5 6 
#
# 1 113.7847 13.2618 36.0963 -4.4010 -29.1492 21.4743
# 2 13.2618 45.1559 8.4147 6.6139 -9.8785 12.2115
# 3 36.0963 8.4147 137.1879 -21.2365 -15.1974 -0.9257
# 4 -4.4010 6.6139 -21.2365 25.4989 3.4407 -1.9856
# 5 -29.1492 -9.8785 -15.1974 3.4407 50.0027 -6.1856
# 6 21.4743 12.2115 -0.9257 -1.9856 -6.1856 30.9226
#
#
#
# Elastic Compliance Matrix: (Units=1/GPa)
#
#
# Indices 1 2 3 4 5 6 
#
# 1 0.012591 0.000572 -0.003074 -0.001926 0.005655 -0.008055
# 2 0.000572 0.028327 -0.003262 -0.011445 0.004296 -0.011557
# 3 -0.003074 -0.003262 0.009724 0.008692 0.000461 0.004364
# 4 -0.001926 -0.011445 0.008692 0.050192 -0.003117 0.008717
# 5 0.005655 0.004296 0.000461 -0.003117 0.024384 -0.000933
# 6 -0.008055 -0.011557 0.004364 0.008717 -0.000933 0.043000
#
#
# Mechanical properties :
#
#
# Convention : Reuss Voigt Hill
#
# Bulk Modulus (GPa) = 25.56552 45.74158 35.65355
# Shear Modulus (GPa) = 25.93587 37.17522 31.55554
#
# Velocity S-wave (km/s) = 3.27539 3.92139 3.61286
# Velocity P-wave (km/s) = 4.98791 6.27884 5.67023
#
# Compressibility (1/GPa) = 0.03911518
#
# Stress axis : x y z
#
# Youngs Moduli (GPa) = 79.41954 35.30226 102.83667
#
# Poissons Ratio (x) = -0.02020 0.31613
# Poissons Ratio (y) = -0.04545 0.33543
# Poissons Ratio (z) = 0.24414 0.11515
#
# Static dielectric constant tensor:
#      x y z
#    x 1.938890 0.008660 -0.004670 
#    y 0.008660 2.056180 -0.057360 
#    z -0.004670 -0.057360 2.025790 
# 
# From -- ./inp_files/152056.got.cif
#   From: 2010.05.17/outbox.cif.g08.bks.cpg/sg2_77_cif.got.tgz:152056.got - 2010.06.03 11:33:40.
