data_PCOD9090676
_publ_section_title
;
Structure prediction by ZEFSAII (Michael W. Deem and Ramdas Pophale) SiO2 
 PCOD9090676
Probable space group: P -1
;
_chemical_formula_sum "Si O2"
_cell_formula_units_Z 16
_cell_length_a 13.526082
_cell_length_b 11.855778
_cell_length_c 9.259223
_cell_angle_alpha 84.931153
_cell_angle_beta 135.187015
_cell_angle_gamma 122.586798
_cell_volume 766.349337
_symmetry_space_group_name_H-M "P -1"
_symmetry_group_IT_number 2
_symmetry_cell_setting 'triclinic'
loop_
_space_group_symop_operation_xyz
x,y,z
-x,-y,-z
loop_
_atom_site_type_symbol
_atom_site_label
_atom_site_fract_x
_atom_site_fract_y
_atom_site_fract_z
Si Si1 0.052590 0.373105 0.116107
Si Si2 0.002356 0.301629 0.761031
Si Si3 0.381001 0.874571 0.259951
Si Si4 0.273281 0.401038 0.771496
Si Si5 0.919608 0.843709 0.650140
Si Si6 0.322793 0.080068 0.093653
Si Si7 0.265360 0.054988 0.381356
Si Si8 0.752652 0.386229 0.456976
O O1 0.064798 0.255565 0.214214
O O2 0.169253 0.518862 0.323467
O O3 0.109363 0.401728 0.005345
O O4 0.827213 0.278880 0.894389
O O5 0.871919 0.335001 0.562763
O O6 0.157227 0.337156 0.807624
O O7 0.861634 0.123949 0.688340
O O8 0.519326 0.852687 0.355900
O O9 0.500000 0.000000 0.500000
O O10 0.351389 0.961277 0.110710
O O11 0.183493 0.260629 0.585042
O O12 0.227996 0.502270 0.650801
O O13 0.500000 0.500000 0.000000
O O14 0.811808 0.880412 0.622227
O O15 0.132314 0.006290 0.819323
O O16 0.271642 0.073017 0.211527
O O17 0.526326 0.243202 0.252462
#
# Coordination Sequence:
#
# PCOD9090676 Si02
#       8
#     2   2   2   2   2   2   2   2
#     4  10  21  39  68 100 132 160 208 267 324 376
#     4  12  22  42  68  95 128 171 213 262 315 378
#     4   9  15  33  58  98 125 152 200 261 311 364
#     4  11  29  48  61  87 135 176 212 258 318 385
#     4  10  23  42  65  94 128 172 210 257 316 381
#     4  10  19  38  69  96 127 157 213 268 316 369
#     4  11  20  35  68 103 126 161 213 265 316 371
#     4  11  24  43  68  97 128 168 211 267 321 377
#
# _framework density 20.878207
#
# number of rings (size 3 to 8) (size 9 to 14) (size 15 to 20)
#    0.000    1.500    5.000    1.875    1.750    2.500 
#    0.000    4.375    0.000    0.000    0.000    0.000 
#    0.000    0.000    0.000    0.000    0.000    0.000 
#
# Total GULP energy -89336.252056 kJ/mol
# GULP energy per Si atom -5583.515753 kJ/mol
# Density = 2.083069 g / cm^3
# Si number density = 20.878207 Si / 1000 Ang^3
#
#
#
# Elastic Constant Matrix: (Units=GPa)
#
#
# Indices 1 2 3 4 5 6 
#
# 1 100.1480 19.1485 61.9017 12.6245 23.7305 -5.8488
# 2 19.1485 58.6492 11.5309 4.9938 0.8840 -5.1463
# 3 61.9017 11.5309 113.6599 21.7731 15.3878 2.5219
# 4 12.6245 4.9938 21.7731 27.5682 1.3990 4.2422
# 5 23.7305 0.8840 15.3878 1.3990 24.7232 -7.5989
# 6 -5.8488 -5.1463 2.5219 4.2422 -7.5989 34.9089
#
#
#
# Elastic Compliance Matrix: (Units=1/GPa)
#
#
# Indices 1 2 3 4 5 6 
#
# 1 0.018918 -0.004296 -0.007937 -0.001030 -0.012874 0.000432
# 2 -0.004296 0.018835 0.000197 -0.002335 0.004474 0.003300
# 3 -0.007937 0.000197 0.014869 -0.007776 -0.001761 -0.001813
# 4 -0.001030 -0.002335 -0.007776 0.043963 0.001925 -0.004879
# 5 -0.012874 0.004474 -0.001761 0.001925 0.056949 0.010792
# 6 0.000432 0.003300 -0.001813 -0.004879 0.010792 0.032278
#
#
# Mechanical properties :
#
#
# Convention : Reuss Voigt Hill
#
# Bulk Modulus (GPa) = 35.02504 50.84659 42.93581
# Shear Modulus (GPa) = 22.78938 29.43179 26.11059
#
# Velocity S-wave (km/s) = 3.30743 3.75866 3.54024
# Velocity P-wave (km/s) = 5.60337 6.57597 6.10906
#
# Compressibility (1/GPa) = 0.02855100
#
# Stress axis : x y z
#
# Youngs Moduli (GPa) = 52.85993 53.09132 67.25468
#
# Poissons Ratio (x) = 0.22811 0.53378
# Poissons Ratio (y) = 0.22711 -0.01328
# Poissons Ratio (z) = 0.41953 -0.01048
#
# Static dielectric constant tensor:
#      x y z
#    x 1.734600 -0.003710 0.018000 
#    y -0.003710 1.804490 -0.026800 
#    z 0.018000 -0.026800 1.783020 
# 
# From -- ./inp_files/262630.got.cif
#   From: 2010.05.17/outbox.cif.g08.bks.cpg/sg2_132_cif.got.tgz:262630.got - 2010.06.03 11:33:40.
