data_PCOD9090244
_publ_section_title
;
Structure prediction by ZEFSAII (Michael W. Deem and Ramdas Pophale) SiO2 
 PCOD9090244
Probable space group: P -1
;
_chemical_formula_sum "Si O2"
_cell_formula_units_Z 16
_cell_length_a 17.721560
_cell_length_b 8.690694
_cell_length_c 11.913070
_cell_angle_alpha 133.490279
_cell_angle_beta 148.963510
_cell_angle_gamma 53.955543
_cell_volume 686.292038
_symmetry_space_group_name_H-M "P -1"
_symmetry_group_IT_number 2
_symmetry_cell_setting 'triclinic'
loop_
_space_group_symop_operation_xyz
x,y,z
-x,-y,-z
loop_
_atom_site_type_symbol
_atom_site_label
_atom_site_fract_x
_atom_site_fract_y
_atom_site_fract_z
Si Si1 0.757648 0.213183 0.895145
Si Si2 0.802726 0.635155 0.303451
Si Si3 0.488364 0.708874 0.014800
Si Si4 0.025283 0.969544 0.384437
Si Si5 0.294528 0.666881 0.531154
Si Si6 0.626808 0.084884 0.458214
Si Si7 0.211896 0.204236 0.174532
Si Si8 0.098143 0.221657 0.282576
O O1 0.776560 0.416837 0.097506
O O2 0.929088 0.165283 0.058696
O O3 0.651001 0.250092 0.672702
O O4 0.698620 0.998747 0.769918
O O5 0.863962 0.594072 0.486733
O O6 0.908528 0.809422 0.469056
O O7 0.640581 0.730555 0.152336
O O8 0.366713 0.682666 0.753314
O O9 0.500000 0.500000 0.000000
O O10 0.493630 0.917435 0.204313
O O11 0.139740 0.783323 0.407965
O O12 0.000000 0.000000 0.500000
O O13 0.883697 0.892235 0.096078
O O14 0.375902 0.799409 0.605370
O O15 0.288193 0.425699 0.358114
O O16 0.777782 0.947194 0.602782
O O17 0.121798 0.271100 0.207259
#
# Coordination Sequence:
#
# PCOD9090244 Si02
#       8
#     2   2   2   2   2   2   2   2
#     4  11  21  38  63  96 135 168 212 273 336 381
#     4  11  24  41  66  99 136 173 220 275 330 382
#     4  11  24  46  70  94 122 176 240 271 317 388
#     4  12  27  41  63 107 144 168 210 273 344 394
#     4  12  23  44  69  92 134 178 224 268 320 398
#     4  10  21  39  66  95 127 175 222 268 318 397
#     4  11  24  39  66 102 129 178 223 262 327 401
#     4  10  19  38  64  94 128 172 223 260 323 387
#
# _framework density 23.313692
#
# number of rings (size 3 to 8) (size 9 to 14) (size 15 to 20)
#    0.000    1.000    3.750    5.625    3.500    1.000 
#    0.000    4.375    0.000    0.000    0.000    0.000 
#    0.000    0.000    0.000    0.000    0.000    0.000 
#
# Total GULP energy -89332.632233 kJ/mol
# GULP energy per Si atom -5583.289515 kJ/mol
# Density = 2.326063 g / cm^3
# Si number density = 23.313692 Si / 1000 Ang^3
#
#
#
# Elastic Constant Matrix: (Units=GPa)
#
#
# Indices 1 2 3 4 5 6 
#
# 1 59.5971 14.4705 20.4273 9.4947 -21.0015 18.2014
# 2 14.4705 76.3685 39.7723 21.3118 -5.8542 23.2801
# 3 20.4273 39.7723 142.4318 21.7320 -40.3920 18.2022
# 4 9.4947 21.3118 21.7320 50.3756 1.4196 -1.9733
# 5 -21.0015 -5.8542 -40.3920 1.4196 41.3537 -6.0678
# 6 18.2014 23.2801 18.2022 -1.9733 -6.0678 31.4889
#
#
#
# Elastic Compliance Matrix: (Units=1/GPa)
#
#
# Indices 1 2 3 4 5 6 
#
# 1 0.026774 0.001582 0.003262 -0.008177 0.014916 -0.016170
# 2 0.001582 0.021637 -0.003344 -0.008588 -0.001421 -0.015790
# 3 0.003262 -0.003344 0.012505 -0.005134 0.012917 -0.004475
# 4 -0.008177 -0.008588 -0.005134 0.028051 -0.009290 0.014011
# 5 0.014916 -0.001421 0.012917 -0.009290 0.043427 -0.007252
# 6 -0.016170 -0.015790 -0.004475 0.014011 -0.007252 0.054845
#
#
# Mechanical properties :
#
#
# Convention : Reuss Voigt Hill
#
# Bulk Modulus (GPa) = 15.64494 47.52642 31.58568
# Shear Modulus (GPa) = 24.32563 38.22546 31.27554
#
# Velocity S-wave (km/s) = 3.23368 4.05361 3.66664
# Velocity P-wave (km/s) = 4.54615 6.50683 5.61277
#
# Compressibility (1/GPa) = 0.06391845
#
# Stress axis : x y z
#
# Youngs Moduli (GPa) = 37.34932 46.21682 79.96654
#
# Poissons Ratio (x) = -0.07313 -0.26087
# Poissons Ratio (y) = -0.05910 0.26738
# Poissons Ratio (z) = -0.12184 0.15453
#
# Static dielectric constant tensor:
#      x y z
#    x 2.013830 -0.069290 -0.058700 
#    y -0.069290 1.928580 0.091880 
#    z -0.058700 0.091880 1.948440 
# 
# From -- ./inp_files/469619.got.cif
#   From: 2010.05.17/outbox.cif.g08.bks.cpg/sg2_235_cif.got.tgz:469619.got - 2010.06.03 11:33:40.
