data_PCOD9090351
_publ_section_title
;
Structure prediction by ZEFSAII (Michael W. Deem and Ramdas Pophale) SiO2 
 PCOD9090351
Probable space group: P -1
;
_chemical_formula_sum "Si O2"
_cell_formula_units_Z 16
_cell_length_a 14.161359
_cell_length_b 11.269846
_cell_length_c 8.793534
_cell_angle_alpha 41.319235
_cell_angle_beta 81.974737
_cell_angle_gamma 110.006368
_cell_volume 669.606677
_symmetry_space_group_name_H-M "P -1"
_symmetry_group_IT_number 2
_symmetry_cell_setting 'triclinic'
loop_
_space_group_symop_operation_xyz
x,y,z
-x,-y,-z
loop_
_atom_site_type_symbol
_atom_site_label
_atom_site_fract_x
_atom_site_fract_y
_atom_site_fract_z
Si Si1 0.224953 0.659119 0.294407
Si Si2 0.934408 0.796266 0.844084
Si Si3 0.230877 0.742558 0.547529
Si Si4 0.148368 0.170076 0.858854
Si Si5 0.478263 0.017952 0.724054
Si Si6 0.304536 0.138951 0.347939
Si Si7 0.844827 0.129465 0.079738
Si Si8 0.417933 0.629707 0.894751
O O1 0.178322 0.662823 0.466284
O O2 0.220969 0.438199 0.515802
O O3 0.134103 0.643469 0.207756
O O4 0.373036 0.909166 0.983030
O O5 0.046466 0.834149 0.879913
O O6 0.837814 0.505977 0.101808
O O7 0.857590 0.816133 0.970321
O O8 0.000000 0.000000 0.500000
O O9 0.385283 0.901016 0.342693
O O10 0.218747 0.919547 0.458797
O O11 0.192713 0.044387 0.888652
O O12 0.000000 0.000000 0.000000
O O13 0.534097 0.260793 0.389528
O O14 0.403127 0.793635 0.833912
O O15 0.457104 0.303289 0.117264
O O16 0.271753 0.006905 0.642760
O O17 0.296701 0.340665 0.185513
#
# Coordination Sequence:
#
# PCOD9090351 Si02
#       8
#     2   2   2   2   2   2   2   2
#     4  11  22  42  65  95 130 164 214 262 314 380
#     4  10  24  44  65  93 126 168 213 262 318 377
#     4  10  24  40  61  93 132 168 206 260 326 370
#     4   9  22  42  64  93 123 168 211 257 313 375
#     4  10  19  38  65  92 123 172 203 260 319 370
#     4  10  20  37  59  97 124 164 210 261 310 375
#     4  11  23  40  69  92 121 171 215 257 317 370
#     4   9  19  35  62  90 129 162 213 253 309 381
#
# _framework density 23.894624
#
# number of rings (size 3 to 8) (size 9 to 14) (size 15 to 20)
#    0.000    2.000    1.250    1.125    1.750    8.000 
#    2.250    0.625    0.000    0.000    0.000    0.000 
#    0.000    0.000    0.000    0.000    0.000    0.000 
#
# Total GULP energy -89258.882657 kJ/mol
# GULP energy per Si atom -5578.680166 kJ/mol
# Density = 2.384024 g / cm^3
# Si number density = 23.894624 Si / 1000 Ang^3
#
#
#
# Elastic Constant Matrix: (Units=GPa)
#
#
# Indices 1 2 3 4 5 6 
#
# 1 69.9195 3.3265 22.8158 3.2316 4.7424 1.1720
# 2 3.3265 59.6348 37.4139 -12.3362 -0.7702 -8.7395
# 3 22.8158 37.4139 153.9876 4.7669 12.5805 6.3531
# 4 3.2316 -12.3362 4.7669 32.3258 1.3568 2.5913
# 5 4.7424 -0.7702 12.5805 1.3568 32.2111 -0.9534
# 6 1.1720 -8.7395 6.3531 2.5913 -0.9534 21.5205
#
#
#
# Elastic Compliance Matrix: (Units=1/GPa)
#
#
# Indices 1 2 3 4 5 6 
#
# 1 0.015135 0.000289 -0.002172 -0.001027 -0.001330 -0.000001
# 2 0.000289 0.024845 -0.007099 0.009467 0.003256 0.011174
# 3 -0.002172 -0.007099 0.009138 -0.003277 -0.003435 -0.005220
# 4 -0.001027 0.009467 -0.003277 0.035073 0.000199 0.000654
# 5 -0.001330 0.003256 -0.003435 0.000199 0.032766 0.003836
# 6 -0.000001 0.011174 -0.005220 0.000654 0.003836 0.052637
#
#
# Mechanical properties :
#
#
# Convention : Reuss Voigt Hill
#
# Bulk Modulus (GPa) = 32.10020 45.62826 38.86423
# Shear Modulus (GPa) = 25.25980 31.87720 28.56850
#
# Velocity S-wave (km/s) = 3.25489 3.65646 3.46150
# Velocity P-wave (km/s) = 5.25252 6.07975 5.68121
#
# Compressibility (1/GPa) = 0.03115246
#
# Stress axis : x y z
#
# Youngs Moduli (GPa) = 66.07246 40.25033 109.43016
#
# Poissons Ratio (x) = -0.01163 0.23771
# Poissons Ratio (y) = -0.01909 0.77688
# Poissons Ratio (z) = 0.14352 0.28575
#
# Static dielectric constant tensor:
#      x y z
#    x 2.038860 0.013750 0.011860 
#    y 0.013750 1.966010 -0.018890 
#    z 0.011860 -0.018890 1.938220 
# 
# From -- ./inp_files/331552.got.cif
#   From: 2010.05.17/outbox.cif.g08.bks.cpg/sg2_166_cif.got.tgz:331552.got - 2010.06.03 11:33:40.
