data_PCOD9090031
_publ_section_title
;
Structure prediction by ZEFSAII (Michael W. Deem and Ramdas Pophale) SiO2 
 PCOD9090031
Probable space group: P -1
;
_chemical_formula_sum "Si O2"
_cell_formula_units_Z 16
_cell_length_a 5.294831
_cell_length_b 21.908574
_cell_length_c 9.400700
_cell_angle_alpha 132.223550
_cell_angle_beta 87.847979
_cell_angle_gamma 105.445234
_cell_volume 762.952850
_symmetry_space_group_name_H-M "P -1"
_symmetry_group_IT_number 2
_symmetry_cell_setting 'triclinic'
loop_
_space_group_symop_operation_xyz
x,y,z
-x,-y,-z
loop_
_atom_site_type_symbol
_atom_site_label
_atom_site_fract_x
_atom_site_fract_y
_atom_site_fract_z
Si Si1 0.501798 0.767035 0.174836
Si Si2 0.287120 0.472589 0.100121
Si Si3 0.842470 0.948480 0.558775
Si Si4 0.169828 0.967883 0.831520
Si Si5 0.713458 0.390339 0.860044
Si Si6 0.994701 0.743003 0.943485
Si Si7 0.801491 0.553219 0.616816
Si Si8 0.693659 0.090164 0.977880
O O1 0.603045 0.866783 0.380782
O O2 0.429917 0.702939 0.213192
O O3 0.238114 0.746647 0.051311
O O4 0.744939 0.753434 0.055313
O O5 0.319633 0.575341 0.243930
O O6 0.196538 0.437079 0.199941
O O7 0.560868 0.452036 0.035028
O O8 0.029512 0.419057 0.927573
O O9 0.025131 0.916234 0.615899
O O10 0.759610 0.014768 0.766924
O O11 0.000000 0.000000 0.500000
O O12 0.376343 0.058312 0.909443
O O13 0.290508 0.914710 0.857302
O O14 0.000000 0.000000 0.000000
O O15 0.899668 0.652204 0.717332
O O16 0.121289 0.821218 0.953321
O O17 0.500000 0.500000 0.500000
O O18 0.000000 0.500000 0.500000
#
# Coordination Sequence:
#
# PCOD9090031 Si02
#       8
#     2   2   2   2   2   2   2   2
#     4  12  23  39  65 100 133 162 215 277 325 388
#     4  10  20  38  64  86 119 162 210 251 331 375
#     4  11  22  37  64 100 133 167 221 274 320 384
#     4   9  21  42  62  89 132 182 217 263 330 385
#     4  10  19  38  63  88 121 164 199 262 321 388
#     4  12  25  42  67  95 128 171 218 268 334 388
#     4  12  24  43  64  92 128 166 219 270 317 390
#     4  10  22  42  66  91 133 182 215 267 330 395
#
# _framework density 20.971150999999999
#
# number of rings (size 3 to 8) (size 9 to 14) (size 15 to 20)
#    0.000    1.250    3.750    2.250    3.500    1.000 
#    2.250    2.500    0.000    0.000    0.000    0.000 
#    0.000    0.000    0.000    0.000    0.000    0.000 
#
# Total GULP energy -89107.605454 kJ/mol
# GULP energy per Si atom -5569.225341 kJ/mol
# Density = 2.092342 g / cm^3
# Si number density = 20.971151 Si / 1000 Ang^3
#
#
#
# Elastic Constant Matrix: (Units=GPa)
#
#
# Indices 1 2 3 4 5 6 
#
# 1 108.4960 19.6883 32.4531 10.1898 4.2769 22.4582
# 2 19.6883 143.9928 27.6622 29.4367 3.1916 17.1360
# 3 32.4531 27.6622 72.9104 21.4403 10.4914 4.8534
# 4 10.1898 29.4367 21.4403 39.4947 3.5003 2.5834
# 5 4.2769 3.1916 10.4914 3.5003 29.0851 -2.3859
# 6 22.4582 17.1360 4.8534 2.5834 -2.3859 33.8687
#
#
#
# Elastic Compliance Matrix: (Units=1/GPa)
#
#
# Indices 1 2 3 4 5 6 
#
# 1 0.012246 0.000201 -0.004900 -0.000096 -0.000664 -0.007559
# 2 0.000201 0.008814 -0.001531 -0.005522 -0.000105 -0.003959
# 3 -0.004900 -0.001531 0.019390 -0.007770 -0.005049 0.001482
# 4 -0.000096 -0.005522 -0.007770 0.033634 -0.000513 0.001369
# 5 -0.000664 -0.000105 -0.005049 -0.000513 0.036689 0.003840
# 6 -0.007559 -0.003959 0.001482 0.001369 0.003840 0.036495
#
#
# Mechanical properties :
#
#
# Convention : Reuss Voigt Hill
#
# Bulk Modulus (GPa) = 35.72773 53.88961 44.80867
# Shear Modulus (GPa) = 29.57548 36.86273 33.21911
#
# Velocity S-wave (km/s) = 3.75946 4.19714 3.98432
# Velocity P-wave (km/s) = 5.99319 7.01718 6.52530
#
# Compressibility (1/GPa) = 0.02798946
#
# Stress axis : x y z
#
# Youngs Moduli (GPa) = 81.65866 113.45916 51.57221
#
# Poissons Ratio (x) = -0.02279 0.25271
# Poissons Ratio (y) = -0.01640 0.07896
# Poissons Ratio (z) = 0.40014 0.17371
#
# Static dielectric constant tensor:
#      x y z
#    x 1.912470 -0.115180 -0.040360 
#    y -0.115180 1.694080 -0.102300 
#    z -0.040360 -0.102300 1.699650 
# 
# From -- ./inp_files/142351.got.cif
#   From: 2010.05.17/outbox.cif.g08.bks.cpg/sg2_72_cif.got.tgz:142351.got - 2010.06.03 11:33:40.
