data_PCOD9090513
_publ_section_title
;
Structure prediction by ZEFSAII (Michael W. Deem and Ramdas Pophale) SiO2 
 PCOD9090513
Probable space group: P -1
;
_chemical_formula_sum "Si O2"
_cell_formula_units_Z 16
_cell_length_a 10.353645
_cell_length_b 16.223367
_cell_length_c 19.580307
_cell_angle_alpha 33.160058
_cell_angle_beta 29.085904
_cell_angle_gamma 29.924811
_cell_volume 753.214843
_symmetry_space_group_name_H-M "P -1"
_symmetry_group_IT_number 2
_symmetry_cell_setting 'triclinic'
loop_
_space_group_symop_operation_xyz
x,y,z
-x,-y,-z
loop_
_atom_site_type_symbol
_atom_site_label
_atom_site_fract_x
_atom_site_fract_y
_atom_site_fract_z
Si Si1 0.218516 0.200553 0.419817
Si Si2 0.127996 0.837088 0.137445
Si Si3 0.804898 0.508405 0.866678
Si Si4 0.294256 0.759442 0.583771
Si Si5 0.734517 0.787944 0.456992
Si Si6 0.185554 0.148659 0.870094
Si Si7 0.220105 0.867036 0.400090
Si Si8 0.851465 0.608021 0.925442
O O1 0.231962 0.317997 0.271596
O O2 0.224031 0.272863 0.441878
O O3 0.894938 0.204503 0.557974
O O4 0.501902 0.000355 0.421767
O O5 0.034550 0.764306 0.295780
O O6 0.918287 0.842766 0.166490
O O7 0.484881 0.730545 0.023735
O O8 0.061775 0.033684 0.043395
O O9 0.870763 0.504717 0.918959
O O10 0.060609 0.337870 0.828273
O O11 0.500000 0.500000 0.000000
O O12 0.579450 0.701682 0.542795
O O13 0.370418 0.733774 0.486207
O O14 0.060203 0.693760 0.754045
O O15 0.099595 0.968873 0.540162
O O16 0.550127 0.063448 0.769621
O O17 0.000000 0.500000 0.000000
#
# Coordination Sequence:
#
# PCOD9090513 Si02
#       8
#     2   2   2   2   2   2   2   2
#     4  10  23  41  65  97 140 171 219 271 338 390
#     4  11  23  44  68 101 131 173 232 268 327 400
#     4  12  25  43  64  97 135 175 216 274 342 389
#     4  10  20  39  67  93 128 172 221 264 322 395
#     4  10  22  41  70  98 130 179 223 273 320 398
#     4  11  23  39  71 100 130 174 225 276 326 395
#     4  10  19  38  66  96 123 172 222 265 322 388
#     4  12  27  46  66  99 138 177 218 276 337 396
#
# _framework density 21.242280000000001
#
# number of rings (size 3 to 8) (size 9 to 14) (size 15 to 20)
#    0.000    1.250    5.000    0.750    3.500    1.500 
#    4.500    2.500    0.000    0.000    0.000    0.000 
#    0.000    0.000    0.000    0.000    0.000    0.000 
#
# Total GULP energy -89296.034102 kJ/mol
# GULP energy per Si atom -5581.002131 kJ/mol
# Density = 2.119393 g / cm^3
# Si number density = 21.242280 Si / 1000 Ang^3
#
#
#
# Elastic Constant Matrix: (Units=GPa)
#
#
# Indices 1 2 3 4 5 6 
#
# 1 122.2033 4.6773 31.7617 -7.6082 -11.2935 6.3683
# 2 4.6773 32.7180 -1.8437 -3.6556 0.2538 7.0161
# 3 31.7617 -1.8437 88.9145 10.1871 -17.5658 5.2555
# 4 -7.6082 -3.6556 10.1871 20.5869 -0.6488 0.4402
# 5 -11.2935 0.2538 -17.5658 -0.6488 31.3266 2.6227
# 6 6.3683 7.0161 5.2555 0.4402 2.6227 15.8949
#
#
#
# Elastic Compliance Matrix: (Units=1/GPa)
#
#
# Indices 1 2 3 4 5 6 
#
# 1 0.009801 -0.000353 -0.003578 0.005455 0.001898 -0.003052
# 2 -0.000353 0.034797 0.001533 0.005697 0.001924 -0.016200
# 3 -0.003578 0.001533 0.015313 -0.008275 0.007558 -0.005324
# 4 0.005455 0.005697 -0.008275 0.055727 -0.001290 -0.003295
# 5 0.001898 0.001924 0.007558 -0.001290 0.037663 -0.010288
# 6 -0.003052 -0.016200 -0.005324 -0.003295 -0.010288 0.074836
#
#
# Mechanical properties :
#
#
# Convention : Reuss Voigt Hill
#
# Bulk Modulus (GPa) = 18.14454 34.78072 26.46263
# Shear Modulus (GPa) = 19.89622 27.51104 23.70363
#
# Velocity S-wave (km/s) = 3.06377 3.60266 3.34409
# Velocity P-wave (km/s) = 4.59084 5.80642 5.23404
#
# Compressibility (1/GPa) = 0.05511299
#
# Stress axis : x y z
#
# Youngs Moduli (GPa) = 102.03453 28.73835 65.30569
#
# Poissons Ratio (x) = 0.01016 0.23365
# Poissons Ratio (y) = 0.03607 -0.10010
# Poissons Ratio (z) = 0.36506 -0.04405
#
# Static dielectric constant tensor:
#      x y z
#    x 1.771010 -0.034180 -0.012310 
#    y -0.034180 1.552820 -0.099750 
#    z -0.012310 -0.099750 1.726130 
# 
# From -- ./inp_files/320928.got.cif
#   From: 2010.05.17/outbox.cif.g08.bks.cpg/sg2_161_cif.got.tgz:320928.got - 2010.06.03 11:33:40.
