data_PCOD9090865
_publ_section_title
;
Structure prediction by ZEFSAII (Michael W. Deem and Ramdas Pophale) SiO2 
 PCOD9090865
Probable space group: P -1
;
_chemical_formula_sum "Si O2"
_cell_formula_units_Z 16
_cell_length_a 7.293349
_cell_length_b 8.845304
_cell_length_c 13.723687
_cell_angle_alpha 130.692750
_cell_angle_beta 79.634988
_cell_angle_gamma 105.233847
_cell_volume 647.647869
_symmetry_space_group_name_H-M "P -1"
_symmetry_group_IT_number 2
_symmetry_cell_setting 'triclinic'
loop_
_space_group_symop_operation_xyz
x,y,z
-x,-y,-z
loop_
_atom_site_type_symbol
_atom_site_label
_atom_site_fract_x
_atom_site_fract_y
_atom_site_fract_z
Si Si1 0.217826 0.354141 0.086590
Si Si2 0.616990 0.852354 0.835735
Si Si3 0.764667 0.263620 0.079708
Si Si4 0.156635 0.367635 0.889098
Si Si5 0.036401 0.990773 0.378907
Si Si6 0.605425 0.192356 0.691758
Si Si7 0.256195 0.366646 0.456548
Si Si8 0.406919 0.764626 0.521806
O O1 0.302423 0.233253 0.110344
O O2 0.331990 0.585830 0.175475
O O3 0.986970 0.317625 0.111777
O O4 0.238509 0.289378 0.946053
O O5 0.389511 0.816766 0.856112
O O6 0.670663 0.731156 0.688280
O O7 0.721252 0.087708 0.927613
O O8 0.716262 0.465785 0.121206
O O9 0.085198 0.181105 0.747042
O O10 0.000000 0.500000 0.000000
O O11 0.236783 0.921582 0.328837
O O12 0.057689 0.220522 0.437043
O O13 0.000000 0.000000 0.500000
O O14 0.621691 0.236549 0.592422
O O15 0.427747 0.004314 0.645340
O O16 0.264570 0.601080 0.530932
O O17 0.400178 0.325577 0.511293
#
# Coordination Sequence:
#
# PCOD9090865 Si02
#       8
#     2   2   2   2   2   2   2   2
#     4  11  21  41  69  94 134 178 225 281 337 399
#     4  11  23  40  66  98 134 175 221 283 344 398
#     4  10  23  39  62  99 131 168 227 279 335 402
#     4  10  20  40  66  95 128 179 224 276 335 407
#     4  11  23  40  65  96 133 173 226 282 339 403
#     4  10  19  39  60  92 124 176 227 266 334 396
#     4  10  20  39  63  88 128 179 219 269 346 405
#     4   9  20  35  58  91 121 165 230 260 320 408
#
# _framework density 24.704784
#
# number of rings (size 3 to 8) (size 9 to 14) (size 15 to 20)
#    0.000    1.750    3.750    1.875    1.750    3.500 
#    0.000    4.375    0.000    0.000    0.000    0.000 
#    0.000    0.000    0.000    0.000    0.000    0.000 
#
# Total GULP energy -89315.399778 kJ/mol
# GULP energy per Si atom -5582.212486 kJ/mol
# Density = 2.464855 g / cm^3
# Si number density = 24.704784 Si / 1000 Ang^3
#
#
#
# Elastic Constant Matrix: (Units=GPa)
#
#
# Indices 1 2 3 4 5 6 
#
# 1 79.6849 35.2652 38.3407 20.2042 1.3576 -10.0872
# 2 35.2652 167.5961 54.5180 38.1298 31.8121 12.4942
# 3 38.3407 54.5180 124.3388 0.5008 45.5756 25.3081
# 4 20.2042 38.1298 0.5008 33.0258 9.0312 19.1878
# 5 1.3576 31.8121 45.5756 9.0312 28.5508 -4.0252
# 6 -10.0872 12.4942 25.3081 19.1878 -4.0252 35.6745
#
#
#
# Elastic Compliance Matrix: (Units=1/GPa)
#
#
# Indices 1 2 3 4 5 6 
#
# 1 0.004181 -0.002372 0.009496 0.013380 -0.018929 -0.014056
# 2 -0.002372 0.009809 -0.000343 -0.007059 -0.008175 -0.000988
# 3 0.009496 -0.000343 -0.004260 -0.020522 0.015853 0.018654
# 4 0.013380 -0.007059 -0.020522 0.006653 0.040964 0.021857
# 5 -0.018929 -0.008175 0.015853 0.040964 0.001756 -0.035570
# 6 -0.014056 -0.000988 0.018654 0.021857 -0.035570 -0.004600
#
#
# Mechanical properties :
#
#
# Convention : Reuss Voigt Hill
#
# Bulk Modulus (GPa) = 42.93413 69.76307 56.34860
# Shear Modulus (GPa) = 646.02065 35.68329 340.85197
#
# Velocity S-wave (km/s) = 16.18839 3.80463 11.75881
# Velocity P-wave (km/s) = 19.15294 6.89930 14.39506
#
# Compressibility (1/GPa) = 0.02329150
#
# Stress axis : x y z
#
# Youngs Moduli (GPa) = 239.20122 101.94910 -234.72952
#
# Poissons Ratio (x) = 0.24182 2.22907
# Poissons Ratio (y) = 0.56738 -0.08056
# Poissons Ratio (z) = -2.27154 0.03499
#
# Static dielectric constant tensor:
#      x y z
#    x 2.079320 0.121870 0.098700 
#    y 0.121870 2.023880 0.085620 
#    z 0.098700 0.085620 1.942150 
# 
# From -- ./inp_files/495716.got.cif
#   From: 2010.05.17/outbox.cif.g08.bks.cpg/sg2_248_cif.got.tgz:495716.got - 2010.06.03 11:33:40.
