data_PCOD9090029
_publ_section_title
;
Structure prediction by ZEFSAII (Michael W. Deem and Ramdas Pophale) SiO2 
 PCOD9090029
Probable space group: P -1
;
_chemical_formula_sum "Si O2"
_cell_formula_units_Z 14
_cell_length_a 8.910671
_cell_length_b 15.399541
_cell_length_c 12.103241
_cell_angle_alpha 152.558535
_cell_angle_beta 130.578773
_cell_angle_gamma 61.950144
_cell_volume 553.447597
_symmetry_space_group_name_H-M "P -1"
_symmetry_group_IT_number 2
_symmetry_cell_setting 'triclinic'
loop_
_space_group_symop_operation_xyz
x,y,z
-x,-y,-z
loop_
_atom_site_type_symbol
_atom_site_label
_atom_site_fract_x
_atom_site_fract_y
_atom_site_fract_z
Si Si1 0.384628 0.555838 0.227692
Si Si2 0.334824 0.951757 0.669795
Si Si3 0.282376 0.660148 0.902164
Si Si4 0.208768 0.945938 0.357934
Si Si5 0.174808 0.618186 0.568135
Si Si6 0.036300 0.278610 0.621718
Si Si7 0.268059 0.319712 0.133406
O O1 0.457346 0.790723 0.548771
O O2 0.563375 0.470734 0.173630
O O3 0.299900 0.440703 0.170928
O O4 0.195361 0.487983 0.971740
O O5 0.311934 0.008633 0.596655
O O6 0.107395 0.818264 0.452992
O O7 0.380847 0.149074 0.989057
O O8 0.269144 0.735521 0.855711
O O9 0.053956 0.517312 0.659398
O O10 0.321870 0.828888 0.202760
O O11 0.174096 0.136923 0.499356
O O12 0.975746 0.802268 0.108327
O O13 0.303237 0.471523 0.424076
O O14 0.123114 0.724025 0.555359
#
# Coordination Sequence:
#
# PCOD9090029 Si02
#       7
#     2   2   2   2   2   2   2
#     4  12  21  37  65  96 119 154 206 254 306 346
#     4  11  20  36  63 100 118 153 202 259 302 354
#     4  10  25  41  57  90 125 169 196 243 310 363
#     4  10  20  38  62  89 128 155 202 248 299 373
#     4  10  22  44  63  80 128 169 199 242 306 372
#     4  11  20  36  68  94 115 161 208 249 302 353
#     4  10  19  38  63  88 121 154 203 253 294 351
#
# _framework density 25.29598
#
# number of rings (size 3 to 8) (size 9 to 14) (size 15 to 20)
#    0.000    1.429    4.286    3.000    0.000    4.000 
#    2.571    0.714    0.000    0.000    0.000    0.000 
#    0.000    0.000    0.000    0.000    0.000    0.000 
#
# Total GULP energy -78407.625531 kJ/mol
# GULP energy per Si atom -5600.544681 kJ/mol
# Density = 2.523841 g / cm^3
# Si number density = 25.295980 Si / 1000 Ang^3
#
#
#
# Elastic Constant Matrix: (Units=GPa)
#
#
# Indices 1 2 3 4 5 6 
#
# 1 133.4909 34.1012 34.5805 7.8881 -34.3430 -21.7039
# 2 34.1012 118.4404 51.6433 9.7588 -29.3675 -13.2580
# 3 34.5805 51.6433 136.7611 4.6315 -31.1408 -7.5022
# 4 7.8881 9.7588 4.6315 44.6842 -11.1353 -12.9506
# 5 -34.3430 -29.3675 -31.1408 -11.1353 46.9232 9.1651
# 6 -21.7039 -13.2580 -7.5022 -12.9506 9.1651 37.3527
#
#
#
# Elastic Compliance Matrix: (Units=1/GPa)
#
#
# Indices 1 2 3 4 5 6 
#
# 1 0.010004 -0.000728 -0.000732 0.001189 0.005804 0.004396
# 2 -0.000728 0.011204 -0.003019 -0.000486 0.004010 0.001795
# 3 -0.000732 -0.003019 0.009537 0.000733 0.004145 -0.000344
# 4 0.001189 -0.000486 0.000733 0.026003 0.005601 0.008307
# 5 0.005804 0.004010 0.004145 0.005601 0.032215 -0.000334
# 6 0.004396 0.001795 -0.000344 0.008307 -0.000334 0.032856
#
#
# Mechanical properties :
#
#
# Convention : Reuss Voigt Hill
#
# Bulk Modulus (GPa) = 45.89665 69.92695 57.91180
# Shear Modulus (GPa) = 36.22123 43.68319 39.95221
#
# Velocity S-wave (km/s) = 3.78815 4.16009 3.97847
# Velocity P-wave (km/s) = 6.10874 7.12591 6.63684
#
# Compressibility (1/GPa) = 0.02178808
#
# Stress axis : x y z
#
# Youngs Moduli (GPa) = 99.95510 89.25198 104.85111
#
# Poissons Ratio (x) = 0.06497 0.07678
# Poissons Ratio (y) = 0.07276 0.31652
# Poissons Ratio (z) = 0.07319 0.26943
#
# Static dielectric constant tensor:
#      x y z
#    x 2.021540 -0.009860 0.038810 
#    y -0.009860 1.997470 0.016880 
#    z 0.038810 0.016880 2.024600 
# 
# From -- ./inp_files/213880.got.cif
#   From: 2010.05.17/outbox.cif.g08.bks.cpg/sg2_107_cif.got.tgz:213880.got - 2010.06.03 11:33:40.
