data_PCOD9090737
_publ_section_title
;
Structure prediction by ZEFSAII (Michael W. Deem and Ramdas Pophale) SiO2 
 PCOD9090737
Probable space group: P -1
;
_chemical_formula_sum "Si O2"
_cell_formula_units_Z 16
_cell_length_a 16.593048
_cell_length_b 7.618310
_cell_length_c 7.826614
_cell_angle_alpha 111.079866
_cell_angle_beta 77.192708
_cell_angle_gamma 60.182786
_cell_volume 696.061973
_symmetry_space_group_name_H-M "P -1"
_symmetry_group_IT_number 2
_symmetry_cell_setting 'triclinic'
loop_
_space_group_symop_operation_xyz
x,y,z
-x,-y,-z
loop_
_atom_site_type_symbol
_atom_site_label
_atom_site_fract_x
_atom_site_fract_y
_atom_site_fract_z
Si Si1 0.289172 0.535775 0.168256
Si Si2 0.073963 0.680466 0.355729
Si Si3 0.504775 0.812860 0.188030
Si Si4 0.404403 0.988299 0.934202
Si Si5 0.205449 0.105098 0.145226
Si Si6 0.005399 0.152544 0.190759
Si Si7 0.081629 0.353670 0.757553
Si Si8 0.704817 0.074401 0.572801
O O1 0.168101 0.663762 0.216555
O O2 0.376241 0.446199 0.945067
O O3 0.298196 0.695503 0.349555
O O4 0.335147 0.272258 0.128419
O O5 0.131228 0.396667 0.265654
O O6 0.040868 0.831844 0.597422
O O7 0.965020 0.764103 0.352575
O O8 0.469990 0.824308 0.009670
O O9 0.524470 0.011667 0.244306
O O10 0.410219 0.860034 0.357917
O O11 0.311637 0.974926 0.934402
O O12 0.126287 0.052581 0.115938
O O13 0.247413 0.029934 0.293899
O O14 0.933372 0.434973 0.268162
O O15 0.000000 0.000000 0.000000
O O16 0.204923 0.142125 0.667154
O O17 0.000000 0.500000 0.000000
#
# Coordination Sequence:
#
# PCOD9090737 Si02
#       8
#     2   2   2   2   2   2   2   2
#     4   9  18  27  51  84 108 138 182 227 272 322
#     4  10  19  39  57  74 112 150 186 221 274 334
#     4   8  15  29  48  81 107 141 183 222 267 332
#     4   7  14  27  49  76 109 138 180 221 263 330
#     4   9  16  34  53  76 105 149 177 222 275 327
#     4  11  22  36  57  80 108 148 194 226 265 335
#     4  11  24  38  53  81 114 150 183 230 280 321
#     4  11  18  30  54  78 117 140 179 230 278 318
#
# _framework density 22.986460000000001
#
# number of rings (size 3 to 8) (size 9 to 14) (size 15 to 20)
#    0.750    1.750    2.500    1.125    1.750    1.500 
#    0.000    0.000    0.000    0.750    0.000    7.875 
#    0.000    0.000    0.000    0.000    0.000    0.000 
#
# Total GULP energy -89128.111572 kJ/mol
# GULP energy per Si atom -5570.506973 kJ/mol
# Density = 2.293414 g / cm^3
# Si number density = 22.986460 Si / 1000 Ang^3
#
#
#
# Elastic Constant Matrix: (Units=GPa)
#
#
# Indices 1 2 3 4 5 6 
#
# 1 163.1569 17.4990 56.9991 2.2678 -36.3299 23.2890
# 2 17.4990 59.6798 8.0050 14.3952 2.1470 14.5481
# 3 56.9991 8.0050 76.6700 4.9769 -17.4689 13.0558
# 4 2.2678 14.3952 4.9769 16.5760 -2.4767 0.2703
# 5 -36.3299 2.1470 -17.4689 -2.4767 41.8304 -1.3182
# 6 23.2890 14.5481 13.0558 0.2703 -1.3182 26.3508
#
#
#
# Elastic Compliance Matrix: (Units=1/GPa)
#
#
# Indices 1 2 3 4 5 6 
#
# 1 0.010448 -0.002106 -0.005280 0.003115 0.007000 -0.005137
# 2 -0.002106 0.026219 0.001652 -0.023400 -0.004293 -0.013407
# 3 -0.005280 0.001652 0.018675 -0.005842 0.002615 -0.005307
# 4 0.003115 -0.023400 -0.005842 0.082784 0.006763 0.012550
# 5 0.007000 -0.004293 0.002615 0.006763 0.031585 -0.003601
# 6 -0.005137 -0.013407 -0.005307 0.012550 -0.003601 0.052212
#
#
# Mechanical properties :
#
#
# Convention : Reuss Voigt Hill
#
# Bulk Modulus (GPa) = 22.79272 51.61253 37.20262
# Shear Modulus (GPa) = 20.16004 31.41837 25.78920
#
# Velocity S-wave (km/s) = 2.96470 3.70106 3.35316
# Velocity P-wave (km/s) = 4.65365 6.38483 5.58670
#
# Compressibility (1/GPa) = 0.04387366
#
# Stress axis : x y z
#
# Youngs Moduli (GPa) = 95.70997 38.14027 53.54837
#
# Poissons Ratio (x) = 0.08033 0.28275
# Poissons Ratio (y) = 0.20158 -0.08847
# Poissons Ratio (z) = 0.50537 -0.06302
#
# Static dielectric constant tensor:
#      x y z
#    x 1.911180 0.021940 -0.043570 
#    y 0.021940 1.961900 -0.057070 
#    z -0.043570 -0.057070 1.920750 
# 
# From -- ./inp_files/329559.got.cif
#   From: 2010.05.17/outbox.cif.g08.bks.cpg/sg2_165_cif.got.tgz:329559.got - 2010.06.03 11:33:40.
