data_PCOD9090987
_publ_section_title
;
Structure prediction by ZEFSAII (Michael W. Deem and Ramdas Pophale) SiO2 
 PCOD9090987
Probable space group: P -1
;
_chemical_formula_sum "Si O2"
_cell_formula_units_Z 14
_cell_length_a 7.224769
_cell_length_b 12.314323
_cell_length_c 14.751503
_cell_angle_alpha 137.017779
_cell_angle_beta 109.596513
_cell_angle_gamma 50.953047
_cell_volume 675.112944
_symmetry_space_group_name_H-M "P -1"
_symmetry_group_IT_number 2
_symmetry_cell_setting 'triclinic'
loop_
_space_group_symop_operation_xyz
x,y,z
-x,-y,-z
loop_
_atom_site_type_symbol
_atom_site_label
_atom_site_fract_x
_atom_site_fract_y
_atom_site_fract_z
Si Si1 0.494670 0.927233 0.827570
Si Si2 0.614978 0.300763 0.451083
Si Si3 0.100616 0.097111 0.016781
Si Si4 0.825716 0.063663 0.702478
Si Si5 0.366801 0.182423 0.802210
Si Si6 0.787909 0.395404 0.990584
Si Si7 0.716914 0.085638 0.501913
O O1 0.515026 0.787101 0.668676
O O2 0.753209 0.852721 0.864411
O O3 0.366510 0.134954 0.879409
O O4 0.684801 0.052373 0.111538
O O5 0.500000 0.500000 0.500000
O O6 0.583529 0.288548 0.545936
O O7 0.909183 0.148065 0.388544
O O8 0.898054 0.281398 0.034082
O O9 0.000000 0.000000 0.000000
O O10 0.651925 0.088505 0.769878
O O11 0.662549 0.108515 0.613421
O O12 0.883677 0.223316 0.825113
O O13 0.200880 0.419538 0.904487
O O14 0.304922 0.067174 0.652446
O O15 0.500000 0.500000 0.000000
O O16 0.000000 0.000000 0.500000
#
# Coordination Sequence:
#
# PCOD9090987 Si02
#       7
#     2   2   2   2   2   2   2
#     4  10  23  41  62  93 124 169 207 259 313 371
#     4  10  21  41  60  88 121 164 212 257 308 373
#     4  11  22  41  63  89 132 168 204 254 314 374
#     4  10  19  39  62  89 126 164 200 265 317 363
#     4  10  21  40  63  93 127 159 214 255 318 376
#     4  10  21  38  64  99 123 161 207 258 317 372
#     4   9  20  38  59  86 123 162 207 260 304 369
#
# _framework density 20.737272000000001
#
# number of rings (size 3 to 8) (size 9 to 14) (size 15 to 20)
#    0.000    2.000    1.429    2.143    0.000    2.857 
#   10.286    2.857    0.000    0.000    0.000    0.000 
#    0.000    0.000    0.000    0.000    0.000    0.000 
#
# Total GULP energy -78001.295607 kJ/mol
# GULP energy per Si atom -5571.521115 kJ/mol
# Density = 2.069007 g / cm^3
# Si number density = 20.737272 Si / 1000 Ang^3
#
#
#
# Elastic Constant Matrix: (Units=GPa)
#
#
# Indices 1 2 3 4 5 6 
#
# 1 88.9051 39.3833 16.5262 -9.3840 3.2525 6.3171
# 2 39.3833 192.9734 67.9999 -2.4442 14.8081 4.0770
# 3 16.5262 67.9999 69.6037 -7.9969 17.5961 5.3207
# 4 -9.3840 -2.4442 -7.9969 41.5617 -2.8066 4.1787
# 5 3.2525 14.8081 17.5961 -2.8066 30.9200 -6.4474
# 6 6.3171 4.0770 5.3207 4.1787 -6.4474 36.6755
#
#
#
# Elastic Compliance Matrix: (Units=1/GPa)
#
#
# Indices 1 2 3 4 5 6 
#
# 1 0.012851 -0.002514 0.000020 0.002968 -0.000378 -0.002342
# 2 -0.002514 0.008462 -0.008178 -0.001685 0.000928 0.001034
# 3 0.000020 -0.008178 0.026241 0.004327 -0.011765 -0.005462
# 4 0.002968 -0.001685 0.004327 0.025833 -0.000452 -0.003974
# 5 -0.000378 0.000928 -0.011765 -0.000452 0.040432 0.008828
# 6 -0.002342 0.001034 -0.005462 -0.003974 0.008828 0.030352
#
#
# Mechanical properties :
#
#
# Convention : Reuss Voigt Hill
#
# Bulk Modulus (GPa) = 38.15139 66.58901 52.37020
# Shear Modulus (GPa) = 28.69426 37.00296 32.84861
#
# Velocity S-wave (km/s) = 3.72385 4.22876 3.98431
# Velocity P-wave (km/s) = 6.07675 7.48490 6.81728
#
# Compressibility (1/GPa) = 0.02621136
#
# Stress axis : x y z
#
# Youngs Moduli (GPa) = 77.81373 118.17041 38.10898
#
# Poissons Ratio (x) = 0.29705 -0.00077
# Poissons Ratio (y) = 0.19561 0.31164
# Poissons Ratio (z) = -0.00157 0.96636
#
# Static dielectric constant tensor:
#      x y z
#    x 1.770960 0.140550 0.086660 
#    y 0.140550 1.713780 -0.163890 
#    z 0.086660 -0.163890 1.604310 
# 
# From -- ./inp_files/497086.got.cif
#   From: 2010.05.17/outbox.cif.g08.bks.cpg/sg2_249_cif.got.tgz:497086.got - 2010.06.03 11:33:40.
