data_PCOD9090893
_publ_section_title
;
Structure prediction by ZEFSAII (Michael W. Deem and Ramdas Pophale) SiO2 
 PCOD9090893
Probable space group: P -1
;
_chemical_formula_sum "Si O2"
_cell_formula_units_Z 16
_cell_length_a 14.999258
_cell_length_b 11.723593
_cell_length_c 13.822670
_cell_angle_alpha 52.660480
_cell_angle_beta 30.572964
_cell_angle_gamma 74.528129
_cell_volume 761.992193
_symmetry_space_group_name_H-M "P -1"
_symmetry_group_IT_number 2
_symmetry_cell_setting 'triclinic'
loop_
_space_group_symop_operation_xyz
x,y,z
-x,-y,-z
loop_
_atom_site_type_symbol
_atom_site_label
_atom_site_fract_x
_atom_site_fract_y
_atom_site_fract_z
Si Si1 0.620563 0.990011 0.181017
Si Si2 0.311881 0.846515 0.179127
Si Si3 0.046119 0.079995 0.129997
Si Si4 0.910468 0.319390 0.115509
Si Si5 0.589668 0.719233 0.690375
Si Si6 0.697691 0.212101 0.171806
Si Si7 0.065925 0.138612 0.452131
Si Si8 0.583812 0.400676 0.869088
O O1 0.353001 0.841035 0.527236
O O2 0.745441 0.165650 0.046546
O O3 0.745966 0.901345 0.117874
O O4 0.638834 0.058044 0.020281
O O5 0.071790 0.785959 0.465238
O O6 0.314883 0.678616 0.243625
O O7 0.500000 0.000000 0.000000
O O8 0.062083 0.258822 0.030160
O O9 0.809485 0.933363 0.370889
O O10 0.998067 0.978622 0.329680
O O11 0.891144 0.323231 0.014691
O O12 0.000000 0.500000 0.000000
O O13 0.417615 0.692752 0.786523
O O14 0.457113 0.657191 0.949520
O O15 0.691695 0.611950 0.647195
O O16 0.500000 0.000000 0.500000
O O17 0.330852 0.297838 0.121079
O O18 0.000000 0.000000 0.500000
#
# Coordination Sequence:
#
# PCOD9090893 Si02
#       8
#     2   2   2   2   2   2   2   2
#     4  10  21  41  65  88 121 160 212 247 297 384
#     4  11  20  36  61  89 125 164 199 247 311 367
#     4  10  21  39  63  85 118 162 202 253 310 357
#     4  11  24  42  63  90 123 158 203 261 315 359
#     4  10  19  39  61  86 122 160 202 260 299 356
#     4  10  19  40  66  85 114 166 205 245 304 364
#     4  10  20  34  58  87 119 167 199 236 309 374
#     4  10  20  36  57  88 126 154 202 257 298 358
#
# _framework density 20.997589999999999
#
# number of rings (size 3 to 8) (size 9 to 14) (size 15 to 20)
#    0.000    1.750    5.000    0.750    0.000    2.000 
#    2.250    2.500    0.000    0.000    0.000    0.000 
#    0.000    0.000    0.000    0.000    0.000    0.000 
#
# Total GULP energy -89283.103902 kJ/mol
# GULP energy per Si atom -5580.193994 kJ/mol
# Density = 2.094980 g / cm^3
# Si number density = 20.997590 Si / 1000 Ang^3
#
#
#
# Elastic Constant Matrix: (Units=GPa)
#
#
# Indices 1 2 3 4 5 6 
#
# 1 75.6090 45.2923 11.0004 2.0183 -18.0811 3.8693
# 2 45.2923 189.1835 19.1980 12.0392 -12.7026 -20.1121
# 3 11.0004 19.1980 25.4781 10.1497 -6.9941 -2.9913
# 4 2.0183 12.0392 10.1497 32.8069 -1.9076 -10.3245
# 5 -18.0811 -12.7026 -6.9941 -1.9076 15.6153 1.4430
# 6 3.8693 -20.1121 -2.9913 -10.3245 1.4430 43.0415
#
#
#
# Elastic Compliance Matrix: (Units=1/GPa)
#
#
# Indices 1 2 3 4 5 6 
#
# 1 0.021042 -0.004021 -0.000886 0.000277 0.021143 -0.004475
# 2 -0.004021 0.006887 -0.003167 -0.000305 -0.000816 0.003314
# 3 -0.000886 -0.003167 0.052656 -0.014590 0.018372 -0.001856
# 4 0.000277 -0.000305 -0.014590 0.037418 -0.002620 0.007882
# 5 0.021143 -0.000816 0.018372 -0.002620 0.096216 -0.004859
# 6 -0.004475 0.003314 -0.001856 0.007882 -0.004859 0.027109
#
#
# Mechanical properties :
#
#
# Convention : Reuss Voigt Hill
#
# Bulk Modulus (GPa) = 15.51927 49.02798 32.27363
# Shear Modulus (GPa) = 17.92417 32.61142 25.26779
#
# Velocity S-wave (km/s) = 2.92486 3.94522 3.47272
# Velocity P-wave (km/s) = 4.33745 6.64477 5.61099
#
# Compressibility (1/GPa) = 0.06443601
#
# Stress axis : x y z
#
# Youngs Moduli (GPa) = 47.52502 145.20452 18.99133
#
# Poissons Ratio (x) = 0.58391 0.01683
# Poissons Ratio (y) = 0.19111 0.06014
# Poissons Ratio (z) = 0.04212 0.45980
#
# Static dielectric constant tensor:
#      x y z
#    x 1.631070 -0.066050 0.129190 
#    y -0.066050 1.746240 0.054440 
#    z 0.129190 0.054440 1.706680 
# 
# From -- ./inp_files/314592.got.cif
#   From: 2010.05.17/outbox.cif.g08.bks.cpg/sg2_158_cif.got.tgz:314592.got - 2010.06.03 11:33:40.
