data_PCOD9090081
_publ_section_title
;
Structure prediction by ZEFSAII (Michael W. Deem and Ramdas Pophale) SiO2 
 PCOD9090081
Probable space group: P -1
;
_chemical_formula_sum "Si O2"
_cell_formula_units_Z 16
_cell_length_a 12.430718
_cell_length_b 8.202166
_cell_length_c 9.513697
_cell_angle_alpha 83.375523
_cell_angle_beta 115.181762
_cell_angle_gamma 67.515956
_cell_volume 764.925349
_symmetry_space_group_name_H-M "P -1"
_symmetry_group_IT_number 2
_symmetry_cell_setting 'triclinic'
loop_
_space_group_symop_operation_xyz
x,y,z
-x,-y,-z
loop_
_atom_site_type_symbol
_atom_site_label
_atom_site_fract_x
_atom_site_fract_y
_atom_site_fract_z
Si Si1 0.606276 0.519594 0.451982
Si Si2 0.859114 0.547430 0.614903
Si Si3 0.334703 0.779678 0.726283
Si Si4 0.067913 0.857245 0.680208
Si Si5 0.563987 0.053979 0.663294
Si Si6 0.195502 0.057800 0.365782
Si Si7 0.576348 0.823774 0.957914
Si Si8 0.141369 0.431334 0.715695
O O1 0.500000 0.500000 0.500000
O O2 0.754821 0.470972 0.599304
O O3 0.634932 0.394693 0.341144
O O4 0.539162 0.740161 0.361066
O O5 0.826487 0.731437 0.667633
O O6 0.837750 0.614135 0.432944
O O7 0.019966 0.403585 0.718038
O O8 0.219790 0.824623 0.775431
O O9 0.472557 0.746757 0.875492
O O10 0.270301 0.954753 0.563277
O O11 0.087760 0.653391 0.673037
O O12 0.950246 0.933300 0.723397
O O13 0.000000 0.000000 0.500000
O O14 0.500000 0.000000 0.500000
O O15 0.698980 0.054092 0.684797
O O16 0.597888 0.901995 0.815672
O O17 0.718409 0.678360 0.116095
O O18 0.500000 0.000000 0.000000
#
# Coordination Sequence:
#
# PCOD9090081 Si02
#       8
#     2   2   2   2   2   2   2   2
#     4  12  21  35  64 100 125 165 215 272 320 378
#     4  10  20  38  66  89 123 167 221 259 317 387
#     4  11  21  38  64  96 132 162 212 274 324 378
#     4   9  20  36  62  94 124 165 212 267 320 376
#     4  12  22  41  66  91 130 176 217 260 320 392
#     4  10  19  38  63  93 119 171 217 257 308 390
#     4  12  26  43  64  96 134 174 219 263 327 387
#     4  10  21  40  63  92 125 170 220 268 311 386
#
# _framework density 20.917074
#
# number of rings (size 3 to 8) (size 9 to 14) (size 15 to 20)
#    0.000    1.250    5.000    1.500    0.000    1.500 
#    0.000    2.500    0.000    1.500    0.000    0.000 
#    0.000    0.000    0.000    0.000    0.000    0.000 
#
# Total GULP energy -89328.184770 kJ/mol
# GULP energy per Si atom -5583.011548 kJ/mol
# Density = 2.086947 g / cm^3
# Si number density = 20.917074 Si / 1000 Ang^3
#
#
#
# Elastic Constant Matrix: (Units=GPa)
#
#
# Indices 1 2 3 4 5 6 
#
# 1 199.6094 19.2970 36.9989 -4.1923 33.8112 -11.1743
# 2 19.2970 78.9333 17.8687 -10.4320 15.5588 -8.5161
# 3 36.9989 17.8687 71.3210 -9.0608 23.5330 -2.3686
# 4 -4.1923 -10.4320 -9.0608 16.5247 -4.0010 2.4185
# 5 33.8112 15.5588 23.5330 -4.0010 33.6730 0.1640
# 6 -11.1743 -8.5161 -2.3686 2.4185 0.1640 31.2668
#
#
#
# Elastic Compliance Matrix: (Units=1/GPa)
#
#
# Indices 1 2 3 4 5 6 
#
# 1 0.006313 -0.000011 -0.001535 -0.000876 -0.005375 0.002233
# 2 -0.000011 0.015331 -0.000959 0.007283 -0.005554 0.003565
# 3 -0.001535 -0.000959 0.019535 0.007068 -0.010828 0.000180
# 4 -0.000876 0.007283 0.007068 0.069434 0.000840 -0.003169
# 5 -0.005375 -0.005554 -0.010828 0.000840 0.045351 -0.004557
# 6 0.002233 0.003565 0.000180 -0.003169 -0.004557 0.034034
#
#
# Mechanical properties :
#
#
# Convention : Reuss Voigt Hill
#
# Bulk Modulus (GPa) = 27.64924 55.35478 41.50201
# Shear Modulus (GPa) = 24.14718 34.67283 29.41000
#
# Velocity S-wave (km/s) = 3.40137 4.07582 3.75377
# Velocity P-wave (km/s) = 5.35471 6.97647 6.21868
#
# Compressibility (1/GPa) = 0.03616736
#
# Stress axis : x y z
#
# Youngs Moduli (GPa) = 158.41498 65.22869 51.19074
#
# Poissons Ratio (x) = 0.00072 0.07860
# Poissons Ratio (y) = 0.00174 0.04908
# Poissons Ratio (z) = 0.24324 0.06255
#
# Static dielectric constant tensor:
#      x y z
#    x 1.828840 -0.010550 0.012400 
#    y -0.010550 1.712330 -0.018070 
#    z 0.012400 -0.018070 1.721480 
# 
# From -- ./inp_files/243112.got.cif
#   From: 2010.05.17/outbox.cif.g08.bks.cpg/sg2_122_cif.got.tgz:243112.got - 2010.06.03 11:33:40.
