data_PCOD9090558
_publ_section_title
;
Structure prediction by ZEFSAII (Michael W. Deem and Ramdas Pophale) SiO2 
 PCOD9090558
Probable space group: P -1
;
_chemical_formula_sum "Si O2"
_cell_formula_units_Z 16
_cell_length_a 11.517532
_cell_length_b 17.023611
_cell_length_c 11.166013
_cell_angle_alpha 42.839493
_cell_angle_beta 44.259559
_cell_angle_gamma 76.171708
_cell_volume 828.809458
_symmetry_space_group_name_H-M "P -1"
_symmetry_group_IT_number 2
_symmetry_cell_setting 'triclinic'
loop_
_space_group_symop_operation_xyz
x,y,z
-x,-y,-z
loop_
_atom_site_type_symbol
_atom_site_label
_atom_site_fract_x
_atom_site_fract_y
_atom_site_fract_z
Si Si1 0.609816 0.359436 0.246719
Si Si2 0.997527 0.362419 0.986428
Si Si3 0.943765 0.881521 0.837666
Si Si4 0.640340 0.530409 0.244525
Si Si5 0.164641 0.419499 0.380260
Si Si6 0.686483 0.808724 0.877034
Si Si7 0.757945 0.390936 0.670075
Si Si8 0.164750 0.155708 0.761713
O O1 0.539932 0.405173 0.361961
O O2 0.404677 0.217760 0.499911
O O3 0.776537 0.331974 0.189468
O O4 0.721241 0.495179 0.921562
O O5 0.145088 0.438368 0.907383
O O6 0.124162 0.476193 0.658710
O O7 0.992940 0.223569 0.122817
O O8 0.758081 0.840765 0.928269
O O9 0.886030 0.862986 0.039027
O O10 0.140359 0.045261 0.481774
O O11 0.500000 0.500000 0.500000
O O12 0.693258 0.676285 0.986726
O O13 0.276853 0.543180 0.261979
O O14 0.162017 0.283972 0.565735
O O15 0.925482 0.363788 0.612016
O O16 0.451458 0.743820 0.086839
O O17 0.000000 0.000000 0.000000
#
# Coordination Sequence:
#
# PCOD9090558 Si02
#       8
#     2   2   2   2   2   2   2   2
#     4  11  24  39  63  91 125 155 207 258 297 357
#     4  10  20  39  63  95 119 158 199 255 308 355
#     4  10  23  41  61  88 127 161 206 243 303 373
#     4  11  20  37  69  93 121 154 201 253 306 362
#     4  10  23  40  60  92 124 157 205 251 302 361
#     4  10  21  37  67  91 116 160 204 248 303 358
#     4  10  19  38  67  90 118 156 206 254 300 358
#     4  12  26  41  59  86 127 169 203 248 303 367
#
# _framework density 19.304798000000002
#
# number of rings (size 3 to 8) (size 9 to 14) (size 15 to 20)
#    0.000    1.500    2.500    3.000    3.500    1.000 
#    0.000    1.250    0.000    3.750    0.000    0.000 
#    0.000    0.000    0.000    0.000    0.000    0.000 
#
# Total GULP energy -89321.724381 kJ/mol
# GULP energy per Si atom -5582.607774 kJ/mol
# Density = 1.926086 g / cm^3
# Si number density = 19.304798 Si / 1000 Ang^3
#
#
#
# Elastic Constant Matrix: (Units=GPa)
#
#
# Indices 1 2 3 4 5 6 
#
# 1 117.8384 37.2226 57.3476 -6.2276 -27.5840 -6.0035
# 2 37.2226 58.8898 45.7442 -2.4595 -14.6902 14.2771
# 3 57.3476 45.7442 111.0692 -17.7394 -20.1976 -0.3631
# 4 -6.2276 -2.4595 -17.7394 21.7288 3.7317 -1.3815
# 5 -27.5840 -14.6902 -20.1976 3.7317 38.2092 -2.9545
# 6 -6.0035 14.2771 -0.3631 -1.3815 -2.9545 24.3144
#
#
#
# Elastic Compliance Matrix: (Units=1/GPa)
#
#
# Indices 1 2 3 4 5 6 
#
# 1 0.014180 -0.006727 -0.003342 -0.000025 0.006519 0.008192
# 2 -0.006727 0.037531 -0.013444 -0.010477 0.001611 -0.024299
# 3 -0.003342 -0.013444 0.018672 0.013006 0.001659 0.008288
# 4 -0.000025 -0.010477 0.013006 0.056375 -0.001957 0.009305
# 5 0.006519 0.001611 0.001659 -0.001957 0.032920 0.004578
# 6 0.008192 -0.024299 0.008288 0.009305 0.004578 0.058627
#
#
# Mechanical properties :
#
#
# Convention : Reuss Voigt Hill
#
# Bulk Modulus (GPa) = 42.81503 63.15847 52.98675
# Shear Modulus (GPa) = 18.30713 26.68266 22.49489
#
# Velocity S-wave (km/s) = 3.08282 3.72180 3.41728
# Velocity P-wave (km/s) = 5.90748 7.15937 6.56334
#
# Compressibility (1/GPa) = 0.02335628
#
# Stress axis : x y z
#
# Youngs Moduli (GPa) = 70.52185 26.64463 53.55578
#
# Poissons Ratio (x) = 0.17925 0.17901
# Poissons Ratio (y) = 0.47442 0.71999
# Poissons Ratio (z) = 0.23572 0.35820
#
# Static dielectric constant tensor:
#      x y z
#    x 1.738530 0.013930 -0.013340 
#    y 0.013930 1.657880 0.026690 
#    z -0.013340 0.026690 1.660600 
# 
# From -- ./inp_files/282236.got.cif
#   From: 2010.05.17/outbox.cif.g08.bks.cpg/sg2_142_cif.got.tgz:282236.got - 2010.06.03 11:33:40.
