data_PCOD9090533
_publ_section_title
;
Structure prediction by ZEFSAII (Michael W. Deem and Ramdas Pophale) SiO2 
 PCOD9090533
Probable space group: P -1
;
_chemical_formula_sum "Si O2"
_cell_formula_units_Z 16
_cell_length_a 11.884602
_cell_length_b 12.131738
_cell_length_c 14.927816
_cell_angle_alpha 81.309458
_cell_angle_beta 30.802317
_cell_angle_gamma 60.033420
_cell_volume 744.182786
_symmetry_space_group_name_H-M "P -1"
_symmetry_group_IT_number 2
_symmetry_cell_setting 'triclinic'
loop_
_space_group_symop_operation_xyz
x,y,z
-x,-y,-z
loop_
_atom_site_type_symbol
_atom_site_label
_atom_site_fract_x
_atom_site_fract_y
_atom_site_fract_z
Si Si1 0.564842 0.180617 0.080956
Si Si2 0.296198 0.472413 0.106870
Si Si3 0.606821 0.746878 0.612517
Si Si4 0.440682 0.358754 0.676075
Si Si5 0.815989 0.930021 0.245128
Si Si6 0.221079 0.678555 0.852652
Si Si7 0.792774 0.629921 0.987238
Si Si8 0.917752 0.834993 0.847618
O O1 0.368720 0.338339 0.135172
O O2 0.378227 0.232105 0.295534
O O3 0.906619 0.115968 0.878502
O O4 0.647861 0.029774 0.001298
O O5 0.354988 0.405459 0.974824
O O6 0.930120 0.645606 0.349795
O O7 0.500000 0.500000 0.000000
O O8 0.509074 0.654991 0.680691
O O9 0.319074 0.924832 0.745936
O O10 0.359358 0.507112 0.758855
O O11 0.783160 0.239184 0.409683
O O12 0.154898 0.455413 0.786653
O O13 0.390932 0.292915 0.800943
O O14 0.500000 0.000000 0.500000
O O15 0.982521 0.775779 0.087678
O O16 0.045714 0.785122 0.869079
O O17 0.816259 0.744030 0.913246
#
# Coordination Sequence:
#
# PCOD9090533 Si02
#       8
#     2   2   2   2   2   2   2   2
#     4  11  24  42  64  98 134 176 220 271 338 400
#     4  12  27  45  64  96 138 174 221 274 337 409
#     4  11  21  42  66  96 128 180 220 269 339 391
#     4  10  22  39  70 100 129 173 217 288 328 388
#     4  11  22  36  66 105 134 171 218 288 329 385
#     4  10  19  38  66  99 133 161 226 279 329 395
#     4  10  24  42  64 100 130 176 223 270 336 396
#     4  11  20  43  66  96 131 168 227 272 335 388
#
# _framework density 21.500095999999999
#
# number of rings (size 3 to 8) (size 9 to 14) (size 15 to 20)
#    0.000    1.250    2.500    4.875    5.250    2.500 
#    4.500    0.625    0.000    0.000    0.000    0.000 
#    0.000    0.000    0.000    0.000    0.000    0.000 
#
# Total GULP energy -89466.794726 kJ/mol
# GULP energy per Si atom -5591.674670 kJ/mol
# Density = 2.145116 g / cm^3
# Si number density = 21.500096 Si / 1000 Ang^3
#
#
#
# Elastic Constant Matrix: (Units=GPa)
#
#
# Indices 1 2 3 4 5 6 
#
# 1 81.0333 16.4858 10.7356 0.5982 8.5035 18.7234
# 2 16.4858 71.7093 -1.5957 5.4170 1.8804 3.9970
# 3 10.7356 -1.5957 67.5860 -13.1094 13.2608 17.7691
# 4 0.5982 5.4170 -13.1094 30.1050 -3.6695 1.1749
# 5 8.5035 1.8804 13.2608 -3.6695 13.4660 -2.2216
# 6 18.7234 3.9970 17.7691 1.1749 -2.2216 32.7542
#
#
#
# Elastic Compliance Matrix: (Units=1/GPa)
#
#
# Indices 1 2 3 4 5 6 
#
# 1 0.016956 -0.002726 0.003710 0.000311 -0.015951 -0.012465
# 2 -0.002726 0.014877 0.000933 -0.002437 -0.002074 -0.000817
# 3 0.003710 0.000933 0.026682 0.008516 -0.029566 -0.019020
# 4 0.000311 -0.002437 0.008516 0.037715 0.001082 -0.005780
# 5 -0.015951 -0.002074 -0.029566 0.001082 0.119558 0.033481
# 6 -0.012465 -0.000817 -0.019020 -0.005780 0.033481 0.050552
#
#
# Mechanical properties :
#
#
# Convention : Reuss Voigt Hill
#
# Bulk Modulus (GPa) = 16.03893 30.17553 23.10723
# Shear Modulus (GPa) = 17.64984 28.24523 22.94754
#
# Velocity S-wave (km/s) = 2.86828 3.62847 3.27053
# Velocity P-wave (km/s) = 4.29482 5.62316 5.00327
#
# Compressibility (1/GPa) = 0.06234829
#
# Stress axis : x y z
#
# Youngs Moduli (GPa) = 58.97778 67.21947 37.47819
#
# Poissons Ratio (x) = 0.18323 -0.13904
# Poissons Ratio (y) = 0.16077 -0.03497
# Poissons Ratio (z) = -0.21879 -0.06272
#
# Static dielectric constant tensor:
#      x y z
#    x 1.788240 -0.002480 0.002150 
#    y -0.002480 1.809620 -0.050370 
#    z 0.002150 -0.050370 1.767530 
# 
# From -- ./inp_files/403327.got.cif
#   From: 2010.05.17/outbox.cif.g08.bks.cpg/sg2_202_cif.got.tgz:403327.got - 2010.06.03 11:33:40.
