data_PCOD9090314
_publ_section_title
;
Structure prediction by ZEFSAII (Michael W. Deem and Ramdas Pophale) SiO2 
 PCOD9090314
Probable space group: P -1
;
_chemical_formula_sum "Si O2"
_cell_formula_units_Z 16
_cell_length_a 20.363957
_cell_length_b 9.329089
_cell_length_c 14.426127
_cell_angle_alpha 69.333002
_cell_angle_beta 21.923443
_cell_angle_gamma 57.994553
_cell_volume 779.984478
_symmetry_space_group_name_H-M "P -1"
_symmetry_group_IT_number 2
_symmetry_cell_setting 'triclinic'
loop_
_space_group_symop_operation_xyz
x,y,z
-x,-y,-z
loop_
_atom_site_type_symbol
_atom_site_label
_atom_site_fract_x
_atom_site_fract_y
_atom_site_fract_z
Si Si1 0.025880 0.080579 0.628709
Si Si2 0.916032 0.669514 0.640655
Si Si3 0.546447 0.030636 0.827096
Si Si4 0.497797 0.051014 0.289755
Si Si5 0.829002 0.993739 0.165889
Si Si6 0.885620 0.405476 0.212009
Si Si7 0.007818 0.263676 0.281318
Si Si8 0.417965 0.712254 0.738964
O O1 0.065259 0.175314 0.470114
O O2 0.032597 0.899810 0.629516
O O3 0.796502 0.240365 0.939004
O O4 0.220661 0.009044 0.462570
O O5 0.039504 0.628657 0.584661
O O6 0.000000 0.500000 0.500000
O O7 0.663006 0.761317 0.968585
O O8 0.536641 0.911190 0.784313
O O9 0.500000 0.000000 0.000000
O O10 0.316481 0.030144 0.568735
O O11 0.498673 0.198050 0.320293
O O12 0.733416 0.858599 0.041342
O O13 0.674210 0.170821 0.261862
O O14 0.963615 0.811152 0.966140
O O15 0.000000 0.000000 0.000000
O O16 0.638025 0.508166 0.480264
O O17 0.891599 0.400746 0.316501
O O18 0.000000 0.500000 0.000000
#
# Coordination Sequence:
#
# PCOD9090314 Si02
#       8
#     2   2   2   2   2   2   2   2
#     4  10  20  41  65  90 130 171 221 264 323 394
#     4  10  22  41  63  99 132 165 217 275 326 389
#     4   9  20  37  63  92 125 170 208 259 334 386
#     4  10  19  38  65  88 125 174 213 264 320 389
#     4  12  24  43  66  95 134 170 220 272 334 383
#     4  12  24  42  67  97 132 174 223 268 323 397
#     4  10  22  41  66  91 127 179 219 260 332 390
#     4  11  23  41  67  97 130 171 224 265 326 393
#
# _framework density 20.513228000000002
#
# number of rings (size 3 to 8) (size 9 to 14) (size 15 to 20)
#    0.000    1.500    3.750    2.250    0.000    4.500 
#    4.500    1.250    0.000    0.000    0.000    0.000 
#    0.000    0.000    0.000    0.000    0.000    0.000 
#
# Total GULP energy -89256.757968 kJ/mol
# GULP energy per Si atom -5578.547373 kJ/mol
# Density = 2.046654 g / cm^3
# Si number density = 20.513228 Si / 1000 Ang^3
#
#
#
# Elastic Constant Matrix: (Units=GPa)
#
#
# Indices 1 2 3 4 5 6 
#
# 1 147.2903 40.9425 25.5915 -2.8342 -8.6949 -13.1327
# 2 40.9425 42.3542 22.3638 3.5560 -7.9232 -10.6837
# 3 25.5915 22.3638 99.7282 -12.7582 -28.3806 -8.4844
# 4 -2.8342 3.5560 -12.7582 24.8253 -2.4965 -5.8809
# 5 -8.6949 -7.9232 -28.3806 -2.4965 34.6750 -0.7758
# 6 -13.1327 -10.6837 -8.4844 -5.8809 -0.7758 27.4016
#
#
#
# Elastic Compliance Matrix: (Units=1/GPa)
#
#
# Indices 1 2 3 4 5 6 
#
# 1 0.009508 -0.009025 0.000401 0.003117 0.000917 0.001857
# 2 -0.009025 0.038340 -0.006546 -0.008191 0.000704 0.006859
# 3 0.000401 -0.006546 0.017577 0.012912 0.014061 0.006252
# 4 0.003117 -0.008191 0.012912 0.053154 0.013620 0.014092
# 5 0.000917 0.000704 0.014061 0.013620 0.041925 0.009178
# 6 0.001857 0.006859 0.006252 0.014092 0.009178 0.045278
#
#
# Mechanical properties :
#
#
# Convention : Reuss Voigt Hill
#
# Bulk Modulus (GPa) = 28.50049 51.90760 40.20404
# Shear Modulus (GPa) = 20.17626 30.74537 25.46081
#
# Velocity S-wave (km/s) = 3.13960 3.87564 3.52687
# Velocity P-wave (km/s) = 5.20256 6.73698 6.01887
#
# Compressibility (1/GPa) = 0.03508712
#
# Stress axis : x y z
#
# Youngs Moduli (GPa) = 105.17651 26.08239 56.89148
#
# Poissons Ratio (x) = 0.23538 -0.02284
# Poissons Ratio (y) = 0.94918 0.37241
# Poissons Ratio (z) = -0.04223 0.17073
#
# Static dielectric constant tensor:
#      x y z
#    x 1.569640 0.319230 0.227550 
#    y 0.319230 1.317770 -0.259960 
#    z 0.227550 -0.259960 1.581090 
# 
# From -- ./inp_files/540459.got.cif
#   From: 2010.05.17/outbox.cif.g08.bks.cpg/sg2_271_cif.got.tgz:540459.got - 2010.06.03 11:33:40.
