data_PCOD9090527
_publ_section_title
;
Structure prediction by ZEFSAII (Michael W. Deem and Ramdas Pophale) SiO2 
 PCOD9090527
Probable space group: P -1
;
_chemical_formula_sum "Si O2"
_cell_formula_units_Z 14
_cell_length_a 16.504431
_cell_length_b 11.517722
_cell_length_c 12.244083
_cell_angle_alpha 154.972590
_cell_angle_beta 144.717592
_cell_angle_gamma 31.621350
_cell_volume 505.651186
_symmetry_space_group_name_H-M "P -1"
_symmetry_group_IT_number 2
_symmetry_cell_setting 'triclinic'
loop_
_space_group_symop_operation_xyz
x,y,z
-x,-y,-z
loop_
_atom_site_type_symbol
_atom_site_label
_atom_site_fract_x
_atom_site_fract_y
_atom_site_fract_z
Si Si1 0.172678 0.622369 0.537156
Si Si2 0.161783 0.527245 0.200307
Si Si3 0.642113 0.103543 0.886153
Si Si4 0.514732 0.101693 0.965594
Si Si5 0.260011 0.807134 0.141785
Si Si6 0.325905 0.761222 0.415555
Si Si7 0.023617 0.580686 0.716317
O O1 0.162061 0.689558 0.454481
O O2 0.016821 0.615723 0.408487
O O3 0.300222 0.261752 0.377004
O O4 0.230069 0.816950 0.842245
O O5 0.311344 0.184652 0.071126
O O6 0.193306 0.708897 0.290462
O O7 0.000000 0.500000 0.000000
O O8 0.608345 0.245232 0.848166
O O9 0.512517 0.198597 0.919349
O O10 0.394878 0.955933 0.723116
O O11 0.463182 0.413839 0.243225
O O12 0.283158 0.910575 0.374992
O O13 0.114773 0.067765 0.133912
O O14 0.189438 0.578168 0.903725
O O15 0.000000 0.500000 0.500000
#
# Coordination Sequence:
#
# PCOD9090527 Si02
#       7
#     2   2   2   2   2   2   2
#     4  10  21  39  66  99 134 177 226 288 348 403
#     4  11  25  50  75 107 140 186 245 299 352 423
#     4  10  21  41  67  96 133 178 231 283 339 412
#     4  11  26  48  73 100 146 192 236 292 359 424
#     4  10  23  38  65 105 140 186 235 286 356 419
#     4  12  27  47  73 105 147 192 235 289 357 434
#     4  10  19  38  66  97 144 184 227 291 351 414
#
# _framework density 27.687072000000001
#
# number of rings (size 3 to 8) (size 9 to 14) (size 15 to 20)
#    0.000    1.429    1.429    3.429    2.000    4.571 
#    0.000    8.571    0.000    0.000    0.000    0.000 
#    0.000    0.000    0.000    0.000    0.000    0.000 
#
# Total GULP energy -78413.734456 kJ/mol
# GULP energy per Si atom -5600.981033 kJ/mol
# Density = 2.762405 g / cm^3
# Si number density = 27.687072 Si / 1000 Ang^3
#
#
#
# Elastic Constant Matrix: (Units=GPa)
#
#
# Indices 1 2 3 4 5 6 
#
# 1 207.5729 41.8906 13.8627 -5.8310 2.0946 37.4319
# 2 41.8906 128.1874 23.6650 10.2877 6.1320 15.1477
# 3 13.8627 23.6650 124.4247 10.2520 6.1284 -1.0285
# 4 -5.8310 10.2877 10.2520 36.1192 -3.5593 -0.9345
# 5 2.0946 6.1320 6.1284 -3.5593 59.8622 -11.0482
# 6 37.4319 15.1477 -1.0285 -0.9345 -11.0482 50.2821
#
#
#
# Elastic Compliance Matrix: (Units=1/GPa)
#
#
# Indices 1 2 3 4 5 6 
#
# 1 0.005927 -0.001432 -0.000498 0.001331 -0.000691 -0.004118
# 2 -0.001432 0.009015 -0.001294 -0.002608 -0.001265 -0.002002
# 3 -0.000498 -0.001294 0.008561 -0.002194 -0.000721 0.000736
# 4 0.001331 -0.002608 -0.002194 0.029519 0.002351 0.000815
# 5 -0.000691 -0.001265 -0.000721 0.002351 0.017972 0.004873
# 6 -0.004118 -0.002002 0.000736 0.000815 0.004873 0.024657
#
#
# Mechanical properties :
#
#
# Convention : Reuss Voigt Hill
#
# Bulk Modulus (GPa) = 58.63733 68.78018 63.70875
# Shear Modulus (GPa) = 46.38924 54.63715 50.51320
#
# Velocity S-wave (km/s) = 4.09771 4.44709 4.27597
# Velocity P-wave (km/s) = 6.60400 7.15994 6.88758
#
# Compressibility (1/GPa) = 0.01705398
#
# Stress axis : x y z
#
# Youngs Moduli (GPa) = 168.72512 110.93229 116.80950
#
# Poissons Ratio (x) = 0.15887 0.05813
# Poissons Ratio (y) = 0.24164 0.15119
# Poissons Ratio (z) = 0.08397 0.14358
#
# Static dielectric constant tensor:
#      x y z
#    x 2.300780 0.002810 -0.154650 
#    y 0.002810 2.436310 -0.133210 
#    z -0.154650 -0.133210 2.348660 
# 
# From -- ./inp_files/464213.got.cif
#   From: 2010.05.17/outbox.cif.g08.bks.cpg/sg2_233_cif.got.tgz:464213.got - 2010.06.03 11:33:40.
