data_PCOD9090093
_publ_section_title
;
Structure prediction by ZEFSAII (Michael W. Deem and Ramdas Pophale) SiO2 
 PCOD9090093
Probable space group: P -1
;
_chemical_formula_sum "Si O2"
_cell_formula_units_Z 16
_cell_length_a 17.286573
_cell_length_b 8.180554
_cell_length_c 12.453237
_cell_angle_alpha 132.871957
_cell_angle_beta 144.108439
_cell_angle_gamma 47.037704
_cell_volume 720.985765
_symmetry_space_group_name_H-M "P -1"
_symmetry_group_IT_number 2
_symmetry_cell_setting 'triclinic'
loop_
_space_group_symop_operation_xyz
x,y,z
-x,-y,-z
loop_
_atom_site_type_symbol
_atom_site_label
_atom_site_fract_x
_atom_site_fract_y
_atom_site_fract_z
Si Si1 0.567947 0.258150 0.306423
Si Si2 0.838169 0.099932 0.687448
Si Si3 0.681285 0.829523 0.509213
Si Si4 0.868567 0.563221 0.962666
Si Si5 0.523199 0.188721 0.991907
Si Si6 0.950597 0.995957 0.318982
Si Si7 0.304522 0.567555 0.821363
Si Si8 0.588732 0.736028 0.592586
O O1 0.603657 0.222535 0.204489
O O2 0.515939 0.533791 0.395738
O O3 0.694628 0.178576 0.494644
O O4 0.481558 0.074322 0.138568
O O5 0.811996 0.908355 0.652617
O O6 0.941053 0.043779 0.676012
O O7 0.868962 0.304784 0.883838
O O8 0.684539 0.607647 0.343173
O O9 0.671880 0.770312 0.595755
O O10 0.536696 0.035016 0.421180
O O11 0.713843 0.658905 0.782364
O O12 0.000000 0.500000 0.000000
O O13 0.889538 0.774943 0.149767
O O14 0.595842 0.271393 0.011361
O O15 0.368947 0.381995 0.906738
O O16 0.843292 0.241826 0.270167
O O17 0.000000 0.000000 0.500000
#
# Coordination Sequence:
#
# PCOD9090093 Si02
#       8
#     2   2   2   2   2   2   2   2
#     4  10  19  38  63  93 130 166 212 265 316 392
#     4  10  22  44  65  96 130 169 223 270 317 384
#     4  11  23  41  64  97 132 172 214 277 322 385
#     4   9  22  42  68  94 125 169 222 270 314 393
#     4  10  21  35  61  95 131 166 208 265 332 369
#     4  11  25  43  73  95 126 178 216 264 338 393
#     4  11  23  38  63  92 138 165 212 275 324 389
#     4  10  23  40  68  91 128 177 220 262 336 380
#
# _framework density 22.191839000000002
#
# number of rings (size 3 to 8) (size 9 to 14) (size 15 to 20)
#    0.000    1.750    2.500    0.750    7.000    3.500 
#    0.000    2.500    2.750    0.000    0.000    0.000 
#    0.000    0.000    0.000    0.000    0.000    0.000 
#
# Total GULP energy -89128.757647 kJ/mol
# GULP energy per Si atom -5570.547353 kJ/mol
# Density = 2.214133 g / cm^3
# Si number density = 22.191839 Si / 1000 Ang^3
#
#
#
# Elastic Constant Matrix: (Units=GPa)
#
#
# Indices 1 2 3 4 5 6 
#
# 1 72.0346 28.3680 35.7099 27.2069 4.3447 15.1365
# 2 28.3680 74.6269 37.2899 37.0742 2.9328 4.5587
# 3 35.7099 37.2899 115.7107 46.3109 0.0018 2.9511
# 4 27.2069 37.0742 46.3109 40.0322 9.0640 0.8498
# 5 4.3447 2.9328 0.0018 9.0640 27.3360 8.7648
# 6 15.1365 4.5587 2.9511 0.8498 8.7648 28.6076
#
#
#
# Elastic Compliance Matrix: (Units=1/GPa)
#
#
# Indices 1 2 3 4 5 6 
#
# 1 0.022502 0.000314 -0.000037 -0.016660 0.006196 -0.013356
# 2 0.000314 0.027457 0.004400 -0.032889 0.010200 -0.007143
# 3 -0.000037 0.004400 0.018373 -0.027515 0.010224 -0.004892
# 4 -0.016660 -0.032889 -0.027515 0.106477 -0.037182 0.025123
# 5 0.006196 0.010200 0.010224 -0.037182 0.053658 -0.021294
# 6 -0.013356 -0.007143 -0.004892 0.025123 -0.021294 0.049443
#
#
# Mechanical properties :
#
#
# Convention : Reuss Voigt Hill
#
# Bulk Modulus (GPa) = 12.87262 51.67865 32.27564
# Shear Modulus (GPa) = 16.98071 29.92879 23.45475
#
# Velocity S-wave (km/s) = 2.76919 3.67637 3.25454
# Velocity P-wave (km/s) = 4.00471 6.43107 5.35707
#
# Compressibility (1/GPa) = 0.07768429
#
# Stress axis : x y z
#
# Youngs Moduli (GPa) = 44.44017 36.42104 54.42872
#
# Poissons Ratio (x) = -0.01143 0.00203
# Poissons Ratio (y) = -0.01395 -0.23948
# Poissons Ratio (z) = 0.00165 -0.16025
#
# Static dielectric constant tensor:
#      x y z
#    x 1.904520 0.023350 0.019340 
#    y 0.023350 1.903920 -0.017840 
#    z 0.019340 -0.017840 1.825140 
# 
# From -- ./inp_files/540594.got.cif
#   From: 2010.05.17/outbox.cif.g08.bks.cpg/sg2_271_cif.got.tgz:540594.got - 2010.06.03 11:33:40.
