data_PCOD9090906
_publ_section_title
;
Structure prediction by ZEFSAII (Michael W. Deem and Ramdas Pophale) SiO2 
 PCOD9090906
Probable space group: P -1
;
_chemical_formula_sum "Si O2"
_cell_formula_units_Z 16
_cell_length_a 9.282998
_cell_length_b 14.647597
_cell_length_c 7.379218
_cell_angle_alpha 107.324032
_cell_angle_beta 48.957730
_cell_angle_gamma 79.691123
_cell_volume 617.042292
_symmetry_space_group_name_H-M "P -1"
_symmetry_group_IT_number 2
_symmetry_cell_setting 'triclinic'
loop_
_space_group_symop_operation_xyz
x,y,z
-x,-y,-z
loop_
_atom_site_type_symbol
_atom_site_label
_atom_site_fract_x
_atom_site_fract_y
_atom_site_fract_z
Si Si1 0.729313 0.079836 0.048854
Si Si2 0.871189 0.297261 0.603976
Si Si3 0.302259 0.285936 0.340631
Si Si4 0.794643 0.497367 0.578994
Si Si5 0.051118 0.152175 0.714230
Si Si6 0.423559 0.787647 0.374517
Si Si7 0.482609 0.039215 0.747580
Si Si8 0.895940 0.664732 0.069570
O O1 0.519699 0.174400 0.163825
O O2 0.682631 0.133641 0.317714
O O3 0.723825 0.966977 0.004326
O O4 0.948075 0.076835 0.801529
O O5 0.741094 0.426653 0.721172
O O6 0.894055 0.246013 0.754931
O O7 0.750925 0.245768 0.561504
O O8 0.127366 0.269952 0.355407
O O9 0.367889 0.371795 0.253595
O O10 0.151828 0.345691 0.684765
O O11 0.000000 0.500000 0.500000
O O12 0.889690 0.429285 0.270971
O O13 0.301035 0.062906 0.394029
O O14 0.084017 0.224309 0.885089
O O15 0.669559 0.687857 0.172749
O O16 0.477552 0.858535 0.231794
O O17 0.500000 0.000000 0.500000
#
# Coordination Sequence:
#
# PCOD9090906 Si02
#       8
#     2   2   2   2   2   2   2   2
#     4  10  20  39  64  87 123 163 206 250 297 355
#     4  10  21  38  56  87 128 157 200 251 306 354
#     4   9  19  40  61  85 124 161 207 254 296 364
#     4  10  21  37  62  88 121 165 199 255 313 355
#     4  11  21  39  64  89 124 168 199 248 304 360
#     4  10  21  38  61  90 125 157 201 259 302 359
#     4  10  19  40  63  90 126 156 209 249 297 362
#     4  10  19  39  61  89 122 159 208 253 299 360
#
# _framework density 25.930150000000001
#
# number of rings (size 3 to 8) (size 9 to 14) (size 15 to 20)
#    0.000    2.000    5.000    1.125    0.000    4.500 
#    2.250   13.125    0.000    0.000    0.000    0.000 
#    0.000    0.000    0.000    0.000    0.000    0.000 
#
# Total GULP energy -89390.115023 kJ/mol
# GULP energy per Si atom -5586.882189 kJ/mol
# Density = 2.587113 g / cm^3
# Si number density = 25.930150 Si / 1000 Ang^3
#
#
#
# Elastic Constant Matrix: (Units=GPa)
#
#
# Indices 1 2 3 4 5 6 
#
# 1 159.9428 61.2337 29.6682 -7.9562 -12.2258 15.7615
# 2 61.2337 171.1157 12.0482 -13.1457 -12.4810 21.6206
# 3 29.6682 12.0482 62.0304 -8.5107 -9.6277 -0.4587
# 4 -7.9562 -13.1457 -8.5107 31.7954 -2.8766 -3.1713
# 5 -12.2258 -12.4810 -9.6277 -2.8766 39.2202 -9.4990
# 6 15.7615 21.6206 -0.4587 -3.1713 -9.4990 40.2244
#
#
#
# Elastic Compliance Matrix: (Units=1/GPa)
#
#
# Indices 1 2 3 4 5 6 
#
# 1 0.007981 -0.002363 -0.003293 0.000006 0.000498 -0.001777
# 2 -0.002363 0.007257 0.000204 0.002321 0.001185 -0.002510
# 3 -0.003293 0.000204 0.019128 0.005110 0.004821 0.002940
# 4 0.000006 0.002321 0.005110 0.034525 0.005195 0.002757
# 5 0.000498 0.001185 0.004821 0.005195 0.029173 0.006522
# 6 -0.001777 -0.002510 0.002940 0.002757 0.006522 0.028697
#
#
# Mechanical properties :
#
#
# Convention : Reuss Voigt Hill
#
# Bulk Modulus (GPa) = 42.62169 66.55435 54.58802
# Shear Modulus (GPa) = 34.36779 41.59059 37.97919
#
# Velocity S-wave (km/s) = 3.64455 4.00928 3.83126
# Velocity P-wave (km/s) = 5.84664 6.86694 6.37723
#
# Compressibility (1/GPa) = 0.02346223
#
# Stress axis : x y z
#
# Youngs Moduli (GPa) = 125.29416 137.79808 52.28044
#
# Poissons Ratio (x) = 0.32560 0.17218
# Poissons Ratio (y) = 0.29606 -0.01069
# Poissons Ratio (z) = 0.41264 -0.02817
#
# Static dielectric constant tensor:
#      x y z
#    x 2.030400 -0.015940 0.079050 
#    y -0.015940 2.071020 -0.001010 
#    z 0.079050 -0.001010 2.076280 
# 
# From -- ./inp_files/202449.got.cif
#   From: 2010.05.17/outbox.cif.g08.bks.cpg/sg2_102_cif.got.tgz:202449.got - 2010.06.03 11:33:40.
