data_PCOD9090732
_publ_section_title
;
Structure prediction by ZEFSAII (Michael W. Deem and Ramdas Pophale) SiO2 
 PCOD9090732
Probable space group: P -1
;
_chemical_formula_sum "Si O2"
_cell_formula_units_Z 16
_cell_length_a 12.002964
_cell_length_b 9.279295
_cell_length_c 10.288390
_cell_angle_alpha 118.471871
_cell_angle_beta 53.347369
_cell_angle_gamma 112.925083
_cell_volume 799.140951
_symmetry_space_group_name_H-M "P -1"
_symmetry_group_IT_number 2
_symmetry_cell_setting 'triclinic'
loop_
_space_group_symop_operation_xyz
x,y,z
-x,-y,-z
loop_
_atom_site_type_symbol
_atom_site_label
_atom_site_fract_x
_atom_site_fract_y
_atom_site_fract_z
Si Si1 0.536079 0.863245 0.728975
Si Si2 0.108453 0.945328 0.081393
Si Si3 0.087083 0.356491 0.834974
Si Si4 0.044378 0.747746 0.663534
Si Si5 0.309818 0.830460 0.098019
Si Si6 0.058668 0.613094 0.308827
Si Si7 0.704022 0.204655 0.326974
Si Si8 0.338786 0.435807 0.560599
O O1 0.452709 0.859840 0.647144
O O2 0.651926 0.739565 0.589503
O O3 0.605267 0.045528 0.804144
O O4 0.420272 0.798065 0.893871
O O5 0.198318 0.927315 0.141506
O O6 0.969534 0.809960 0.125326
O O7 0.201887 0.880650 0.877150
O O8 0.057872 0.119846 0.177813
O O9 0.252048 0.407269 0.742350
O O10 0.048942 0.334449 0.699776
O O11 0.000000 0.500000 0.000000
O O12 0.042184 0.703111 0.494494
O O13 0.207804 0.815932 0.613184
O O14 0.983676 0.581795 0.715288
O O15 0.213069 0.674471 0.165514
O O16 0.714843 0.404868 0.397140
O O17 0.500000 0.500000 0.500000
#
# Coordination Sequence:
#
# PCOD9090732 Si02
#       8
#     2   2   2   2   2   2   2   2
#     4   9  20  36  63  87 113 154 196 247 295 344
#     4  10  21  33  63  88 115 151 195 248 299 334
#     4  11  20  37  61  91 117 146 199 258 287 344
#     4  11  22  37  56  88 120 160 185 244 295 360
#     4   9  20  39  59  89 116 145 201 254 290 341
#     4  10  23  36  59  85 120 150 197 242 298 336
#     4  10  19  39  56  84 118 156 193 236 292 351
#     4  10  20  33  60  89 113 151 194 245 295 341
#
# _framework density 20.021498999999999
#
# number of rings (size 3 to 8) (size 9 to 14) (size 15 to 20)
#    0.000    2.000    2.500    0.375    5.250    1.000 
#    0.000    0.625    0.000   10.500    0.000    0.000 
#    0.000    0.000    0.000    0.000    0.000    0.000 
#
# Total GULP energy -89084.652882 kJ/mol
# GULP energy per Si atom -5567.790805 kJ/mol
# Density = 1.997593 g / cm^3
# Si number density = 20.021499 Si / 1000 Ang^3
#
#
#
# Elastic Constant Matrix: (Units=GPa)
#
#
# Indices 1 2 3 4 5 6 
#
# 1 77.7486 11.7938 27.9367 13.1521 5.8615 7.1103
# 2 11.7938 48.4435 30.0898 9.6385 -8.0326 8.0339
# 3 27.9367 30.0898 94.1615 17.9273 -22.5281 -2.7815
# 4 13.1521 9.6385 17.9273 29.3874 1.6687 -13.0547
# 5 5.8615 -8.0326 -22.5281 1.6687 35.0989 -0.7519
# 6 7.1103 8.0339 -2.7815 -13.0547 -0.7519 28.9897
#
#
#
# Elastic Compliance Matrix: (Units=1/GPa)
#
#
# Indices 1 2 3 4 5 6 
#
# 1 0.017457 0.001586 -0.005769 -0.008604 -0.006045 -0.009306
# 2 0.001586 0.030517 -0.007720 -0.012952 0.002051 -0.015366
# 3 -0.005769 -0.007720 0.018710 -0.005557 0.011537 0.003146
# 4 -0.008604 -0.012952 -0.005557 0.060180 -0.007268 0.032078
# 5 -0.006045 0.002051 0.011537 -0.007268 0.037715 -0.000273
# 6 -0.009306 -0.015366 0.003146 0.032078 -0.000273 0.055777
#
#
# Mechanical properties :
#
#
# Convention : Reuss Voigt Hill
#
# Bulk Modulus (GPa) = 23.32195 39.99937 31.66066
# Shear Modulus (GPa) = 19.34591 28.73075 24.03833
#
# Velocity S-wave (km/s) = 3.11184 3.79224 3.46876
# Velocity P-wave (km/s) = 4.95834 6.26070 5.64719
#
# Compressibility (1/GPa) = 0.04287807
#
# Stress axis : x y z
#
# Youngs Moduli (GPa) = 57.28448 32.76879 53.44765
#
# Poissons Ratio (x) = -0.05199 0.30836
# Poissons Ratio (y) = -0.09088 0.41261
# Poissons Ratio (z) = 0.33049 0.25297
#
# Static dielectric constant tensor:
#      x y z
#    x 1.791360 0.038270 -0.010670 
#    y 0.038270 1.738100 -0.019920 
#    z -0.010670 -0.019920 1.750210 
# 
# From -- ./inp_files/419684.got.cif
#   From: 2010.05.17/outbox.cif.g08.bks.cpg/sg2_210_cif.got.tgz:419684.got - 2010.06.03 11:33:40.
