data_PCOD9090218
_publ_section_title
;
Structure prediction by ZEFSAII (Michael W. Deem and Ramdas Pophale) SiO2 
 PCOD9090218
Probable space group: P -1
;
_chemical_formula_sum "Si O2"
_cell_formula_units_Z 16
_cell_length_a 8.275667
_cell_length_b 14.044837
_cell_length_c 12.688721
_cell_angle_alpha 34.904862
_cell_angle_beta 118.306993
_cell_angle_gamma 116.606322
_cell_volume 737.889256
_symmetry_space_group_name_H-M "P -1"
_symmetry_group_IT_number 2
_symmetry_cell_setting 'triclinic'
loop_
_space_group_symop_operation_xyz
x,y,z
-x,-y,-z
loop_
_atom_site_type_symbol
_atom_site_label
_atom_site_fract_x
_atom_site_fract_y
_atom_site_fract_z
Si Si1 0.466903 0.811072 0.062823
Si Si2 0.201284 0.929560 0.037482
Si Si3 0.013997 0.669944 0.625592
Si Si4 0.838506 0.057888 0.744083
Si Si5 0.262241 0.235760 0.389274
Si Si6 0.421938 0.913574 0.732680
Si Si7 0.393159 0.456914 0.398987
Si Si8 0.686603 0.464511 0.033795
O O1 0.333450 0.823517 0.109107
O O2 0.451852 0.619631 0.198744
O O3 0.397046 0.914950 0.850574
O O4 0.674187 0.888169 0.085010
O O5 0.172376 0.877340 0.197218
O O6 0.008845 0.946271 0.905411
O O7 0.111953 0.793010 0.457741
O O8 0.145643 0.542117 0.827307
O O9 0.933620 0.776211 0.599997
O O10 0.824057 0.568869 0.617850
O O11 0.642401 0.955670 0.746783
O O12 0.409138 0.298870 0.471370
O O13 0.319439 0.064027 0.518014
O O14 0.265224 0.388988 0.169723
O O15 0.348119 0.728236 0.841266
O O16 0.500000 0.500000 0.500000
O O17 0.500000 0.500000 0.000000
#
# Coordination Sequence:
#
# PCOD9090218 Si02
#       8
#     2   2   2   2   2   2   2   2
#     4  10  19  38  64  92 126 175 227 258 330 382
#     4   9  20  33  62  91 133 172 215 273 311 405
#     4  10  23  42  67  96 132 175 222 273 321 389
#     4  10  20  37  57  97 134 167 218 258 337 390
#     4  10  24  44  69  98 130 170 228 272 321 391
#     4  11  23  42  69  95 126 180 215 272 334 382
#     4  10  22  38  67  97 130 165 215 275 321 383
#     4  12  26  47  68  96 134 171 224 279 328 391
#
# _framework density 21.683471000000001
#
# number of rings (size 3 to 8) (size 9 to 14) (size 15 to 20)
#    0.750    1.000    1.250    2.625    5.250    3.500 
#    0.000    0.625    0.000    0.000    0.000    0.000 
#    0.000    0.000    0.000    0.000    0.000    0.000 
#
# Total GULP energy -89274.461062 kJ/mol
# GULP energy per Si atom -5579.653816 kJ/mol
# Density = 2.163412 g / cm^3
# Si number density = 21.683471 Si / 1000 Ang^3
#
#
#
# Elastic Constant Matrix: (Units=GPa)
#
#
# Indices 1 2 3 4 5 6 
#
# 1 105.3779 22.6556 42.3246 10.3470 -3.7561 4.4235
# 2 22.6556 58.2536 43.4490 2.2008 -0.5821 11.0544
# 3 42.3246 43.4490 142.2444 -0.3461 -7.6530 1.7339
# 4 10.3470 2.2008 -0.3461 37.8255 1.4365 4.6962
# 5 -3.7561 -0.5821 -7.6530 1.4365 35.2271 3.4042
# 6 4.4235 11.0544 1.7339 4.6962 3.4042 25.0534
#
#
#
# Elastic Compliance Matrix: (Units=1/GPa)
#
#
# Indices 1 2 3 4 5 6 
#
# 1 0.011378 -0.002249 -0.002661 -0.002988 0.000756 -0.000375
# 2 -0.002249 0.025104 -0.006892 0.000374 -0.000349 -0.010226
# 3 -0.002661 -0.006892 0.009980 0.000858 0.001498 0.002456
# 4 -0.002988 0.000374 0.000858 0.027868 -0.000797 -0.004813
# 5 0.000756 -0.000349 0.001498 -0.000797 0.029197 -0.003901
# 6 -0.000375 -0.010226 0.002456 -0.004813 -0.003901 0.045755
#
#
# Mechanical properties :
#
#
# Convention : Reuss Voigt Hill
#
# Bulk Modulus (GPa) = 43.74739 58.08158 50.91449
# Shear Modulus (GPa) = 27.69996 32.78432 30.24214
#
# Velocity S-wave (km/s) = 3.57805 3.89260 3.73863
# Velocity P-wave (km/s) = 6.10648 6.85911 6.49371
#
# Compressibility (1/GPa) = 0.02285850
#
# Stress axis : x y z
#
# Youngs Moduli (GPa) = 87.89014 39.83355 100.20233
#
# Poissons Ratio (x) = 0.08959 0.26659
# Poissons Ratio (y) = 0.19767 0.69062
# Poissons Ratio (z) = 0.23383 0.27454
#
# Static dielectric constant tensor:
#      x y z
#    x 1.773170 -0.027540 -0.012860 
#    y -0.027540 1.872900 0.046110 
#    z -0.012860 0.046110 1.831910 
# 
# From -- ./inp_files/505131.got.cif
#   From: 2010.05.17/outbox.cif.g08.bks.cpg/sg2_253_cif.got.tgz:505131.got - 2010.06.03 11:33:40.
