data_PCOD9090882
_publ_section_title
;
Structure prediction by ZEFSAII (Michael W. Deem and Ramdas Pophale) SiO2 
 PCOD9090882
Probable space group: P -1
;
_chemical_formula_sum "Si O2"
_cell_formula_units_Z 14
_cell_length_a 8.529783
_cell_length_b 9.169712
_cell_length_c 20.142749
_cell_angle_alpha 123.665841
_cell_angle_beta 29.598323
_cell_angle_gamma 116.165367
_cell_volume 644.409373
_symmetry_space_group_name_H-M "P -1"
_symmetry_group_IT_number 2
_symmetry_cell_setting 'triclinic'
loop_
_space_group_symop_operation_xyz
x,y,z
-x,-y,-z
loop_
_atom_site_type_symbol
_atom_site_label
_atom_site_fract_x
_atom_site_fract_y
_atom_site_fract_z
Si Si1 0.359098 0.866298 0.570179
Si Si2 0.261965 0.730087 0.881634
Si Si3 0.667387 0.083133 0.615182
Si Si4 0.440368 0.268228 0.878246
Si Si5 0.539804 0.624805 0.334324
Si Si6 0.662921 0.035466 0.849545
Si Si7 0.753917 0.344202 0.978149
O O1 0.475872 0.678633 0.447736
O O2 0.981132 0.911204 0.717349
O O3 0.500000 0.000000 0.500000
O O4 0.488892 0.928672 0.607992
O O5 0.488298 0.578000 0.723222
O O6 0.407055 0.910869 0.886861
O O7 0.204955 0.656889 0.958240
O O8 0.926647 0.750620 0.971880
O O9 0.482695 0.175996 0.768402
O O10 0.685627 0.238164 0.593109
O O11 0.000000 0.000000 0.500000
O O12 0.689752 0.170350 0.812286
O O13 0.455640 0.476966 0.920072
O O14 0.899215 0.658509 0.185875
O O15 0.598627 0.170338 0.968213
#
# Coordination Sequence:
#
# PCOD9090882 Si02
#       7
#     2   2   2   2   2   2   2
#     4  10  20  38  59  87 116 154 202 243 288 352
#     4  11  22  39  60  87 127 157 191 243 300 351
#     4  11  20  35  64  88 111 148 206 249 281 343
#     4  11  21  38  59  90 120 153 204 239 290 348
#     4  10  19  39  61  85 115 158 203 236 289 353
#     4  12  23  36  61  93 121 157 192 248 299 344
#     4  11  20  39  61  85 118 161 201 240 284 356
#
# _framework density 21.72532
#
# number of rings (size 3 to 8) (size 9 to 14) (size 15 to 20)
#    0.000    1.143    5.714    3.857    0.000    0.571 
#    0.000    0.000    0.000    1.714    0.000    0.000 
#    0.000    0.000    0.000    0.000    0.000    0.000 
#
# Total GULP energy -78193.681190 kJ/mol
# GULP energy per Si atom -5585.262942 kJ/mol
# Density = 2.167587 g / cm^3
# Si number density = 21.725320 Si / 1000 Ang^3
#
#
#
# Elastic Constant Matrix: (Units=GPa)
#
#
# Indices 1 2 3 4 5 6 
#
# 1 83.0025 18.0038 31.9692 27.4551 4.9197 11.9196
# 2 18.0038 78.8105 31.1241 32.5094 -3.2065 16.1626
# 3 31.9692 31.1241 95.8938 43.3400 12.1673 9.6488
# 4 27.4551 32.5094 43.3400 32.7681 10.1523 8.8159
# 5 4.9197 -3.2065 12.1673 10.1523 35.0635 7.9452
# 6 11.9196 16.1626 9.6488 8.8159 7.9452 28.1919
#
#
#
# Elastic Compliance Matrix: (Units=1/GPa)
#
#
# Indices 1 2 3 4 5 6 
#
# 1 0.019103 0.007886 0.004452 -0.030006 0.006684 -0.006622
# 2 0.007886 0.032854 0.010862 -0.055274 0.017179 -0.013444
# 3 0.004452 0.010862 0.029837 -0.055251 0.006675 -0.002925
# 4 -0.030006 -0.055274 -0.055251 0.192229 -0.040645 0.014628
# 5 0.006684 0.017179 0.006675 -0.040645 0.041783 -0.014025
# 6 -0.006622 -0.013444 -0.002925 0.014628 -0.014025 0.046358
#
#
# Mechanical properties :
#
#
# Convention : Reuss Voigt Hill
#
# Bulk Modulus (GPa) = 7.80075 46.65567 27.22821
# Shear Modulus (GPa) = 13.94720 30.97868 22.46294
#
# Velocity S-wave (km/s) = 2.53648 3.78024 3.21900
# Velocity P-wave (km/s) = 3.48952 6.36989 5.13577
#
# Compressibility (1/GPa) = 0.12819274
#
# Stress axis : x y z
#
# Youngs Moduli (GPa) = 52.34847 30.43761 33.51557
#
# Poissons Ratio (x) = -0.24002 -0.14921
# Poissons Ratio (y) = -0.41280 -0.36405
# Poissons Ratio (z) = -0.23305 -0.33062
#
# Static dielectric constant tensor:
#      x y z
#    x 1.819400 0.012510 0.014570 
#    y 0.012510 1.835000 0.007600 
#    z 0.014570 0.007600 1.844660 
# 
# From -- ./inp_files/169481.got.cif
#   From: 2010.05.17/outbox.cif.g08.bks.cpg/sg2_85_cif.got.tgz:169481.got - 2010.06.03 11:33:40.
