data_PCOD9090312
_publ_section_title
;
Structure prediction by ZEFSAII (Michael W. Deem and Ramdas Pophale) SiO2 
 PCOD9090312
Probable space group: P -1
;
_chemical_formula_sum "Si O2"
_cell_formula_units_Z 16
_cell_length_a 7.443592
_cell_length_b 6.643206
_cell_length_c 15.675254
_cell_angle_alpha 63.600605
_cell_angle_beta 110.500729
_cell_angle_gamma 112.450724
_cell_volume 626.249941
_symmetry_space_group_name_H-M "P -1"
_symmetry_group_IT_number 2
_symmetry_cell_setting 'triclinic'
loop_
_space_group_symop_operation_xyz
x,y,z
-x,-y,-z
loop_
_atom_site_type_symbol
_atom_site_label
_atom_site_fract_x
_atom_site_fract_y
_atom_site_fract_z
Si Si1 0.834995 0.636400 0.436327
Si Si2 0.276438 0.364401 0.956112
Si Si3 0.918502 0.768723 0.228595
Si Si4 0.581661 0.033302 0.911575
Si Si5 0.679369 0.358895 0.722977
Si Si6 0.503346 0.245950 0.413137
Si Si7 0.298664 0.961267 0.656844
Si Si8 0.143573 0.773546 0.832729
O O1 0.838337 0.708471 0.322763
O O2 0.640256 0.434259 0.462656
O O3 0.822935 0.869761 0.438288
O O4 0.000000 0.500000 0.500000
O O5 0.241586 0.328514 0.854677
O O6 0.127631 0.524491 0.918993
O O7 0.500000 0.500000 0.000000
O O8 0.252469 0.109409 0.039349
O O9 0.116614 0.686785 0.265748
O O10 0.966959 0.051330 0.177875
O O11 0.656526 0.283161 0.833445
O O12 0.380489 0.899503 0.855565
O O13 0.500000 0.000000 0.000000
O O14 0.664862 0.623164 0.660350
O O15 0.496868 0.163181 0.684274
O O16 0.500000 0.000000 0.500000
O O17 0.618237 0.216211 0.351227
O O18 0.138757 0.798259 0.725477
#
# Coordination Sequence:
#
# PCOD9090312 Si02
#       8
#     2   2   2   2   2   2   2   2
#     4  10  24  42  68  96 131 178 223 278 339 399
#     4  10  21  36  65  94 125 169 225 268 328 398
#     4  11  22  41  63  94 136 173 217 283 337 395
#     4  10  19  38  65  88 122 172 214 258 328 398
#     4  10  25  41  63  97 135 173 216 282 342 396
#     4  11  25  43  69  96 132 178 225 278 338 400
#     4   9  21  41  63  91 127 173 221 263 338 401
#     4   9  19  37  62  90 118 171 215 266 317 397
#
# _framework density 25.548904
#
# number of rings (size 3 to 8) (size 9 to 14) (size 15 to 20)
#    0.000    2.000    1.250    1.500    5.250    3.000 
#    2.250    0.625    0.000    0.000    0.000    0.000 
#    0.000    0.000    0.000    0.000    0.000    0.000 
#
# Total GULP energy -89156.991026 kJ/mol
# GULP energy per Si atom -5572.311939 kJ/mol
# Density = 2.549075 g / cm^3
# Si number density = 25.548904 Si / 1000 Ang^3
#
#
#
# Elastic Constant Matrix: (Units=GPa)
#
#
# Indices 1 2 3 4 5 6 
#
# 1 106.0173 47.6838 41.7067 -16.5213 23.7074 -29.2270
# 2 47.6838 91.2263 49.2314 -28.6672 27.1655 -30.0062
# 3 41.7067 49.2314 123.6930 -47.8084 22.4504 -13.7042
# 4 -16.5213 -28.6672 -47.8084 59.6258 -17.9217 24.7345
# 5 23.7074 27.1655 22.4504 -17.9217 41.8725 -7.9172
# 6 -29.2270 -30.0062 -13.7042 24.7345 -7.9172 44.9935
#
#
#
# Elastic Compliance Matrix: (Units=1/GPa)
#
#
# Indices 1 2 3 4 5 6 
#
# 1 0.015151 -0.003009 -0.004272 -0.005914 -0.005189 0.008872
# 2 -0.003009 0.020195 -0.005176 -0.001415 -0.007451 0.009404
# 3 -0.004272 -0.005176 0.015185 0.012276 0.001355 -0.008112
# 4 -0.005914 -0.001415 0.012276 0.034697 0.009031 -0.018531
# 5 -0.005189 -0.007451 0.001355 0.009031 0.033469 -0.007002
# 6 0.008872 0.009404 -0.008112 -0.018531 -0.007002 0.040744
#
#
# Mechanical properties :
#
#
# Convention : Reuss Voigt Hill
#
# Bulk Modulus (GPa) = 39.03648 66.46448 52.75048
# Shear Modulus (GPa) = 25.92105 41.45267 33.68686
#
# Velocity S-wave (km/s) = 3.18868 4.03238 3.63509
# Velocity P-wave (km/s) = 5.37301 6.91022 6.18952
#
# Compressibility (1/GPa) = 0.02561706
#
# Stress axis : x y z
#
# Youngs Moduli (GPa) = 66.00212 49.51744 65.85465
#
# Poissons Ratio (x) = 0.14899 0.28133
# Poissons Ratio (y) = 0.19859 0.34086
# Poissons Ratio (z) = 0.28196 0.25630
#
# Static dielectric constant tensor:
#      x y z
#    x 2.039830 0.053290 0.206760 
#    y 0.053290 1.681780 -1.569850 
#    z 0.206760 -1.569850 -3.612730 
# 
# From -- ./inp_files/551897.got.cif
#   From: 2010.05.17/outbox.cif.g08.bks.cpg/sg2_276_cif.got.tgz:551897.got - 2010.06.03 11:33:40.
