data_PCOD9090230
_publ_section_title
;
Structure prediction by ZEFSAII (Michael W. Deem and Ramdas Pophale) SiO2 
 PCOD9090230
Probable space group: P -1
;
_chemical_formula_sum "Si O2"
_cell_formula_units_Z 15
_cell_length_a 9.266892
_cell_length_b 14.660416
_cell_length_c 8.728248
_cell_angle_alpha 143.131088
_cell_angle_beta 80.446141
_cell_angle_gamma 114.178618
_cell_volume 620.075802
_symmetry_space_group_name_H-M "P -1"
_symmetry_group_IT_number 2
_symmetry_cell_setting 'triclinic'
loop_
_space_group_symop_operation_xyz
x,y,z
-x,-y,-z
loop_
_atom_site_type_symbol
_atom_site_label
_atom_site_fract_x
_atom_site_fract_y
_atom_site_fract_z
Si Si1 0.862747 0.624890 0.333679
Si Si2 0.190111 0.403501 0.053142
Si Si3 0.621155 0.229341 0.330151
Si Si4 0.750714 0.915219 0.756086
Si Si5 0.199552 0.075542 0.589067
Si Si6 0.221391 0.901587 0.632915
Si Si7 0.125412 0.629426 0.778502
Si Si8 0.000000 0.000000 0.000000
O O1 0.832962 0.786684 0.615354
O O2 0.808290 0.473892 0.261595
O O3 0.061316 0.712709 0.404964
O O4 0.796265 0.576429 0.108011
O O5 0.299083 0.578833 0.358243
O O6 0.997582 0.331562 0.040333
O O7 0.253352 0.266294 0.895994
O O8 0.428249 0.157992 0.241645
O O9 0.649090 0.120600 0.314143
O O10 0.719001 0.234429 0.164274
O O11 0.731103 0.910211 0.573170
O O12 0.914107 0.083726 0.006825
O O13 0.256910 0.968711 0.544827
O O14 0.000000 0.000000 0.500000
O O15 0.150710 0.021956 0.881945
O O16 0.000000 0.500000 0.500000
#
# Coordination Sequence:
#
# PCOD9090230 Si02
#       8
#     2   2   2   2   2   2   2   1
#     4  10  19  38  64  93 123 172 221 255 313 387
#     4  10  21  37  68  93 133 170 217 266 318 369
#     4  11  25  41  61 100 136 164 212 280 321 373
#     4  10  24  43  65  94 131 165 219 270 322 392
#     4  11  21  40  66  98 122 175 226 256 311 393
#     4  11  22  39  65  97 126 170 222 260 315 386
#     4  10  20  35  61  94 129 168 212 262 322 379
#     4  10  22  40  68  86 124 170 206 264 322 390
#
# _framework density 24.190591000000001
#
# number of rings (size 3 to 8) (size 9 to 14) (size 15 to 20)
#    0.000    1.600    6.667    0.400    1.867    4.800 
#    0.000    1.333    0.000    0.000    0.000    0.000 
#    0.000    0.000    0.000    0.000    0.000    0.000 
#
# Total GULP energy -83649.842850 kJ/mol
# GULP energy per Si atom -5576.656190 kJ/mol
# Density = 2.413553 g / cm^3
# Si number density = 24.190591 Si / 1000 Ang^3
#
#
#
# Elastic Constant Matrix: (Units=GPa)
#
#
# Indices 1 2 3 4 5 6 
#
# 1 147.9208 60.7956 7.2089 5.0496 7.8270 0.3704
# 2 60.7956 137.5355 16.6351 -11.2071 -2.6086 -23.7499
# 3 7.2089 16.6351 88.8487 2.4576 4.9097 3.7831
# 4 5.0496 -11.2071 2.4576 25.6729 1.3534 -1.0776
# 5 7.8270 -2.6086 4.9097 1.3534 21.4556 -0.3920
# 6 0.3704 -23.7499 3.7831 -1.0776 -0.3920 36.1859
#
#
#
# Elastic Compliance Matrix: (Units=1/GPa)
#
#
# Indices 1 2 3 4 5 6 
#
# 1 0.009236 -0.005233 0.000725 -0.004119 -0.003981 -0.003770
# 2 -0.005233 0.011957 -0.002560 0.006653 0.003682 0.008407
# 3 0.000725 -0.002560 0.012050 -0.002371 -0.003239 -0.003053
# 4 -0.004119 0.006653 -0.002371 0.043129 0.000242 0.005943
# 5 -0.003981 0.003682 -0.003239 0.000242 0.049295 0.003338
# 6 -0.003770 0.008407 -0.003053 0.005943 0.003338 0.033724
#
#
# Mechanical properties :
#
#
# Convention : Reuss Voigt Hill
#
# Bulk Modulus (GPa) = 52.33280 60.39823 56.36552
# Shear Modulus (GPa) = 27.79384 35.97391 31.88387
#
# Velocity S-wave (km/s) = 3.39330 3.86048 3.63440
# Velocity P-wave (km/s) = 6.08548 6.70022 6.40024
#
# Compressibility (1/GPa) = 0.01910848
#
# Stress axis : x y z
#
# Youngs Moduli (GPa) = 108.26790 83.63203 82.98689
#
# Poissons Ratio (x) = 0.43762 -0.06014
# Poissons Ratio (y) = 0.56653 0.21242
# Poissons Ratio (z) = -0.07846 0.21407
#
# Static dielectric constant tensor:
#      x y z
#    x 1.758670 -0.098880 -0.270030 
#    y -0.098880 2.084220 -0.084210 
#    z -0.270030 -0.084210 1.645530 
# 
# From -- ./inp_files/204765.got.cif
#   From: 2010.05.17/outbox.cif.g08.bks.cpg/sg2_103_cif.got.tgz:204765.got - 2010.06.03 11:33:40.
