data_PCOD9090240
_publ_section_title
;
Structure prediction by ZEFSAII (Michael W. Deem and Ramdas Pophale) SiO2 
 PCOD9090240
Probable space group: P -1
;
_chemical_formula_sum "Si O2"
_cell_formula_units_Z 14
_cell_length_a 14.550263
_cell_length_b 8.836838
_cell_length_c 11.838245
_cell_angle_alpha 122.466964
_cell_angle_beta 53.280018
_cell_angle_gamma 154.841524
_cell_volume 518.649877
_symmetry_space_group_name_H-M "P -1"
_symmetry_group_IT_number 2
_symmetry_cell_setting 'triclinic'
loop_
_space_group_symop_operation_xyz
x,y,z
-x,-y,-z
loop_
_atom_site_type_symbol
_atom_site_label
_atom_site_fract_x
_atom_site_fract_y
_atom_site_fract_z
Si Si1 0.561448 0.637841 0.274144
Si Si2 0.848349 0.575366 0.158308
Si Si3 0.280997 0.807338 0.529809
Si Si4 0.449855 0.613013 0.010871
Si Si5 0.089466 0.616414 0.134899
Si Si6 0.166559 0.312425 0.300352
Si Si7 0.370962 0.077896 0.325222
O O1 0.339103 0.424364 0.292212
O O2 0.455381 0.393195 0.361620
O O3 0.736898 0.037965 0.318554
O O4 0.661288 0.616327 0.112771
O O5 0.585827 0.248223 0.200571
O O6 0.898227 0.499672 0.191229
O O7 0.957087 0.637698 0.990157
O O8 0.957336 0.907651 0.254394
O O9 0.119390 0.425338 0.454282
O O10 0.500000 0.000000 0.500000
O O11 0.329268 0.970252 0.440758
O O12 0.301143 0.531777 0.171942
O O13 0.500000 0.500000 0.000000
O O14 0.685235 0.014939 0.955183
O O15 0.168657 0.753158 0.258588
#
# Coordination Sequence:
#
# PCOD9090240 Si02
#       7
#     2   2   2   2   2   2   2
#     4   9  19  38  62  89 124 167 206 249 305 374
#     4  11  21  36  64  96 128 161 206 258 310 369
#     4  10  22  40  67  89 122 173 207 253 322 370
#     4   9  15  33  63  85 122 160 196 250 307 355
#     4  10  21  38  59  94 132 162 207 250 314 372
#     4  10  19  38  64  94 126 163 207 255 309 366
#     4  11  21  40  65  89 121 167 214 251 310 373
#
# _framework density 26.993162000000002
#
# number of rings (size 3 to 8) (size 9 to 14) (size 15 to 20)
#    0.000    2.000    4.286    1.714    0.000    1.143 
#    0.000   10.000    0.000    0.000    0.000    0.000 
#    0.000    0.000    0.000    0.000    0.000    0.000 
#
# Total GULP energy -78335.679111 kJ/mol
# GULP energy per Si atom -5595.405651 kJ/mol
# Density = 2.693172 g / cm^3
# Si number density = 26.993162 Si / 1000 Ang^3
#
#
#
# Elastic Constant Matrix: (Units=GPa)
#
#
# Indices 1 2 3 4 5 6 
#
# 1 110.9878 35.7203 53.1776 10.3040 14.9139 -4.3087
# 2 35.7203 111.9036 24.4134 45.0462 -5.3341 -7.8750
# 3 53.1776 24.4134 115.3212 46.7419 3.6013 17.3511
# 4 10.3040 45.0462 46.7419 50.7781 -9.3908 -4.1846
# 5 14.9139 -5.3341 3.6013 -9.3908 39.9016 4.0137
# 6 -4.3087 -7.8750 17.3511 -4.1846 4.0137 26.0827
#
#
#
# Elastic Compliance Matrix: (Units=1/GPa)
#
#
# Indices 1 2 3 4 5 6 
#
# 1 0.021210 -0.011439 -0.020237 0.025319 -0.003493 0.018112
# 2 -0.011439 0.021113 0.015054 -0.031231 -0.000559 -0.010454
# 3 -0.020237 0.015054 0.039540 -0.048734 -0.002184 -0.032584
# 4 0.025319 -0.031231 -0.048734 0.092012 0.008326 0.040654
# 5 -0.003493 -0.000559 -0.002184 0.008326 0.028688 -0.002372
# 6 0.018112 -0.010454 -0.032584 0.040654 -0.002372 0.066738
#
#
# Mechanical properties :
#
#
# Convention : Reuss Voigt Hill
#
# Bulk Modulus (GPa) = 20.56812 62.75947 41.66379
# Shear Modulus (GPa) = 15.68628 38.34589 27.01608
#
# Velocity S-wave (km/s) = 2.41326 3.77314 3.16705
# Velocity P-wave (km/s) = 3.92446 6.50252 5.37048
#
# Compressibility (1/GPa) = 0.04861894
#
# Stress axis : x y z
#
# Youngs Moduli (GPa) = 47.14862 47.36451 25.29092
#
# Poissons Ratio (x) = 0.54181 0.51180
# Poissons Ratio (y) = 0.53934 -0.38073
# Poissons Ratio (z) = 0.95413 -0.71303
#
# Static dielectric constant tensor:
#      x y z
#    x 2.067700 -0.053880 0.012680 
#    y -0.053880 2.149970 -0.014150 
#    z 0.012680 -0.014150 2.204360 
# 
# From -- ./inp_files/446309.got.cif
#   From: 2010.05.17/outbox.cif.g08.bks.cpg/sg2_224_cif.got.tgz:446309.got - 2010.06.03 11:33:40.
