data_PCOD9090567
_publ_section_title
;
Structure prediction by ZEFSAII (Michael W. Deem and Ramdas Pophale) SiO2 
 PCOD9090567
Probable space group: P -1
;
_chemical_formula_sum "Si O2"
_cell_formula_units_Z 16
_cell_length_a 9.476508
_cell_length_b 16.023037
_cell_length_c 9.347388
_cell_angle_alpha 33.003068
_cell_angle_beta 105.676211
_cell_angle_gamma 96.303893
_cell_volume 725.634903
_symmetry_space_group_name_H-M "P -1"
_symmetry_group_IT_number 2
_symmetry_cell_setting 'triclinic'
loop_
_space_group_symop_operation_xyz
x,y,z
-x,-y,-z
loop_
_atom_site_type_symbol
_atom_site_label
_atom_site_fract_x
_atom_site_fract_y
_atom_site_fract_z
Si Si1 0.687028 0.623806 0.608780
Si Si2 0.416501 0.120867 0.422099
Si Si3 0.574758 0.125903 0.758543
Si Si4 0.916832 0.880984 0.572586
Si Si5 0.341534 0.466672 0.954677
Si Si6 0.868311 0.896791 0.212552
Si Si7 0.089011 0.676209 0.403467
Si Si8 0.098400 0.593431 0.207942
O O1 0.510528 0.706040 0.444059
O O2 0.730459 0.569649 0.861290
O O3 0.770126 0.762621 0.393028
O O4 0.746329 0.483803 0.717531
O O5 0.525932 0.119872 0.589053
O O6 0.261103 0.081403 0.492425
O O7 0.371483 0.305745 0.101275
O O8 0.500000 0.000000 0.500000
O O9 0.500000 0.000000 0.000000
O O10 0.750327 0.060376 0.920272
O O11 0.941504 0.891328 0.395767
O O12 0.000000 0.000000 0.500000
O O13 0.993675 0.712286 0.900864
O O14 0.500000 0.500000 0.000000
O O15 0.234128 0.607518 0.639581
O O16 0.984063 0.835136 0.206882
O O17 0.121377 0.676774 0.243089
O O18 0.988337 0.544678 0.584794
#
# Coordination Sequence:
#
# PCOD9090567 Si02
#       8
#     2   2   2   2   2   2   2   2
#     4   9  18  37  66  88 121 160 204 259 313 384
#     4  11  24  40  63  90 133 171 208 276 330 386
#     4   9  17  36  61  95 115 165 211 244 321 383
#     4  12  24  42  62  92 128 174 221 261 326 394
#     4  11  22  41  63  92 125 168 221 260 324 393
#     4  10  19  38  67  91 121 167 209 263 312 394
#     4  10  21  38  68  94 124 159 209 270 323 371
#     4  10  21  39  64  95 123 158 212 264 323 381
#
# _framework density 22.049655000000001
#
# number of rings (size 3 to 8) (size 9 to 14) (size 15 to 20)
#    0.000    1.750    5.000    0.750    1.750    6.000 
#    4.500    1.250    0.000    0.000    0.000    0.000 
#    0.000    0.000    0.000    0.000    0.000    0.000 
#
# Total GULP energy -89438.261609 kJ/mol
# GULP energy per Si atom -5589.891351 kJ/mol
# Density = 2.199947 g / cm^3
# Si number density = 22.049655 Si / 1000 Ang^3
#
#
#
# Elastic Constant Matrix: (Units=GPa)
#
#
# Indices 1 2 3 4 5 6 
#
# 1 103.9752 63.6681 27.6310 3.2544 20.2111 -19.1215
# 2 63.6681 151.6947 50.6838 -3.5045 33.7583 -46.2148
# 3 27.6310 50.6838 111.3090 9.7906 34.2634 -28.9114
# 4 3.2544 -3.5045 9.7906 29.5866 7.5161 1.2678
# 5 20.2111 33.7583 34.2634 7.5161 37.5691 -10.1157
# 6 -19.1215 -46.2148 -28.9114 1.2678 -10.1157 45.4414
#
#
#
# Elastic Compliance Matrix: (Units=1/GPa)
#
#
# Indices 1 2 3 4 5 6 
#
# 1 0.013216 -0.005099 -0.000248 -0.001441 -0.002068 -0.000202
# 2 -0.005099 0.013474 -0.000554 0.003719 -0.007035 0.009535
# 3 -0.000248 -0.000554 0.014271 -0.002428 -0.010228 0.006202
# 4 -0.001441 0.003719 -0.002428 0.037324 -0.008148 -0.001225
# 5 -0.002068 -0.007035 -0.010228 -0.008148 0.043782 -0.004559
# 6 -0.000202 0.009535 0.006202 -0.001225 -0.004559 0.034584
#
#
# Mechanical properties :
#
#
# Convention : Reuss Voigt Hill
#
# Bulk Modulus (GPa) = 34.29587 72.32717 53.31152
# Shear Modulus (GPa) = 28.06271 37.51918 32.79094
#
# Velocity S-wave (km/s) = 3.57137 4.12949 3.86053
# Velocity P-wave (km/s) = 5.70911 7.45722 6.64094
#
# Compressibility (1/GPa) = 0.02915803
#
# Stress axis : x y z
#
# Youngs Moduli (GPa) = 75.66839 74.21797 70.07230
#
# Poissons Ratio (x) = 0.37840 0.01739
# Poissons Ratio (y) = 0.38580 0.03885
# Poissons Ratio (z) = 0.01878 0.04115
#
# Static dielectric constant tensor:
#      x y z
#    x 1.851100 0.009810 -0.030330 
#    y 0.009810 1.777480 -0.039000 
#    z -0.030330 -0.039000 1.829040 
# 
# From -- ./inp_files/205178.got.cif
#   From: 2010.05.17/outbox.cif.g08.bks.cpg/sg2_103_cif.got.tgz:205178.got - 2010.06.03 11:33:40.
