data_PCOD9090001
_publ_section_title
;
Structure prediction by ZEFSAII (Michael W. Deem and Ramdas Pophale) SiO2 
 PCOD9090001
Probable space group: P -1
;
_chemical_formula_sum "Si O2"
_cell_formula_units_Z 16
_cell_length_a 7.862002
_cell_length_b 10.944830
_cell_length_c 19.022904
_cell_angle_alpha 154.931256
_cell_angle_beta 78.764495
_cell_angle_gamma 104.398037
_cell_volume 669.930269
_symmetry_space_group_name_H-M "P -1"
_symmetry_group_IT_number 2
_symmetry_cell_setting 'triclinic'
loop_
_space_group_symop_operation_xyz
x,y,z
-x,-y,-z
loop_
_atom_site_type_symbol
_atom_site_label
_atom_site_fract_x
_atom_site_fract_y
_atom_site_fract_z
Si Si1 0.784956 0.277021 0.433482
Si Si2 0.587137 0.103872 0.770076
Si Si3 0.919137 0.232839 0.548247
Si Si4 0.245619 0.465043 0.569593
Si Si5 0.197099 0.173446 0.086423
Si Si6 0.571643 0.692766 0.741683
Si Si7 0.628228 0.760650 0.366625
Si Si8 0.541726 0.597585 0.932932
O O1 0.884499 0.162054 0.430619
O O2 0.849810 0.379572 0.403719
O O3 0.719602 0.559609 0.618718
O O4 0.610257 0.039357 0.311316
O O5 0.639658 0.369053 0.848670
O O6 0.697981 0.841660 0.618821
O O7 0.570039 0.250560 0.923255
O O8 0.823686 0.493703 0.719731
O O9 0.120506 0.386444 0.605483
O O10 0.826130 0.944152 0.445797
O O11 0.423444 0.688676 0.691282
O O12 0.315553 0.081797 0.094349
O O13 0.314628 0.194486 0.017822
O O14 0.000000 0.000000 0.000000
O O15 0.454168 0.454138 0.677194
O O16 0.592321 0.578331 0.203334
O O17 0.500000 0.000000 0.500000
#
# Coordination Sequence:
#
# PCOD9090001 Si02
#       8
#     2   2   2   2   2   2   2   2
#     4  10  19  38  63  86 121 169 209 245 299 374
#     4  10  20  37  62  88 121 161 207 245 310 369
#     4  11  22  37  66  91 118 163 212 255 305 362
#     4  11  23  37  60  96 129 157 202 261 311 358
#     4  10  22  39  62  90 121 160 210 253 301 369
#     4   9  19  36  62  85 119 158 204 247 306 356
#     4  11  16  37  64  88 116 155 216 251 290 374
#     4  10  20  37  66  87 118 168 202 247 306 372
#
# _framework density 23.883081000000001
#
# number of rings (size 3 to 8) (size 9 to 14) (size 15 to 20)
#    0.000    1.750    5.000    2.625    1.750    0.500 
#    0.000    1.250    8.250    0.000    0.000    0.000 
#    0.000    0.000    0.000    0.000    0.000    0.000 
#
# Total GULP energy -89253.139183 kJ/mol
# GULP energy per Si atom -5578.321199 kJ/mol
# Density = 2.382872 g / cm^3
# Si number density = 23.883081 Si / 1000 Ang^3
#
#
#
# Elastic Constant Matrix: (Units=GPa)
#
#
# Indices 1 2 3 4 5 6 
#
# 1 69.6702 -0.6511 19.5691 0.4556 14.1287 14.8760
# 2 -0.6511 92.4385 10.7729 -6.8343 0.1731 5.4042
# 3 19.5691 10.7729 87.4896 -7.7032 -9.1882 -6.5584
# 4 0.4556 -6.8343 -7.7032 31.5203 6.4296 5.9251
# 5 14.1287 0.1731 -9.1882 6.4296 40.1996 -0.5269
# 6 14.8760 5.4042 -6.5584 5.9251 -0.5269 38.6925
#
#
#
# Elastic Compliance Matrix: (Units=1/GPa)
#
#
# Indices 1 2 3 4 5 6 
#
# 1 0.019839 0.001565 -0.006069 0.002122 -0.008828 -0.009320
# 2 0.001565 0.011438 -0.001890 0.002868 -0.001529 -0.002980
# 3 -0.006069 -0.001890 0.014034 0.001124 0.005233 0.004875
# 4 0.002122 0.002868 0.001124 0.035074 -0.006196 -0.006481
# 5 -0.008828 -0.001529 0.005233 -0.006196 0.030249 0.005856
# 6 -0.009320 -0.002980 0.004875 -0.006481 0.005856 0.031743
#
#
# Mechanical properties :
#
#
# Convention : Reuss Voigt Hill
#
# Bulk Modulus (GPa) = 30.74658 34.33114 32.53886
# Shear Modulus (GPa) = 30.11933 36.74296 33.43115
#
# Velocity S-wave (km/s) = 3.55507 3.92657 3.74543
# Velocity P-wave (km/s) = 5.45464 5.91296 5.68842
#
# Compressibility (1/GPa) = 0.03252395
#
# Stress axis : x y z
#
# Youngs Moduli (GPa) = 50.40535 87.42495 71.25463
#
# Poissons Ratio (x) = -0.13685 0.43246
# Poissons Ratio (y) = -0.07890 0.13468
# Poissons Ratio (z) = 0.30592 0.16524
#
# Static dielectric constant tensor:
#      x y z
#    x 2.082850 -0.160150 0.003550 
#    y -0.160150 2.070140 0.028600 
#    z 0.003550 0.028600 1.938870 
# 
# From -- ./inp_files/560158.got.cif
#   From: 2010.05.17/outbox.cif.g08.bks.cpg/sg2_281_cif.got.tgz:560158.got - 2010.06.03 11:33:40.
