data_PCOD9090362
_publ_section_title
;
Structure prediction by ZEFSAII (Michael W. Deem and Ramdas Pophale) SiO2 
 PCOD9090362
Probable space group: P -1
;
_chemical_formula_sum "Si O2"
_cell_formula_units_Z 14
_cell_length_a 5.056095
_cell_length_b 24.714378
_cell_length_c 12.482416
_cell_angle_alpha 23.952543
_cell_angle_beta 104.295940
_cell_angle_gamma 93.859648
_cell_volume 561.725273
_symmetry_space_group_name_H-M "P -1"
_symmetry_group_IT_number 2
_symmetry_cell_setting 'triclinic'
loop_
_space_group_symop_operation_xyz
x,y,z
-x,-y,-z
loop_
_atom_site_type_symbol
_atom_site_label
_atom_site_fract_x
_atom_site_fract_y
_atom_site_fract_z
Si Si1 0.203694 0.721045 0.219879
Si Si2 0.314019 0.976142 0.776367
Si Si3 0.252855 0.524977 0.209527
Si Si4 0.379812 0.911175 0.563389
Si Si5 0.815711 0.398924 0.164474
Si Si6 0.145039 0.354216 0.846937
Si Si7 0.834867 0.775252 0.302018
O O1 0.418580 0.553615 0.565105
O O2 0.979083 0.742176 0.063624
O O3 0.034478 0.779274 0.211092
O O4 0.396315 0.810896 0.040527
O O5 0.447425 0.074366 0.551232
O O6 0.520757 0.917248 0.010757
O O7 0.962121 0.039301 0.598389
O O8 0.205362 0.377692 0.438021
O O9 0.012953 0.607841 0.123330
O O10 0.231957 0.620700 0.929864
O O11 0.500000 0.000000 0.500000
O O12 0.510291 0.746546 0.918073
O O13 0.979059 0.256355 0.511419
O O14 0.500000 0.500000 0.000000
O O15 0.000000 0.500000 0.000000
O O16 0.000000 0.500000 0.500000
#
# Coordination Sequence:
#
# PCOD9090362 Si02
#       7
#     2   2   2   2   2   2   2
#     4  11  20  37  63  92 129 166 210 258 321 380
#     4  11  23  40  63  92 121 167 223 261 302 376
#     4  10  22  36  58  94 132 165 204 265 332 377
#     4  12  25  42  64  88 128 173 222 256 306 387
#     4  10  20  36  61  92 128 165 211 264 317 379
#     4  12  25  40  63  96 135 171 205 269 330 386
#     4  10  19  38  65  93 123 164 216 265 313 374
#
# _framework density 24.923214000000002
#
# number of rings (size 3 to 8) (size 9 to 14) (size 15 to 20)
#    0.000    1.143    5.714    0.857    2.000    1.143 
#    0.000    0.000    0.000    1.714    0.000    0.000 
#    0.000    0.000    0.000    0.000    0.000    0.000 
#
# Total GULP energy -78059.353984 kJ/mol
# GULP energy per Si atom -5575.668142 kJ/mol
# Density = 2.486649 g / cm^3
# Si number density = 24.923214 Si / 1000 Ang^3
#
#
#
# Elastic Constant Matrix: (Units=GPa)
#
#
# Indices 1 2 3 4 5 6 
#
# 1 99.8517 9.3318 40.5962 4.8209 24.4819 -19.6751
# 2 9.3318 78.7868 52.5602 31.8818 13.4112 -21.4073
# 3 40.5962 52.5602 218.3969 27.1624 43.2493 -7.9066
# 4 4.8209 31.8818 27.1624 25.0110 7.3822 -1.7709
# 5 24.4819 13.4112 43.2493 7.3822 51.8938 -0.4706
# 6 -19.6751 -21.4073 -7.9066 -1.7709 -0.4706 26.9050
#
#
#
# Elastic Compliance Matrix: (Units=1/GPa)
#
#
# Indices 1 2 3 4 5 6 
#
# 1 0.015352 0.008847 -0.001972 -0.008987 -0.006453 0.016982
# 2 0.008847 0.047818 -0.003973 -0.054005 -0.005178 0.039704
# 3 -0.001972 -0.003973 0.006593 -0.000899 -0.003435 -0.002785
# 4 -0.008987 -0.054005 -0.000899 0.107549 0.003259 -0.042670
# 5 -0.006453 -0.005178 -0.003435 0.003259 0.025968 -0.009179
# 6 0.016982 0.039704 -0.002785 -0.042670 -0.009179 0.077389
#
#
# Mechanical properties :
#
#
# Convention : Reuss Voigt Hill
#
# Bulk Modulus (GPa) = 13.23358 66.89021 40.06189
# Shear Modulus (GPa) = 16.66360 40.39843 28.53102
#
# Velocity S-wave (km/s) = 2.58853 4.03043 3.38710
# Velocity P-wave (km/s) = 3.77561 6.96821 5.60407
#
# Compressibility (1/GPa) = 0.07556534
#
# Stress axis : x y z
#
# Youngs Moduli (GPa) = 65.13781 20.91247 151.68269
#
# Poissons Ratio (x) = -0.18500 0.29918
# Poissons Ratio (y) = -0.57625 0.60265
# Poissons Ratio (z) = 0.12848 0.08309
#
# Static dielectric constant tensor:
#      x y z
#    x 2.043600 0.041160 0.019610 
#    y 0.041160 1.993800 0.029070 
#    z 0.019610 0.029070 2.047880 
# 
# From -- ./inp_files/371308.got.cif
#   From: 2010.05.17/outbox.cif.g08.bks.cpg/sg2_186_cif.got.tgz:371308.got - 2010.06.03 11:33:40.
