data_PCOD9090382
_publ_section_title
;
Structure prediction by ZEFSAII (Michael W. Deem and Ramdas Pophale) SiO2 
 PCOD9090382
Probable space group: P -1
;
_chemical_formula_sum "Si O2"
_cell_formula_units_Z 16
_cell_length_a 21.884784
_cell_length_b 10.215178
_cell_length_c 7.190951
_cell_angle_alpha 131.016152
_cell_angle_beta 38.281688
_cell_angle_gamma 138.859987
_cell_volume 646.821153
_symmetry_space_group_name_H-M "P -1"
_symmetry_group_IT_number 2
_symmetry_cell_setting 'triclinic'
loop_
_space_group_symop_operation_xyz
x,y,z
-x,-y,-z
loop_
_atom_site_type_symbol
_atom_site_label
_atom_site_fract_x
_atom_site_fract_y
_atom_site_fract_z
Si Si1 0.096263 0.969153 0.340561
Si Si2 0.413480 0.016880 0.077854
Si Si3 0.955435 0.607487 0.849870
Si Si4 0.693840 0.403497 0.262457
Si Si5 0.278733 0.367801 0.267154
Si Si6 0.178131 0.872725 0.697685
Si Si7 0.516589 0.540701 0.716221
Si Si8 0.102141 0.429089 0.594168
O O1 0.014010 0.741157 0.389362
O O2 0.187254 0.168913 0.417325
O O3 0.176568 0.965592 0.984231
O O4 0.000000 0.000000 0.500000
O O5 0.466120 0.240206 0.077781
O O6 0.299829 0.989058 0.422265
O O7 0.500000 0.000000 0.000000
O O8 0.367163 0.824759 0.873777
O O9 0.000000 0.500000 0.500000
O O10 0.067230 0.833770 0.806246
O O11 0.827873 0.531985 0.008995
O O12 0.931322 0.573070 0.106012
O O13 0.694451 0.426682 0.503955
O O14 0.620783 0.507464 0.481746
O O15 0.200025 0.368921 0.288728
O O16 0.397117 0.382728 0.952712
O O17 0.151332 0.647839 0.597363
O O18 0.500000 0.500000 0.500000
#
# Coordination Sequence:
#
# PCOD9090382 Si02
#       8
#     2   2   2   2   2   2   2   2
#     4   9  18  35  60  92 125 166 213 261 321 390
#     4  12  25  44  71  97 133 178 229 276 330 404
#     4  10  19  38  65  94 137 171 209 287 332 382
#     4  11  25  46  67  98 137 172 226 284 339 395
#     4  10  22  43  66  94 140 168 216 289 328 396
#     4  11  21  41  66  96 132 177 225 271 325 405
#     4  12  25  45  69  98 131 180 228 272 337 403
#     4   9  20  37  66  98 126 177 222 260 333 402
#
# _framework density 24.736359
#
# number of rings (size 3 to 8) (size 9 to 14) (size 15 to 20)
#    0.000    1.500    2.500    4.125    0.000    0.500 
#    6.750    0.625    0.000    0.000    0.000    0.000 
#    0.000    0.000    0.000    0.000    0.000    0.000 
#
# Total GULP energy -89194.232269 kJ/mol
# GULP energy per Si atom -5574.639517 kJ/mol
# Density = 2.468006 g / cm^3
# Si number density = 24.736359 Si / 1000 Ang^3
#
#
#
# Elastic Constant Matrix: (Units=GPa)
#
#
# Indices 1 2 3 4 5 6 
#
# 1 70.0754 39.7929 27.3412 -10.4033 -17.6557 16.1609
# 2 39.7929 146.0535 41.2733 -1.7928 -17.5028 19.4313
# 3 27.3412 41.2733 123.8091 -20.1732 -29.9520 13.9897
# 4 -10.4033 -1.7928 -20.1732 50.3050 15.7606 -4.1485
# 5 -17.6557 -17.5028 -29.9520 15.7606 45.3213 1.1815
# 6 16.1609 19.4313 13.9897 -4.1485 1.1815 40.9564
#
#
#
# Elastic Compliance Matrix: (Units=1/GPa)
#
#
# Indices 1 2 3 4 5 6 
#
# 1 0.019556 -0.003660 -0.000964 0.001425 0.005219 -0.005657
# 2 -0.003660 0.008823 -0.001805 -0.001826 0.001484 -0.002353
# 3 -0.000964 -0.001805 0.010820 0.002193 0.005378 -0.002392
# 4 0.001425 -0.001826 0.002193 0.023312 -0.006862 0.002114
# 5 0.005219 0.001484 0.005378 -0.006862 0.030773 -0.006183
# 6 -0.005657 -0.002353 -0.002392 0.002114 -0.006183 0.028974
#
#
# Mechanical properties :
#
#
# Convention : Reuss Voigt Hill
#
# Bulk Modulus (GPa) = 37.96557 61.86144 49.91350
# Shear Modulus (GPa) = 34.74679 42.75192 38.74935
#
# Velocity S-wave (km/s) = 3.75198 4.16180 3.96219
# Velocity P-wave (km/s) = 5.84390 6.93950 6.41513
#
# Compressibility (1/GPa) = 0.02633966
#
# Stress axis : x y z
#
# Youngs Moduli (GPa) = 51.13434 113.34425 92.41811
#
# Poissons Ratio (x) = 0.41485 0.08913
# Poissons Ratio (y) = 0.18716 0.16685
# Poissons Ratio (z) = 0.04931 0.20463
#
# Static dielectric constant tensor:
#      x y z
#    x 2.294800 0.122010 -0.043290 
#    y 0.122010 2.167340 0.056870 
#    z -0.043290 0.056870 2.023170 
# 
# From -- ./inp_files/357082.got.cif
#   From: 2010.05.17/outbox.cif.g08.bks.cpg/sg2_179_cif.got.tgz:357082.got - 2010.06.03 11:33:40.
