data_PCOD9090434
_publ_section_title
;
Structure prediction by ZEFSAII (Michael W. Deem and Ramdas Pophale) SiO2 
 PCOD9090434
Probable space group: P -1
;
_chemical_formula_sum "Si O2"
_cell_formula_units_Z 12
_cell_length_a 8.663382
_cell_length_b 9.290969
_cell_length_c 8.734239
_cell_angle_alpha 80.442902
_cell_angle_beta 137.608702
_cell_angle_gamma 85.632322
_cell_volume 446.016367
_symmetry_space_group_name_H-M "P -1"
_symmetry_group_IT_number 2
_symmetry_cell_setting 'triclinic'
loop_
_space_group_symop_operation_xyz
x,y,z
-x,-y,-z
loop_
_atom_site_type_symbol
_atom_site_label
_atom_site_fract_x
_atom_site_fract_y
_atom_site_fract_z
Si Si1 0.240543 0.895866 0.488034
Si Si2 0.867736 0.875625 0.869673
Si Si3 0.268450 0.627306 0.747025
Si Si4 0.702813 0.880094 0.074047
Si Si5 0.770787 0.637008 0.416291
Si Si6 0.362981 0.675220 0.332455
O O1 0.306185 0.790223 0.708136
O O2 0.357384 0.776199 0.460195
O O3 0.952396 0.918448 0.278216
O O4 0.241067 0.059102 0.385834
O O5 0.684820 0.876833 0.875648
O O6 0.087137 0.718693 0.064734
O O7 0.000000 0.000000 0.000000
O O8 0.215857 0.539084 0.571890
O O9 0.026257 0.646149 0.663402
O O10 0.500000 0.500000 0.000000
O O11 0.742230 0.721268 0.217616
O O12 0.500000 0.000000 0.000000
O O13 0.532429 0.715138 0.322033
O O14 0.500000 0.500000 0.500000
#
# Coordination Sequence:
#
# PCOD9090434 Si02
#       6
#     2   2   2   2   2   2
#     4   9  17  31  48  74 107 140 173 217 264 310
#     4   8  16  26  45  76 105 137 171 217 261 311
#     4  10  21  35  52  78 108 139 180 223 259 314
#     4   9  15  27  50  80 105 132 177 215 260 321
#     4  10  19  32  56  78 102 141 178 213 273 310
#     4  10  16  28  51  80 106 133 178 217 257 318
#
# _framework density 26.904843
#
# number of rings (size 3 to 8) (size 9 to 14) (size 15 to 20)
#    0.000    3.000    1.667    3.000    2.333    0.000 
#    0.000    0.833    0.000   10.000    0.000    0.000 
#    0.000    1.500    0.000    0.000    0.000    0.000 
#
# Total GULP energy -66996.647313 kJ/mol
# GULP energy per Si atom -5583.053943 kJ/mol
# Density = 2.684361 g / cm^3
# Si number density = 26.904843 Si / 1000 Ang^3
#
#
#
# Elastic Constant Matrix: (Units=GPa)
#
#
# Indices 1 2 3 4 5 6 
#
# 1 181.5174 46.0131 56.8696 -18.9970 24.4473 13.6740
# 2 46.0131 100.8645 30.6215 -21.8671 -1.3392 7.2273
# 3 56.8696 30.6215 188.3993 -50.7283 -9.1993 -4.8146
# 4 -18.9970 -21.8671 -50.7283 41.2893 -2.6148 -0.0291
# 5 24.4473 -1.3392 -9.1993 -2.6148 43.7007 -18.4120
# 6 13.6740 7.2273 -4.8146 -0.0291 -18.4120 51.8232
#
#
#
# Elastic Compliance Matrix: (Units=1/GPa)
#
#
# Indices 1 2 3 4 5 6 
#
# 1 0.008433 -0.003112 -0.003082 -0.002039 -0.007597 -0.004778
# 2 -0.003112 0.012497 0.000725 0.006248 0.002695 0.000107
# 3 -0.003082 0.000725 0.009459 0.010968 0.005959 0.003714
# 4 -0.002039 0.006248 0.010968 0.040542 0.007486 0.003368
# 5 -0.007597 0.002695 0.005959 0.007486 0.035092 0.014654
# 6 -0.004778 0.000107 0.003714 0.003368 0.014654 0.026095
#
#
# Mechanical properties :
#
#
# Convention : Reuss Voigt Hill
#
# Bulk Modulus (GPa) = 51.41101 81.97662 66.69382
# Shear Modulus (GPa) = 33.43602 49.84778 41.64190
#
# Velocity S-wave (km/s) = 3.52909 4.30902 3.93841
# Velocity P-wave (km/s) = 5.97963 7.43587 6.74715
#
# Compressibility (1/GPa) = 0.01945108
#
# Stress axis : x y z
#
# Youngs Moduli (GPa) = 118.57868 80.02222 105.71531
#
# Poissons Ratio (x) = 0.24903 0.32580
# Poissons Ratio (y) = 0.36902 -0.07663
# Poissons Ratio (z) = 0.36544 -0.05801
#
# Static dielectric constant tensor:
#      x y z
#    x 2.138500 0.036550 -0.026110 
#    y 0.036550 2.159000 0.107250 
#    z -0.026110 0.107250 2.374740 
# 
# From -- ./inp_files/387022.got.cif
#   From: 2010.05.17/outbox.cif.g08.bks.cpg/sg2_194_cif.got.tgz:387022.got - 2010.06.03 11:33:40.
