data_PCOD9090069
_publ_section_title
;
Structure prediction by ZEFSAII (Michael W. Deem and Ramdas Pophale) SiO2 
 PCOD9090069
Probable space group: P -1
;
_chemical_formula_sum "Si O2"
_cell_formula_units_Z 14
_cell_length_a 7.598342
_cell_length_b 8.262507
_cell_length_c 18.073956
_cell_angle_alpha 82.446230
_cell_angle_beta 127.102307
_cell_angle_gamma 135.160537
_cell_volume 542.384700
_symmetry_space_group_name_H-M "P -1"
_symmetry_group_IT_number 2
_symmetry_cell_setting 'triclinic'
loop_
_space_group_symop_operation_xyz
x,y,z
-x,-y,-z
loop_
_atom_site_type_symbol
_atom_site_label
_atom_site_fract_x
_atom_site_fract_y
_atom_site_fract_z
Si Si1 0.646561 0.287982 0.341179
Si Si2 0.422869 0.420814 0.069389
Si Si3 0.784688 0.170990 0.629269
Si Si4 0.521198 0.278141 0.677408
Si Si5 0.565507 0.920613 0.861993
Si Si6 0.620745 0.298957 0.871284
Si Si7 0.210017 0.341157 0.498811
O O1 0.462367 0.098821 0.232327
O O2 0.836644 0.559758 0.334000
O O3 0.997320 0.384925 0.448560
O O4 0.342315 0.064747 0.340567
O O5 0.583882 0.338590 0.131728
O O6 0.557849 0.646780 0.141687
O O7 0.500000 0.500000 0.000000
O O8 0.984472 0.161744 0.980766
O O9 0.702735 0.276542 0.657910
O O10 0.500000 0.000000 0.500000
O O11 0.681696 0.358967 0.795378
O O12 0.445093 0.416957 0.623098
O O13 0.110407 0.966867 0.591143
O O14 0.409549 0.001856 0.844432
O O15 0.000000 0.500000 0.000000
O O16 0.500000 0.500000 0.500000
#
# Coordination Sequence:
#
# PCOD9090069 Si02
#       7
#     2   2   2   2   2   2   2
#     4  11  23  42  70 102 141 194 243 299 375 450
#     4  10  24  44  69 102 144 186 248 314 369 445
#     4  11  23  42  66  98 139 187 244 301 362 440
#     4  10  21  40  62  96 139 180 241 297 363 442
#     4  10  22  45  68 102 144 187 246 307 373 448
#     4  10  21  44  75  99 140 196 244 303 381 443
#     4  10  19  38  63  91 136 180 232 300 353 434
#
# _framework density 25.811938000000001
#
# number of rings (size 3 to 8) (size 9 to 14) (size 15 to 20)
#    0.000    1.714    4.286    0.429    2.000    0.571 
#   10.286    7.143    0.000    0.000    0.000    0.000 
#    0.000    0.000    0.000    0.000    0.000    0.000 
#
# Total GULP energy -78125.460562 kJ/mol
# GULP energy per Si atom -5580.390040 kJ/mol
# Density = 2.575319 g / cm^3
# Si number density = 25.811938 Si / 1000 Ang^3
#
#
#
# Elastic Constant Matrix: (Units=GPa)
#
#
# Indices 1 2 3 4 5 6 
#
# 1 121.6705 77.3151 53.8289 -3.3651 -28.7261 -1.9512
# 2 77.3151 168.0730 47.1530 -31.6707 -9.1282 -7.9138
# 3 53.8289 47.1530 175.9296 -22.3548 -14.1160 -5.2880
# 4 -3.3651 -31.6707 -22.3548 48.4130 10.0032 5.6934
# 5 -28.7261 -9.1282 -14.1160 10.0032 52.7126 9.9058
# 6 -1.9512 -7.9138 -5.2880 5.6934 9.9058 45.7527
#
#
#
# Elastic Compliance Matrix: (Units=1/GPa)
#
#
# Indices 1 2 3 4 5 6 
#
# 1 0.016050 -0.007391 -0.003173 -0.006662 0.008241 -0.001916
# 2 -0.007391 0.010513 0.000074 0.007009 -0.003792 0.001460
# 3 -0.003173 0.000074 0.007003 0.003119 -0.000510 0.000409
# 4 -0.006662 0.007009 0.003119 0.027686 -0.006703 -0.000705
# 5 0.008241 -0.003792 -0.000510 -0.006703 0.024864 -0.004912
# 6 -0.001916 0.001460 0.000409 -0.000705 -0.004912 0.023226
#
#
# Mechanical properties :
#
#
# Convention : Reuss Voigt Hill
#
# Bulk Modulus (GPa) = 79.45325 91.36302 85.40813
# Shear Modulus (GPa) = 37.17049 48.53406 42.85227
#
# Velocity S-wave (km/s) = 3.79892 4.34094 4.07894
# Velocity P-wave (km/s) = 7.07748 7.78444 7.43936
#
# Compressibility (1/GPa) = 0.01258602
#
# Stress axis : x y z
#
# Youngs Moduli (GPa) = 62.30579 95.12475 142.80313
#
# Poissons Ratio (x) = 0.70306 0.45307
# Poissons Ratio (y) = 0.46050 -0.01058
# Poissons Ratio (z) = 0.19768 -0.00705
#
# Static dielectric constant tensor:
#      x y z
#    x 2.005640 -0.077110 0.006150 
#    y -0.077110 2.155850 0.034650 
#    z 0.006150 0.034650 2.077710 
# 
# From -- ./inp_files/557190.got.cif
#   From: 2010.05.17/outbox.cif.g08.bks.cpg/sg2_279_cif.got.tgz:557190.got - 2010.06.03 11:33:40.
