data_PCOD9090915
_publ_section_title
;
Structure prediction by ZEFSAII (Michael W. Deem and Ramdas Pophale) SiO2 
 PCOD9090915
Probable space group: P -1
;
_chemical_formula_sum "Si O2"
_cell_formula_units_Z 16
_cell_length_a 7.754581
_cell_length_b 25.933606
_cell_length_c 9.106449
_cell_angle_alpha 148.084324
_cell_angle_beta 50.572248
_cell_angle_gamma 113.488799
_cell_volume 702.172234
_symmetry_space_group_name_H-M "P -1"
_symmetry_group_IT_number 2
_symmetry_cell_setting 'triclinic'
loop_
_space_group_symop_operation_xyz
x,y,z
-x,-y,-z
loop_
_atom_site_type_symbol
_atom_site_label
_atom_site_fract_x
_atom_site_fract_y
_atom_site_fract_z
Si Si1 0.638528 0.489627 0.747339
Si Si2 0.988425 0.766211 0.432748
Si Si3 0.230157 0.861321 0.954944
Si Si4 0.474201 0.041433 0.779109
Si Si5 0.783857 0.084428 0.237938
Si Si6 0.715104 0.699399 0.181514
Si Si7 0.006456 0.291443 0.192079
Si Si8 0.137809 0.579962 0.118080
O O1 0.823219 0.373668 0.377681
O O2 0.500000 0.500000 0.000000
O O3 0.758765 0.578126 0.889760
O O4 0.422485 0.520954 0.824302
O O5 0.889654 0.749331 0.288382
O O6 0.203133 0.809731 0.443209
O O7 0.059674 0.657151 0.211518
O O8 0.758966 0.853630 0.840177
O O9 0.166723 0.917111 0.966472
O O10 0.458726 0.760791 0.539281
O O11 0.043289 0.814596 0.012081
O O12 0.315731 0.926335 0.185641
O O13 0.500000 0.000000 0.500000
O O14 0.429713 0.955513 0.702108
O O15 0.000000 0.000000 0.000000
O O16 0.742545 0.720322 0.045878
O O17 0.950707 0.349225 0.517880
O O18 0.000000 0.500000 0.000000
#
# Coordination Sequence:
#
# PCOD9090915 Si02
#       8
#     2   2   2   2   2   2   2   2
#     4  10  19  39  61  90 134 173 216 265 323 391
#     4  10  21  40  63  93 132 168 216 280 336 387
#     4  11  22  44  67  92 137 176 216 282 349 387
#     4  10  24  40  68  96 128 170 227 282 336 403
#     4  10  21  43  63  90 128 169 218 277 342 394
#     4  11  22  39  67  95 128 181 223 272 327 399
#     4  11  23  39  66  98 129 177 230 263 328 408
#     4  11  22  39  67  96 137 175 213 275 332 394
#
# _framework density 22.786431
#
# number of rings (size 3 to 8) (size 9 to 14) (size 15 to 20)
#    0.000    1.500    3.750    2.250    3.500    1.000 
#    0.000    6.250    0.000    0.000    0.000    0.000 
#    0.000    0.000    0.000    0.000    0.000    0.000 
#
# Total GULP energy -89378.711620 kJ/mol
# GULP energy per Si atom -5586.169476 kJ/mol
# Density = 2.273457 g / cm^3
# Si number density = 22.786431 Si / 1000 Ang^3
#
#
#
# Elastic Constant Matrix: (Units=GPa)
#
#
# Indices 1 2 3 4 5 6 
#
# 1 84.0150 16.5357 21.6496 17.2050 20.4304 2.4801
# 2 16.5357 132.3515 21.6744 25.2671 16.6500 13.8659
# 3 21.6496 21.6744 65.9512 5.6404 5.3834 1.7091
# 4 17.2050 25.2671 5.6404 43.3456 2.7742 4.6946
# 5 20.4304 16.6500 5.3834 2.7742 31.5409 16.2976
# 6 2.4801 13.8659 1.7091 4.6946 16.2976 41.3263
#
#
#
# Elastic Compliance Matrix: (Units=1/GPa)
#
#
# Indices 1 2 3 4 5 6 
#
# 1 0.017119 0.000931 -0.004464 -0.006443 -0.012601 0.004546
# 2 0.000931 0.009484 -0.002608 -0.005193 -0.004264 -0.000859
# 3 -0.004464 -0.002608 0.017298 0.000978 0.001339 -0.000212
# 4 -0.006443 -0.005193 0.000978 0.028523 0.006071 -0.003546
# 5 -0.012601 -0.004264 0.001339 0.006071 0.051003 -0.018672
# 6 0.004546 -0.000859 -0.000212 -0.003546 -0.018672 0.031988
#
#
# Mechanical properties :
#
#
# Convention : Reuss Voigt Hill
#
# Bulk Modulus (GPa) = 31.62642 44.67078 38.14860
# Shear Modulus (GPa) = 28.05262 38.07309 33.06285
#
# Velocity S-wave (km/s) = 3.51253 4.09206 3.81332
# Velocity P-wave (km/s) = 5.51000 6.47868 6.01387
#
# Compressibility (1/GPa) = 0.03161913
#
# Stress axis : x y z
#
# Youngs Moduli (GPa) = 58.41459 105.43889 57.81121
#
# Poissons Ratio (x) = -0.09817 0.25806
# Poissons Ratio (y) = -0.05439 0.15078
# Poissons Ratio (z) = 0.26075 0.27500
#
# Static dielectric constant tensor:
#      x y z
#    x 1.876590 0.005400 -0.071160 
#    y 0.005400 1.820810 -0.009020 
#    z -0.071160 -0.009020 1.884060 
# 
# From -- ./inp_files/226719.got.cif
#   From: 2010.05.17/outbox.cif.g08.bks.cpg/sg2_114_cif.got.tgz:226719.got - 2010.06.03 11:33:40.
