data_PCOD9090678
_publ_section_title
;
Structure prediction by ZEFSAII (Michael W. Deem and Ramdas Pophale) SiO2 
 PCOD9090678
Probable space group: P -1
;
_chemical_formula_sum "Si O2"
_cell_formula_units_Z 12
_cell_length_a 9.722996
_cell_length_b 14.487510
_cell_length_c 7.337222
_cell_angle_alpha 41.873098
_cell_angle_beta 129.476733
_cell_angle_gamma 108.630780
_cell_volume 508.173232
_symmetry_space_group_name_H-M "P -1"
_symmetry_group_IT_number 2
_symmetry_cell_setting 'triclinic'
loop_
_space_group_symop_operation_xyz
x,y,z
-x,-y,-z
loop_
_atom_site_type_symbol
_atom_site_label
_atom_site_fract_x
_atom_site_fract_y
_atom_site_fract_z
Si Si1 0.045272 0.674039 0.593098
Si Si2 0.773401 0.856823 0.824412
Si Si3 0.425864 0.919316 0.216789
Si Si4 0.656670 0.366503 0.413870
Si Si5 0.002562 0.937277 0.390992
Si Si6 0.006523 0.594295 0.185586
O O1 0.196588 0.691018 0.545236
O O2 0.060247 0.765734 0.649640
O O3 0.061898 0.504539 0.869402
O O4 0.846087 0.756295 0.208627
O O5 0.557551 0.907770 0.518837
O O6 0.861120 0.988930 0.706797
O O7 0.868794 0.752190 0.885680
O O8 0.430708 0.756047 0.413689
O O9 0.500000 0.000000 0.000000
O O10 0.209514 0.000292 0.944817
O O11 0.780662 0.402710 0.627220
O O12 0.500000 0.500000 0.000000
O O13 0.000000 0.000000 0.500000
O O14 0.000000 0.500000 0.500000
#
# Coordination Sequence:
#
# PCOD9090678 Si02
#       6
#     2   2   2   2   2   2
#     4  10  21  39  66  98 126 169 228 272 319 389
#     4  10  20  39  65  89 126 169 220 265 321 389
#     4  12  23  38  66  96 135 177 209 265 345 387
#     4  10  19  38  69  99 127 170 222 275 321 392
#     4  12  24  43  60  90 142 175 210 275 335 384
#     4   8  16  35  60  90 123 158 210 277 314 366
#
# _framework density 23.613994000000002
#
# number of rings (size 3 to 8) (size 9 to 14) (size 15 to 20)
#    0.000    2.000    5.000    3.500    0.000    0.667 
#    3.000    0.833    0.000    3.000    0.000    0.000 
#    0.000    0.000    0.000    0.000    0.000    0.000 
#
# Total GULP energy -67008.451512 kJ/mol
# GULP energy per Si atom -5584.037626 kJ/mol
# Density = 2.356025 g / cm^3
# Si number density = 23.613994 Si / 1000 Ang^3
#
#
#
# Elastic Constant Matrix: (Units=GPa)
#
#
# Indices 1 2 3 4 5 6 
#
# 1 47.6845 49.7681 13.9059 10.9338 -8.8549 11.6337
# 2 49.7681 197.6769 44.4726 -33.7398 8.7889 10.0153
# 3 13.9059 44.4726 96.0313 6.5233 20.5297 9.8430
# 4 10.9338 -33.7398 6.5233 42.7737 14.1042 1.3810
# 5 -8.8549 8.7889 20.5297 14.1042 31.0037 6.6407
# 6 11.6337 10.0153 9.8430 1.3810 6.6407 55.3884
#
#
#
# Elastic Compliance Matrix: (Units=1/GPa)
#
#
# Indices 1 2 3 4 5 6 
#
# 1 0.146747 -0.060434 -0.009113 -0.125204 0.128584 -0.030570
# 2 -0.060434 0.032022 0.000688 0.058705 -0.056078 0.012041
# 3 -0.009113 0.000688 0.014123 0.005600 -0.014896 0.000926
# 4 -0.125204 0.058705 0.005600 0.141582 -0.126147 0.026282
# 5 0.128584 -0.056078 -0.014896 -0.126147 0.158570 -0.030087
# 6 -0.030570 0.012041 0.000926 0.026282 -0.030087 0.025085
#
#
# Mechanical properties :
#
#
# Convention : Reuss Voigt Hill
#
# Bulk Modulus (GPa) = 18.12400 61.96509 40.04454
# Shear Modulus (GPa) = 7.41576 41.38292 24.39934
#
# Velocity S-wave (km/s) = 1.77404 4.19080 3.21792
# Velocity P-wave (km/s) = 3.44791 7.05088 5.54991
#
# Compressibility (1/GPa) = 0.05517547
#
# Stress axis : x y z
#
# Youngs Moduli (GPa) = 6.81444 31.22849 70.80494
#
# Poissons Ratio (x) = 1.88725 0.64525
# Poissons Ratio (y) = 0.41182 -0.04873
# Poissons Ratio (z) = 0.06210 -0.02149
#
# Static dielectric constant tensor:
#      x y z
#    x 1.972970 -0.082200 -0.026640 
#    y -0.082200 2.029500 -0.009830 
#    z -0.026640 -0.009830 1.923620 
# 
# From -- ./inp_files/266571.got.cif
#   From: 2010.05.17/outbox.cif.g08.bks.cpg/sg2_134_cif.got.tgz:266571.got - 2010.06.03 11:33:40.
