data_PCOD9090895
_publ_section_title
;
Structure prediction by ZEFSAII (Michael W. Deem and Ramdas Pophale) SiO2 
 PCOD9090895
Probable space group: P -1
;
_chemical_formula_sum "Si O2"
_cell_formula_units_Z 12
_cell_length_a 13.696579
_cell_length_b 18.553349
_cell_length_c 4.973828
_cell_angle_alpha 78.543910
_cell_angle_beta 99.970323
_cell_angle_gamma 157.730068
_cell_volume 469.258221
_symmetry_space_group_name_H-M "P -1"
_symmetry_group_IT_number 2
_symmetry_cell_setting 'triclinic'
loop_
_space_group_symop_operation_xyz
x,y,z
-x,-y,-z
loop_
_atom_site_type_symbol
_atom_site_label
_atom_site_fract_x
_atom_site_fract_y
_atom_site_fract_z
Si Si1 0.905375 0.776100 0.841830
Si Si2 0.202184 0.763410 0.223820
Si Si3 0.768591 0.120172 0.343668
Si Si4 0.598634 0.821163 0.932407
Si Si5 0.702100 0.383566 0.553964
Si Si6 0.484320 0.597913 0.762716
O O1 0.719957 0.711551 0.679334
O O2 0.044831 0.819266 0.665046
O O3 0.723339 0.599306 0.065757
O O4 0.130906 0.967630 0.981805
O O5 0.240570 0.859871 0.368781
O O6 0.976545 0.563894 0.408347
O O7 0.476184 0.911278 0.252099
O O8 0.136193 0.747919 0.907814
O O9 0.374332 0.690235 0.130643
O O10 0.512185 0.793254 0.625031
O O11 0.591664 0.728491 0.942506
O O12 0.648936 0.435944 0.476441
#
# Coordination Sequence:
#
# PCOD9090895 Si02
#       6
#     2   2   2   2   2   2
#     4  11  20  42  61  96 116 161 209 241 297 363
#     4  10  19  39  61  86 123 155 197 248 304 347
#     4  10  21  35  62  91 116 157 202 247 292 362
#     4  10  23  40  60  90 126 159 194 251 299 353
#     4  10  20  41  60  86 121 166 191 243 309 348
#     4   9  22  40  63  87 126 161 195 253 295 356
#
# _framework density 25.572274
#
# number of rings (size 3 to 8) (size 9 to 14) (size 15 to 20)
#    1.000    1.000    1.667    2.500    0.000    2.000 
#    6.000    4.167    0.000    0.000    0.000    0.000 
#    0.000    0.000    0.000    0.000    0.000    0.000 
#
# Total GULP energy -67155.014465 kJ/mol
# GULP energy per Si atom -5596.251205 kJ/mol
# Density = 2.551407 g / cm^3
# Si number density = 25.572274 Si / 1000 Ang^3
#
#
#
# Elastic Constant Matrix: (Units=GPa)
#
#
# Indices 1 2 3 4 5 6 
#
# 1 83.4159 47.7692 31.0729 -20.2013 -11.7142 1.7576
# 2 47.7692 140.6105 7.7615 -6.6306 -15.8981 -0.4347
# 3 31.0729 7.7615 93.5350 -12.3481 -2.0276 4.9979
# 4 -20.2013 -6.6306 -12.3481 33.0898 1.4410 -16.3916
# 5 -11.7142 -15.8981 -2.0276 1.4410 24.7676 -9.0208
# 6 1.7576 -0.4347 4.9979 -16.3916 -9.0208 31.3320
#
#
#
# Elastic Compliance Matrix: (Units=1/GPa)
#
#
# Indices 1 2 3 4 5 6 
#
# 1 0.021536 -0.005285 -0.005109 0.014649 0.009099 0.009817
# 2 -0.005285 0.009276 0.000927 -0.000664 0.003959 0.001069
# 3 -0.005109 0.000927 0.012498 0.001012 -0.001432 -0.001577
# 4 0.014649 -0.000664 0.001012 0.054539 0.015017 0.031864
# 5 0.009099 0.003959 -0.001432 0.015017 0.054749 0.023392
# 6 0.009817 0.001069 -0.001577 0.031864 0.023392 0.055037
#
#
# Mechanical properties :
#
#
# Convention : Reuss Voigt Hill
#
# Bulk Modulus (GPa) = 41.02384 54.52984 47.77684
# Shear Modulus (GPa) = 21.30439 33.23506 27.26973
#
# Velocity S-wave (km/s) = 2.88949 3.60898 3.26909
# Velocity P-wave (km/s) = 5.21626 6.22386 5.74220
#
# Compressibility (1/GPa) = 0.02437607
#
# Stress axis : x y z
#
# Youngs Moduli (GPa) = 46.43348 107.81065 80.01020
#
# Poissons Ratio (x) = 0.56973 0.40880
# Poissons Ratio (y) = 0.24538 -0.07416
# Poissons Ratio (z) = 0.23725 -0.09992
#
# Static dielectric constant tensor:
#      x y z
#    x 2.034140 -0.052790 0.015640 
#    y -0.052790 2.036840 -0.012190 
#    z 0.015640 -0.012190 1.940570 
# 
# From -- ./inp_files/26777.got.cif
#   From: 2010.05.17/outbox.cif.g08.bks.cpg/sg2_14_cif.got.tgz:26777.got - 2010.06.03 11:33:40.
