data_PCOD9090978
_publ_section_title
;
Structure prediction by ZEFSAII (Michael W. Deem and Ramdas Pophale) SiO2 
 PCOD9090978
Probable space group: P -1
;
_chemical_formula_sum "Si O2"
_cell_formula_units_Z 16
_cell_length_a 8.695822
_cell_length_b 19.037645
_cell_length_c 10.038904
_cell_angle_alpha 138.297390
_cell_angle_beta 80.321910
_cell_angle_gamma 129.980671
_cell_volume 670.485586
_symmetry_space_group_name_H-M "P -1"
_symmetry_group_IT_number 2
_symmetry_cell_setting 'triclinic'
loop_
_space_group_symop_operation_xyz
x,y,z
-x,-y,-z
loop_
_atom_site_type_symbol
_atom_site_label
_atom_site_fract_x
_atom_site_fract_y
_atom_site_fract_z
Si Si1 0.506538 0.352276 0.931096
Si Si2 0.583797 0.833679 0.067033
Si Si3 0.074355 0.287599 0.969654
Si Si4 0.947859 0.866538 0.735321
Si Si5 0.558995 0.430049 0.482576
Si Si6 0.949637 0.304999 0.542301
Si Si7 0.459539 0.993381 0.340405
Si Si8 0.855838 0.467300 0.843199
O O1 0.449962 0.228874 0.868919
O O2 0.281412 0.315949 0.924857
O O3 0.771716 0.546207 0.219109
O O4 0.574622 0.342478 0.762627
O O5 0.479820 0.689265 0.777818
O O6 0.433627 0.860557 0.101498
O O7 0.879510 0.021148 0.260854
O O8 0.181344 0.402995 0.247869
O O9 0.039669 0.364786 0.980588
O O10 0.806420 0.090818 0.760177
O O11 0.049658 0.807076 0.692764
O O12 0.646281 0.694202 0.544999
O O13 0.000000 0.000000 0.000000
O O14 0.500000 0.500000 0.500000
O O15 0.906550 0.402080 0.634707
O O16 0.707560 0.169929 0.484051
O O17 0.500000 0.000000 0.500000
O O18 0.000000 0.500000 0.000000
#
# Coordination Sequence:
#
# PCOD9090978 Si02
#       8
#     2   2   2   2   2   2   2   2
#     4  11  20  40  67  99 126 176 226 272 323 398
#     4  10  21  40  70  93 135 179 211 272 345 389
#     4  12  24  40  68 101 132 174 231 272 329 396
#     4   9  19  36  65  95 122 171 216 265 325 380
#     4  11  21  42  69 100 132 170 222 283 329 391
#     4  10  19  39  62  88 128 175 204 266 333 382
#     4  11  23  41  60  93 137 176 213 271 333 394
#     4  10  22  39  64  92 133 173 218 268 327 394
#
# _framework density 23.863301
#
# number of rings (size 3 to 8) (size 9 to 14) (size 15 to 20)
#    0.000    1.500    2.500    4.125    0.000    0.500 
#    2.250    1.250    0.000    6.000    0.000    0.000 
#    0.000    0.000    0.000    0.000    0.000    0.000 
#
# Total GULP energy -89259.281315 kJ/mol
# GULP energy per Si atom -5578.705082 kJ/mol
# Density = 2.380899 g / cm^3
# Si number density = 23.863301 Si / 1000 Ang^3
#
#
#
# Elastic Constant Matrix: (Units=GPa)
#
#
# Indices 1 2 3 4 5 6 
#
# 1 117.0859 15.4413 43.0794 12.8790 -21.5194 22.6366
# 2 15.4413 86.3155 19.5549 31.3888 19.6480 16.1686
# 3 43.0794 19.5549 89.1422 17.2639 -3.1417 16.2430
# 4 12.8790 31.3888 17.2639 35.3416 14.0351 5.1794
# 5 -21.5194 19.6480 -3.1417 14.0351 51.3042 -2.1079
# 6 22.6366 16.1686 16.2430 5.1794 -2.1079 42.8616
#
#
#
# Elastic Compliance Matrix: (Units=1/GPa)
#
#
# Indices 1 2 3 4 5 6 
#
# 1 0.012478 -0.000494 -0.004226 -0.003856 0.006053 -0.004039
# 2 -0.000494 0.018651 -0.000343 -0.013971 -0.003760 -0.005142
# 3 -0.004226 -0.000343 0.014851 -0.005268 0.000602 -0.002601
# 4 -0.003856 -0.013971 -0.005268 0.048056 -0.009612 0.003023
# 5 0.006053 -0.003760 0.000602 -0.009612 0.026155 0.000441
# 6 -0.004039 -0.005142 -0.002601 0.003023 0.000441 0.028045
#
#
# Mechanical properties :
#
#
# Convention : Reuss Voigt Hill
#
# Bulk Modulus (GPa) = 27.89006 49.85499 38.87253
# Shear Modulus (GPa) = 29.35758 40.19934 34.77846
#
# Velocity S-wave (km/s) = 3.51128 4.10880 3.82174
# Velocity P-wave (km/s) = 5.30581 6.59143 5.98325
#
# Compressibility (1/GPa) = 0.03585506
#
# Stress axis : x y z
#
# Youngs Moduli (GPa) = 80.13931 53.61654 67.33644
#
# Poissons Ratio (x) = 0.02648 0.28455
# Poissons Ratio (y) = 0.03958 0.02308
# Poissons Ratio (z) = 0.33866 0.01837
#
# Static dielectric constant tensor:
#      x y z
#    x 1.961020 0.051800 -0.034700 
#    y 0.051800 1.996870 -0.023370 
#    z -0.034700 -0.023370 1.955230 
# 
# From -- ./inp_files/404931.got.cif
#   From: 2010.05.17/outbox.cif.g08.bks.cpg/sg2_203_cif.got.tgz:404931.got - 2010.06.03 11:33:40.
