data_PCOD9090380
_publ_section_title
;
Structure prediction by ZEFSAII (Michael W. Deem and Ramdas Pophale) SiO2 
 PCOD9090380
Probable space group: P -1
;
_chemical_formula_sum "Si O2"
_cell_formula_units_Z 16
_cell_length_a 19.328390
_cell_length_b 11.388277
_cell_length_c 15.365651
_cell_angle_alpha 152.259768
_cell_angle_beta 149.147674
_cell_angle_gamma 25.060367
_cell_volume 638.620552
_symmetry_space_group_name_H-M "P -1"
_symmetry_group_IT_number 2
_symmetry_cell_setting 'triclinic'
loop_
_space_group_symop_operation_xyz
x,y,z
-x,-y,-z
loop_
_atom_site_type_symbol
_atom_site_label
_atom_site_fract_x
_atom_site_fract_y
_atom_site_fract_z
Si Si1 0.193283 0.489465 0.252895
Si Si2 0.391944 0.713793 0.147568
Si Si3 0.540555 0.162909 0.347850
Si Si4 0.066325 0.788092 0.596667
Si Si5 0.663740 0.345007 0.328634
Si Si6 0.349469 0.301232 0.701307
Si Si7 0.037151 0.364356 0.150536
Si Si8 0.305643 0.186610 0.885787
O O1 0.353519 0.241151 0.201519
O O2 0.286798 0.501139 0.446824
O O3 0.079251 0.407922 0.125204
O O4 0.085882 0.836928 0.320346
O O5 0.471498 0.567303 0.231696
O O6 0.512385 0.794840 0.288327
O O7 0.198028 0.023124 0.133686
O O8 0.399521 0.453129 0.927060
O O9 0.500000 0.500000 0.500000
O O10 0.625832 0.997346 0.423383
O O11 0.672871 0.900044 0.249017
O O12 0.221404 0.761369 0.702162
O O13 0.157668 0.571714 0.638344
O O14 0.029719 0.606719 0.369826
O O15 0.728829 0.023465 0.234308
O O16 0.850193 0.456026 0.021275
O O17 0.500000 0.000000 0.000000
#
# Coordination Sequence:
#
# PCOD9090380 Si02
#       8
#     2   2   2   2   2   2   2   2
#     4  11  20  40  69 101 125 168 234 269 311 384
#     4  10  22  39  67  96 135 170 220 269 328 386
#     4  12  24  42  66  94 136 174 216 263 333 392
#     4  10  20  37  70  96 131 160 228 280 313 370
#     4  10  19  38  65  94 128 169 216 273 319 375
#     4  10  23  41  59 102 138 170 208 278 334 380
#     4  11  21  41  67  99 124 173 230 267 314 393
#     4  12  25  42  62  94 138 175 211 267 335 399
#
# _framework density 25.054002000000001
#
# number of rings (size 3 to 8) (size 9 to 14) (size 15 to 20)
#    0.000    1.250    5.000    1.500    1.750    2.500 
#    0.000    7.500    0.000    0.000    0.000    0.000 
#    0.000    0.000    0.000    0.000    0.000    0.000 
#
# Total GULP energy -89384.941604 kJ/mol
# GULP energy per Si atom -5586.558850 kJ/mol
# Density = 2.499698 g / cm^3
# Si number density = 25.054002 Si / 1000 Ang^3
#
#
#
# Elastic Constant Matrix: (Units=GPa)
#
#
# Indices 1 2 3 4 5 6 
#
# 1 86.0545 67.1604 5.3608 -5.4835 -7.0228 1.3784
# 2 67.1604 220.3712 8.9967 -7.6000 3.0640 1.7509
# 3 5.3608 8.9967 44.7028 -7.6216 -11.1961 8.8883
# 4 -5.4835 -7.6000 -7.6216 24.8385 -1.3867 1.1205
# 5 -7.0228 3.0640 -11.1961 -1.3867 19.9587 -3.9383
# 6 1.3784 1.7509 8.8883 1.1205 -3.9383 57.1441
#
#
#
# Elastic Compliance Matrix: (Units=1/GPa)
#
#
# Indices 1 2 3 4 5 6 
#
# 1 0.016239 -0.005011 0.001433 0.002910 0.007489 -0.000002
# 2 -0.005011 0.006181 -0.001495 0.000131 -0.003558 -0.000084
# 3 0.001433 -0.001495 0.029177 0.009926 0.017091 -0.003544
# 4 0.002910 0.000131 0.009926 0.044591 0.009305 -0.001851
# 5 0.007489 -0.003558 0.017091 0.009305 0.063812 0.001485
# 6 -0.000002 -0.000084 -0.003544 -0.001851 0.001485 0.018192
#
#
# Mechanical properties :
#
#
# Convention : Reuss Voigt Hill
#
# Bulk Modulus (GPa) = 24.12542 57.12935 40.62739
# Shear Modulus (GPa) = 24.73360 38.36230 31.54795
#
# Velocity S-wave (km/s) = 3.14540 3.91728 3.55237
# Velocity P-wave (km/s) = 4.77930 6.58119 5.75125
#
# Compressibility (1/GPa) = 0.04145005
#
# Stress axis : x y z
#
# Youngs Moduli (GPa) = 61.58080 161.79333 34.27414
#
# Poissons Ratio (x) = 0.81078 -0.04913
# Poissons Ratio (y) = 0.30860 0.05124
# Poissons Ratio (z) = -0.08827 0.24190
#
# Static dielectric constant tensor:
#      x y z
#    x 2.086350 -0.047520 0.047940 
#    y -0.047520 2.025860 -0.076810 
#    z 0.047940 -0.076810 2.149530 
# 
# From -- ./inp_files/223228.got.cif
#   From: 2010.05.17/outbox.cif.g08.bks.cpg/sg2_112_cif.got.tgz:223228.got - 2010.06.03 11:33:40.
