data_PCOD9090547
_publ_section_title
;
Structure prediction by ZEFSAII (Michael W. Deem and Ramdas Pophale) SiO2 
 PCOD9090547
Probable space group: P -1
;
_chemical_formula_sum "Si O2"
_cell_formula_units_Z 12
_cell_length_a 12.849466
_cell_length_b 14.031254
_cell_length_c 11.031689
_cell_angle_alpha 29.572029
_cell_angle_beta 35.580607
_cell_angle_gamma 35.171675
_cell_volume 527.501385
_symmetry_space_group_name_H-M "P -1"
_symmetry_group_IT_number 2
_symmetry_cell_setting 'triclinic'
loop_
_space_group_symop_operation_xyz
x,y,z
-x,-y,-z
loop_
_atom_site_type_symbol
_atom_site_label
_atom_site_fract_x
_atom_site_fract_y
_atom_site_fract_z
Si Si1 0.076349 0.255653 0.720740
Si Si2 0.361333 0.236294 0.673014
Si Si3 0.016307 0.454830 0.176841
Si Si4 0.326411 0.618286 0.695599
Si Si5 0.031387 0.074143 0.706556
Si Si6 0.654402 0.186319 0.784162
O O1 0.000000 0.500000 0.500000
O O2 0.277461 0.209890 0.651350
O O3 0.083733 0.152045 0.697727
O O4 0.941195 0.164321 0.027695
O O5 0.550621 0.290349 0.437203
O O6 0.190833 0.424620 0.695827
O O7 0.391088 0.020820 0.950646
O O8 0.104817 0.206265 0.395705
O O9 0.151372 0.570720 0.968447
O O10 0.000000 0.500000 0.000000
O O11 0.468549 0.391777 0.762149
O O12 0.264201 0.769281 0.469990
O O13 0.808953 0.154523 0.780342
#
# Coordination Sequence:
#
# PCOD9090547 Si02
#       6
#     2   2   2   2   2   2
#     4  10  19  38  67  84 115 165 212 247 289 362
#     4  11  23  40  61  91 121 163 208 243 306 358
#     4  12  22  39  63  93 129 159 196 253 308 364
#     4  11  21  38  60  88 130 158 197 251 305 361
#     4  10  20  38  63  89 117 165 205 243 306 354
#     4  10  20  40  60  86 125 168 197 247 301 364
#
# _framework density 22.748756
#
# number of rings (size 3 to 8) (size 9 to 14) (size 15 to 20)
#    0.000    1.333    5.000    1.500    0.000    0.667 
#    6.000    0.833    0.000    6.000    0.000    0.000 
#    0.000    0.000    0.000    0.000    0.000    0.000 
#
# Total GULP energy -66927.225395 kJ/mol
# GULP energy per Si atom -5577.268783 kJ/mol
# Density = 2.269698 g / cm^3
# Si number density = 22.748756 Si / 1000 Ang^3
#
#
#
# Elastic Constant Matrix: (Units=GPa)
#
#
# Indices 1 2 3 4 5 6 
#
# 1 152.9008 20.3916 49.4963 1.8717 -14.4674 -0.5038
# 2 20.3916 21.8874 26.9338 -13.8772 -5.1909 7.0540
# 3 49.4963 26.9338 212.0755 -39.2832 -16.9969 -6.5851
# 4 1.8717 -13.8772 -39.2832 37.9798 -3.6668 -0.3605
# 5 -14.4674 -5.1909 -16.9969 -3.6668 47.7091 -5.2696
# 6 -0.5038 7.0540 -6.5851 -0.3605 -5.2696 17.3625
#
#
#
# Elastic Compliance Matrix: (Units=1/GPa)
#
#
# Indices 1 2 3 4 5 6 
#
# 1 0.008697 -0.011240 -0.001495 -0.005952 0.000911 0.004405
# 2 -0.011240 0.094327 -0.004741 0.030055 0.003184 -0.038857
# 3 -0.001495 -0.004741 0.007177 0.006075 0.002667 0.005540
# 4 -0.005952 0.030055 0.006075 0.044422 0.006242 -0.007262
# 5 0.000911 0.003184 0.002667 0.006242 0.023797 0.007096
# 6 0.004405 -0.038857 0.005540 -0.007262 0.007096 0.077614
#
#
# Mechanical properties :
#
#
# Convention : Reuss Voigt Hill
#
# Bulk Modulus (GPa) = 13.28901 64.50079 38.89490
# Shear Modulus (GPa) = 15.81935 39.94640 27.88287
#
# Velocity S-wave (km/s) = 2.63989 4.19499 3.50478
# Velocity P-wave (km/s) = 3.89183 7.20271 5.78901
#
# Compressibility (1/GPa) = 0.07525015
#
# Stress axis : x y z
#
# Youngs Moduli (GPa) = 114.98604 10.60139 139.32660
#
# Poissons Ratio (x) = 0.11916 0.20829
# Poissons Ratio (y) = 1.29245 0.66049
# Poissons Ratio (z) = 0.17190 0.05026
#
# Static dielectric constant tensor:
#      x y z
#    x 1.886440 -0.015530 0.026110 
#    y -0.015530 1.913590 -0.048180 
#    z 0.026110 -0.048180 1.924250 
# 
# From -- ./inp_files/271885.got.cif
#   From: 2010.05.17/outbox.cif.g08.bks.cpg/sg2_136_cif.got.tgz:271885.got - 2010.06.03 11:33:40.
