data_PCOD9090445
_publ_section_title
;
Structure prediction by ZEFSAII (Michael W. Deem and Ramdas Pophale) SiO2 
 PCOD9090445
Probable space group: P -1
;
_chemical_formula_sum "Si O2"
_cell_formula_units_Z 16
_cell_length_a 20.197516
_cell_length_b 10.585547
_cell_length_c 10.247883
_cell_angle_alpha 63.120365
_cell_angle_beta 43.403172
_cell_angle_gamma 31.918839
_cell_volume 709.640871
_symmetry_space_group_name_H-M "P -1"
_symmetry_group_IT_number 2
_symmetry_cell_setting 'triclinic'
loop_
_space_group_symop_operation_xyz
x,y,z
-x,-y,-z
loop_
_atom_site_type_symbol
_atom_site_label
_atom_site_fract_x
_atom_site_fract_y
_atom_site_fract_z
Si Si1 0.188202 0.397697 0.525239
Si Si2 0.066167 0.496202 0.278406
Si Si3 0.602198 0.268945 0.063004
Si Si4 0.662628 0.356765 0.523028
Si Si5 0.586705 0.968505 0.148209
Si Si6 0.077304 0.050257 0.417924
Si Si7 0.076307 0.064203 0.850802
Si Si8 0.180922 0.523180 0.768166
O O1 0.177490 0.471848 0.651207
O O2 0.070599 0.403495 0.678738
O O3 0.089949 0.636640 0.463585
O O4 0.399047 0.123583 0.314752
O O5 0.000000 0.500000 0.500000
O O6 0.038214 0.697205 0.199876
O O7 0.274220 0.193969 0.095253
O O8 0.537563 0.397188 0.239595
O O9 0.544155 0.178870 0.163839
O O10 0.500000 0.500000 0.000000
O O11 0.807122 0.026580 0.831036
O O12 0.716782 0.453461 0.382674
O O13 0.795375 0.133311 0.553478
O O14 0.723044 0.199495 0.378410
O O15 0.702123 0.735642 0.196461
O O16 0.000000 0.000000 0.500000
O O17 0.016874 0.205652 0.008302
O O18 0.000000 0.000000 0.000000
#
# Coordination Sequence:
#
# PCOD9090445 Si02
#       8
#     2   2   2   2   2   2   2   2
#     4  12  22  39  68  99 129 168 219 279 320 394
#     4  11  25  44  68  96 132 171 218 279 333 394
#     4  10  20  35  61  95 126 169 213 274 323 376
#     4  10  19  38  66  89 128 171 215 262 326 385
#     4  11  23  41  64  99 130 168 218 267 335 384
#     4  11  20  36  59  98 127 163 224 272 322 383
#     4   9  21  40  63  88 127 179 212 256 330 392
#     4  10  21  39  66  95 130 172 214 266 320 391
#
# _framework density 22.546617999999999
#
# number of rings (size 3 to 8) (size 9 to 14) (size 15 to 20)
#    0.000    1.500    3.750    1.875    1.750    2.500 
#    0.000    0.000    0.000    4.500    0.000    0.000 
#    0.000    0.000    0.000    0.000    0.000    0.000 
#
# Total GULP energy -89309.213816 kJ/mol
# GULP energy per Si atom -5581.825864 kJ/mol
# Density = 2.249530 g / cm^3
# Si number density = 22.546618 Si / 1000 Ang^3
#
#
#
# Elastic Constant Matrix: (Units=GPa)
#
#
# Indices 1 2 3 4 5 6 
#
# 1 39.3591 14.2867 27.9936 1.0470 2.2025 6.0738
# 2 14.2867 116.6381 23.6409 -8.4231 1.9198 9.0253
# 3 27.9936 23.6409 139.8970 15.9985 17.0613 7.7206
# 4 1.0470 -8.4231 15.9985 43.2846 -1.0650 0.3826
# 5 2.2025 1.9198 17.0613 -1.0650 33.8830 4.2380
# 6 6.0738 9.0253 7.7206 0.3826 4.2380 21.9815
#
#
#
# Elastic Compliance Matrix: (Units=1/GPa)
#
#
# Indices 1 2 3 4 5 6 
#
# 1 0.031168 -0.002103 -0.005902 0.001117 0.001857 -0.006053
# 2 -0.002103 0.009513 -0.001394 0.002462 0.000755 -0.003024
# 3 -0.005902 -0.001394 0.009549 -0.003765 -0.004435 -0.000230
# 4 0.001117 0.002462 -0.003765 0.025018 0.002586 -0.000932
# 5 0.001857 0.000755 -0.004435 0.002586 0.032358 -0.005549
# 6 -0.006053 -0.003024 -0.000230 -0.000932 -0.005549 0.049574
#
#
# Mechanical properties :
#
#
# Convention : Reuss Voigt Hill
#
# Bulk Modulus (GPa) = 31.81312 47.52629 39.66971
# Shear Modulus (GPa) = 26.81609 35.16134 30.98871
#
# Velocity S-wave (km/s) = 3.45245 3.95333 3.71135
# Velocity P-wave (km/s) = 5.48025 6.47791 5.99985
#
# Compressibility (1/GPa) = 0.03143357
#
# Stress axis : x y z
#
# Youngs Moduli (GPa) = 32.08377 105.11988 104.72659
#
# Poissons Ratio (x) = 0.22107 0.61806
# Poissons Ratio (y) = 0.06747 0.14594
# Poissons Ratio (z) = 0.18935 0.14649
#
# Static dielectric constant tensor:
#      x y z
#    x 1.881860 0.016290 0.039740 
#    y 0.016290 1.874760 0.076820 
#    z 0.039740 0.076820 1.969040 
# 
# From -- ./inp_files/388144.got.cif
#   From: 2010.05.17/outbox.cif.g08.bks.cpg/sg2_195_cif.got.tgz:388144.got - 2010.06.03 11:33:40.
