data_PCOD9090090
_publ_section_title
;
Structure prediction by ZEFSAII (Michael W. Deem and Ramdas Pophale) SiO2 
 PCOD9090090
Probable space group: P -1
;
_chemical_formula_sum "Si O2"
_cell_formula_units_Z 14
_cell_length_a 8.394539
_cell_length_b 9.565813
_cell_length_c 18.443339
_cell_angle_alpha 46.025687
_cell_angle_beta 117.831554
_cell_angle_gamma 82.312199
_cell_volume 654.499417
_symmetry_space_group_name_H-M "P -1"
_symmetry_group_IT_number 2
_symmetry_cell_setting 'triclinic'
loop_
_space_group_symop_operation_xyz
x,y,z
-x,-y,-z
loop_
_atom_site_type_symbol
_atom_site_label
_atom_site_fract_x
_atom_site_fract_y
_atom_site_fract_z
Si Si1 0.187672 0.634899 0.356031
Si Si2 0.947118 0.153254 0.198539
Si Si3 0.329591 0.218494 0.820522
Si Si4 0.439055 0.829951 0.519209
Si Si5 0.522752 0.259812 0.163175
Si Si6 0.289392 0.695892 0.670044
Si Si7 0.689555 0.722554 0.366366
O O1 0.358503 0.421778 0.403392
O O2 0.330935 0.454576 0.526114
O O3 0.922966 0.718046 0.262613
O O4 0.092400 0.928644 0.244730
O O5 0.740351 0.160626 0.187003
O O6 0.764948 0.473874 0.022200
O O7 0.160784 0.044541 0.342234
O O8 0.265440 0.486464 0.731855
O O9 0.439035 0.157290 0.783528
O O10 0.500000 0.000000 0.000000
O O11 0.426867 0.693529 0.633266
O O12 0.500000 0.000000 0.500000
O O13 0.566985 0.358863 0.206362
O O14 0.584918 0.988947 0.292135
O O15 0.000000 0.000000 0.500000
O O16 0.000000 0.500000 0.500000
#
# Coordination Sequence:
#
# PCOD9090090 Si02
#       7
#     2   2   2   2   2   2   2
#     4  11  23  44  66  97 135 176 227 271 337 408
#     4  11  23  41  66  96 131 176 219 280 332 394
#     4  11  23  39  66 102 132 169 222 281 333 384
#     4  12  26  44  67 100 139 181 223 280 342 399
#     4  11  22  39  67  98 130 165 231 275 327 388
#     4  12  23  41  68  99 132 176 226 277 329 402
#     4  10  19  38  63  93 128 169 223 267 319 400
#
# _framework density 21.390391999999999
#
# number of rings (size 3 to 8) (size 9 to 14) (size 15 to 20)
#    0.000    0.857    4.286    5.571    2.000    0.000 
#    0.000    7.143    0.000    0.000    0.000    0.000 
#    0.000    0.000    0.000    0.000    0.000    0.000 
#
# Total GULP energy -78246.203689 kJ/mol
# GULP energy per Si atom -5589.014549 kJ/mol
# Density = 2.134171 g / cm^3
# Si number density = 21.390392 Si / 1000 Ang^3
#
#
#
# Elastic Constant Matrix: (Units=GPa)
#
#
# Indices 1 2 3 4 5 6 
#
# 1 34.1630 26.4549 33.5602 -10.9336 1.0550 -13.0347
# 2 26.4549 117.6748 30.0066 -6.7215 8.9174 6.3767
# 3 33.5602 30.0066 90.7362 -2.3421 7.1803 6.1561
# 4 -10.9336 -6.7215 -2.3421 39.1582 0.9386 -10.4406
# 5 1.0550 8.9174 7.1803 0.9386 25.0190 -2.3631
# 6 -13.0347 6.3767 6.1561 -10.4406 -2.3631 50.2787
#
#
#
# Elastic Compliance Matrix: (Units=1/GPa)
#
#
# Indices 1 2 3 4 5 6 
#
# 1 0.102026 -0.015126 -0.035696 0.034221 0.013875 0.040497
# 2 -0.015126 0.011790 0.002431 -0.003730 -0.004756 -0.006712
# 3 -0.035696 0.002431 0.024748 -0.012006 -0.007472 -0.015437
# 4 0.034221 -0.003730 -0.012006 0.038719 0.003677 0.019028
# 5 0.013875 -0.004756 -0.007472 0.003677 0.043836 0.007939
# 6 0.040497 -0.006712 -0.015437 0.019028 0.007939 0.037454
#
#
# Mechanical properties :
#
#
# Convention : Reuss Voigt Hill
#
# Bulk Modulus (GPa) = 23.93335 46.95748 35.44541
# Shear Modulus (GPa) = 13.53980 33.06133 23.30057
#
# Velocity S-wave (km/s) = 2.51865 3.93570 3.30404
# Velocity P-wave (km/s) = 4.43523 6.53094 5.58231
#
# Compressibility (1/GPa) = 0.04178271
#
# Stress axis : x y z
#
# Youngs Moduli (GPa) = 9.80144 84.82030 40.40664
#
# Poissons Ratio (x) = 1.28297 1.44236
# Poissons Ratio (y) = 0.14825 -0.09823
# Poissons Ratio (z) = 0.34987 -0.20621
#
# Static dielectric constant tensor:
#      x y z
#    x 1.801610 -0.030660 -0.010620 
#    y -0.030660 1.778490 0.029710 
#    z -0.010620 0.029710 1.773430 
# 
# From -- ./inp_files/205051.got.cif
#   From: 2010.05.17/outbox.cif.g08.bks.cpg/sg2_103_cif.got.tgz:205051.got - 2010.06.03 11:33:40.
