data_PCOD9090082
_publ_section_title
;
Structure prediction by ZEFSAII (Michael W. Deem and Ramdas Pophale) SiO2 
 PCOD9090082
Probable space group: P -1
;
_chemical_formula_sum "Si O2"
_cell_formula_units_Z 14
_cell_length_a 8.347953
_cell_length_b 6.743604
_cell_length_c 15.748171
_cell_angle_alpha 125.951006
_cell_angle_beta 62.413075
_cell_angle_gamma 124.769311
_cell_volume 578.464656
_symmetry_space_group_name_H-M "P -1"
_symmetry_group_IT_number 2
_symmetry_cell_setting 'triclinic'
loop_
_space_group_symop_operation_xyz
x,y,z
-x,-y,-z
loop_
_atom_site_type_symbol
_atom_site_label
_atom_site_fract_x
_atom_site_fract_y
_atom_site_fract_z
Si Si1 0.354844 0.463336 0.776284
Si Si2 0.579517 0.009520 0.361444
Si Si3 0.543945 0.286994 0.018317
Si Si4 0.055753 0.535329 0.128620
Si Si5 0.860392 0.581111 0.494088
Si Si6 0.834781 0.121164 0.649015
Si Si7 0.297526 0.950032 0.848434
O O1 0.402519 0.742318 0.785442
O O2 0.118671 0.369307 0.827821
O O3 0.391070 0.233335 0.660026
O O4 0.479562 0.544296 0.853887
O O5 0.674883 0.302619 0.451397
O O6 0.691276 0.014853 0.245795
O O7 0.351301 0.925752 0.376395
O O8 0.775204 0.415023 0.968304
O O9 0.406003 0.205978 0.947752
O O10 0.500000 0.000000 0.000000
O O11 0.165579 0.707703 0.226332
O O12 0.925607 0.225834 0.108576
O O13 0.000000 0.500000 0.500000
O O14 0.968539 0.702760 0.408594
O O15 0.825956 0.830901 0.603154
#
# Coordination Sequence:
#
# PCOD9090082 Si02
#       7
#     2   2   2   2   2   2   2
#     4   9  22  36  61  90 127 158 213 246 293 370
#     4  12  22  43  62  94 122 162 203 254 315 359
#     4  10  19  38  63  93 122 171 205 251 303 352
#     4  10  19  41  61  89 127 163 202 253 302 360
#     4  11  25  44  66  93 121 158 210 251 315 370
#     4  11  24  42  66  91 126 161 202 258 304 375
#     4   9  21  37  61  86 129 160 201 253 304 351
#
# _framework density 24.201996000000001
#
# number of rings (size 3 to 8) (size 9 to 14) (size 15 to 20)
#    0.857    0.857    2.857    1.714    0.000    2.286 
#    5.143    0.714    0.000    0.000    0.000    0.000 
#    0.000    0.000    0.000    0.000    0.000    0.000 
#
# Total GULP energy -78257.568042 kJ/mol
# GULP energy per Si atom -5589.826289 kJ/mol
# Density = 2.414691 g / cm^3
# Si number density = 24.201996 Si / 1000 Ang^3
#
#
#
# Elastic Constant Matrix: (Units=GPa)
#
#
# Indices 1 2 3 4 5 6 
#
# 1 80.6821 13.3147 20.4445 19.7431 3.9896 8.2988
# 2 13.3147 78.1089 48.2950 19.9847 -4.9970 10.8877
# 3 20.4445 48.2950 71.3950 23.2178 10.0807 10.1338
# 4 19.7431 19.9847 23.2178 47.5003 -0.6020 0.4207
# 5 3.9896 -4.9970 10.0807 -0.6020 40.5796 7.3009
# 6 8.2988 10.8877 10.1338 0.4207 7.3009 43.9124
#
#
#
# Elastic Compliance Matrix: (Units=1/GPa)
#
#
# Indices 1 2 3 4 5 6 
#
# 1 0.014406 0.000737 -0.002640 -0.004992 -0.000350 -0.002190
# 2 0.000737 0.024568 -0.016623 -0.002388 0.007704 -0.003652
# 3 -0.002640 -0.016623 0.029465 -0.006421 -0.009093 -0.000606
# 4 -0.004992 -0.002388 -0.006421 0.027271 0.001753 0.002465
# 5 -0.000350 0.007704 -0.009093 0.001753 0.028727 -0.004539
# 6 -0.002190 -0.003652 -0.000606 0.002465 -0.004539 0.024963
#
#
# Mechanical properties :
#
#
# Convention : Reuss Voigt Hill
#
# Bulk Modulus (GPa) = 31.86015 43.81049 37.83532
# Shear Modulus (GPa) = 25.39172 36.27390 30.83281
#
# Velocity S-wave (km/s) = 3.24259 3.87563 3.57316
# Velocity P-wave (km/s) = 5.21651 6.17808 5.71755
#
# Compressibility (1/GPa) = 0.03138717
#
# Stress axis : x y z
#
# Youngs Moduli (GPa) = 69.41617 40.70363 33.93835
#
# Poissons Ratio (x) = -0.02999 0.08959
# Poissons Ratio (y) = -0.05114 0.56415
# Poissons Ratio (z) = 0.18325 0.67661
#
# Static dielectric constant tensor:
#      x y z
#    x 1.914730 -0.026430 0.002580 
#    y -0.026430 1.959440 -0.018610 
#    z 0.002580 -0.018610 1.934900 
# 
# From -- ./inp_files/553924.got.cif
#   From: 2010.05.17/outbox.cif.g08.bks.cpg/sg2_277_cif.got.tgz:553924.got - 2010.06.03 11:33:40.
