data_PCOD9090225
_publ_section_title
;
Structure prediction by ZEFSAII (Michael W. Deem and Ramdas Pophale) SiO2 
 PCOD9090225
Probable space group: P -1
;
_chemical_formula_sum "Si O2"
_cell_formula_units_Z 16
_cell_length_a 11.732351
_cell_length_b 6.454413
_cell_length_c 11.351092
_cell_angle_alpha 73.020679
_cell_angle_beta 108.160336
_cell_angle_gamma 80.532343
_cell_volume 749.637200
_symmetry_space_group_name_H-M "P -1"
_symmetry_group_IT_number 2
_symmetry_cell_setting 'triclinic'
loop_
_space_group_symop_operation_xyz
x,y,z
-x,-y,-z
loop_
_atom_site_type_symbol
_atom_site_label
_atom_site_fract_x
_atom_site_fract_y
_atom_site_fract_z
Si Si1 0.691022 0.648453 0.938768
Si Si2 0.854587 0.319760 0.395284
Si Si3 0.398610 0.631495 0.213103
Si Si4 0.806796 0.774534 0.179722
Si Si5 0.997090 0.022620 0.695601
Si Si6 0.392803 0.822768 0.598274
Si Si7 0.552842 0.985581 0.178888
Si Si8 0.262734 0.994555 0.289141
O O1 0.678947 0.421244 0.913693
O O2 0.553039 0.782284 0.919471
O O3 0.718605 0.802396 0.816635
O O4 0.786611 0.654533 0.072097
O O5 0.835436 0.580253 0.320041
O O6 0.936033 0.227689 0.551947
O O7 0.721962 0.270412 0.380776
O O8 0.922467 0.174766 0.329670
O O9 0.485644 0.392795 0.329302
O O10 0.488899 0.783806 0.181609
O O11 0.306951 0.772026 0.259175
O O12 0.674774 0.944821 0.146121
O O13 0.914415 0.898281 0.197558
O O14 0.880203 0.960443 0.725809
O O15 0.411438 0.992329 0.676896
O O16 0.350876 0.944808 0.440865
#
# Coordination Sequence:
#
# PCOD9090225 Si02
#       8
#     2   2   2   2   2   2   2   2
#     4  10  25  40  58  90 127 164 203 241 295 365
#     4  10  21  39  63  95 119 153 202 255 306 349
#     4  10  21  39  60  91 121 162 204 244 303 356
#     4  12  22  40  65  90 122 162 202 248 303 360
#     4  10  23  41  63  90 123 155 203 255 299 353
#     4  10  19  38  64  93 121 150 202 258 306 351
#     4  10  21  38  63  96 120 156 199 257 307 351
#     4  10  23  41  60  88 126 163 196 248 299 363
#
# _framework density 21.343658999999999
#
# number of rings (size 3 to 8) (size 9 to 14) (size 15 to 20)
#    0.000    1.750    2.500    1.125    0.000    9.500 
#    0.000    1.250    0.000    0.000    0.000    0.000 
#    0.000    0.000    0.000    0.000    0.000    0.000 
#
# Total GULP energy -89482.421976 kJ/mol
# GULP energy per Si atom -5592.651373 kJ/mol
# Density = 2.129508 g / cm^3
# Si number density = 21.343659 Si / 1000 Ang^3
#
#
#
# Elastic Constant Matrix: (Units=GPa)
#
#
# Indices 1 2 3 4 5 6 
#
# 1 69.3748 11.4789 13.1332 6.5507 1.2680 0.8428
# 2 11.4789 73.3521 26.1059 26.7451 2.0052 12.2895
# 3 13.1332 26.1059 43.4625 19.3677 2.5073 3.1998
# 4 6.5507 26.7451 19.3677 41.4326 10.6246 8.4088
# 5 1.2680 2.0052 2.5073 10.6246 23.0199 5.4396
# 6 0.8428 12.2895 3.1998 8.4088 5.4396 23.7213
#
#
#
# Elastic Compliance Matrix: (Units=1/GPa)
#
#
# Indices 1 2 3 4 5 6 
#
# 1 0.015354 -0.001122 -0.004076 0.000215 -0.000554 0.000636
# 2 -0.001122 0.021292 -0.007870 -0.009696 0.005364 -0.007722
# 3 -0.004076 -0.007870 0.033548 -0.011019 0.001576 0.003242
# 4 0.000215 -0.009696 -0.011019 0.040370 -0.015600 -0.004231
# 5 -0.000554 0.005364 0.001576 -0.015600 0.052259 -0.009426
# 6 0.000636 -0.007722 0.003242 -0.004231 -0.009426 0.049359
#
#
# Mechanical properties :
#
#
# Convention : Reuss Voigt Hill
#
# Bulk Modulus (GPa) = 22.69781 31.95840 27.32810
# Shear Modulus (GPa) = 19.76244 26.66619 23.21431
#
# Velocity S-wave (km/s) = 3.04619 3.53848 3.30152
# Velocity P-wave (km/s) = 4.79895 5.63030 5.23116
#
# Compressibility (1/GPa) = 0.04405712
#
# Stress axis : x y z
#
# Youngs Moduli (GPa) = 65.13022 46.96603 29.80776
#
# Poissons Ratio (x) = 0.05269 0.12151
# Poissons Ratio (y) = 0.07306 0.23460
# Poissons Ratio (z) = 0.26550 0.36964
#
# Static dielectric constant tensor:
#      x y z
#    x 1.749160 -0.004450 0.023940 
#    y -0.004450 1.751740 0.013030 
#    z 0.023940 0.013030 1.799780 
# 
# From -- ./inp_files/410109.got.cif
#   From: 2010.05.17/outbox.cif.g08.bks.cpg/sg2_206_cif.got.tgz:410109.got - 2010.06.03 11:33:40.
