data_PCOD9090711
_publ_section_title
;
Structure prediction by ZEFSAII (Michael W. Deem and Ramdas Pophale) SiO2 
 PCOD9090711
Probable space group: P -1
;
_chemical_formula_sum "Si O2"
_cell_formula_units_Z 16
_cell_length_a 14.455918
_cell_length_b 12.216026
_cell_length_c 8.140323
_cell_angle_alpha 52.891240
_cell_angle_beta 112.618827
_cell_angle_gamma 148.234481
_cell_volume 574.626886
_symmetry_space_group_name_H-M "P -1"
_symmetry_group_IT_number 2
_symmetry_cell_setting 'triclinic'
loop_
_space_group_symop_operation_xyz
x,y,z
-x,-y,-z
loop_
_atom_site_type_symbol
_atom_site_label
_atom_site_fract_x
_atom_site_fract_y
_atom_site_fract_z
Si Si1 0.170027 0.156417 0.810525
Si Si2 0.435295 0.318850 0.446212
Si Si3 0.258258 0.856406 0.854505
Si Si4 0.010531 0.771193 0.272471
Si Si5 0.792566 0.689078 0.769207
Si Si6 0.903415 0.572532 0.735148
Si Si7 0.252388 0.732049 0.595784
Si Si8 0.494440 0.229719 0.233886
O O1 0.986012 0.916499 0.794719
O O2 0.368386 0.385628 0.652669
O O3 0.131391 0.260257 0.773411
O O4 0.176498 0.044929 0.054011
O O5 0.264278 0.225251 0.403253
O O6 0.455861 0.290149 0.298224
O O7 0.401434 0.145465 0.690873
O O8 0.274220 0.798946 0.740448
O O9 0.060623 0.705657 0.849571
O O10 0.247398 0.722845 0.100220
O O11 0.004870 0.706786 0.510685
O O12 0.938674 0.565194 0.296960
O O13 0.820000 0.616813 0.703456
O O14 0.622300 0.438494 0.990551
O O15 0.387052 0.760769 0.620111
O O16 0.307086 0.927016 0.347422
#
# Coordination Sequence:
#
# PCOD9090711 Si02
#       8
#     2   2   2   2   2   2   2   2
#     4  11  23  43  72 105 146 180 238 298 347 416
#     4  11  24  43  77 108 136 186 245 291 347 419
#     4  10  23  46  71 101 137 194 235 287 358 424
#     4  11  22  41  69 107 140 182 233 302 349 418
#     4  12  24  46  73 105 145 192 231 290 361 423
#     4  11  25  45  71 101 148 188 235 288 360 428
#     4  10  19  39  72  98 133 183 241 292 349 406
#     4  10  19  38  72 102 132 179 240 291 345 409
#
# _framework density 27.844154
#
# number of rings (size 3 to 8) (size 9 to 14) (size 15 to 20)
#    0.000    1.250    3.750    1.875    0.000    4.500 
#    0.000    8.750    0.000    3.000    0.000    0.000 
#    0.000    0.000    0.000    0.000    0.000    0.000 
#
# Total GULP energy -89720.912067 kJ/mol
# GULP energy per Si atom -5607.557004 kJ/mol
# Density = 2.778078 g / cm^3
# Si number density = 27.844154 Si / 1000 Ang^3
#
#
#
# Elastic Constant Matrix: (Units=GPa)
#
#
# Indices 1 2 3 4 5 6 
#
# 1 125.7869 29.6676 37.6250 -2.3796 0.5103 -11.7831
# 2 29.6676 116.5100 72.9137 -25.4582 1.3208 -6.7995
# 3 37.6250 72.9137 192.4139 -44.7240 -2.6871 -1.4319
# 4 -2.3796 -25.4582 -44.7240 48.6533 2.3496 -2.6946
# 5 0.5103 1.3208 -2.6871 2.3496 48.9541 -9.0530
# 6 -11.7831 -6.7995 -1.4319 -2.6946 -9.0530 42.2766
#
#
#
# Elastic Compliance Matrix: (Units=1/GPa)
#
#
# Indices 1 2 3 4 5 6 
#
# 1 0.008945 -0.001569 -0.001525 -0.001682 0.000345 0.002156
# 2 -0.001569 0.011929 -0.003499 0.003048 -0.000371 0.001478
# 3 -0.001525 -0.003499 0.008104 0.005516 0.000233 -0.000312
# 4 -0.001682 0.003048 0.005516 0.027271 -0.000740 0.001788
# 5 0.000345 -0.000371 0.000233 -0.000740 0.021326 0.004564
# 6 0.002156 0.001478 -0.000312 0.001788 0.004564 0.025573
#
#
# Mechanical properties :
#
#
# Convention : Reuss Voigt Hill
#
# Bulk Modulus (GPa) = 63.32379 79.45815 71.39097
# Shear Modulus (GPa) = 41.11906 47.61041 44.36473
#
# Velocity S-wave (km/s) = 3.84703 4.13957 3.99598
# Velocity P-wave (km/s) = 6.52108 7.17264 6.85460
#
# Compressibility (1/GPa) = 0.01579185
#
# Stress axis : x y z
#
# Youngs Moduli (GPa) = 111.79662 83.83034 123.39286
#
# Poissons Ratio (x) = 0.13155 0.18813
# Poissons Ratio (y) = 0.17544 0.43177
# Poissons Ratio (z) = 0.17045 0.29333
#
# Static dielectric constant tensor:
#      x y z
#    x 2.167490 0.104320 0.000380 
#    y 0.104320 2.291740 -0.032580 
#    z 0.000380 -0.032580 2.197390 
# 
# From -- ./inp_files/306516.got.cif
#   From: 2010.05.17/outbox.cif.g08.bks.cpg/sg2_154_cif.got.tgz:306516.got - 2010.06.03 11:33:40.
