data_PCOD9090719
_publ_section_title
;
Structure prediction by ZEFSAII (Michael W. Deem and Ramdas Pophale) SiO2 
 PCOD9090719
Probable space group: P -1
;
_chemical_formula_sum "Si O2"
_cell_formula_units_Z 14
_cell_length_a 9.171973
_cell_length_b 7.843317
_cell_length_c 10.424918
_cell_angle_alpha 117.694897
_cell_angle_beta 92.780020
_cell_angle_gamma 69.306715
_cell_volume 615.103313
_symmetry_space_group_name_H-M "P -1"
_symmetry_group_IT_number 2
_symmetry_cell_setting 'triclinic'
loop_
_space_group_symop_operation_xyz
x,y,z
-x,-y,-z
loop_
_atom_site_type_symbol
_atom_site_label
_atom_site_fract_x
_atom_site_fract_y
_atom_site_fract_z
Si Si1 0.526385 0.262361 0.623141
Si Si2 0.681362 0.047689 0.294856
Si Si3 0.321226 0.547616 0.553639
Si Si4 0.102833 0.431984 0.352652
Si Si5 0.608359 0.384867 0.082152
Si Si6 0.375997 0.998325 0.199532
Si Si7 0.112805 0.439289 0.860339
O O1 0.636991 0.121875 0.467338
O O2 0.351599 0.346070 0.575143
O O3 0.496901 0.493091 0.759216
O O4 0.574679 0.126792 0.706562
O O5 0.746275 0.222204 0.308796
O O6 0.523121 0.071031 0.219232
O O7 0.791390 0.808541 0.213760
O O8 0.500000 0.500000 0.500000
O O9 0.223902 0.545583 0.422975
O O10 0.000000 0.500000 0.500000
O O11 0.997048 0.501485 0.248302
O O12 0.211873 0.190018 0.269021
O O13 0.763934 0.442968 0.100201
O O14 0.500000 0.500000 0.000000
O O15 0.636724 0.148353 0.967879
O O16 0.000000 0.500000 0.000000
#
# Coordination Sequence:
#
# PCOD9090719 Si02
#       7
#     2   2   2   2   2   2   2
#     4  10  19  38  74 101 124 174 249 293 315 408
#     4  11  22  43  72 100 132 189 236 285 344 420
#     4  10  22  40  67 104 133 170 239 292 334 411
#     4  12  26  43  70 109 141 180 239 300 346 410
#     4  10  22  42  70 100 128 183 244 279 332 431
#     4  11  22  41  73 103 128 186 241 282 344 419
#     4  12  28  45  65 105 158 179 219 302 375 407
#
# _framework density 22.760404999999999
#
# number of rings (size 3 to 8) (size 9 to 14) (size 15 to 20)
#    0.000    1.143    5.714    2.143    0.000    8.000 
#    0.000    1.429    0.000    0.000    0.000    0.000 
#    0.000    0.000    0.000    0.000    0.000    0.000 
#
# Total GULP energy -78004.325489 kJ/mol
# GULP energy per Si atom -5571.737535 kJ/mol
# Density = 2.270860 g / cm^3
# Si number density = 22.760405 Si / 1000 Ang^3
#
#
#
# Elastic Constant Matrix: (Units=GPa)
#
#
# Indices 1 2 3 4 5 6 
#
# 1 114.7079 44.7810 78.8968 -3.3976 4.2557 -18.9308
# 2 44.7810 146.0326 62.9006 16.7300 -1.0238 -22.9071
# 3 78.8968 62.9006 194.7250 26.1628 -11.5078 -12.3234
# 4 -3.3976 16.7300 26.1628 58.6856 -5.0474 5.8136
# 5 4.2557 -1.0238 -11.5078 -5.0474 49.2390 -2.8844
# 6 -18.9308 -22.9071 -12.3234 5.8136 -2.8844 35.1470
#
#
#
# Elastic Compliance Matrix: (Units=1/GPa)
#
#
# Indices 1 2 3 4 5 6 
#
# 1 0.013867 -0.001723 -0.005359 0.003141 -0.001943 0.003788
# 2 -0.001723 0.009112 -0.001608 -0.002462 -0.000005 0.004854
# 3 -0.005359 -0.001608 0.008384 -0.003389 0.002026 -0.000268
# 4 0.003141 -0.002462 -0.003389 0.019922 0.000673 -0.004341
# 5 -0.001943 -0.000005 0.002026 0.000673 0.021094 0.001280
# 6 0.003788 0.004854 -0.000268 -0.004341 0.001280 0.034385
#
#
# Mechanical properties :
#
#
# Convention : Reuss Voigt Hill
#
# Bulk Modulus (GPa) = 71.51258 92.06915 81.79086
# Shear Modulus (GPa) = 38.81843 46.54012 42.67927
#
# Velocity S-wave (km/s) = 4.13428 4.52683 4.33500
# Velocity P-wave (km/s) = 7.36734 8.23785 7.81473
#
# Compressibility (1/GPa) = 0.01398355
#
# Stress axis : x y z
#
# Youngs Moduli (GPa) = 72.11591 109.74491 119.27406
#
# Poissons Ratio (x) = 0.18912 0.63916
# Poissons Ratio (y) = 0.12428 0.19173
# Poissons Ratio (z) = 0.38645 0.17642
#
# Static dielectric constant tensor:
#      x y z
#    x 2.052920 0.127810 0.035440 
#    y 0.127810 2.050060 -0.070210 
#    z 0.035440 -0.070210 1.966700 
# 
# From -- ./inp_files/383611.got.cif
#   From: 2010.05.17/outbox.cif.g08.bks.cpg/sg2_192_cif.got.tgz:383611.got - 2010.06.03 11:33:40.
