data_PCOD9090355
_publ_section_title
;
Structure prediction by ZEFSAII (Michael W. Deem and Ramdas Pophale) SiO2 
 PCOD9090355
Probable space group: P -1
;
_chemical_formula_sum "Si O2"
_cell_formula_units_Z 12
_cell_length_a 16.369214
_cell_length_b 9.649191
_cell_length_c 12.595255
_cell_angle_alpha 146.204733
_cell_angle_beta 152.162266
_cell_angle_gamma 44.599369
_cell_volume 514.733694
_symmetry_space_group_name_H-M "P -1"
_symmetry_group_IT_number 2
_symmetry_cell_setting 'triclinic'
loop_
_space_group_symop_operation_xyz
x,y,z
-x,-y,-z
loop_
_atom_site_type_symbol
_atom_site_label
_atom_site_fract_x
_atom_site_fract_y
_atom_site_fract_z
Si Si1 0.968111 0.354826 0.259420
Si Si2 0.404279 0.561793 0.097108
Si Si3 0.678089 0.827777 0.440479
Si Si4 0.886805 0.209694 0.452087
Si Si5 0.399005 0.638196 0.618119
Si Si6 0.581864 0.879261 0.790033
O O1 0.000000 0.500000 0.500000
O O2 0.112950 0.154633 0.296949
O O3 0.008786 0.558431 0.341356
O O4 0.760629 0.276476 0.972731
O O5 0.584829 0.711510 0.364091
O O6 0.446290 0.413694 0.155946
O O7 0.359291 0.370062 0.826190
O O8 0.561896 0.046826 0.411903
O O9 0.768672 0.301086 0.469635
O O10 0.000000 0.000000 0.500000
O O11 0.746462 0.081188 0.123817
O O12 0.477366 0.846520 0.759518
O O13 0.354926 0.385818 0.339106
#
# Coordination Sequence:
#
# PCOD9090355 Si02
#       6
#     2   2   2   2   2   2
#     4  10  21  36  65 100 122 160 219 256 306 390
#     4  10  19  39  65  92 127 163 211 260 311 380
#     4  10  19  38  65  92 126 166 208 259 316 372
#     4  12  24  41  67  91 126 175 207 262 325 367
#     4  11  24  42  63  94 128 167 217 261 311 384
#     4  11  24  41  65  93 126 171 212 261 319 375
#
# _framework density 23.313027000000002
#
# number of rings (size 3 to 8) (size 9 to 14) (size 15 to 20)
#    0.000    1.333    3.333    3.500    4.667    1.333 
#    0.000    0.833    0.000    0.000    0.000    0.000 
#    0.000    0.000    0.000    0.000    0.000    0.000 
#
# Total GULP energy -67134.653632 kJ/mol
# GULP energy per Si atom -5594.554469 kJ/mol
# Density = 2.325997 g / cm^3
# Si number density = 23.313027 Si / 1000 Ang^3
#
#
#
# Elastic Constant Matrix: (Units=GPa)
#
#
# Indices 1 2 3 4 5 6 
#
# 1 68.1305 9.0787 21.2355 -10.1201 2.4671 -13.2139
# 2 9.0787 87.2279 -1.3954 -24.4579 0.4170 -11.3674
# 3 21.2355 -1.3954 71.7992 -11.3061 -1.1369 -11.2000
# 4 -10.1201 -24.4579 -11.3061 36.9666 -4.5530 1.9892
# 5 2.4671 0.4170 -1.1369 -4.5530 21.5915 -9.6903
# 6 -13.2139 -11.3674 -11.2000 1.9892 -9.6903 51.9296
#
#
#
# Elastic Compliance Matrix: (Units=1/GPa)
#
#
# Indices 1 2 3 4 5 6 
#
# 1 0.017090 -0.000644 -0.004132 0.002800 -0.000139 0.003183
# 2 -0.000644 0.015201 0.002940 0.011066 0.004128 0.004144
# 3 -0.004132 0.002940 0.016860 0.006301 0.004335 0.003796
# 4 0.002800 0.011066 0.006301 0.038037 0.010021 0.004907
# 5 -0.000139 0.004128 0.004335 0.010021 0.053729 0.011446
# 6 0.003183 0.004144 0.003796 0.004907 0.011446 0.023741
#
#
# Mechanical properties :
#
#
# Convention : Reuss Voigt Hill
#
# Bulk Modulus (GPa) = 21.98760 31.66614 26.82687
# Shear Modulus (GPa) = 27.24969 35.31346 31.28157
#
# Velocity S-wave (km/s) = 3.42257 3.89620 3.66704
# Velocity P-wave (km/s) = 5.00705 5.81834 5.42787
#
# Compressibility (1/GPa) = 0.04548018
#
# Stress axis : x y z
#
# Youngs Moduli (GPa) = 58.51461 65.78320 59.31259
#
# Poissons Ratio (x) = 0.04237 0.24506
# Poissons Ratio (y) = 0.03769 -0.17440
# Poissons Ratio (z) = 0.24176 -0.19342
#
# Static dielectric constant tensor:
#      x y z
#    x 1.835640 -0.034520 -0.035410 
#    y -0.034520 1.890560 0.035720 
#    z -0.035410 0.035720 1.906610 
# 
# From -- ./inp_files/185184.got.cif
#   From: 2010.05.17/outbox.cif.g08.bks.cpg/sg2_93_cif.got.tgz:185184.got - 2010.06.03 11:33:40.
