data_PCOD9090822
_publ_section_title
;
Structure prediction by ZEFSAII (Michael W. Deem and Ramdas Pophale) SiO2 
 PCOD9090822
Probable space group: P -1
;
_chemical_formula_sum "Si O2"
_cell_formula_units_Z 16
_cell_length_a 9.042094
_cell_length_b 16.484356
_cell_length_c 12.606755
_cell_angle_alpha 103.384467
_cell_angle_beta 119.576327
_cell_angle_gamma 33.294173
_cell_volume 830.053429
_symmetry_space_group_name_H-M "P -1"
_symmetry_group_IT_number 2
_symmetry_cell_setting 'triclinic'
loop_
_space_group_symop_operation_xyz
x,y,z
-x,-y,-z
loop_
_atom_site_type_symbol
_atom_site_label
_atom_site_fract_x
_atom_site_fract_y
_atom_site_fract_z
Si Si1 0.839197 0.660963 0.111048
Si Si2 0.081022 0.388180 0.127370
Si Si3 0.928640 0.899214 0.213649
Si Si4 0.858759 0.971431 0.980477
Si Si5 0.284788 0.137633 0.182998
Si Si6 0.161909 0.656553 0.370778
Si Si7 0.837302 0.100605 0.363495
Si Si8 0.735928 0.923939 0.465324
O O1 0.505360 0.849656 0.063165
O O2 0.840858 0.564452 0.121501
O O3 0.085290 0.611194 0.254034
O O4 0.918302 0.623401 0.003153
O O5 0.025996 0.319191 0.132851
O O6 0.445153 0.262215 0.259170
O O7 0.136232 0.749696 0.315145
O O8 0.552024 0.031949 0.149467
O O9 0.962486 0.980791 0.286580
O O10 0.004812 0.868359 0.107264
O O11 0.848502 0.900163 0.871625
O O12 0.000000 0.000000 0.000000
O O13 0.503288 0.066162 0.340590
O O14 0.500000 0.500000 0.500000
O O15 0.897331 0.783064 0.409204
O O16 0.980008 0.133357 0.412199
O O17 0.000000 0.000000 0.500000
O O18 0.500000 0.000000 0.500000
#
# Coordination Sequence:
#
# PCOD9090822 Si02
#       8
#     2   2   2   2   2   2   2   2
#     4  11  21  37  60  93 124 149 208 260 312 356
#     4  10  21  36  64  91 117 160 203 267 297 360
#     4  10  20  36  63  85 118 158 211 253 296 367
#     4  12  23  38  62  92 122 162 205 255 313 374
#     4  10  19  39  60  84 117 162 203 248 301 367
#     4  11  22  39  64  92 123 166 210 262 314 376
#     4  11  18  35  59  88 114 160 213 239 297 377
#     4  11  23  35  58  90 125 159 201 257 305 364
#
# _framework density 19.275866000000001
#
# number of rings (size 3 to 8) (size 9 to 14) (size 15 to 20)
#    0.000    1.250    8.750    1.875    1.750    0.000 
#    0.000    1.875    0.000    2.250    0.000    0.000 
#    0.000    0.000    0.000    0.000    0.000    0.000 
#
# Total GULP energy -89153.117644 kJ/mol
# GULP energy per Si atom -5572.069853 kJ/mol
# Density = 1.923199 g / cm^3
# Si number density = 19.275866 Si / 1000 Ang^3
#
#
#
# Elastic Constant Matrix: (Units=GPa)
#
#
# Indices 1 2 3 4 5 6 
#
# 1 67.8186 6.8752 25.6483 7.0552 0.0397 16.7024
# 2 6.8752 82.8097 20.7755 -7.0394 -6.4876 31.0808
# 3 25.6483 20.7755 90.1445 3.6129 4.3156 1.2967
# 4 7.0552 -7.0394 3.6129 28.3374 13.9408 2.1254
# 5 0.0397 -6.4876 4.3156 13.9408 24.9419 7.8636
# 6 16.7024 31.0808 1.2967 2.1254 7.8636 29.3165
#
#
#
# Elastic Compliance Matrix: (Units=1/GPa)
#
#
# Indices 1 2 3 4 5 6 
#
# 1 0.027999 0.015829 -0.011795 -0.010449 0.023891 -0.037862
# 2 0.015829 0.037692 -0.013751 -0.004627 0.032650 -0.056792
# 3 -0.011795 -0.013751 0.017909 0.003429 -0.016342 0.024641
# 4 -0.010449 -0.004627 0.003429 0.053126 -0.036743 0.016711
# 5 0.023891 0.032650 -0.016342 -0.036743 0.093998 -0.070053
# 6 -0.037862 -0.056792 0.024641 0.016711 -0.070053 0.132381
#
#
# Mechanical properties :
#
#
# Convention : Reuss Voigt Hill
#
# Bulk Modulus (GPa) = 15.58474 38.59675 27.09075
# Shear Modulus (GPa) = 12.37845 29.01742 20.69793
#
# Velocity S-wave (km/s) = 2.53686 3.88413 3.28040
# Velocity P-wave (km/s) = 4.08455 6.33893 5.33224
#
# Compressibility (1/GPa) = 0.06416533
#
# Stress axis : x y z
#
# Youngs Moduli (GPa) = 35.71567 26.53086 55.83822
#
# Poissons Ratio (x) = -0.41995 0.65860
# Poissons Ratio (y) = -0.56533 0.76784
# Poissons Ratio (z) = 0.42126 0.36483
#
# Static dielectric constant tensor:
#      x y z
#    x 1.726350 0.032640 0.009450 
#    y 0.032640 1.686820 0.003040 
#    z 0.009450 0.003040 1.738550 
# 
# From -- ./inp_files/354320.got.cif
#   From: 2010.05.17/outbox.cif.g08.bks.cpg/sg2_178_cif.got.tgz:354320.got - 2010.06.03 11:33:40.
