data_PCOD9090677
_publ_section_title
;
Structure prediction by ZEFSAII (Michael W. Deem and Ramdas Pophale) SiO2 
 PCOD9090677
Probable space group: P -1
;
_chemical_formula_sum "Si O2"
_cell_formula_units_Z 14
_cell_length_a 8.127281
_cell_length_b 8.576174
_cell_length_c 14.004558
_cell_angle_alpha 68.101385
_cell_angle_beta 40.097320
_cell_angle_gamma 82.035501
_cell_volume 565.490542
_symmetry_space_group_name_H-M "P -1"
_symmetry_group_IT_number 2
_symmetry_cell_setting 'triclinic'
loop_
_space_group_symop_operation_xyz
x,y,z
-x,-y,-z
loop_
_atom_site_type_symbol
_atom_site_label
_atom_site_fract_x
_atom_site_fract_y
_atom_site_fract_z
Si Si1 0.137740 0.737737 0.480077
Si Si2 0.595864 0.914737 0.384607
Si Si3 0.936370 0.480425 0.163073
Si Si4 0.724444 0.514878 0.816287
Si Si5 0.962982 0.788834 0.967941
Si Si6 0.631109 0.579153 0.522872
Si Si7 0.421733 0.846902 0.147781
O O1 0.344222 0.834675 0.447067
O O2 0.212688 0.551472 0.473569
O O3 0.206885 0.845395 0.326622
O O4 0.829959 0.681255 0.661970
O O5 0.744478 0.775026 0.394262
O O6 0.500000 0.000000 0.500000
O O7 0.804891 0.053157 0.200670
O O8 0.623969 0.423391 0.297976
O O9 0.015991 0.461294 0.239389
O O10 0.066277 0.359241 0.067609
O O11 0.026440 0.683178 0.053732
O O12 0.663633 0.335573 0.828084
O O13 0.500000 0.500000 0.000000
O O14 0.691197 0.842964 0.084771
O O15 0.500000 0.500000 0.500000
O O16 0.500000 0.000000 0.000000
#
# Coordination Sequence:
#
# PCOD9090677 Si02
#       7
#     2   2   2   2   2   2   2
#     4  11  25  47  69 104 142 192 235 290 363 420
#     4  11  22  40  71 105 139 173 237 301 348 413
#     4  11  21  43  71 104 133 185 241 284 351 424
#     4  12  25  48  74  97 143 197 237 284 355 445
#     4  11  24  41  70 105 141 179 237 294 352 417
#     4  10  19  38  69  98 130 169 230 293 344 403
#     4  12  29  46  66 108 151 187 236 297 359 417
#
# _framework density 24.757268
#
# number of rings (size 3 to 8) (size 9 to 14) (size 15 to 20)
#    0.000    0.857    7.143    0.429    4.000    0.571 
#    0.000    0.714    0.000    0.000    0.000    0.000 
#    0.000    0.000    0.000    0.000    0.000    0.000 
#
# Total GULP energy -78280.877121 kJ/mol
# GULP energy per Si atom -5591.491223 kJ/mol
# Density = 2.470092 g / cm^3
# Si number density = 24.757268 Si / 1000 Ang^3
#
#
#
# Elastic Constant Matrix: (Units=GPa)
#
#
# Indices 1 2 3 4 5 6 
#
# 1 70.0698 18.4063 25.5003 0.5053 4.1762 18.3970
# 2 18.4063 58.2268 32.0198 -10.2959 7.0814 8.9086
# 3 25.5003 32.0198 220.6485 -22.5266 6.8498 6.1239
# 4 0.5053 -10.2959 -22.5266 50.9699 -4.9101 6.4203
# 5 4.1762 7.0814 6.8498 -4.9101 37.9405 2.7262
# 6 18.3970 8.9086 6.1239 6.4203 2.7262 29.3419
#
#
#
# Elastic Compliance Matrix: (Units=1/GPa)
#
#
# Indices 1 2 3 4 5 6 
#
# 1 0.018354 -0.003517 -0.001345 -0.000261 -0.000432 -0.010062
# 2 -0.003517 0.021030 -0.002075 0.003682 -0.002375 -0.004332
# 3 -0.001345 -0.002075 0.005185 0.001871 -0.000158 -0.000003
# 4 -0.000261 0.003682 0.001871 0.022228 0.002342 -0.006426
# 5 -0.000432 -0.002375 -0.000158 0.002342 0.027325 -0.002026
# 6 -0.010062 -0.004332 -0.000003 -0.006426 -0.002026 0.043300
#
#
# Mechanical properties :
#
#
# Convention : Reuss Voigt Hill
#
# Bulk Modulus (GPa) = 32.57840 55.64420 44.11130
# Shear Modulus (GPa) = 30.95451 41.85171 36.40311
#
# Velocity S-wave (km/s) = 3.53982 4.11601 3.83874
# Velocity P-wave (km/s) = 5.46762 6.71665 6.12406
#
# Compressibility (1/GPa) = 0.03069518
#
# Stress axis : x y z
#
# Youngs Moduli (GPa) = 54.48372 47.55108 192.87540
#
# Poissons Ratio (x) = 0.16721 0.25938
# Poissons Ratio (y) = 0.19159 0.40031
# Poissons Ratio (z) = 0.07327 0.09869
#
# Static dielectric constant tensor:
#      x y z
#    x 2.000730 -0.014890 0.013410 
#    y -0.014890 1.967360 0.055850 
#    z 0.013410 0.055850 2.206170 
# 
# From -- ./inp_files/461883.got.cif
#   From: 2010.05.17/outbox.cif.g08.bks.cpg/sg2_231_cif.got.tgz:461883.got - 2010.06.03 11:33:40.
