data_PCOD9090408
_publ_section_title
;
Structure prediction by ZEFSAII (Michael W. Deem and Ramdas Pophale) SiO2 
 PCOD9090408
Probable space group: P -1
;
_chemical_formula_sum "Si O2"
_cell_formula_units_Z 14
_cell_length_a 15.582450
_cell_length_b 8.680380
_cell_length_c 14.175681
_cell_angle_alpha 125.660432
_cell_angle_beta 35.623128
_cell_angle_gamma 98.790099
_cell_volume 666.603362
_symmetry_space_group_name_H-M "P -1"
_symmetry_group_IT_number 2
_symmetry_cell_setting 'triclinic'
loop_
_space_group_symop_operation_xyz
x,y,z
-x,-y,-z
loop_
_atom_site_type_symbol
_atom_site_label
_atom_site_fract_x
_atom_site_fract_y
_atom_site_fract_z
Si Si1 0.261408 0.302206 0.217742
Si Si2 0.510212 0.900404 0.240776
Si Si3 0.968385 0.153839 0.305210
Si Si4 0.374369 0.796361 0.694473
Si Si5 0.375253 0.785597 0.167970
Si Si6 0.408643 0.696199 0.413703
Si Si7 0.778234 0.105422 0.846956
O O1 0.094755 0.578402 0.512358
O O2 0.245276 0.098854 0.186327
O O3 0.466162 0.228097 0.039764
O O4 0.296015 0.294911 0.070837
O O5 0.503925 0.124960 0.352013
O O6 0.655674 0.173829 0.380379
O O7 0.334986 0.967101 0.353782
O O8 0.507532 0.775401 0.290873
O O9 0.781253 0.220777 0.444160
O O10 0.162159 0.981084 0.003767
O O11 0.035905 0.000133 0.289391
O O12 0.500000 0.500000 0.500000
O O13 0.500000 0.500000 0.000000
O O14 0.218390 0.861514 0.256545
O O15 0.581285 0.387483 0.160181
#
# Coordination Sequence:
#
# PCOD9090408 Si02
#       7
#     2   2   2   2   2   2   2
#     4  10  21  38  69  99 137 167 225 277 343 396
#     4  10  22  43  69  98 138 178 213 281 347 395
#     4  12  24  41  71 105 131 172 237 280 328 408
#     4  12  25  45  72  93 131 189 233 272 332 397
#     4  10  19  38  65  99 135 173 207 271 353 391
#     4  12  24  45  69  93 143 180 222 277 334 397
#     4  12  21  40  71  97 137 179 215 279 344 403
#
# _framework density 21.001994
#
# number of rings (size 3 to 8) (size 9 to 14) (size 15 to 20)
#    0.857    0.000    5.714    1.714    0.000    0.000 
#    0.000    7.143    6.286    0.000    0.000    0.000 
#    0.000    0.000    0.000    0.000    0.000    0.000 
#
# Total GULP energy -78059.646575 kJ/mol
# GULP energy per Si atom -5575.689041 kJ/mol
# Density = 2.095419 g / cm^3
# Si number density = 21.001994 Si / 1000 Ang^3
#
#
#
# Elastic Constant Matrix: (Units=GPa)
#
#
# Indices 1 2 3 4 5 6 
#
# 1 173.5126 54.6330 52.6022 9.3970 9.3537 -7.5902
# 2 54.6330 102.3616 54.0563 11.0946 13.9298 2.1608
# 3 52.6022 54.0563 108.1782 9.0852 16.9988 3.4493
# 4 9.3970 11.0946 9.0852 25.5275 0.4691 10.5019
# 5 9.3537 13.9298 16.9988 0.4691 45.7722 -5.3660
# 6 -7.5902 2.1608 3.4493 10.5019 -5.3660 42.2297
#
#
#
# Elastic Compliance Matrix: (Units=1/GPa)
#
#
# Indices 1 2 3 4 5 6 
#
# 1 0.007464 -0.002707 -0.002271 -0.001646 0.000408 0.002127
# 2 -0.002707 0.014718 -0.005454 -0.003341 -0.001890 -0.000203
# 3 -0.002271 -0.005454 0.013694 -0.001041 -0.003114 -0.001384
# 4 -0.001646 -0.003341 -0.001041 0.046368 -0.000094 -0.011583
# 5 0.000408 -0.001890 -0.003114 -0.000094 0.023905 0.003485
# 6 0.002127 -0.000203 -0.001384 -0.011583 0.003485 0.027509
#
#
# Mechanical properties :
#
#
# Convention : Reuss Voigt Hill
#
# Bulk Modulus (GPa) = 66.60857 78.51504 72.56181
# Shear Modulus (GPa) = 31.34283 37.55661 34.44972
#
# Velocity S-wave (km/s) = 3.86732 4.23335 4.05446
# Velocity P-wave (km/s) = 7.19206 7.83331 7.51952
#
# Compressibility (1/GPa) = 0.01501308
#
# Stress axis : x y z
#
# Youngs Moduli (GPa) = 133.97601 67.94463 73.02269
#
# Poissons Ratio (x) = 0.18391 0.16580
# Poissons Ratio (y) = 0.36263 0.39829
# Poissons Ratio (z) = 0.30420 0.37059
#
# Static dielectric constant tensor:
#      x y z
#    x 1.844220 0.012170 -0.047780 
#    y 0.012170 1.777220 -0.049830 
#    z -0.047780 -0.049830 1.784590 
# 
# From -- ./inp_files/572118.got.cif
#   From: 2010.05.17/outbox.cif.g08.bks.cpg/sg2_287_cif.got.tgz:572118.got - 2010.06.03 11:33:40.
