data_PCOD9090126
_publ_section_title
;
Structure prediction by ZEFSAII (Michael W. Deem and Ramdas Pophale) SiO2 
 PCOD9090126
Probable space group: P -1
;
_chemical_formula_sum "Si O2"
_cell_formula_units_Z 16
_cell_length_a 5.097934
_cell_length_b 11.861915
_cell_length_c 20.693454
_cell_angle_alpha 42.316866
_cell_angle_beta 87.007654
_cell_angle_gamma 108.934191
_cell_volume 708.069312
_symmetry_space_group_name_H-M "P -1"
_symmetry_group_IT_number 2
_symmetry_cell_setting 'triclinic'
loop_
_space_group_symop_operation_xyz
x,y,z
-x,-y,-z
loop_
_atom_site_type_symbol
_atom_site_label
_atom_site_fract_x
_atom_site_fract_y
_atom_site_fract_z
Si Si1 0.583664 0.116412 0.250460
Si Si2 0.581483 0.078103 0.537634
Si Si3 0.265971 0.687857 0.267194
Si Si4 0.718344 0.682623 0.526605
Si Si5 0.062698 0.948191 0.915055
Si Si6 0.237449 0.275388 0.113941
Si Si7 0.146727 0.816911 0.093536
Si Si8 0.973818 0.301458 0.607264
O O1 0.375977 0.203319 0.197487
O O2 0.910819 0.237208 0.158718
O O3 0.622582 0.095651 0.334402
O O4 0.363329 0.888359 0.326031
O O5 0.514085 0.251788 0.476932
O O6 0.939728 0.161257 0.514513
O O7 0.500000 0.000000 0.500000
O O8 0.341014 0.526822 0.359070
O O9 0.152178 0.657133 0.207255
O O10 0.020751 0.687442 0.320337
O O11 0.579275 0.908269 0.172228
O O12 0.774598 0.705102 0.438391
O O13 0.845487 0.853993 0.895754
O O14 0.010177 0.778221 0.039341
O O15 0.003514 0.092371 0.897779
O O16 0.500000 0.500000 0.000000
O O17 0.500000 0.000000 0.000000
O O18 0.000000 0.500000 0.500000
#
# Coordination Sequence:
#
# PCOD9090126 Si02
#       8
#     2   2   2   2   2   2   2   2
#     4  11  23  46  68  99 131 178 223 289 346 400
#     4  11  24  47  69  93 138 181 228 281 345 407
#     4  10  19  38  63  99 139 175 217 277 358 410
#     4  10  23  39  66 103 134 170 228 274 334 434
#     4  10  21  39  65  91 136 180 223 288 349 401
#     4  12  26  45  70  99 133 181 243 286 338 408
#     4   9  20  37  59  92 130 179 222 274 353 413
#     4   9  18  37  64 103 137 170 212 275 347 419
#
# _framework density 22.59666
#
# number of rings (size 3 to 8) (size 9 to 14) (size 15 to 20)
#    0.000    1.750    1.250    3.000    3.500    0.000 
#    4.500    8.750    0.000    0.000    0.000    0.000 
#    0.000    0.000    0.000    0.000    0.000    0.000 
#
# Total GULP energy -89422.609245 kJ/mol
# GULP energy per Si atom -5588.913078 kJ/mol
# Density = 2.254523 g / cm^3
# Si number density = 22.596660 Si / 1000 Ang^3
#
#
#
# Elastic Constant Matrix: (Units=GPa)
#
#
# Indices 1 2 3 4 5 6 
#
# 1 62.3084 8.6705 2.4309 9.2384 5.9364 4.6833
# 2 8.6705 68.0830 32.4659 17.8755 -5.9618 -0.1765
# 3 2.4309 32.4659 121.2318 22.1783 8.5889 4.0162
# 4 9.2384 17.8755 22.1783 43.2333 5.1716 -6.9708
# 5 5.9364 -5.9618 8.5889 5.1716 32.1983 -0.2669
# 6 4.6833 -0.1765 4.0162 -6.9708 -0.2669 20.5934
#
#
#
# Elastic Compliance Matrix: (Units=1/GPa)
#
#
# Indices 1 2 3 4 5 6 
#
# 1 0.017663 -0.002152 0.001410 -0.004126 -0.003416 -0.005751
# 2 -0.002152 0.019173 -0.004409 -0.006004 0.006084 -0.000440
# 3 0.001410 -0.004409 0.010509 -0.004099 -0.003253 -0.003837
# 4 -0.004126 -0.006004 -0.004099 0.031051 -0.004144 0.012143
# 5 -0.003416 0.006084 -0.003253 -0.004144 0.034351 0.000506
# 6 -0.005751 -0.000440 -0.003837 0.012143 0.000506 0.054729
#
#
# Mechanical properties :
#
#
# Convention : Reuss Voigt Hill
#
# Bulk Modulus (GPa) = 26.99752 37.63977 32.31865
# Shear Modulus (GPa) = 26.29835 33.07539 29.68687
#
# Velocity S-wave (km/s) = 3.41518 3.83002 3.62853
# Velocity P-wave (km/s) = 5.24640 6.02098 5.64699
#
# Compressibility (1/GPa) = 0.03704043
#
# Stress axis : x y z
#
# Youngs Moduli (GPa) = 56.61473 52.15768 95.16030
#
# Poissons Ratio (x) = 0.11226 -0.13414
# Poissons Ratio (y) = 0.12185 0.41959
# Poissons Ratio (z) = -0.07981 0.22998
#
# Static dielectric constant tensor:
#      x y z
#    x 1.909060 -0.016580 -0.006380 
#    y -0.016580 1.881370 0.044540 
#    z -0.006380 0.044540 1.895930 
# 
# From -- ./inp_files/549439.got.cif
#   From: 2010.05.17/outbox.cif.g08.bks.cpg/sg2_275_cif.got.tgz:549439.got - 2010.06.03 11:33:40.
