data_PCOD9090551
_publ_section_title
;
Structure prediction by ZEFSAII (Michael W. Deem and Ramdas Pophale) SiO2 
 PCOD9090551
Probable space group: P -1
;
_chemical_formula_sum "Si O2"
_cell_formula_units_Z 16
_cell_length_a 15.830308
_cell_length_b 9.617301
_cell_length_c 9.626625
_cell_angle_alpha 44.398588
_cell_angle_beta 90.001865
_cell_angle_gamma 60.899625
_cell_volume 737.118459
_symmetry_space_group_name_H-M "P -1"
_symmetry_group_IT_number 2
_symmetry_cell_setting 'triclinic'
loop_
_space_group_symop_operation_xyz
x,y,z
-x,-y,-z
loop_
_atom_site_type_symbol
_atom_site_label
_atom_site_fract_x
_atom_site_fract_y
_atom_site_fract_z
Si Si1 0.687116 0.306708 0.681802
Si Si2 0.685198 0.736811 0.444075
Si Si3 0.832494 0.511379 0.888427
Si Si4 0.678442 0.130073 0.528262
Si Si5 0.497958 0.219245 0.270772
Si Si6 0.238315 0.762721 0.789387
Si Si7 0.047471 0.124885 0.982187
Si Si8 0.806759 0.880849 0.217782
O O1 0.634207 0.609942 0.487444
O O2 0.640271 0.258338 0.588636
O O3 0.824628 0.128485 0.774140
O O4 0.702923 0.154519 0.930895
O O5 0.754598 0.589374 0.694543
O O6 0.774670 0.704264 0.365726
O O7 0.579944 0.058574 0.250436
O O8 0.958444 0.348818 0.937685
O O9 0.765622 0.797759 0.762004
O O10 0.837054 0.309153 0.127978
O O11 0.566031 0.254590 0.347773
O O12 0.746578 0.189682 0.401055
O O13 0.500000 0.000000 0.500000
O O14 0.368587 0.494124 0.035001
O O15 0.192356 0.017319 0.704230
O O16 0.078985 0.238108 0.784269
O O17 0.000000 0.000000 0.000000
#
# Coordination Sequence:
#
# PCOD9090551 Si02
#       8
#     2   2   2   2   2   2   2   2
#     4  10  23  43  57  91 130 151 198 261 301 342
#     4  11  20  38  63  88 120 158 207 241 295 365
#     4  11  20  39  64  90 121 156 208 247 288 363
#     4  11  25  39  63  91 125 156 198 257 306 343
#     4  11  21  39  67  89 116 164 201 245 296 363
#     4  12  20  40  66  90 117 160 210 239 294 368
#     4  10  19  38  67  86 119 164 200 245 297 358
#     4  10  21  37  65  88 115 163 202 242 296 359
#
# _framework density 21.706146
#
# number of rings (size 3 to 8) (size 9 to 14) (size 15 to 20)
#    0.750    0.500    8.750    0.375    0.000    2.000 
#    2.250    3.750    0.000    0.000    0.000    0.000 
#    0.000    0.000    0.000    0.000    0.000    0.000 
#
# Total GULP energy -89345.592300 kJ/mol
# GULP energy per Si atom -5584.099519 kJ/mol
# Density = 2.165674 g / cm^3
# Si number density = 21.706146 Si / 1000 Ang^3
#
#
#
# Elastic Constant Matrix: (Units=GPa)
#
#
# Indices 1 2 3 4 5 6 
#
# 1 50.9187 11.5936 10.6778 5.0450 -25.8766 -10.2121
# 2 11.5936 63.4962 5.9634 5.4393 0.3228 13.2095
# 3 10.6778 5.9634 41.2863 4.9785 -28.5597 9.9257
# 4 5.0450 5.4393 4.9785 25.3794 -10.4438 -2.8403
# 5 -25.8766 0.3228 -28.5597 -10.4438 44.7840 -3.0596
# 6 -10.2121 13.2095 9.9257 -2.8403 -3.0596 35.0975
#
#
#
# Elastic Compliance Matrix: (Units=1/GPa)
#
#
# Indices 1 2 3 4 5 6 
#
# 1 0.038947 -0.012208 0.007782 0.007821 0.030542 0.017021
# 2 -0.012208 0.021734 -0.005317 -0.008004 -0.013290 -0.012035
# 3 0.007782 -0.005317 0.049150 0.004270 0.036457 -0.006111
# 4 0.007821 -0.008004 0.004270 0.047646 0.019066 0.009599
# 5 0.030542 -0.013290 0.036457 0.019066 0.068526 0.011095
# 6 0.017021 -0.012035 -0.006111 0.009599 0.011095 0.041446
#
#
# Mechanical properties :
#
#
# Convention : Reuss Voigt Hill
#
# Bulk Modulus (GPa) = 11.06866 23.57455 17.32160
# Shear Modulus (GPa) = 15.77041 29.54993 22.66017
#
# Velocity S-wave (km/s) = 2.69837 3.69367 3.23453
# Velocity P-wave (km/s) = 3.84950 5.39215 4.68476
#
# Compressibility (1/GPa) = 0.09034519
#
# Stress axis : x y z
#
# Youngs Moduli (GPa) = 25.67606 46.01003 20.34604
#
# Poissons Ratio (x) = 0.56171 -0.15834
# Poissons Ratio (y) = 0.31346 0.10818
# Poissons Ratio (z) = -0.19982 0.24463
#
# Static dielectric constant tensor:
#      x y z
#    x 1.841530 -0.033580 -0.001780 
#    y -0.033580 1.820270 -0.024460 
#    z -0.001780 -0.024460 1.799140 
# 
# From -- ./inp_files/327116.got.cif
#   From: 2010.05.17/outbox.cif.g08.bks.cpg/sg2_164_cif.got.tgz:327116.got - 2010.06.03 11:33:40.
