data_PCOD9090686
_publ_section_title
;
Structure prediction by ZEFSAII (Michael W. Deem and Ramdas Pophale) SiO2 
 PCOD9090686
Probable space group: P -1
;
_chemical_formula_sum "Si O2"
_cell_formula_units_Z 14
_cell_length_a 11.158093
_cell_length_b 20.066953
_cell_length_c 7.606125
_cell_angle_alpha 51.768579
_cell_angle_beta 42.590415
_cell_angle_gamma 28.096903
_cell_volume 540.307082
_symmetry_space_group_name_H-M "P -1"
_symmetry_group_IT_number 2
_symmetry_cell_setting 'triclinic'
loop_
_space_group_symop_operation_xyz
x,y,z
-x,-y,-z
loop_
_atom_site_type_symbol
_atom_site_label
_atom_site_fract_x
_atom_site_fract_y
_atom_site_fract_z
Si Si1 0.329775 0.860090 0.597695
Si Si2 0.694984 0.174929 0.714137
Si Si3 0.538466 0.575260 0.242802
Si Si4 0.637175 0.867015 0.809346
Si Si5 0.145653 0.415824 0.299433
Si Si6 0.211224 0.166117 0.929577
Si Si7 0.921740 0.322255 0.658728
O O1 0.296017 0.821081 0.514922
O O2 0.522510 0.744186 0.736072
O O3 0.525804 0.866726 0.325153
O O4 0.999848 0.021982 0.718958
O O5 0.614373 0.294469 0.688643
O O6 0.450880 0.197349 0.984989
O O7 0.500000 0.500000 0.500000
O O8 0.358952 0.622864 0.183192
O O9 0.835055 0.509885 0.968060
O O10 0.802576 0.820764 0.523242
O O11 0.340855 0.031984 0.916934
O O12 0.846712 0.812787 0.835908
O O13 0.000000 0.500000 0.500000
O O14 0.953375 0.410670 0.443692
O O15 0.954510 0.298184 0.869528
#
# Coordination Sequence:
#
# PCOD9090686 Si02
#       7
#     2   2   2   2   2   2   2
#     4   9  21  42  72 104 146 187 235 312 369 440
#     4  10  21  42  70 109 147 188 240 304 379 436
#     4  12  29  47  73 109 145 200 251 306 369 449
#     4  10  19  38  70 104 149 187 229 303 372 445
#     4  11  27  51  73 106 146 197 251 309 371 440
#     4   9  20  37  64 107 143 187 235 289 374 443
#     4  11  24  45  70 101 142 196 244 302 365 442
#
# _framework density 25.911192
#
# number of rings (size 3 to 8) (size 9 to 14) (size 15 to 20)
#    0.000    1.714    1.429    1.286    4.000    7.429 
#    0.000    0.000    0.000    0.000    0.000    0.000 
#    0.000    0.000    0.000    0.000    0.000    0.000 
#
# Total GULP energy -78330.295381 kJ/mol
# GULP energy per Si atom -5595.021099 kJ/mol
# Density = 2.585222 g / cm^3
# Si number density = 25.911192 Si / 1000 Ang^3
#
#
#
# Elastic Constant Matrix: (Units=GPa)
#
#
# Indices 1 2 3 4 5 6 
#
# 1 113.9605 39.1005 18.8792 -13.6566 -14.5187 24.4448
# 2 39.1005 81.7298 26.5272 -9.3568 -5.9973 20.6000
# 3 18.8792 26.5272 86.3976 -24.7850 -8.5975 19.4314
# 4 -13.6566 -9.3568 -24.7850 34.4869 6.4784 -0.7638
# 5 -14.5187 -5.9973 -8.5975 6.4784 38.8296 -8.2074
# 6 24.4448 20.6000 19.4314 -0.7638 -8.2074 45.8518
#
#
#
# Elastic Compliance Matrix: (Units=1/GPa)
#
#
# Indices 1 2 3 4 5 6 
#
# 1 0.011737 -0.004266 0.000995 0.003653 0.002439 -0.004265
# 2 -0.004266 0.016262 -0.003118 0.000523 -0.000669 -0.003822
# 3 0.000995 -0.003118 0.017049 0.011582 0.000447 -0.006082
# 4 0.003653 0.000523 0.011582 0.039520 -0.004097 -0.007166
# 5 0.002439 -0.000669 0.000447 -0.004097 0.028144 0.003780
# 6 -0.004265 -0.003822 -0.006082 -0.007166 0.003780 0.028935
#
#
# Mechanical properties :
#
#
# Convention : Reuss Voigt Hill
#
# Bulk Modulus (GPa) = 30.98778 50.12243 40.55510
# Shear Modulus (GPa) = 30.26960 37.00572 33.63766
#
# Velocity S-wave (km/s) = 3.42161 3.78322 3.60695
# Velocity P-wave (km/s) = 5.25310 6.20239 5.74738
#
# Compressibility (1/GPa) = 0.03227079
#
# Stress axis : x y z
#
# Youngs Moduli (GPa) = 85.19961 61.49164 58.65335
#
# Poissons Ratio (x) = 0.26232 -0.05835
# Poissons Ratio (y) = 0.36346 0.18288
# Poissons Ratio (z) = -0.08476 0.19173
#
# Static dielectric constant tensor:
#      x y z
#    x 2.172260 -0.268620 0.086470 
#    y -0.268620 2.416170 -0.060100 
#    z 0.086470 -0.060100 2.015810 
# 
# From -- ./inp_files/282831.got.cif
#   From: 2010.05.17/outbox.cif.g08.bks.cpg/sg2_142_cif.got.tgz:282831.got - 2010.06.03 11:33:40.
