data_PCOD9090958
_publ_section_title
;
Structure prediction by ZEFSAII (Michael W. Deem and Ramdas Pophale) SiO2 
 PCOD9090958
Probable space group: P -1
;
_chemical_formula_sum "Si O2"
_cell_formula_units_Z 16
_cell_length_a 12.314282
_cell_length_b 12.188087
_cell_length_c 13.038726
_cell_angle_alpha 74.932781
_cell_angle_beta 101.718509
_cell_angle_gamma 34.878499
_cell_volume 709.772898
_symmetry_space_group_name_H-M "P -1"
_symmetry_group_IT_number 2
_symmetry_cell_setting 'triclinic'
loop_
_space_group_symop_operation_xyz
x,y,z
-x,-y,-z
loop_
_atom_site_type_symbol
_atom_site_label
_atom_site_fract_x
_atom_site_fract_y
_atom_site_fract_z
Si Si1 0.796421 0.837127 0.798594
Si Si2 0.399009 0.967987 0.965463
Si Si3 0.734448 0.092010 0.374789
Si Si4 0.816477 0.987158 0.938422
Si Si5 0.067919 0.697850 0.714840
Si Si6 0.830369 0.164705 0.183161
Si Si7 0.428206 0.187036 0.178768
Si Si8 0.712267 0.324146 0.792767
O O1 0.601451 0.912139 0.761568
O O2 0.826161 0.846123 0.685208
O O3 0.716972 0.018905 0.809302
O O4 0.119951 0.503487 0.986707
O O5 0.149305 0.149209 0.941112
O O6 0.642495 0.648619 0.127741
O O7 0.350218 0.010307 0.825475
O O8 0.500000 0.000000 0.000000
O O9 0.815892 0.085696 0.290502
O O10 0.527223 0.184629 0.280045
O O11 0.570191 0.334022 0.361977
O O12 0.996921 0.792379 0.561980
O O13 0.628966 0.280644 0.834656
O O14 0.123529 0.760854 0.065039
O O15 0.076720 0.802829 0.759347
O O16 0.500000 0.500000 0.000000
O O17 0.062417 0.904785 0.203244
#
# Coordination Sequence:
#
# PCOD9090958 Si02
#       8
#     2   2   2   2   2   2   2   2
#     4  10  19  39  62  86 121 164 220 261 306 378
#     4  11  22  39  67  94 121 169 222 271 316 377
#     4  12  25  43  62  99 139 169 210 265 338 392
#     4  11  19  37  62  96 118 155 223 268 309 373
#     4  11  25  42  61  94 135 171 207 270 334 387
#     4  12  23  44  68  97 130 171 224 269 316 384
#     4  10  21  39  64  90 124 168 214 270 318 378
#     4  11  23  37  67  96 126 170 210 268 326 384
#
# _framework density 22.542421000000001
#
# number of rings (size 3 to 8) (size 9 to 14) (size 15 to 20)
#    0.000    1.000    3.750    5.625    0.000    1.000 
#    2.250    0.625    0.000    0.000    0.000    0.000 
#    0.000    0.000    0.000    0.000    0.000    0.000 
#
# Total GULP energy -89273.523913 kJ/mol
# GULP energy per Si atom -5579.595245 kJ/mol
# Density = 2.249111 g / cm^3
# Si number density = 22.542421 Si / 1000 Ang^3
#
#
#
# Elastic Constant Matrix: (Units=GPa)
#
#
# Indices 1 2 3 4 5 6 
#
# 1 176.6846 30.2184 38.8905 12.0941 -21.9720 10.7000
# 2 30.2184 68.6162 7.7286 13.7285 0.2759 0.6655
# 3 38.8905 7.7286 75.0423 11.3618 -17.2505 -4.6491
# 4 12.0941 13.7285 11.3618 16.8778 -5.7067 -6.2144
# 5 -21.9720 0.2759 -17.2505 -5.7067 21.6459 8.1402
# 6 10.7000 0.6655 -4.6491 -6.2144 8.1402 43.9878
#
#
#
# Elastic Compliance Matrix: (Units=1/GPa)
#
#
# Indices 1 2 3 4 5 6 
#
# 1 0.007848 -0.003132 -0.002184 -0.000372 0.007495 -0.003532
# 2 -0.003132 0.019190 0.000424 -0.016250 -0.007202 -0.000447
# 3 -0.002184 0.000424 0.017878 -0.007554 0.010240 -0.000548
# 4 -0.000372 -0.016250 -0.007554 0.085582 0.012896 0.009242
# 5 0.007495 -0.007202 0.010240 0.012896 0.069874 -0.011741
# 6 -0.003532 -0.000447 -0.000548 0.009242 -0.011741 0.027020
#
#
# Mechanical properties :
#
#
# Convention : Reuss Voigt Hill
#
# Bulk Modulus (GPa) = 28.46453 52.66868 40.56660
# Shear Modulus (GPa) = 20.08960 32.73601 26.41281
#
# Velocity S-wave (km/s) = 2.98852 3.81490 3.42671
# Velocity P-wave (km/s) = 4.95609 6.54367 5.80442
#
# Compressibility (1/GPa) = 0.03513145
#
# Stress axis : x y z
#
# Youngs Moduli (GPa) = 127.42790 52.11128 55.93563
#
# Poissons Ratio (x) = 0.16319 0.12216
# Poissons Ratio (y) = 0.39904 -0.02370
# Poissons Ratio (z) = 0.27829 -0.02208
#
# Static dielectric constant tensor:
#      x y z
#    x 1.920840 -0.187310 -0.031640 
#    y -0.187310 2.187240 0.001520 
#    z -0.031640 0.001520 1.837650 
# 
# From -- ./inp_files/428010.got.cif
#   From: 2010.05.17/outbox.cif.g08.bks.cpg/sg2_215_cif.got.tgz:428010.got - 2010.06.03 11:33:40.
