data_PCOD9090664
_publ_section_title
;
Structure prediction by ZEFSAII (Michael W. Deem and Ramdas Pophale) SiO2 
 PCOD9090664
Probable space group: P -1
;
_chemical_formula_sum "Si O2"
_cell_formula_units_Z 12
_cell_length_a 8.482542
_cell_length_b 11.278490
_cell_length_c 9.795182
_cell_angle_alpha 141.333904
_cell_angle_beta 61.087730
_cell_angle_gamma 126.221798
_cell_volume 471.879395
_symmetry_space_group_name_H-M "P -1"
_symmetry_group_IT_number 2
_symmetry_cell_setting 'triclinic'
loop_
_space_group_symop_operation_xyz
x,y,z
-x,-y,-z
loop_
_atom_site_type_symbol
_atom_site_label
_atom_site_fract_x
_atom_site_fract_y
_atom_site_fract_z
Si Si1 0.787810 0.794264 0.310171
Si Si2 0.560086 0.739319 0.639241
Si Si3 0.498080 0.805661 0.238360
Si Si4 0.225833 0.123729 0.063171
Si Si5 0.830854 0.494442 0.467717
Si Si6 0.064529 0.722822 0.310632
O O1 0.676341 0.775982 0.483549
O O2 0.620148 0.704210 0.186304
O O3 0.951919 0.705115 0.197725
O O4 0.889640 0.037641 0.452901
O O5 0.500000 0.500000 0.500000
O O6 0.692543 0.895862 0.837720
O O7 0.343008 0.724095 0.683126
O O8 0.269355 0.695245 0.198445
O O9 0.500000 0.000000 0.500000
O O10 0.624862 0.882447 0.118970
O O11 0.246515 0.359185 0.280996
O O12 0.000000 0.000000 0.000000
O O13 0.000000 0.500000 0.500000
O O14 0.926124 0.589073 0.368112
#
# Coordination Sequence:
#
# PCOD9090664 Si02
#       6
#     2   2   2   2   2   2
#     4  10  19  38  69  92 134 182 226 283 338 404
#     4  10  21  41  68  97 137 179 228 284 350 405
#     4  10  22  39  63 100 136 173 226 287 339 398
#     4  11  23  43  70 101 139 181 239 285 339 420
#     4  11  23  46  73 101 141 186 227 291 356 416
#     4  10  20  38  67  95 129 179 231 271 345 405
#
# _framework density 25.430226999999999
#
# number of rings (size 3 to 8) (size 9 to 14) (size 15 to 20)
#    0.000    1.667    3.333    3.000    2.333    1.333 
#    3.000   12.500    0.000    0.000    0.000    0.000 
#    0.000    0.000    0.000    0.000    0.000    0.000 
#
# Total GULP energy -67045.918492 kJ/mol
# GULP energy per Si atom -5587.159874 kJ/mol
# Density = 2.537235 g / cm^3
# Si number density = 25.430227 Si / 1000 Ang^3
#
#
#
# Elastic Constant Matrix: (Units=GPa)
#
#
# Indices 1 2 3 4 5 6 
#
# 1 234.5633 51.3368 33.4283 4.3717 50.1243 22.8819
# 2 51.3368 114.1159 40.6038 -28.8127 9.7519 28.6619
# 3 33.4283 40.6038 88.4979 12.2559 24.2023 14.6837
# 4 4.3717 -28.8127 12.2559 41.9397 6.9945 3.0527
# 5 50.1243 9.7519 24.2023 6.9945 55.2930 3.3750
# 6 22.8819 28.6619 14.6837 3.0527 3.3750 53.3559
#
#
#
# Elastic Compliance Matrix: (Units=1/GPa)
#
#
# Indices 1 2 3 4 5 6 
#
# 1 0.005936 -0.002794 0.000793 -0.001884 -0.004946 -0.000842
# 2 -0.002794 0.019263 -0.009224 0.016519 0.001550 -0.007654
# 3 0.000793 -0.009224 0.018200 -0.010826 -0.005724 0.000588
# 4 -0.001884 0.016519 -0.010826 0.039246 -0.000988 -0.007269
# 5 -0.004946 0.001550 -0.005724 -0.000988 0.024844 0.001348
# 6 -0.000842 -0.007654 0.000588 -0.007269 0.001348 0.023384
#
#
# Mechanical properties :
#
#
# Convention : Reuss Voigt Hill
#
# Bulk Modulus (GPa) = 47.73820 76.43500 62.08660
# Shear Modulus (GPa) = 31.19045 50.90491 41.04768
#
# Velocity S-wave (km/s) = 3.50596 4.47894 4.02198
# Velocity P-wave (km/s) = 5.93312 7.54121 6.78498
#
# Compressibility (1/GPa) = 0.02094759
#
# Stress axis : x y z
#
# Youngs Moduli (GPa) = 168.46872 51.91349 54.94583
#
# Poissons Ratio (x) = 0.14504 -0.04356
# Poissons Ratio (y) = 0.47067 0.50684
# Poissons Ratio (z) = -0.13357 0.47887
#
# Static dielectric constant tensor:
#      x y z
#    x 2.330540 -0.064900 0.056740 
#    y -0.064900 1.942900 0.099990 
#    z 0.056740 0.099990 1.928500 
# 
# From -- ./inp_files/156141.got.cif
#   From: 2010.05.17/outbox.cif.g08.bks.cpg/sg2_79_cif.got.tgz:156141.got - 2010.06.03 11:33:40.
