data_PCOD9090268
_publ_section_title
;
Structure prediction by ZEFSAII (Michael W. Deem and Ramdas Pophale) SiO2 
 PCOD9090268
Probable space group: P -1
;
_chemical_formula_sum "Si O2"
_cell_formula_units_Z 14
_cell_length_a 5.829867
_cell_length_b 12.229831
_cell_length_c 12.592914
_cell_angle_alpha 109.303949
_cell_angle_beta 72.929849
_cell_angle_gamma 126.311309
_cell_volume 677.156250
_symmetry_space_group_name_H-M "P -1"
_symmetry_group_IT_number 2
_symmetry_cell_setting 'triclinic'
loop_
_space_group_symop_operation_xyz
x,y,z
-x,-y,-z
loop_
_atom_site_type_symbol
_atom_site_label
_atom_site_fract_x
_atom_site_fract_y
_atom_site_fract_z
Si Si1 0.340444 0.121636 0.496961
Si Si2 0.364483 0.626086 0.026385
Si Si3 0.075522 0.074160 0.902891
Si Si4 0.660128 0.450467 0.544222
Si Si5 0.917283 0.227089 0.844734
Si Si6 0.554292 0.955651 0.313570
Si Si7 0.468441 0.534059 0.194503
O O1 0.455672 0.281540 0.513567
O O2 0.428664 0.105124 0.597172
O O3 0.500638 0.076096 0.380680
O O4 0.000000 0.000000 0.500000
O O5 0.658236 0.771355 0.057983
O O6 0.138018 0.667991 0.052569
O O7 0.295326 0.541838 0.120013
O O8 0.431594 0.562483 0.897609
O O9 0.173452 0.004336 0.782329
O O10 0.849744 0.099668 0.886696
O O11 0.000000 0.000000 0.000000
O O12 0.500000 0.500000 0.500000
O O13 0.655710 0.499318 0.681551
O O14 0.000000 0.500000 0.500000
O O15 0.715391 0.166749 0.752024
O O16 0.242060 0.312518 0.788784
#
# Coordination Sequence:
#
# PCOD9090268 Si02
#       7
#     2   2   2   2   2   2   2
#     4  11  24  46  73  96 129 186 246 283 340 427
#     4   9  20  37  65  94 118 172 231 275 332 416
#     4  10  21  37  55  91 132 162 208 278 347 402
#     4  12  30  48  69 107 152 188 229 299 369 415
#     4  10  19  38  64  96 121 170 223 282 338 406
#     4  10  22  38  70  93 123 172 240 282 333 414
#     4  10  21  41  65  90 131 175 227 275 342 421
#
# _framework density 20.674696000000001
#
# number of rings (size 3 to 8) (size 9 to 14) (size 15 to 20)
#    0.000    1.714    0.000    4.714    8.000    3.429 
#    5.143    0.000    0.000    0.000    0.000    0.000 
#    0.000    0.000    0.000    0.000    0.000    0.000 
#
# Total GULP energy -78037.034238 kJ/mol
# GULP energy per Si atom -5574.073874 kJ/mol
# Density = 2.062764 g / cm^3
# Si number density = 20.674696 Si / 1000 Ang^3
#
#
#
# Elastic Constant Matrix: (Units=GPa)
#
#
# Indices 1 2 3 4 5 6 
#
# 1 118.1116 49.1881 63.0101 -1.7050 4.7272 -14.3704
# 2 49.1881 90.2467 55.3480 7.9172 -2.0929 -17.0072
# 3 63.0101 55.3480 180.6590 7.3533 -11.8672 -28.8295
# 4 -1.7050 7.9172 7.3533 32.1811 -4.6864 -2.5274
# 5 4.7272 -2.0929 -11.8672 -4.6864 32.4103 15.3054
# 6 -14.3704 -17.0072 -28.8295 -2.5274 15.3054 31.7517
#
#
#
# Elastic Compliance Matrix: (Units=1/GPa)
#
#
# Indices 1 2 3 4 5 6 
#
# 1 0.012512 -0.004882 -0.002801 0.002113 -0.004115 0.002657
# 2 -0.004882 0.016522 -0.002542 -0.003647 -0.002055 0.005032
# 3 -0.002801 -0.002542 0.008049 -0.000876 0.001150 0.004055
# 4 0.002113 -0.003647 -0.000876 0.032836 0.004526 -0.001360
# 5 -0.004115 -0.002055 0.001150 0.004526 0.042899 -0.022238
# 6 0.002657 0.005032 0.004055 -0.001360 -0.022238 0.049685
#
#
# Mechanical properties :
#
#
# Convention : Reuss Voigt Hill
#
# Bulk Modulus (GPa) = 60.12331 80.45660 70.28996
# Shear Modulus (GPa) = 26.52558 34.03337 30.27947
#
# Velocity S-wave (km/s) = 3.58578 4.06166 3.83112
# Velocity P-wave (km/s) = 6.80349 7.81000 7.32406
#
# Compressibility (1/GPa) = 0.01663248
#
# Stress axis : x y z
#
# Youngs Moduli (GPa) = 79.92134 60.52704 124.23397
#
# Poissons Ratio (x) = 0.29551 0.34793
# Poissons Ratio (y) = 0.39020 0.31586
# Poissons Ratio (z) = 0.22383 0.15389
#
# Static dielectric constant tensor:
#      x y z
#    x 1.864860 -0.011540 -0.021990 
#    y -0.011540 1.765520 0.043510 
#    z -0.021990 0.043510 1.702760 
# 
# From -- ./inp_files/71471.got.cif
#   From: 2010.05.17/outbox.cif.g08.bks.cpg/sg2_36_cif.got.tgz:71471.got - 2010.06.03 11:33:40.
