data_PCOD9090598
_publ_section_title
;
Structure prediction by ZEFSAII (Michael W. Deem and Ramdas Pophale) SiO2 
 PCOD9090598
Probable space group: P -1
;
_chemical_formula_sum "Si O2"
_cell_formula_units_Z 16
_cell_length_a 7.463531
_cell_length_b 9.251808
_cell_length_c 12.277006
_cell_angle_alpha 83.867367
_cell_angle_beta 117.475608
_cell_angle_gamma 125.007068
_cell_volume 601.340721
_symmetry_space_group_name_H-M "P -1"
_symmetry_group_IT_number 2
_symmetry_cell_setting 'triclinic'
loop_
_space_group_symop_operation_xyz
x,y,z
-x,-y,-z
loop_
_atom_site_type_symbol
_atom_site_label
_atom_site_fract_x
_atom_site_fract_y
_atom_site_fract_z
Si Si1 0.768631 0.591706 0.004750
Si Si2 0.702246 0.858042 0.440511
Si Si3 0.064372 0.906336 0.210715
Si Si4 0.750148 0.254924 0.562849
Si Si5 0.346124 0.061818 0.815634
Si Si6 0.545447 0.684896 0.776237
Si Si7 0.828071 0.589356 0.490001
Si Si8 0.272827 0.724209 0.899437
O O1 0.872472 0.479320 0.078378
O O2 0.963270 0.799077 0.077861
O O3 0.500000 0.500000 0.000000
O O4 0.692491 0.601303 0.860512
O O5 0.693620 0.681265 0.472885
O O6 0.549389 0.868767 0.493725
O O7 0.588029 0.876605 0.295912
O O8 0.000000 0.000000 0.500000
O O9 0.138138 0.800199 0.310609
O O10 0.270046 0.117032 0.236833
O O11 0.832388 0.882471 0.206860
O O12 0.829082 0.458088 0.585988
O O13 0.888922 0.268533 0.488762
O O14 0.199999 0.847082 0.814129
O O15 0.572659 0.165132 0.956859
O O16 0.331043 0.544512 0.644720
O O17 0.435162 0.720280 0.848177
#
# Coordination Sequence:
#
# PCOD9090598 Si02
#       8
#     2   2   2   2   2   2   2   2
#     4  10  19  38  67  98 140 188 238 292 367 423
#     4  12  28  49  76 110 150 187 248 310 364 441
#     4  12  23  42  70 105 145 194 240 298 363 438
#     4  11  26  47  74 105 143 194 245 299 369 427
#     4  11  23  43  69 106 149 190 240 300 368 433
#     4  11  23  42  72 102 141 195 246 301 365 431
#     4  11  26  49  75 104 148 195 248 304 364 438
#     4  10  22  42  72  98 148 193 238 304 356 441
#
# _framework density 26.607212000000001
#
# number of rings (size 3 to 8) (size 9 to 14) (size 15 to 20)
#    0.000    1.000    3.750    3.750    1.750    6.000 
#    4.500    0.625    0.000    0.000    0.000    0.000 
#    0.000    0.000    0.000    0.000    0.000    0.000 
#
# Total GULP energy -89544.741166 kJ/mol
# GULP energy per Si atom -5596.546323 kJ/mol
# Density = 2.654665 g / cm^3
# Si number density = 26.607212 Si / 1000 Ang^3
#
#
#
# Elastic Constant Matrix: (Units=GPa)
#
#
# Indices 1 2 3 4 5 6 
#
# 1 111.5115 29.7144 4.6407 -14.2721 7.4413 -12.1174
# 2 29.7144 151.5336 42.0072 -31.6737 15.1624 -16.9198
# 3 4.6407 42.0072 81.2541 -29.4167 12.2296 -16.7707
# 4 -14.2721 -31.6737 -29.4167 56.8305 -10.0039 10.2140
# 5 7.4413 15.1624 12.2296 -10.0039 22.8115 -9.6029
# 6 -12.1174 -16.9198 -16.7707 10.2140 -9.6029 47.8968
#
#
#
# Elastic Compliance Matrix: (Units=1/GPa)
#
#
# Indices 1 2 3 4 5 6 
#
# 1 0.009856 -0.001640 0.001506 0.001773 -0.001405 0.001782
# 2 -0.001640 0.008528 -0.003030 0.002266 -0.002262 0.000600
# 3 0.001506 -0.003030 0.017336 0.006445 -0.003559 0.003293
# 4 0.001773 0.002266 0.006445 0.023547 0.004531 -0.000607
# 5 -0.001405 -0.002262 -0.003559 0.004531 0.052728 0.007204
# 6 0.001782 0.000600 0.003293 -0.000607 0.007204 0.024268
#
#
# Mechanical properties :
#
#
# Convention : Reuss Voigt Hill
#
# Bulk Modulus (GPa) = 34.02304 55.22488 44.62396
# Shear Modulus (GPa) = 32.81081 43.37021 38.09051
#
# Velocity S-wave (km/s) = 3.51544 4.04173 3.78774
# Velocity P-wave (km/s) = 5.41227 6.52544 5.99475
#
# Compressibility (1/GPa) = 0.02939184
#
# Stress axis : x y z
#
# Youngs Moduli (GPa) = 101.45737 117.26192 57.68295
#
# Poissons Ratio (x) = 0.19232 -0.08688
# Poissons Ratio (y) = 0.16640 0.17480
# Poissons Ratio (z) = -0.15281 0.35534
#
# Static dielectric constant tensor:
#      x y z
#    x 2.090210 0.021530 -0.015070 
#    y 0.021530 2.145270 -0.007480 
#    z -0.015070 -0.007480 2.113830 
# 
# From -- ./inp_files/514231.got.cif
#   From: 2010.05.17/outbox.cif.g08.bks.cpg/sg2_258_cif.got.tgz:514231.got - 2010.06.03 11:33:40.
