data_PCOD9090142
_publ_section_title
;
Structure prediction by ZEFSAII (Michael W. Deem and Ramdas Pophale) SiO2 
 PCOD9090142
Probable space group: P -1
;
_chemical_formula_sum "Si O2"
_cell_formula_units_Z 16
_cell_length_a 25.289978
_cell_length_b 18.815783
_cell_length_c 12.106377
_cell_angle_alpha 28.042543
_cell_angle_beta 28.004486
_cell_angle_gamma 17.685836
_cell_volume 786.353988
_symmetry_space_group_name_H-M "P -1"
_symmetry_group_IT_number 2
_symmetry_cell_setting 'triclinic'
loop_
_space_group_symop_operation_xyz
x,y,z
-x,-y,-z
loop_
_atom_site_type_symbol
_atom_site_label
_atom_site_fract_x
_atom_site_fract_y
_atom_site_fract_z
Si Si1 0.146235 0.302443 0.910928
Si Si2 0.138125 0.972985 0.337159
Si Si3 0.441884 0.044316 0.894682
Si Si4 0.673293 0.703953 0.594200
Si Si5 0.557175 0.512620 0.144637
Si Si6 0.252852 0.645498 0.750115
Si Si7 0.501617 0.252654 0.630799
Si Si8 0.169477 0.428386 0.271404
O O1 0.336726 0.096282 0.910215
O O2 0.181308 0.390049 0.633214
O O3 0.000000 0.500000 0.000000
O O4 0.089643 0.199730 0.108743
O O5 0.338588 0.753924 0.214367
O O6 0.163945 0.890848 0.529771
O O7 0.000000 0.000000 0.500000
O O8 0.400849 0.258159 0.716701
O O9 0.658672 0.809152 0.792748
O O10 0.390155 0.986675 0.169509
O O11 0.750985 0.640083 0.659857
O O12 0.500000 0.000000 0.500000
O O13 0.626597 0.574679 0.853753
O O14 0.629654 0.459472 0.210737
O O15 0.603658 0.288434 0.341537
O O16 0.374784 0.457661 0.679955
O O17 0.118253 0.648840 0.018662
O O18 0.000000 0.500000 0.500000
#
# Coordination Sequence:
#
# PCOD9090142 Si02
#       8
#     2   2   2   2   2   2   2   2
#     4  12  26  40  62  90 131 165 207 254 321 378
#     4  11  22  35  60  92 124 158 206 264 298 360
#     4  10  20  38  58  90 125 165 199 260 319 365
#     4  11  21  41  64  84 121 172 204 246 314 375
#     4  10  19  38  64  85 117 170 213 246 302 386
#     4   9  19  36  59  87 117 158 215 243 306 369
#     4   9  18  32  63  86 120 151 207 256 311 360
#     4  10  21  36  63  88 116 159 214 255 299 372
#
# _framework density 20.347069999999999
#
# number of rings (size 3 to 8) (size 9 to 14) (size 15 to 20)
#    0.000    1.750    2.500    3.750    5.250    2.000 
#    0.000    1.875    0.000    3.750    0.000    0.000 
#    0.000    0.000    0.000    0.000    0.000    0.000 
#
# Total GULP energy -89155.650445 kJ/mol
# GULP energy per Si atom -5572.228153 kJ/mol
# Density = 2.030076 g / cm^3
# Si number density = 20.347070 Si / 1000 Ang^3
#
#
#
# Elastic Constant Matrix: (Units=GPa)
#
#
# Indices 1 2 3 4 5 6 
#
# 1 55.4655 4.5772 42.8575 2.5644 -12.5361 2.3456
# 2 4.5772 36.6954 36.6442 13.0235 -5.2556 2.4881
# 3 42.8575 36.6442 219.0952 0.3874 -14.5901 6.7681
# 4 2.5644 13.0235 0.3874 25.3926 0.7205 -2.7839
# 5 -12.5361 -5.2556 -14.5901 0.7205 42.9927 1.8872
# 6 2.3456 2.4881 6.7681 -2.7839 1.8872 22.3071
#
#
#
# Elastic Compliance Matrix: (Units=1/GPa)
#
#
# Indices 1 2 3 4 5 6 
#
# 1 0.023041 0.004803 -0.004829 -0.005172 0.005869 -0.002635
# 2 0.004803 0.043914 -0.007722 -0.023732 0.004828 -0.006430
# 3 -0.004829 -0.007722 0.006789 0.004333 -0.000114 -0.000140
# 4 -0.005172 -0.023732 0.004333 0.053101 -0.004218 0.008860
# 5 0.005869 0.004828 -0.000114 -0.004218 0.025761 -0.003827
# 6 -0.002635 -0.006430 -0.000140 0.008860 -0.003827 0.047295
#
#
# Mechanical properties :
#
#
# Convention : Reuss Voigt Hill
#
# Bulk Modulus (GPa) = 17.16775 53.26820 35.21797
# Shear Modulus (GPa) = 21.29346 33.28363 27.28855
#
# Velocity S-wave (km/s) = 3.23849 4.04888 3.66615
# Velocity P-wave (km/s) = 4.73704 6.93502 5.93861
#
# Compressibility (1/GPa) = 0.05824876
#
# Stress axis : x y z
#
# Youngs Moduli (GPa) = 43.40019 22.77187 147.28709
#
# Poissons Ratio (x) = -0.10938 0.71127
# Poissons Ratio (y) = -0.20846 1.13737
# Poissons Ratio (z) = 0.20958 0.17585
#
# Static dielectric constant tensor:
#      x y z
#    x 1.755770 -0.046440 -0.023260 
#    y -0.046440 1.907670 -0.035670 
#    z -0.023260 -0.035670 1.815080 
# 
# From -- ./inp_files/475330.got.cif
#   From: 2010.05.17/outbox.cif.g08.bks.cpg/sg2_238_cif.got.tgz:475330.got - 2010.06.03 11:33:40.
