data_PCOD9090373
_publ_section_title
;
Structure prediction by ZEFSAII (Michael W. Deem and Ramdas Pophale) SiO2 
 PCOD9090373
Probable space group: P -1
;
_chemical_formula_sum "Si O2"
_cell_formula_units_Z 16
_cell_length_a 9.067763
_cell_length_b 15.227408
_cell_length_c 8.694483
_cell_angle_alpha 55.947590
_cell_angle_beta 52.206520
_cell_angle_gamma 91.653536
_cell_volume 646.805782
_symmetry_space_group_name_H-M "P -1"
_symmetry_group_IT_number 2
_symmetry_cell_setting 'triclinic'
loop_
_space_group_symop_operation_xyz
x,y,z
-x,-y,-z
loop_
_atom_site_type_symbol
_atom_site_label
_atom_site_fract_x
_atom_site_fract_y
_atom_site_fract_z
Si Si1 0.499649 0.389686 0.799746
Si Si2 0.682225 0.967803 0.441598
Si Si3 0.548590 0.751811 0.506347
Si Si4 0.766290 0.530240 0.893027
Si Si5 0.846665 0.645533 0.381590
Si Si6 0.785683 0.237648 0.515645
Si Si7 0.034414 0.129046 0.281405
Si Si8 0.317223 0.766929 0.076709
O O1 0.689933 0.531446 0.470641
O O2 0.669184 0.352598 0.782667
O O3 0.376493 0.422788 0.975530
O O4 0.288606 0.259260 0.986974
O O5 0.672466 0.883067 0.393300
O O6 0.500000 0.000000 0.500000
O O7 0.923330 0.084005 0.229116
O O8 0.564045 0.870571 0.754354
O O9 0.733736 0.723083 0.381658
O O10 0.414650 0.767357 0.440371
O O11 0.362750 0.622268 0.849628
O O12 0.810047 0.581505 0.639745
O O13 0.007933 0.612734 0.741987
O O14 0.117935 0.728647 0.120785
O O15 0.882789 0.166596 0.434712
O O16 0.720129 0.186627 0.782592
O O17 0.000000 0.000000 0.500000
#
# Coordination Sequence:
#
# PCOD9090373 Si02
#       8
#     2   2   2   2   2   2   2   2
#     4  10  19  38  65  94 123 165 218 250 309 379
#     4  12  25  45  66  94 124 171 220 261 312 385
#     4  11  21  41  65  93 131 167 216 263 308 380
#     4   9  19  36  67  93 126 171 217 255 314 382
#     4  10  21  38  66  99 130 166 210 266 325 373
#     4  10  23  41  62  99 128 165 211 267 327 365
#     4  11  23  42  67  91 124 175 219 255 304 391
#     4  11  23  41  65  95 131 165 206 269 327 377
#
# _framework density 24.736944999999999
#
# number of rings (size 3 to 8) (size 9 to 14) (size 15 to 20)
#    0.000    1.500    2.500    3.750    3.500    1.500 
#    2.250    3.125    0.000    0.000    0.000    0.000 
#    0.000    0.000    0.000    0.000    0.000    0.000 
#
# Total GULP energy -89409.561183 kJ/mol
# GULP energy per Si atom -5588.097574 kJ/mol
# Density = 2.468064 g / cm^3
# Si number density = 24.736945 Si / 1000 Ang^3
#
#
#
# Elastic Constant Matrix: (Units=GPa)
#
#
# Indices 1 2 3 4 5 6 
#
# 1 167.2212 73.9399 27.4443 -29.6212 -38.6184 4.7711
# 2 73.9399 132.4174 21.3305 -36.3802 -18.4920 0.5843
# 3 27.4443 21.3305 51.6948 -8.1058 -20.8384 18.9916
# 4 -29.6212 -36.3802 -8.1058 28.2431 6.7978 -9.8076
# 5 -38.6184 -18.4920 -20.8384 6.7978 44.3786 -13.4761
# 6 4.7711 0.5843 18.9916 -9.8076 -13.4761 48.1054
#
#
#
# Elastic Compliance Matrix: (Units=1/GPa)
#
#
# Indices 1 2 3 4 5 6 
#
# 1 0.009963 -0.002832 -0.001503 0.005681 0.006728 0.002683
# 2 -0.002832 0.014078 -0.003247 0.015690 0.000948 0.004856
# 3 -0.001503 -0.003247 0.027569 -0.002911 0.007981 -0.009053
# 4 0.005681 0.015690 -0.002911 0.064787 0.004724 0.014927
# 5 0.006728 0.000948 0.007981 0.004724 0.033813 0.006606
# 6 0.002683 0.004856 -0.009053 0.014927 0.006606 0.028930
#
#
# Mechanical properties :
#
#
# Convention : Reuss Voigt Hill
#
# Bulk Modulus (GPa) = 27.43881 66.30699 46.87290
# Shear Modulus (GPa) = 24.21861 39.38666 31.80263
#
# Velocity S-wave (km/s) = 3.13237 3.99459 3.58946
# Velocity P-wave (km/s) = 4.91921 6.93821 6.01404
#
# Compressibility (1/GPa) = 0.03644474
#
# Stress axis : x y z
#
# Youngs Moduli (GPa) = 100.37340 71.03283 36.27304
#
# Poissons Ratio (x) = 0.20119 0.05452
# Poissons Ratio (y) = 0.28429 0.11778
# Poissons Ratio (z) = 0.15087 0.23064
#
# Static dielectric constant tensor:
#      x y z
#    x 1.911820 0.151040 -0.146140 
#    y 0.151040 1.869580 0.190040 
#    z -0.146140 0.190040 1.583120 
# 
# From -- ./inp_files/205864.got.cif
#   From: 2010.05.17/outbox.cif.g08.bks.cpg/sg2_103_cif.got.tgz:205864.got - 2010.06.03 11:33:40.
