data_PCOD9090642
_publ_section_title
;
Structure prediction by ZEFSAII (Michael W. Deem and Ramdas Pophale) SiO2 
 PCOD9090642
Probable space group: P -1
;
_chemical_formula_sum "Si O2"
_cell_formula_units_Z 16
_cell_length_a 8.790729
_cell_length_b 15.352237
_cell_length_c 9.073750
_cell_angle_alpha 143.784621
_cell_angle_beta 98.679116
_cell_angle_gamma 81.882210
_cell_volume 714.820742
_symmetry_space_group_name_H-M "P -1"
_symmetry_group_IT_number 2
_symmetry_cell_setting 'triclinic'
loop_
_space_group_symop_operation_xyz
x,y,z
-x,-y,-z
loop_
_atom_site_type_symbol
_atom_site_label
_atom_site_fract_x
_atom_site_fract_y
_atom_site_fract_z
Si Si1 0.575254 0.911460 0.027816
Si Si2 0.107284 0.503609 0.380456
Si Si3 0.390504 0.550017 0.917312
Si Si4 0.894405 0.835987 0.094292
Si Si5 0.686197 0.187466 0.553765
Si Si6 0.913204 0.609686 0.254165
Si Si7 0.586927 0.364655 0.478205
Si Si8 0.052071 0.097931 0.481711
O O1 0.756327 0.859184 0.988994
O O2 0.586686 0.040389 0.327736
O O3 0.485317 0.760047 0.805409
O O4 0.500000 0.000000 0.000000
O O5 0.281320 0.551124 0.472996
O O6 0.000000 0.500000 0.500000
O O7 0.031195 0.621298 0.419533
O O8 0.093502 0.335149 0.097111
O O9 0.231683 0.471453 0.814402
O O10 0.468454 0.487872 0.696548
O O11 0.500000 0.500000 0.000000
O O12 0.357233 0.721268 0.181415
O O13 0.874098 0.905135 0.349666
O O14 0.038688 0.931256 0.191196
O O15 0.648170 0.280407 0.523561
O O16 0.871203 0.156693 0.536166
O O17 0.866222 0.771938 0.413106
O O18 0.000000 0.500000 0.000000
#
# Coordination Sequence:
#
# PCOD9090642 Si02
#       8
#     2   2   2   2   2   2   2   2
#     4   9  20  38  64  91 134 180 211 266 341 409
#     4  12  26  43  65  97 137 177 225 280 337 402
#     4  10  20  33  62 102 121 162 233 273 315 397
#     4  10  22  38  64  99 134 169 223 278 330 388
#     4   9  16  36  64  95 124 170 223 269 327 394
#     4  12  20  40  70  96 130 181 224 274 337 397
#     4  10  21  40  63  92 131 177 218 271 334 403
#     4  10  19  38  68  96 129 174 219 281 326 391
#
# _framework density 22.383236
#
# number of rings (size 3 to 8) (size 9 to 14) (size 15 to 20)
#    0.000    1.750    3.750    0.750    1.750    0.500 
#    0.000    5.625    0.000    1.500    0.000    0.000 
#    0.000    0.000    0.000    0.000    0.000    0.000 
#
# Total GULP energy -89097.027729 kJ/mol
# GULP energy per Si atom -5568.564233 kJ/mol
# Density = 2.233229 g / cm^3
# Si number density = 22.383236 Si / 1000 Ang^3
#
#
#
# Elastic Constant Matrix: (Units=GPa)
#
#
# Indices 1 2 3 4 5 6 
#
# 1 86.0158 16.7376 47.9928 -11.6950 12.1127 21.7868
# 2 16.7376 79.9315 33.6534 3.0260 4.7679 0.2168
# 3 47.9928 33.6534 139.3325 35.3190 25.8834 36.6114
# 4 -11.6950 3.0260 35.3190 30.1226 -2.5054 11.9865
# 5 12.1127 4.7679 25.8834 -2.5054 22.4059 0.2403
# 6 21.7868 0.2168 36.6114 11.9865 0.2403 45.8610
#
#
#
# Elastic Compliance Matrix: (Units=1/GPa)
#
#
# Indices 1 2 3 4 5 6 
#
# 1 0.027515 0.000158 -0.018892 0.036792 0.011112 -0.007665
# 2 0.000158 0.015003 -0.007409 0.006082 0.005917 0.004148
# 3 -0.018892 -0.007409 0.036605 -0.049704 -0.035979 -0.007033
# 4 0.036792 0.006082 -0.049704 0.112156 0.048854 -0.007398
# 5 0.011112 0.005917 -0.035979 0.048854 0.084281 0.010205
# 6 -0.007665 0.004148 -0.007033 -0.007398 0.010205 0.032921
#
#
# Mechanical properties :
#
#
# Convention : Reuss Voigt Hill
#
# Bulk Modulus (GPa) = 37.26396 55.78303 46.52349
# Shear Modulus (GPa) = 13.52402 33.47098 23.49750
#
# Velocity S-wave (km/s) = 2.46072 3.87118 3.24355
# Velocity P-wave (km/s) = 4.97572 6.70502 5.90403
#
# Compressibility (1/GPa) = 0.02683558
#
# Stress axis : x y z
#
# Youngs Moduli (GPa) = 36.34379 66.65522 27.31877
#
# Poissons Ratio (x) = -0.01051 0.51611
# Poissons Ratio (y) = -0.00573 0.20240
# Poissons Ratio (z) = 0.68662 0.49383
#
# Static dielectric constant tensor:
#      x y z
#    x 2.316000 -0.100650 -0.137330 
#    y -0.100650 1.811210 0.056300 
#    z -0.137330 0.056300 1.862610 
# 
# From -- ./inp_files/209386.got.cif
#   From: 2010.05.17/outbox.cif.g08.bks.cpg/sg2_105_cif.got.tgz:209386.got - 2010.06.03 11:33:40.
