data_PCOD9090604
_publ_section_title
;
Structure prediction by ZEFSAII (Michael W. Deem and Ramdas Pophale) SiO2 
 PCOD9090604
Probable space group: P -1
;
_chemical_formula_sum "Si O2"
_cell_formula_units_Z 12
_cell_length_a 11.336995
_cell_length_b 10.190338
_cell_length_c 7.729764
_cell_angle_alpha 62.470685
_cell_angle_beta 116.595620
_cell_angle_gamma 136.502749
_cell_volume 535.752565
_symmetry_space_group_name_H-M "P -1"
_symmetry_group_IT_number 2
_symmetry_cell_setting 'triclinic'
loop_
_space_group_symop_operation_xyz
x,y,z
-x,-y,-z
loop_
_atom_site_type_symbol
_atom_site_label
_atom_site_fract_x
_atom_site_fract_y
_atom_site_fract_z
Si Si1 0.794804 0.003239 0.447575
Si Si2 0.108269 0.931029 0.149437
Si Si3 0.109968 0.726499 0.970780
Si Si4 0.704013 0.631703 0.498546
Si Si5 0.409215 0.737175 0.218135
Si Si6 0.414800 0.310566 0.944253
O O1 0.883749 0.152644 0.255756
O O2 0.805687 0.831982 0.548227
O O3 0.587530 0.882674 0.356795
O O4 0.877669 0.107878 0.619722
O O5 0.303757 0.119872 0.104838
O O6 0.045307 0.759887 0.080484
O O7 0.000000 0.000000 0.000000
O O8 0.307799 0.813825 0.075329
O O9 0.000000 0.500000 0.000000
O O10 0.500000 0.500000 0.500000
O O11 0.723897 0.474121 0.644024
O O12 0.710790 0.693259 0.269669
O O13 0.459976 0.693662 0.096420
O O14 0.500000 0.500000 0.000000
#
# Coordination Sequence:
#
# PCOD9090604 Si02
#       6
#     2   2   2   2   2   2
#     4  10  22  46  70  96 131 180 232 274 333 404
#     4  12  27  44  69 102 135 181 230 272 341 410
#     4  12  28  46  66 101 145 182 214 287 349 391
#     4   8  16  35  65  98 123 167 217 275 329 383
#     4  10  21  43  70 101 137 170 231 283 338 395
#     4  10  19  38  68 102 130 174 229 277 325 402
#
# _framework density 22.398401
#
# number of rings (size 3 to 8) (size 9 to 14) (size 15 to 20)
#    0.000    2.000    3.333    3.500    4.667    3.333 
#    3.000    0.000    0.000    0.000    0.000    0.000 
#    0.000    0.000    0.000    0.000    0.000    0.000 
#
# Total GULP energy -67043.350867 kJ/mol
# GULP energy per Si atom -5586.945906 kJ/mol
# Density = 2.234742 g / cm^3
# Si number density = 22.398401 Si / 1000 Ang^3
#
#
#
# Elastic Constant Matrix: (Units=GPa)
#
#
# Indices 1 2 3 4 5 6 
#
# 1 94.2229 21.3300 26.1862 15.1258 22.5395 -12.4429
# 2 21.3300 137.6524 38.7412 13.3947 -7.2535 -15.6939
# 3 26.1862 38.7412 136.9826 15.6397 3.9497 -15.9667
# 4 15.1258 13.3947 15.6397 43.6155 -9.2078 -10.9748
# 5 22.5395 -7.2535 3.9497 -9.2078 16.2832 -1.9286
# 6 -12.4429 -15.6939 -15.9667 -10.9748 -1.9286 36.0120
#
#
#
# Elastic Compliance Matrix: (Units=1/GPa)
#
#
# Indices 1 2 3 4 5 6 
#
# 1 0.026234 -0.004948 -0.000296 -0.018130 -0.048859 -0.001365
# 2 -0.004948 0.009396 -0.002114 0.003304 0.013794 0.003193
# 3 -0.000296 -0.002114 0.008582 -0.002720 -0.003946 0.001741
# 4 -0.018130 0.003304 -0.002720 0.042740 0.052559 0.009809
# 5 -0.048859 0.013794 -0.003946 0.052559 0.167331 0.012359
# 6 -0.001365 0.003193 0.001741 0.009809 0.012359 0.033112
#
#
# Mechanical properties :
#
#
# Convention : Reuss Voigt Hill
#
# Bulk Modulus (GPa) = 33.90340 60.15252 47.02796
# Shear Modulus (GPa) = 16.02864 38.02218 27.02541
#
# Velocity S-wave (km/s) = 2.67800 4.12459 3.47735
# Velocity P-wave (km/s) = 4.97309 7.04252 6.09626
#
# Compressibility (1/GPa) = 0.02949557
#
# Stress axis : x y z
#
# Youngs Moduli (GPa) = 38.11915 106.43072 116.52292
#
# Poissons Ratio (x) = 0.52659 0.03449
# Poissons Ratio (y) = 0.18860 0.24635
# Poissons Ratio (z) = 0.01128 0.22501
#
# Static dielectric constant tensor:
#      x y z
#    x 1.916860 0.034760 0.009090 
#    y 0.034760 1.857510 -0.003970 
#    z 0.009090 -0.003970 1.861710 
# 
# From -- ./inp_files/234265.got.cif
#   From: 2010.05.17/outbox.cif.g08.bks.cpg/sg2_118_cif.got.tgz:234265.got - 2010.06.03 11:33:40.
