data_PCOD9090392
_publ_section_title
;
Structure prediction by ZEFSAII (Michael W. Deem and Ramdas Pophale) SiO2 
 PCOD9090392
Probable space group: P -1
;
_chemical_formula_sum "Si O2"
_cell_formula_units_Z 16
_cell_length_a 17.008080
_cell_length_b 7.121228
_cell_length_c 18.587586
_cell_angle_alpha 114.372179
_cell_angle_beta 146.763065
_cell_angle_gamma 44.848252
_cell_volume 769.707656
_symmetry_space_group_name_H-M "P -1"
_symmetry_group_IT_number 2
_symmetry_cell_setting 'triclinic'
loop_
_space_group_symop_operation_xyz
x,y,z
-x,-y,-z
loop_
_atom_site_type_symbol
_atom_site_label
_atom_site_fract_x
_atom_site_fract_y
_atom_site_fract_z
Si Si1 0.506158 0.232937 0.802894
Si Si2 0.284986 0.797529 0.343655
Si Si3 0.941158 0.870256 0.158435
Si Si4 0.854322 0.596245 0.648820
Si Si5 0.477529 0.399923 0.644253
Si Si6 0.124861 0.359737 0.686281
Si Si7 0.707519 0.397824 0.167267
Si Si8 0.279786 0.044430 0.612708
O O1 0.518468 0.309702 0.744673
O O2 0.322806 0.528655 0.759100
O O3 0.445034 0.055128 0.726033
O O4 0.725824 0.043557 0.980780
O O5 0.500000 0.500000 0.500000
O O6 0.328702 0.777141 0.289167
O O7 0.104570 0.823375 0.227537
O O8 0.217303 0.094037 0.366190
O O9 0.045932 0.556957 0.221973
O O10 0.890534 0.071942 0.220186
O O11 0.662248 0.642345 0.498392
O O12 0.028822 0.368228 0.685627
O O13 0.354572 0.743707 0.599151
O O14 0.279741 0.387720 0.823668
O O15 0.230571 0.097733 0.668774
O O16 0.930187 0.668804 0.543963
O O17 0.500000 0.500000 0.000000
#
# Coordination Sequence:
#
# PCOD9090392 Si02
#       8
#     2   2   2   2   2   2   2   2
#     4  10  24  43  64  99 138 169 214 269 330 392
#     4  12  26  45  69  95 130 170 229 275 318 384
#     4  11  24  43  68  96 134 175 215 275 326 381
#     4  12  24  41  70 100 121 173 229 265 328 386
#     4  12  25  40  69  94 130 177 217 268 326 385
#     4  10  19  38  65  96 132 165 217 273 322 388
#     4   9  19  41  64  95 138 171 205 270 327 383
#     4  10  22  40  61  97 136 166 210 275 327 382
#
# _framework density 20.787113999999999
#
# number of rings (size 3 to 8) (size 9 to 14) (size 15 to 20)
#    0.000    1.250    3.750    1.875    1.750    2.000 
#    0.000    3.125    0.000    0.000    0.000    0.000 
#    0.000    0.000    0.000    0.000    0.000    0.000 
#
# Total GULP energy -89407.659044 kJ/mol
# GULP energy per Si atom -5587.978690 kJ/mol
# Density = 2.073980 g / cm^3
# Si number density = 20.787114 Si / 1000 Ang^3
#
#
#
# Elastic Constant Matrix: (Units=GPa)
#
#
# Indices 1 2 3 4 5 6 
#
# 1 159.1859 9.6087 27.3557 -7.9154 8.2435 1.8855
# 2 9.6087 35.1118 3.1906 1.7832 2.1527 2.8250
# 3 27.3557 3.1906 81.3533 1.1768 11.9373 10.3181
# 4 -7.9154 1.7832 1.1768 13.9698 5.3102 3.4401
# 5 8.2435 2.1527 11.9373 5.3102 37.3372 1.8566
# 6 1.8855 2.8250 10.3181 3.4401 1.8566 24.1991
#
#
#
# Elastic Compliance Matrix: (Units=1/GPa)
#
#
# Indices 1 2 3 4 5 6 
#
# 1 0.007095 -0.001908 -0.002166 0.005008 -0.001476 -0.000005
# 2 -0.001908 0.029457 -0.000034 -0.003965 -0.000570 -0.002668
# 3 -0.002166 -0.000034 0.014306 0.000447 -0.003874 -0.005693
# 4 0.005008 -0.003965 0.000447 0.082191 -0.012169 -0.010868
# 5 -0.001476 -0.000570 -0.003874 -0.012169 0.030048 0.001258
# 6 -0.000005 -0.002668 -0.005693 -0.010868 0.001258 0.045512
#
#
# Mechanical properties :
#
#
# Convention : Reuss Voigt Hill
#
# Bulk Modulus (GPa) = 23.45199 39.55124 31.50161
# Shear Modulus (GPa) = 21.64130 30.80096 26.22113
#
# Velocity S-wave (km/s) = 3.23010 3.85350 3.55549
# Velocity P-wave (km/s) = 5.02174 6.23438 5.66062
#
# Compressibility (1/GPa) = 0.04264030
#
# Stress axis : x y z
#
# Youngs Moduli (GPa) = 140.94587 33.94809 69.90145
#
# Poissons Ratio (x) = 0.06478 0.15141
# Poissons Ratio (y) = 0.26895 0.00240
# Poissons Ratio (z) = 0.30530 0.00116
#
# Static dielectric constant tensor:
#      x y z
#    x 1.765870 -0.033530 -0.012570 
#    y -0.033530 1.749740 0.005150 
#    z -0.012570 0.005150 1.730300 
# 
# From -- ./inp_files/367871.got.cif
#   From: 2010.05.17/outbox.cif.g08.bks.cpg/sg2_184_cif.got.tgz:367871.got - 2010.06.03 11:33:40.
