data_PCOD9090720
_publ_section_title
;
Structure prediction by ZEFSAII (Michael W. Deem and Ramdas Pophale) SiO2 
 PCOD9090720
Probable space group: P -1
;
_chemical_formula_sum "Si O2"
_cell_formula_units_Z 16
_cell_length_a 7.634959
_cell_length_b 15.579848
_cell_length_c 7.843135
_cell_angle_alpha 44.027332
_cell_angle_beta 104.473740
_cell_angle_gamma 114.219251
_cell_volume 589.838811
_symmetry_space_group_name_H-M "P -1"
_symmetry_group_IT_number 2
_symmetry_cell_setting 'triclinic'
loop_
_space_group_symop_operation_xyz
x,y,z
-x,-y,-z
loop_
_atom_site_type_symbol
_atom_site_label
_atom_site_fract_x
_atom_site_fract_y
_atom_site_fract_z
Si Si1 0.909619 0.999912 0.218070
Si Si2 0.914482 0.673525 0.845227
Si Si3 0.037172 0.483484 0.336472
Si Si4 0.270216 0.160604 0.258453
Si Si5 0.341766 0.853006 0.196566
Si Si6 0.158682 0.255564 0.628210
Si Si7 0.353773 0.853413 0.608103
Si Si8 0.453707 0.640049 0.286126
O O1 0.336780 0.844685 0.412543
O O2 0.899888 0.893569 0.225538
O O3 0.776368 0.919860 0.456280
O O4 0.836579 0.116734 0.979065
O O5 0.818566 0.726240 0.898159
O O6 0.787475 0.673963 0.646805
O O7 0.134062 0.779965 0.724309
O O8 0.914380 0.531878 0.103371
O O9 0.017835 0.333416 0.529957
O O10 0.253674 0.581294 0.222699
O O11 0.000000 0.500000 0.500000
O O12 0.496365 0.218777 0.195147
O O13 0.500000 0.000000 0.500000
O O14 0.129072 0.052805 0.256574
O O15 0.393306 0.734228 0.284230
O O16 0.500000 0.000000 0.000000
O O17 0.321085 0.273976 0.781663
O O18 0.500000 0.500000 0.500000
#
# Coordination Sequence:
#
# PCOD9090720 Si02
#       8
#     2   2   2   2   2   2   2   2
#     4  10  19  38  74 103 149 182 241 305 360 433
#     4  11  25  47  72 103 144 192 245 298 371 444
#     4  11  26  48  72  98 140 190 248 307 369 435
#     4  10  21  44  67 104 150 189 233 304 368 442
#     4  12  22  41  76 111 146 193 249 304 365 444
#     4  10  21  44  69 100 138 183 238 304 357 440
#     4  12  26  43  71 111 151 197 239 304 383 441
#     4  10  23  44  74 104 145 189 245 309 364 438
#
# _framework density 27.126056999999999
#
# number of rings (size 3 to 8) (size 9 to 14) (size 15 to 20)
#    0.000    1.250    2.500    4.125    3.500    0.000 
#    9.000    5.000    0.000    0.000    0.000    0.000 
#    0.000    0.000    0.000    0.000    0.000    0.000 
#
# Total GULP energy -89258.114403 kJ/mol
# GULP energy per Si atom -5578.632150 kJ/mol
# Density = 2.706432 g / cm^3
# Si number density = 27.126057 Si / 1000 Ang^3
#
#
#
# Elastic Constant Matrix: (Units=GPa)
#
#
# Indices 1 2 3 4 5 6 
#
# 1 115.2398 15.6675 17.5579 -12.2872 6.7983 10.3395
# 2 15.6675 141.9935 16.9458 -19.3361 7.2429 -9.1607
# 3 17.5579 16.9458 117.9947 -17.7072 21.4624 3.3816
# 4 -12.2872 -19.3361 -17.7072 41.5495 9.8678 20.3728
# 5 6.7983 7.2429 21.4624 9.8678 41.6751 -8.9695
# 6 10.3395 -9.1607 3.3816 20.3728 -8.9695 49.8305
#
#
#
# Elastic Compliance Matrix: (Units=1/GPa)
#
#
# Indices 1 2 3 4 5 6 
#
# 1 0.010262 -0.000348 0.000744 0.007440 -0.005093 -0.006202
# 2 -0.000348 0.007774 0.000139 0.004636 -0.002653 -0.000881
# 3 0.000744 0.000139 0.012402 0.012082 -0.011095 -0.007907
# 4 0.007440 0.004636 0.012082 0.053982 -0.027151 -0.028469
# 5 -0.005093 -0.002653 -0.011095 -0.027151 0.041720 0.019932
# 6 -0.006202 -0.000881 -0.007907 -0.028469 0.019932 0.036957
#
#
# Mechanical properties :
#
#
# Convention : Reuss Voigt Hill
#
# Bulk Modulus (GPa) = 31.73852 52.84116 42.28984
# Shear Modulus (GPa) = 28.98047 48.28148 38.63097
#
# Velocity S-wave (km/s) = 3.27213 4.22345 3.77786
# Velocity P-wave (km/s) = 5.09917 6.58070 5.88673
#
# Compressibility (1/GPa) = 0.03150745
#
# Stress axis : x y z
#
# Youngs Moduli (GPa) = 97.44831 128.62933 80.63043
#
# Poissons Ratio (x) = 0.04479 -0.05997
# Poissons Ratio (y) = 0.03393 -0.01120
# Poissons Ratio (z) = -0.07248 -0.01788
#
# Static dielectric constant tensor:
#      x y z
#    x 2.287640 -0.021640 0.055140 
#    y -0.021640 2.054350 -0.101500 
#    z 0.055140 -0.101500 2.026300 
# 
# From -- ./inp_files/199085.got.cif
#   From: 2010.05.17/outbox.cif.g08.bks.cpg/sg2_100_cif.got.tgz:199085.got - 2010.06.03 11:33:40.
