data_PCOD9090391
_publ_section_title
;
Structure prediction by ZEFSAII (Michael W. Deem and Ramdas Pophale) SiO2 
 PCOD9090391
Probable space group: P -1
;
_chemical_formula_sum "Si O2"
_cell_formula_units_Z 16
_cell_length_a 12.429342
_cell_length_b 9.082871
_cell_length_c 25.410756
_cell_angle_alpha 149.858646
_cell_angle_beta 149.790845
_cell_angle_gamma 40.239738
_cell_volume 723.337491
_symmetry_space_group_name_H-M "P -1"
_symmetry_group_IT_number 2
_symmetry_cell_setting 'triclinic'
loop_
_space_group_symop_operation_xyz
x,y,z
-x,-y,-z
loop_
_atom_site_type_symbol
_atom_site_label
_atom_site_fract_x
_atom_site_fract_y
_atom_site_fract_z
Si Si1 0.246163 0.227412 0.714623
Si Si2 0.440944 0.664251 0.366369
Si Si3 0.187806 0.881956 0.004781
Si Si4 0.040669 0.225197 0.225825
Si Si5 0.531414 0.696735 0.624995
Si Si6 0.370695 0.881924 0.755472
Si Si7 0.360382 0.355621 0.978054
Si Si8 0.028053 0.686782 0.122996
O O1 0.033104 0.444207 0.684860
O O2 0.349132 0.961137 0.639453
O O3 0.210398 0.055615 0.701484
O O4 0.431018 0.466435 0.866852
O O5 0.440123 0.521216 0.380256
O O6 0.627106 0.466120 0.353198
O O7 0.223758 0.623257 0.227570
O O8 0.500000 0.000000 0.500000
O O9 0.135366 0.891347 0.924392
O O10 0.247914 0.548595 0.943341
O O11 0.403116 0.045290 0.153755
O O12 0.000000 0.000000 0.000000
O O13 0.243796 0.179864 0.258822
O O14 0.060438 0.016106 0.219248
O O15 0.500000 0.500000 0.500000
O O16 0.382780 0.029910 0.862909
O O17 0.194312 0.350982 0.953294
O O18 0.000000 0.500000 0.000000
#
# Coordination Sequence:
#
# PCOD9090391 Si02
#       8
#     2   2   2   2   2   2   2   2
#     4  10  21  39  68 100 131 168 226 286 335 404
#     4  11  25  47  69  95 135 180 226 278 340 409
#     4  11  18  34  64  95 126 168 219 274 336 401
#     4  12  22  40  64  95 134 171 225 278 338 404
#     4  11  25  46  72  95 127 183 237 284 337 401
#     4  10  19  38  65  96 128 170 219 277 333 402
#     4  11  20  38  62  99 134 168 217 278 343 393
#     4  12  26  41  64 103 142 180 219 276 346 410
#
# _framework density 22.119689000000001
#
# number of rings (size 3 to 8) (size 9 to 14) (size 15 to 20)
#    0.000    1.000    2.500    7.500    0.000    1.000 
#    4.500    0.625    0.000    0.000    0.000    0.000 
#    0.000    0.000    0.000    0.000    0.000    0.000 
#
# Total GULP energy -89206.798656 kJ/mol
# GULP energy per Si atom -5575.424916 kJ/mol
# Density = 2.206934 g / cm^3
# Si number density = 22.119689 Si / 1000 Ang^3
#
#
#
# Elastic Constant Matrix: (Units=GPa)
#
#
# Indices 1 2 3 4 5 6 
#
# 1 102.2764 37.9075 22.9944 11.7439 -22.6591 -5.5492
# 2 37.9075 90.2420 17.5231 28.3688 -11.9404 -3.0787
# 3 22.9944 17.5231 67.7271 20.8921 -28.8596 -4.0530
# 4 11.7439 28.3688 20.8921 34.3877 -4.9798 -7.4993
# 5 -22.6591 -11.9404 -28.8596 -4.9798 38.7218 8.3386
# 6 -5.5492 -3.0787 -4.0530 -7.4993 8.3386 37.8951
#
#
#
# Elastic Compliance Matrix: (Units=1/GPa)
#
#
# Indices 1 2 3 4 5 6 
#
# 1 0.012889 -0.004854 -0.001274 0.001224 0.005153 0.000465
# 2 -0.004854 0.017523 0.002946 -0.014664 0.003439 -0.002631
# 3 -0.001274 0.002946 0.027817 -0.017063 0.019710 -0.004686
# 4 0.001224 -0.014664 -0.017063 0.051566 -0.012048 0.010019
# 5 0.005153 0.003439 0.019710 -0.012048 0.045012 -0.009147
# 6 0.000465 -0.002631 -0.004686 0.010019 -0.009147 0.029737
#
#
# Mechanical properties :
#
#
# Convention : Reuss Voigt Hill
#
# Bulk Modulus (GPa) = 19.28079 46.34395 32.81237
# Shear Modulus (GPa) = 24.01553 34.32228 29.16891
#
# Velocity S-wave (km/s) = 3.29858 3.94339 3.63531
# Velocity P-wave (km/s) = 4.82110 6.45993 5.69972
#
# Compressibility (1/GPa) = 0.05186509
#
# Stress axis : x y z
#
# Youngs Moduli (GPa) = 77.58322 57.06631 35.94875
#
# Poissons Ratio (x) = 0.27701 0.04580
# Poissons Ratio (y) = 0.37660 -0.10589
# Poissons Ratio (z) = 0.09885 -0.16810
#
# Static dielectric constant tensor:
#      x y z
#    x 1.785720 -0.109790 0.104240 
#    y -0.109790 1.818780 0.169260 
#    z 0.104240 0.169260 1.574910 
# 
# From -- ./inp_files/618251.got.cif
#   From: 2010.05.17/outbox.cif.g08.bks.cpg/sg2_310_cif.got.tgz:618251.got - 2010.06.03 11:33:40.
