data_PCOD9090270
_publ_section_title
;
Structure prediction by ZEFSAII (Michael W. Deem and Ramdas Pophale) SiO2 
 PCOD9090270
Probable space group: P -1
;
_chemical_formula_sum "Si O2"
_cell_formula_units_Z 16
_cell_length_a 13.729276
_cell_length_b 9.148487
_cell_length_c 24.107494
_cell_angle_alpha 44.139237
_cell_angle_beta 22.726039
_cell_angle_gamma 56.208552
_cell_volume 749.051145
_symmetry_space_group_name_H-M "P -1"
_symmetry_group_IT_number 2
_symmetry_cell_setting 'triclinic'
loop_
_space_group_symop_operation_xyz
x,y,z
-x,-y,-z
loop_
_atom_site_type_symbol
_atom_site_label
_atom_site_fract_x
_atom_site_fract_y
_atom_site_fract_z
Si Si1 0.155560 0.966041 0.480951
Si Si2 0.971817 0.614223 0.128992
Si Si3 0.762779 0.607210 0.870212
Si Si4 0.347402 0.185072 0.903930
Si Si5 0.306787 0.997600 0.152713
Si Si6 0.322837 0.271131 0.411835
Si Si7 0.347488 0.120978 0.791225
Si Si8 0.863628 0.287254 0.171405
O O1 0.350660 0.853306 0.385231
O O2 0.974898 0.793821 0.668760
O O3 0.298096 0.192933 0.381648
O O4 0.000000 0.000000 0.500000
O O5 0.118276 0.561005 0.119074
O O6 0.712936 0.676704 0.260725
O O7 0.898876 0.408022 0.179989
O O8 0.169843 0.863495 0.933510
O O9 0.693646 0.751327 0.914685
O O10 0.500000 0.500000 0.000000
O O11 0.526760 0.052494 0.869921
O O12 0.539757 0.455032 0.732744
O O13 0.293842 0.127980 0.882929
O O14 0.059633 0.148298 0.096593
O O15 0.983926 0.827422 0.373367
O O16 0.500000 0.000000 0.000000
O O17 0.540963 0.184674 0.351491
O O18 0.000000 0.500000 0.000000
#
# Coordination Sequence:
#
# PCOD9090270 Si02
#       8
#     2   2   2   2   2   2   2   2
#     4  11  24  42  64  92 128 171 212 258 316 383
#     4  11  22  40  65  92 131 162 210 264 315 381
#     4  11  25  45  61  88 129 170 208 261 328 374
#     4  11  21  39  67  96 126 161 217 266 312 382
#     4  11  24  41  62  92 125 169 211 261 319 380
#     4  10  22  41  64  94 127 162 214 258 323 377
#     4  11  22  37  68  97 120 164 220 256 313 380
#     4  10  19  38  64  96 128 164 204 261 330 372
#
# _framework density 21.360355999999999
#
# number of rings (size 3 to 8) (size 9 to 14) (size 15 to 20)
#    0.000    1.250    2.500    5.625    1.750    2.500 
#    0.000    5.625    0.000    0.000    0.000    0.000 
#    0.000    0.000    0.000    0.000    0.000    0.000 
#
# Total GULP energy -89259.689574 kJ/mol
# GULP energy per Si atom -5578.730598 kJ/mol
# Density = 2.131174 g / cm^3
# Si number density = 21.360356 Si / 1000 Ang^3
#
#
#
# Elastic Constant Matrix: (Units=GPa)
#
#
# Indices 1 2 3 4 5 6 
#
# 1 120.5153 45.5756 36.1451 14.3947 -23.9155 -7.4030
# 2 45.5756 120.3965 43.2546 32.7437 -8.6372 -9.7241
# 3 36.1451 43.2546 55.5271 30.4277 -17.5600 -0.7857
# 4 14.3947 32.7437 30.4277 39.1005 -3.9628 -6.7804
# 5 -23.9155 -8.6372 -17.5600 -3.9628 27.8140 7.1133
# 6 -7.4030 -9.7241 -0.7857 -6.7804 7.1133 43.6292
#
#
#
# Elastic Compliance Matrix: (Units=1/GPa)
#
#
# Indices 1 2 3 4 5 6 
#
# 1 0.011866 -0.002967 -0.004780 0.002599 0.006477 0.000614
# 2 -0.002967 0.013064 -0.007226 -0.004255 -0.004253 0.002310
# 3 -0.004780 -0.007226 0.051762 -0.031797 0.024459 -0.010419
# 4 0.002599 -0.004255 -0.031797 0.053147 -0.014010 0.009464
# 5 0.006477 -0.004253 0.024459 -0.014010 0.056405 -0.010782
# 6 0.000614 0.002310 -0.010419 0.009464 -0.010782 0.026581
#
#
# Mechanical properties :
#
#
# Convention : Reuss Voigt Hill
#
# Bulk Modulus (GPa) = 21.39243 60.70994 41.05118
# Shear Modulus (GPa) = 19.35345 33.53964 26.44655
#
# Velocity S-wave (km/s) = 3.01332 3.96685 3.52250
# Velocity P-wave (km/s) = 4.70570 7.03311 5.98366
#
# Compressibility (1/GPa) = 0.04674551
#
# Stress axis : x y z
#
# Youngs Moduli (GPa) = 84.27435 76.54778 19.31933
#
# Poissons Ratio (x) = 0.22713 0.09235
# Poissons Ratio (y) = 0.25005 0.13960
# Poissons Ratio (z) = 0.40283 0.55312
#
# Static dielectric constant tensor:
#      x y z
#    x 1.799460 -0.001230 -0.052290 
#    y -0.001230 1.833500 0.042000 
#    z -0.052290 0.042000 1.803570 
# 
# From -- ./inp_files/619237.got.cif
#   From: 2010.05.17/outbox.cif.g08.bks.cpg/sg2_310_cif.got.tgz:619237.got - 2010.06.03 11:33:40.
