data_PCOD9090300
_publ_section_title
;
Structure prediction by ZEFSAII (Michael W. Deem and Ramdas Pophale) SiO2 
 PCOD9090300
Probable space group: P -1
;
_chemical_formula_sum "Si O2"
_cell_formula_units_Z 16
_cell_length_a 7.279963
_cell_length_b 14.792572
_cell_length_c 9.212020
_cell_angle_alpha 45.920539
_cell_angle_beta 91.725230
_cell_angle_gamma 81.292044
_cell_volume 691.510229
_symmetry_space_group_name_H-M "P -1"
_symmetry_group_IT_number 2
_symmetry_cell_setting 'triclinic'
loop_
_space_group_symop_operation_xyz
x,y,z
-x,-y,-z
loop_
_atom_site_type_symbol
_atom_site_label
_atom_site_fract_x
_atom_site_fract_y
_atom_site_fract_z
Si Si1 0.963390 0.925138 0.438406
Si Si2 0.222172 0.493677 0.287746
Si Si3 0.200736 0.993651 0.933578
Si Si4 0.697679 0.729850 0.690806
Si Si5 0.200820 0.358948 0.899298
Si Si6 0.129151 0.264519 0.723936
Si Si7 0.356645 0.823781 0.383569
Si Si8 0.702441 0.403217 0.539750
O O1 0.156975 0.864868 0.419905
O O2 0.865260 0.806225 0.601304
O O3 0.000000 0.000000 0.500000
O O4 0.829050 0.030334 0.209184
O O5 0.273939 0.407018 0.242069
O O6 0.164513 0.391609 0.509779
O O7 0.349033 0.554826 0.339011
O O8 0.026261 0.596877 0.128083
O O9 0.215506 0.141327 0.769996
O O10 0.346675 0.911633 0.141570
O O11 0.000000 0.000000 0.000000
O O12 0.514918 0.821936 0.509603
O O13 0.682846 0.692098 0.899409
O O14 0.221440 0.248966 0.900826
O O15 0.255528 0.481996 0.687197
O O16 0.902951 0.296749 0.689659
O O17 0.401047 0.680928 0.470048
#
# Coordination Sequence:
#
# PCOD9090300 Si02
#       8
#     2   2   2   2   2   2   2   2
#     4  11  25  44  63  89 128 161 205 262 305 367
#     4   9  18  35  61  89 121 162 205 254 300 365
#     4  10  19  38  65  86 118 167 203 252 309 363
#     4  12  24  40  61  97 128 162 205 257 314 361
#     4   9  20  33  62  91 125 168 200 253 310 366
#     4   9  15  35  62  86 115 163 212 244 301 363
#     4  11  25  41  65  92 125 167 209 251 306 373
#     4   9  17  37  61  90 122 158 211 251 299 368
#
# _framework density 23.137763
#
# number of rings (size 3 to 8) (size 9 to 14) (size 15 to 20)
#    0.000    2.000    3.750    2.625    3.500    2.000 
#    0.000    1.250    0.000    0.000    0.000    0.000 
#    0.000    0.000    0.000    0.000    0.000    0.000 
#
# Total GULP energy -89213.290852 kJ/mol
# GULP energy per Si atom -5575.830678 kJ/mol
# Density = 2.308510 g / cm^3
# Si number density = 23.137763 Si / 1000 Ang^3
#
#
#
# Elastic Constant Matrix: (Units=GPa)
#
#
# Indices 1 2 3 4 5 6 
#
# 1 71.9541 21.7358 25.8428 5.2955 14.0433 7.2579
# 2 21.7358 124.5891 51.7942 35.3539 10.7922 14.7834
# 3 25.8428 51.7942 144.9333 38.4387 21.8630 14.3985
# 4 5.2955 35.3539 38.4387 39.5547 15.5137 6.2006
# 5 14.0433 10.7922 21.8630 15.5137 19.7503 9.8903
# 6 7.2579 14.7834 14.3985 6.2006 9.8903 27.3895
#
#
#
# Elastic Compliance Matrix: (Units=1/GPa)
#
#
# Indices 1 2 3 4 5 6 
#
# 1 0.018157 -0.003740 -0.001994 0.009160 -0.017020 0.002328
# 2 -0.003740 0.012637 -0.001507 -0.012360 0.010073 -0.005877
# 3 -0.001994 -0.001507 0.010216 -0.006956 -0.002898 -0.001407
# 4 0.009160 -0.012360 -0.006956 0.056579 -0.041558 0.010098
# 5 -0.017020 0.010073 -0.002898 -0.041558 0.107512 -0.028818
# 6 0.002328 -0.005877 -0.001407 0.010098 -0.028818 0.047925
#
#
# Mechanical properties :
#
#
# Convention : Reuss Voigt Hill
#
# Bulk Modulus (GPa) = 37.69683 60.02467 48.86075
# Shear Modulus (GPa) = 18.09297 33.47916 25.78606
#
# Velocity S-wave (km/s) = 2.79940 3.80800 3.34197
# Velocity P-wave (km/s) = 5.17461 6.73299 6.00457
#
# Compressibility (1/GPa) = 0.02652743
#
# Stress axis : x y z
#
# Youngs Moduli (GPa) = 55.07661 79.13058 97.88765
#
# Poissons Ratio (x) = 0.29593 0.19521
# Poissons Ratio (y) = 0.20598 0.14752
# Poissons Ratio (z) = 0.10984 0.11925
#
# Static dielectric constant tensor:
#      x y z
#    x 1.995320 0.041410 0.053120 
#    y 0.041410 1.948820 -0.005250 
#    z 0.053120 -0.005250 1.867620 
# 
# From -- ./inp_files/205671.got.cif
#   From: 2010.05.17/outbox.cif.g08.bks.cpg/sg2_103_cif.got.tgz:205671.got - 2010.06.03 11:33:40.
