data_PCOD9090055
_publ_section_title
;
Structure prediction by ZEFSAII (Michael W. Deem and Ramdas Pophale) SiO2 
 PCOD9090055
Probable space group: P -1
;
_chemical_formula_sum "Si O2"
_cell_formula_units_Z 16
_cell_length_a 9.536194
_cell_length_b 11.941706
_cell_length_c 15.738640
_cell_angle_alpha 53.649958
_cell_angle_beta 126.956270
_cell_angle_gamma 146.029954
_cell_volume 782.279817
_symmetry_space_group_name_H-M "P -1"
_symmetry_group_IT_number 2
_symmetry_cell_setting 'triclinic'
loop_
_space_group_symop_operation_xyz
x,y,z
-x,-y,-z
loop_
_atom_site_type_symbol
_atom_site_label
_atom_site_fract_x
_atom_site_fract_y
_atom_site_fract_z
Si Si1 0.928216 0.380827 0.766258
Si Si2 0.308874 0.364777 0.220215
Si Si3 0.156851 0.947792 0.928974
Si Si4 0.243290 0.018899 0.370474
Si Si5 0.483907 0.064506 0.846510
Si Si6 0.023792 0.586269 0.877879
Si Si7 0.120796 0.226838 0.815440
Si Si8 0.862382 0.335189 0.446254
O O1 0.044545 0.500959 0.842950
O O2 0.015274 0.275612 0.822343
O O3 0.017449 0.530904 0.655058
O O4 0.620634 0.206863 0.750443
O O5 0.609097 0.554213 0.220671
O O6 0.214547 0.444644 0.200875
O O7 0.231393 0.174144 0.322406
O O8 0.127570 0.254446 0.118798
O O9 0.339457 0.081088 0.852422
O O10 0.165542 0.093734 0.920451
O O11 0.291797 0.893350 0.043746
O O12 0.117823 0.820763 0.468049
O O13 0.094568 0.914541 0.273412
O O14 0.552201 0.177130 0.404269
O O15 0.272504 0.827261 0.857002
O O16 0.000000 0.500000 0.000000
O O17 0.000000 0.500000 0.500000
#
# Coordination Sequence:
#
# PCOD9090055 Si02
#       8
#     2   2   2   2   2   2   2   2
#     4  12  24  36  63  95 122 160 206 258 309 368
#     4  10  19  38  63  90 122 167 210 246 309 362
#     4   9  20  38  62  83 121 172 203 253 300 369
#     4  10  21  38  66  90 125 162 200 254 321 365
#     4  10  21  39  59  87 123 164 215 245 309 361
#     4  11  24  42  65  88 128 174 208 248 301 369
#     4  11  21  36  62  94 124 158 207 256 308 365
#     4  11  22  41  64  95 124 158 201 257 321 370
#
# _framework density 20.453036999999998
#
# number of rings (size 3 to 8) (size 9 to 14) (size 15 to 20)
#    0.000    1.500    2.500    3.750    1.750    0.500 
#    0.000    5.000    0.000   14.250    0.000    0.000 
#    0.000    0.000    0.000    0.000    0.000    0.000 
#
# Total GULP energy -89228.542330 kJ/mol
# GULP energy per Si atom -5576.783896 kJ/mol
# Density = 2.040649 g / cm^3
# Si number density = 20.453037 Si / 1000 Ang^3
#
#
#
# Elastic Constant Matrix: (Units=GPa)
#
#
# Indices 1 2 3 4 5 6 
#
# 1 96.1213 30.6589 28.8756 3.7061 -14.1957 -12.8927
# 2 30.6589 142.8854 27.9222 1.1300 -16.8964 8.5236
# 3 28.8756 27.9222 61.7647 -9.8263 -10.7670 0.5020
# 4 3.7061 1.1300 -9.8263 31.3589 7.5946 1.2046
# 5 -14.1957 -16.8964 -10.7670 7.5946 30.9039 -4.3216
# 6 -12.8927 8.5236 0.5020 1.2046 -4.3216 41.0799
#
#
#
# Elastic Compliance Matrix: (Units=1/GPa)
#
#
# Indices 1 2 3 4 5 6 
#
# 1 0.014505 -0.001568 -0.005924 -0.005139 0.005803 0.005711
# 2 -0.001568 0.008356 -0.002762 -0.001646 0.003035 -0.001825
# 3 -0.005924 -0.002762 0.021609 0.007326 0.001268 -0.001632
# 4 -0.005139 -0.001646 0.007326 0.037512 -0.010424 -0.003557
# 5 0.005803 0.003035 0.001268 -0.010424 0.040490 0.005741
# 6 0.005711 -0.001825 -0.001632 -0.003557 0.005741 0.027242
#
#
# Mechanical properties :
#
#
# Convention : Reuss Voigt Hill
#
# Bulk Modulus (GPa) = 41.73767 52.85387 47.29577
# Shear Modulus (GPa) = 28.05684 34.88952 31.47318
#
# Velocity S-wave (km/s) = 3.70776 4.13466 3.92701
# Velocity P-wave (km/s) = 6.22743 6.97793 6.61333
#
# Compressibility (1/GPa) = 0.02395917
#
# Stress axis : x y z
#
# Youngs Moduli (GPa) = 68.94335 119.67922 46.27738
#
# Poissons Ratio (x) = 0.18771 0.27417
# Poissons Ratio (y) = 0.10813 0.12782
# Poissons Ratio (z) = 0.40845 0.33057
#
# Static dielectric constant tensor:
#      x y z
#    x 1.750360 -0.001050 0.008740 
#    y -0.001050 1.798690 -0.034710 
#    z 0.008740 -0.034710 1.842010 
# 
# From -- ./inp_files/500206.got.cif
#   From: 2010.05.17/outbox.cif.g08.bks.cpg/sg2_251_cif.got.tgz:500206.got - 2010.06.03 11:33:40.
