data_PCOD9090472
_publ_section_title
;
Structure prediction by ZEFSAII (Michael W. Deem and Ramdas Pophale) SiO2 
 PCOD9090472
Probable space group: P -1
;
_chemical_formula_sum "Si O2"
_cell_formula_units_Z 16
_cell_length_a 19.225855
_cell_length_b 10.177421
_cell_length_c 15.948685
_cell_angle_alpha 36.101528
_cell_angle_beta 25.053577
_cell_angle_gamma 35.380094
_cell_volume 733.892718
_symmetry_space_group_name_H-M "P -1"
_symmetry_group_IT_number 2
_symmetry_cell_setting 'triclinic'
loop_
_space_group_symop_operation_xyz
x,y,z
-x,-y,-z
loop_
_atom_site_type_symbol
_atom_site_label
_atom_site_fract_x
_atom_site_fract_y
_atom_site_fract_z
Si Si1 0.953610 0.283615 0.123618
Si Si2 0.770220 0.711890 0.820334
Si Si3 0.422197 0.999914 0.973366
Si Si4 0.701204 0.128391 0.002450
Si Si5 0.638356 0.924680 0.538259
Si Si6 0.609876 0.263180 0.549285
Si Si7 0.163308 0.778050 0.904737
Si Si8 0.104038 0.548294 0.440287
O O1 0.799680 0.264326 0.361112
O O2 0.122441 0.053349 0.059653
O O3 0.000000 0.500000 0.000000
O O4 0.879010 0.303514 0.100000
O O5 0.803622 0.447923 0.955321
O O6 0.945722 0.716926 0.581214
O O7 0.595776 0.782022 0.917391
O O8 0.716708 0.913340 0.846375
O O9 0.497651 0.217126 0.770224
O O10 0.336221 0.967759 0.997256
O O11 0.747451 0.359435 0.808014
O O12 0.541826 0.132024 0.235440
O O13 0.797822 0.681140 0.493266
O O14 0.638056 0.046996 0.565861
O O15 0.679455 0.111705 0.334579
O O16 0.500000 0.500000 0.500000
O O17 0.000000 0.000000 0.000000
O O18 0.000000 0.500000 0.500000
#
# Coordination Sequence:
#
# PCOD9090472 Si02
#       8
#     2   2   2   2   2   2   2   2
#     4  11  22  38  66  98 129 171 221 276 326 393
#     4  11  23  40  68  92 134 173 215 270 332 405
#     4  10  22  42  64 101 127 169 219 274 338 385
#     4  11  23  41  66  97 129 165 223 278 322 395
#     4  10  21  39  62  93 124 169 218 265 324 392
#     4  10  19  38  66  92 126 170 222 269 323 390
#     4  11  22  43  66  95 133 180 220 267 338 401
#     4  12  23  40  64  90 128 177 218 264 328 399
#
# _framework density 21.801552000000001
#
# number of rings (size 3 to 8) (size 9 to 14) (size 15 to 20)
#    0.000    1.250    1.250    7.875    0.000    0.500 
#    0.000    4.375    2.750    0.000    0.000    0.000 
#    0.000    0.000    0.000    0.000    0.000    0.000 
#
# Total GULP energy -89331.228680 kJ/mol
# GULP energy per Si atom -5583.201793 kJ/mol
# Density = 2.175193 g / cm^3
# Si number density = 21.801552 Si / 1000 Ang^3
#
#
#
# Elastic Constant Matrix: (Units=GPa)
#
#
# Indices 1 2 3 4 5 6 
#
# 1 35.8435 11.5066 31.0333 2.8535 3.1302 -9.8472
# 2 11.5066 97.0453 20.5313 5.0796 0.7044 -21.9591
# 3 31.0333 20.5313 128.9779 -0.2446 -15.3817 0.9212
# 4 2.8535 5.0796 -0.2446 47.4713 0.6729 6.9242
# 5 3.1302 0.7044 -15.3817 0.6729 26.0041 1.7307
# 6 -9.8472 -21.9591 0.9212 6.9242 1.7307 41.2096
#
#
#
# Elastic Compliance Matrix: (Units=1/GPa)
#
#
# Indices 1 2 3 4 5 6 
#
# 1 0.042981 0.000508 -0.012070 -0.004277 -0.013020 0.012077
# 2 0.000508 0.012578 -0.002454 -0.002434 -0.002282 0.007383
# 3 -0.012070 -0.002454 0.012162 0.001670 0.009011 -0.005123
# 4 -0.004277 -0.002434 0.001670 0.022475 0.001399 -0.006191
# 5 -0.013020 -0.002282 0.009011 0.001399 0.045824 -0.006688
# 6 0.012077 0.007383 -0.005123 -0.006191 -0.006688 0.032522
#
#
# Mechanical properties :
#
#
# Convention : Reuss Voigt Hill
#
# Bulk Modulus (GPa) = 25.19473 43.11211 34.15342
# Shear Modulus (GPa) = 23.83184 36.19004 30.01094
#
# Velocity S-wave (km/s) = 3.30983 4.07870 3.71421
# Velocity P-wave (km/s) = 5.11743 6.48065 5.83896
#
# Compressibility (1/GPa) = 0.03969084
#
# Stress axis : x y z
#
# Youngs Moduli (GPa) = 23.26597 79.50368 82.22039
#
# Poissons Ratio (x) = -0.04042 0.99238
# Poissons Ratio (y) = -0.01183 0.20177
# Poissons Ratio (z) = 0.28081 0.19510
#
# Static dielectric constant tensor:
#      x y z
#    x 1.479030 0.665520 0.161610 
#    y 0.665520 0.430520 -0.240400 
#    z 0.161610 -0.240400 1.823130 
# 
# From -- ./inp_files/577898.got.cif
#   From: 2010.05.17/outbox.cif.g08.bks.cpg/sg2_289_cif.got.tgz:577898.got - 2010.06.03 11:33:40.
