data_PCOD9090947
_publ_section_title
;
Structure prediction by ZEFSAII (Michael W. Deem and Ramdas Pophale) SiO2 
 PCOD9090947
Probable space group: P -1
;
_chemical_formula_sum "Si O2"
_cell_formula_units_Z 16
_cell_length_a 9.105905
_cell_length_b 11.324982
_cell_length_c 19.523245
_cell_angle_alpha 43.344269
_cell_angle_beta 77.688646
_cell_angle_gamma 44.957409
_cell_volume 764.979467
_symmetry_space_group_name_H-M "P -1"
_symmetry_group_IT_number 2
_symmetry_cell_setting 'triclinic'
loop_
_space_group_symop_operation_xyz
x,y,z
-x,-y,-z
loop_
_atom_site_type_symbol
_atom_site_label
_atom_site_fract_x
_atom_site_fract_y
_atom_site_fract_z
Si Si1 0.435406 0.126093 0.345441
Si Si2 0.016259 0.611870 0.515630
Si Si3 0.851905 0.502395 0.916074
Si Si4 0.185185 0.820936 0.901776
Si Si5 0.355535 0.133372 0.080873
Si Si6 0.741535 0.130072 0.717469
Si Si7 0.905789 0.712375 0.230213
Si Si8 0.510510 0.297397 0.529841
O O1 0.361336 0.237339 0.227453
O O2 0.185686 0.422209 0.288542
O O3 0.711434 0.953203 0.412557
O O4 0.465165 0.890326 0.442302
O O5 0.000000 0.500000 0.500000
O O6 0.108873 0.412358 0.654565
O O7 0.239596 0.532899 0.502642
O O8 0.734822 0.650848 0.940774
O O9 0.902940 0.251556 0.008977
O O10 0.129984 0.341347 0.957618
O O11 0.119051 0.072501 0.828658
O O12 0.500000 0.500000 0.000000
O O13 0.019927 0.938855 0.799238
O O14 0.337176 0.963029 0.191143
O O15 0.650293 0.909321 0.126153
O O16 0.732880 0.090535 0.654382
O O17 0.531604 0.484374 0.596935
#
# Coordination Sequence:
#
# PCOD9090947 Si02
#       8
#     2   2   2   2   2   2   2   2
#     4  11  23  37  60  89 127 149 192 241 307 356
#     4  10  20  37  63  86 112 153 198 242 284 348
#     4  10  21  38  60  84 116 158 200 245 282 344
#     4  11  23  35  61  88 115 153 202 246 282 342
#     4  10  19  39  62  84 116 155 204 239 283 345
#     4  10  20  37  63  89 112 144 205 251 277 336
#     4  12  23  39  59  90 122 157 189 244 304 348
#     4  10  20  37  65  87 112 154 199 246 287 344
#
# _framework density 20.915592
#
# number of rings (size 3 to 8) (size 9 to 14) (size 15 to 20)
#    0.000    1.500    3.750    2.625    1.750    1.000 
#    0.000    0.625   11.000    0.000    0.000    0.000 
#    0.000    0.000    0.000    0.000    0.000    0.000 
#
# Total GULP energy -89301.538304 kJ/mol
# GULP energy per Si atom -5581.346144 kJ/mol
# Density = 2.086799 g / cm^3
# Si number density = 20.915592 Si / 1000 Ang^3
#
#
#
# Elastic Constant Matrix: (Units=GPa)
#
#
# Indices 1 2 3 4 5 6 
#
# 1 112.7496 23.0369 40.8999 -22.2308 11.9350 -5.7805
# 2 23.0369 62.6799 9.3186 -34.7231 3.0928 -4.9177
# 3 40.8999 9.3186 90.6440 -18.9830 1.1484 1.8209
# 4 -22.2308 -34.7231 -18.9830 32.4287 -5.0787 6.8090
# 5 11.9350 3.0928 1.1484 -5.0787 42.4755 -5.7667
# 6 -5.7805 -4.9177 1.8209 6.8090 -5.7667 14.2230
#
#
#
# Elastic Compliance Matrix: (Units=1/GPa)
#
#
# Indices 1 2 3 4 5 6 
#
# 1 0.011821 -0.002140 -0.004691 0.002127 -0.002423 0.002664
# 2 -0.002140 0.043659 0.007643 0.052380 0.001982 -0.011025
# 3 -0.004691 0.007643 0.015933 0.016285 0.001103 -0.008652
# 4 0.002127 0.052380 0.016285 0.105180 0.003367 -0.032098
# 5 -0.002423 0.001982 0.001103 0.003367 0.025582 0.008320
# 6 0.002664 -0.011025 -0.008652 -0.032098 0.008320 0.087427
#
#
# Mechanical properties :
#
#
# Convention : Reuss Voigt Hill
#
# Bulk Modulus (GPa) = 13.69172 45.84271 29.76722
# Shear Modulus (GPa) = 16.00909 30.67998 23.34454
#
# Velocity S-wave (km/s) = 2.76961 3.83410 3.34448
# Velocity P-wave (km/s) = 4.09732 6.44717 5.40158
#
# Compressibility (1/GPa) = 0.07303682
#
# Stress axis : x y z
#
# Youngs Moduli (GPa) = 84.59842 22.90495 62.76153
#
# Poissons Ratio (x) = 0.04902 0.29441
# Poissons Ratio (y) = 0.18106 -0.47971
# Poissons Ratio (z) = 0.39685 -0.17507
#
# Static dielectric constant tensor:
#      x y z
#    x 1.804340 -0.027560 0.028180 
#    y -0.027560 1.761750 -0.007720 
#    z 0.028180 -0.007720 1.826080 
# 
# From -- ./inp_files/239007.got.cif
#   From: 2010.05.17/outbox.cif.g08.bks.cpg/sg2_120_cif.got.tgz:239007.got - 2010.06.03 11:33:40.
