data_PCOD9090066
_publ_section_title
;
Structure prediction by ZEFSAII (Michael W. Deem and Ramdas Pophale) SiO2 
 PCOD9090066
Probable space group: P -1
;
_chemical_formula_sum "Si O2"
_cell_formula_units_Z 16
_cell_length_a 15.302461
_cell_length_b 16.167471
_cell_length_c 11.017825
_cell_angle_alpha 157.248574
_cell_angle_beta 43.023345
_cell_angle_gamma 137.677939
_cell_volume 696.968366
_symmetry_space_group_name_H-M "P -1"
_symmetry_group_IT_number 2
_symmetry_cell_setting 'triclinic'
loop_
_space_group_symop_operation_xyz
x,y,z
-x,-y,-z
loop_
_atom_site_type_symbol
_atom_site_label
_atom_site_fract_x
_atom_site_fract_y
_atom_site_fract_z
Si Si1 0.570405 0.207010 0.378206
Si Si2 0.404889 0.220928 0.359895
Si Si3 0.689588 0.465314 0.291868
Si Si4 0.048747 0.592466 0.413115
Si Si5 0.098290 0.713310 0.254480
Si Si6 0.026628 0.929077 0.237722
Si Si7 0.751259 0.079348 0.190945
Si Si8 0.227696 0.344759 0.278772
O O1 0.432295 0.225240 0.482554
O O2 0.608318 0.107192 0.330854
O O3 0.661933 0.455440 0.619508
O O4 0.615550 0.032656 0.004531
O O5 0.544679 0.355392 0.340986
O O6 0.311518 0.361976 0.583568
O O7 0.774523 0.576105 0.471376
O O8 0.756601 0.277063 0.927138
O O9 0.101029 0.679588 0.347543
O O10 0.153237 0.701358 0.555037
O O11 0.909957 0.663884 0.659196
O O12 0.024492 0.331621 0.074975
O O13 0.052981 0.930537 0.566653
O O14 0.000000 0.500000 0.000000
O O15 0.167496 0.969905 0.077855
O O16 0.000000 0.000000 0.500000
O O17 0.741011 0.889936 0.046440
#
# Coordination Sequence:
#
# PCOD9090066 Si02
#       8
#     2   2   2   2   2   2   2   2
#     4  10  21  36  61  90 120 161 217 271 305 361
#     4   9  20  37  61  93 121 161 219 273 312 353
#     4  10  19  38  63  91 126 161 208 270 317 364
#     4  12  25  39  59  97 133 175 205 248 319 395
#     4  12  23  39  61  93 134 166 203 256 321 382
#     4  12  24  38  61  91 129 174 204 252 314 379
#     4  12  24  39  62  92 137 166 212 256 312 390
#     4  11  20  35  61  88 126 167 200 257 313 373
#
# _framework density 22.956565999999999
#
# number of rings (size 3 to 8) (size 9 to 14) (size 15 to 20)
#    0.000    1.000    6.250    0.750    1.750    0.000 
#    2.250    0.000    0.000    1.500    0.000    0.000 
#    0.000    0.000    0.000    0.000    0.000    0.000 
#
# Total GULP energy -89219.492508 kJ/mol
# GULP energy per Si atom -5576.218282 kJ/mol
# Density = 2.290432 g / cm^3
# Si number density = 22.956566 Si / 1000 Ang^3
#
#
#
# Elastic Constant Matrix: (Units=GPa)
#
#
# Indices 1 2 3 4 5 6 
#
# 1 125.9967 1.5323 32.4476 10.7938 -12.2145 -13.6489
# 2 1.5323 28.9144 14.2062 14.6213 2.2371 -16.6921
# 3 32.4476 14.2062 62.1691 30.0355 -11.3513 -15.6376
# 4 10.7938 14.6213 30.0355 36.9995 -9.1553 -5.6574
# 5 -12.2145 2.2371 -11.3513 -9.1553 37.1494 11.6305
# 6 -13.6489 -16.6921 -15.6376 -5.6574 11.6305 25.9157
#
#
#
# Elastic Compliance Matrix: (Units=1/GPa)
#
#
# Indices 1 2 3 4 5 6 
#
# 1 0.009716 0.005471 -0.004749 -0.000366 -0.000535 0.005935
# 2 0.005471 0.105770 0.010631 -0.048952 -0.039883 0.084635
# 3 -0.004749 0.010631 0.034435 -0.028866 -0.005453 0.021270
# 4 -0.000366 -0.048952 -0.028866 0.069228 0.025272 -0.045369
# 5 -0.000535 -0.039883 -0.005453 0.025272 0.047865 -0.045224
# 6 0.005935 0.084635 0.021270 -0.045369 -0.045224 0.119451
#
#
# Mechanical properties :
#
#
# Convention : Reuss Voigt Hill
#
# Bulk Modulus (GPa) = 5.79280 34.82805 20.31043
# Shear Modulus (GPa) = 11.86801 31.27253 21.57027
#
# Velocity S-wave (km/s) = 2.27618 3.69487 3.06864
# Velocity P-wave (km/s) = 3.07194 5.77987 4.62838
#
# Compressibility (1/GPa) = 0.17262794
#
# Stress axis : x y z
#
# Youngs Moduli (GPa) = 102.92676 9.45447 29.04016
#
# Poissons Ratio (x) = -0.05173 0.13791
# Poissons Ratio (y) = -0.56315 -0.30873
# Poissons Ratio (z) = 0.48878 -0.10051
#
# Static dielectric constant tensor:
#      x y z
#    x 1.960710 -0.000190 -0.017500 
#    y -0.000190 1.905670 0.000670 
#    z -0.017500 0.000670 1.749330 
# 
# From -- ./inp_files/456876.got.cif
#   From: 2010.05.17/outbox.cif.g08.bks.cpg/sg2_229_cif.got.tgz:456876.got - 2010.06.03 11:33:40.
