data_PCOD9090474
_publ_section_title
;
Structure prediction by ZEFSAII (Michael W. Deem and Ramdas Pophale) SiO2 
 PCOD9090474
Probable space group: P -1
;
_chemical_formula_sum "Si O2"
_cell_formula_units_Z 16
_cell_length_a 8.695607
_cell_length_b 29.187127
_cell_length_c 5.627117
_cell_angle_alpha 92.795265
_cell_angle_beta 82.156987
_cell_angle_gamma 148.679879
_cell_volume 729.037471
_symmetry_space_group_name_H-M "P -1"
_symmetry_group_IT_number 2
_symmetry_cell_setting 'triclinic'
loop_
_space_group_symop_operation_xyz
x,y,z
-x,-y,-z
loop_
_atom_site_type_symbol
_atom_site_label
_atom_site_fract_x
_atom_site_fract_y
_atom_site_fract_z
Si Si1 0.309300 0.088706 0.325434
Si Si2 0.672705 0.213852 0.901221
Si Si3 0.320620 0.948444 0.271600
Si Si4 0.237617 0.319614 0.070105
Si Si5 0.809160 0.479475 0.227323
Si Si6 0.614666 0.354996 0.621378
Si Si7 0.170512 0.819736 0.502059
Si Si8 0.652729 0.809217 0.382932
O O1 0.534580 0.106973 0.377401
O O2 0.398614 0.162871 0.411368
O O3 0.385217 0.111973 0.036747
O O4 0.000000 0.000000 0.500000
O O5 0.816259 0.224642 0.648854
O O6 0.523550 0.221800 0.830023
O O7 0.952331 0.278276 0.039020
O O8 0.201779 0.866463 0.311791
O O9 0.012956 0.899156 0.300939
O O10 0.500000 0.000000 0.500000
O O11 0.500000 0.000000 0.000000
O O12 0.503905 0.418121 0.148983
O O13 0.106803 0.251830 0.279776
O O14 0.392377 0.326303 0.840552
O O15 0.701056 0.414865 0.425332
O O16 0.060906 0.575791 0.312027
O O17 0.000000 0.500000 0.000000
O O18 0.464376 0.270397 0.540185
#
# Coordination Sequence:
#
# PCOD9090474 Si02
#       8
#     2   2   2   2   2   2   2   2
#     4  10  23  40  62  82 124 171 225 268 326 398
#     4  10  23  39  63  88 123 174 219 269 330 393
#     4  12  29  43  66  96 133 170 226 286 347 393
#     4  10  19  38  66  92 127 166 220 261 327 405
#     4   9  19  36  64  97 126 169 208 264 327 404
#     4  10  21  39  66  96 131 164 213 271 335 392
#     4  10  23  40  61  90 121 173 217 269 331 394
#     4  11  25  40  62  94 129 169 216 278 332 396
#
# _framework density 21.946746999999998
#
# number of rings (size 3 to 8) (size 9 to 14) (size 15 to 20)
#    0.000    1.750    0.000    3.000   10.500    3.000 
#    0.000    0.625    0.000   19.500    0.000    0.000 
#    0.000    0.000    0.000    0.000    0.000    0.000 
#
# Total GULP energy -89123.844741 kJ/mol
# GULP energy per Si atom -5570.240296 kJ/mol
# Density = 2.189679 g / cm^3
# Si number density = 21.946747 Si / 1000 Ang^3
#
#
#
# Elastic Constant Matrix: (Units=GPa)
#
#
# Indices 1 2 3 4 5 6 
#
# 1 96.7009 31.7112 27.2408 -7.6015 6.4992 21.3687
# 2 31.7112 117.6393 30.9801 -8.3232 -5.5183 22.0864
# 3 27.2408 30.9801 139.0753 -36.6777 -3.9160 3.9304
# 4 -7.6015 -8.3232 -36.6777 34.9235 5.9599 -1.3495
# 5 6.4992 -5.5183 -3.9160 5.9599 26.3150 2.7130
# 6 21.3687 22.0864 3.9304 -1.3495 2.7130 39.0554
#
#
#
# Elastic Compliance Matrix: (Units=1/GPa)
#
#
# Indices 1 2 3 4 5 6 
#
# 1 0.013066 -0.002122 -0.001813 0.000830 -0.003564 -0.005490
# 2 -0.002122 0.010585 -0.001885 -0.000638 0.003110 -0.004873
# 3 -0.001813 -0.001885 0.010695 0.010596 -0.000901 0.001410
# 4 0.000830 -0.000638 0.010596 0.041220 -0.008184 0.000833
# 5 -0.003564 0.003110 -0.000901 -0.008184 0.041551 -0.002887
# 6 -0.005490 -0.004873 0.001410 0.000833 -0.002887 0.031452
#
#
# Mechanical properties :
#
#
# Convention : Reuss Voigt Hill
#
# Bulk Modulus (GPa) = 44.04367 59.25331 51.64849
# Shear Modulus (GPa) = 29.80170 37.62434 33.71302
#
# Velocity S-wave (km/s) = 3.68898 4.14496 3.92360
# Velocity P-wave (km/s) = 6.18521 7.06858 6.64160
#
# Compressibility (1/GPa) = 0.02270474
#
# Stress axis : x y z
#
# Youngs Moduli (GPa) = 76.53620 94.47535 93.50517
#
# Poissons Ratio (x) = 0.20052 0.16949
# Poissons Ratio (y) = 0.16244 0.17627
# Poissons Ratio (z) = 0.13873 0.17810
#
# Static dielectric constant tensor:
#      x y z
#    x 1.820620 0.054720 0.042990 
#    y 0.054720 1.904000 0.075050 
#    z 0.042990 0.075050 1.864760 
# 
# From -- ./inp_files/37273.got.cif
#   From: 2010.05.17/outbox.cif.g08.bks.cpg/sg2_19_cif.got.tgz:37273.got - 2010.06.03 11:33:40.
