data_PCOD9090843
_publ_section_title
;
Structure prediction by ZEFSAII (Michael W. Deem and Ramdas Pophale) SiO2 
 PCOD9090843
Probable space group: P -1
;
_chemical_formula_sum "Si O2"
_cell_formula_units_Z 16
_cell_length_a 14.628714
_cell_length_b 9.527911
_cell_length_c 8.250458
_cell_angle_alpha 83.270293
_cell_angle_beta 121.780152
_cell_angle_gamma 65.207397
_cell_volume 797.786712
_symmetry_space_group_name_H-M "P -1"
_symmetry_group_IT_number 2
_symmetry_cell_setting 'triclinic'
loop_
_space_group_symop_operation_xyz
x,y,z
-x,-y,-z
loop_
_atom_site_type_symbol
_atom_site_label
_atom_site_fract_x
_atom_site_fract_y
_atom_site_fract_z
Si Si1 0.382548 0.086785 0.004885
Si Si2 0.256670 0.873235 0.355696
Si Si3 0.851839 0.288758 0.932175
Si Si4 0.080325 0.244247 0.966456
Si Si5 0.947770 0.946416 0.605369
Si Si6 0.084709 0.292121 0.602545
Si Si7 0.509893 0.148301 0.565819
Si Si8 0.275017 0.362190 0.133400
O O1 0.362989 0.236620 0.084982
O O2 0.418454 0.931544 0.184570
O O3 0.242769 0.186708 0.770152
O O4 0.500000 0.000000 0.000000
O O5 0.231821 0.744541 0.260264
O O6 0.403384 0.815310 0.470815
O O7 0.194898 0.913398 0.472276
O O8 0.172965 0.058335 0.160849
O O9 0.773116 0.443509 0.963572
O O10 0.942268 0.331743 0.913282
O O11 0.951162 0.113756 0.144634
O O12 0.057274 0.236773 0.756019
O O13 0.158660 0.333615 0.040223
O O14 0.949386 0.782788 0.568670
O O15 0.000000 0.000000 0.500000
O O16 0.000000 0.500000 0.500000
O O17 0.359401 0.306934 0.386096
O O18 0.500000 0.000000 0.500000
#
# Coordination Sequence:
#
# PCOD9090843 Si02
#       8
#     2   2   2   2   2   2   2   2
#     4  10  22  37  61  88 121 157 201 246 295 362
#     4  11  21  39  63  85 119 162 206 240 295 365
#     4  11  23  37  60  89 125 153 198 258 305 348
#     4  10  19  39  60  88 120 160 200 246 300 364
#     4  11  23  37  61  87 123 159 197 237 309 372
#     4  11  22  37  59  93 124 151 197 256 303 347
#     4  10  20  39  63  83 114 158 213 238 288 361
#     4  10  21  38  62  90 118 154 205 253 295 351
#
# _framework density 20.055485000000001
#
# number of rings (size 3 to 8) (size 9 to 14) (size 15 to 20)
#    0.000    1.500    3.750    4.875    3.500    2.500 
#    0.000    1.250    0.000    1.500    0.000    0.000 
#    0.000    0.000    0.000    0.000    0.000    0.000 
#
# Total GULP energy -89148.345814 kJ/mol
# GULP energy per Si atom -5571.771613 kJ/mol
# Density = 2.000984 g / cm^3
# Si number density = 20.055485 Si / 1000 Ang^3
#
#
#
# Elastic Constant Matrix: (Units=GPa)
#
#
# Indices 1 2 3 4 5 6 
#
# 1 133.9672 32.4227 25.2678 15.0513 -2.3256 -2.1301
# 2 32.4227 81.3341 3.7124 24.0488 12.1413 1.7825
# 3 25.2678 3.7124 62.9047 8.8344 18.6261 7.0435
# 4 15.0513 24.0488 8.8344 26.2390 2.2059 -1.6035
# 5 -2.3256 12.1413 18.6261 2.2059 27.3555 3.1411
# 6 -2.1301 1.7825 7.0435 -1.6035 3.1411 16.2781
#
#
#
# Elastic Compliance Matrix: (Units=1/GPa)
#
#
# Indices 1 2 3 4 5 6 
#
# 1 0.009923 -0.004908 -0.006139 0.000499 0.006791 0.003231
# 2 -0.004908 0.021554 0.007888 -0.018838 -0.013178 -0.005728
# 3 -0.006139 0.007888 0.026630 -0.011632 -0.020015 -0.010474
# 4 0.000499 -0.018838 -0.011632 0.058809 0.010323 0.010962
# 5 0.006791 -0.013178 -0.020015 0.010323 0.055631 0.001274
# 6 0.003231 -0.005728 -0.010474 0.010962 0.001274 0.067848
#
#
# Mechanical properties :
#
#
# Convention : Reuss Voigt Hill
#
# Bulk Modulus (GPa) = 19.30849 44.55687 31.93268
# Shear Modulus (GPa) = 18.94113 28.42806 23.68459
#
# Velocity S-wave (km/s) = 3.07650 3.76902 3.44023
# Velocity P-wave (km/s) = 4.71893 6.41916 5.63356
#
# Compressibility (1/GPa) = 0.05179068
#
# Stress axis : x y z
#
# Youngs Moduli (GPa) = 100.77267 46.39514 37.55139
#
# Poissons Ratio (x) = 0.22769 0.23053
# Poissons Ratio (y) = 0.49456 -0.29622
# Poissons Ratio (z) = 0.61865 -0.36598
#
# Static dielectric constant tensor:
#      x y z
#    x 1.758030 -0.016470 0.013950 
#    y -0.016470 1.749320 -0.052880 
#    z 0.013950 -0.052880 1.801650 
# 
# From -- ./inp_files/295335.got.cif
#   From: 2010.05.17/outbox.cif.g08.bks.cpg/sg2_148_cif.got.tgz:295335.got - 2010.06.03 11:33:40.
