data_PCOD9090073
_publ_section_title
;
Structure prediction by ZEFSAII (Michael W. Deem and Ramdas Pophale) SiO2 
 PCOD9090073
Probable space group: P -1
;
_chemical_formula_sum "Si O2"
_cell_formula_units_Z 16
_cell_length_a 8.826772
_cell_length_b 30.609441
_cell_length_c 16.083533
_cell_angle_alpha 17.014511
_cell_angle_beta 41.269469
_cell_angle_gamma 34.597951
_cell_volume 705.320592
_symmetry_space_group_name_H-M "P -1"
_symmetry_group_IT_number 2
_symmetry_cell_setting 'triclinic'
loop_
_space_group_symop_operation_xyz
x,y,z
-x,-y,-z
loop_
_atom_site_type_symbol
_atom_site_label
_atom_site_fract_x
_atom_site_fract_y
_atom_site_fract_z
Si Si1 0.790739 0.991079 0.974114
Si Si2 0.524094 0.203821 0.545351
Si Si3 0.880644 0.705563 0.697440
Si Si4 0.050716 0.620761 0.137295
Si Si5 0.215019 0.675406 0.458762
Si Si6 0.348886 0.292795 0.715537
Si Si7 0.007828 0.430632 0.925862
Si Si8 0.287122 0.847716 0.621058
O O1 0.729830 0.125169 0.680532
O O2 0.601173 0.110498 0.910504
O O3 0.674376 0.867230 0.226877
O O4 0.096849 0.847177 0.135969
O O5 0.684115 0.123585 0.539949
O O6 0.313390 0.413154 0.236260
O O7 0.557587 0.815015 0.613633
O O8 0.039959 0.745705 0.489348
O O9 0.942606 0.696983 0.785145
O O10 0.000000 0.500000 0.000000
O O11 0.836767 0.725893 0.107952
O O12 0.915397 0.657967 0.034906
O O13 0.180373 0.415974 0.482744
O O14 0.276373 0.670879 0.952028
O O15 0.525496 0.604729 0.478695
O O16 0.162306 0.531028 0.703870
O O17 0.000000 0.000000 0.500000
#
# Coordination Sequence:
#
# PCOD9090073 Si02
#       8
#     2   2   2   2   2   2   2   2
#     4  10  19  38  63  92 123 154 211 257 303 365
#     4  10  20  37  66  92 123 164 206 258 309 365
#     4  10  19  40  67  91 118 165 210 254 305 369
#     4  11  25  39  61  90 129 163 205 259 311 372
#     4  10  21  38  65  89 122 163 209 255 310 365
#     4  11  23  40  60  93 123 167 207 251 314 369
#     4  10  20  40  62  94 121 160 215 257 302 370
#     4  12  24  43  64  93 128 166 206 256 320 370
#
# _framework density 22.684719999999999
#
# number of rings (size 3 to 8) (size 9 to 14) (size 15 to 20)
#    0.000    1.500    5.000    2.625    0.000    2.000 
#    2.250    0.625    0.000    0.000    0.000    0.000 
#    0.000    0.000    0.000    0.000    0.000    0.000 
#
# Total GULP energy -89376.286443 kJ/mol
# GULP energy per Si atom -5586.017903 kJ/mol
# Density = 2.263309 g / cm^3
# Si number density = 22.684720 Si / 1000 Ang^3
#
#
#
# Elastic Constant Matrix: (Units=GPa)
#
#
# Indices 1 2 3 4 5 6 
#
# 1 73.4100 16.9180 36.4098 29.0119 15.1282 0.7903
# 2 16.9180 68.2836 19.7194 15.2998 18.3084 -1.7706
# 3 36.4098 19.7194 51.9605 16.2489 16.6882 -2.4617
# 4 29.0119 15.2998 16.2489 34.9439 6.4056 2.7948
# 5 15.1282 18.3084 16.6882 6.4056 38.3105 8.1493
# 6 0.7903 -1.7706 -2.4617 2.7948 8.1493 33.1172
#
#
#
# Elastic Compliance Matrix: (Units=1/GPa)
#
#
# Indices 1 2 3 4 5 6 
#
# 1 0.026986 0.001682 -0.013436 -0.016391 -0.002987 0.000566
# 2 0.001682 0.018948 -0.003609 -0.006862 -0.007675 0.003172
# 3 -0.013436 -0.003609 0.033440 -0.001681 -0.008274 0.004791
# 4 -0.016391 -0.006862 -0.001681 0.045692 0.003889 -0.004914
# 5 -0.002987 -0.007675 -0.008274 0.003889 0.036064 -0.010157
# 6 0.000566 0.003172 0.004791 -0.004914 -0.010157 0.033622
#
#
# Mechanical properties :
#
#
# Convention : Reuss Voigt Hill
#
# Bulk Modulus (GPa) = 20.55557 37.74985 29.15271
# Shear Modulus (GPa) = 20.68745 29.31478 25.00111
#
# Velocity S-wave (km/s) = 3.02314 3.59872 3.32341
# Velocity P-wave (km/s) = 4.61160 5.82622 5.25413
#
# Compressibility (1/GPa) = 0.04864862
#
# Stress axis : x y z
#
# Youngs Moduli (GPa) = 37.05661 52.77713 29.90438
#
# Poissons Ratio (x) = -0.08879 0.40180
# Poissons Ratio (y) = -0.06234 0.10792
# Poissons Ratio (z) = 0.49789 0.19046
#
# Static dielectric constant tensor:
#      x y z
#    x 1.910600 0.016050 -0.017170 
#    y 0.016050 1.815710 0.000000 
#    z -0.017170 0.000000 1.899370 
# 
# From -- ./inp_files/509184.got.cif
#   From: 2010.05.17/outbox.cif.g08.bks.cpg/sg2_255_cif.got.tgz:509184.got - 2010.06.03 11:33:40.
