data_PCOD9090327
_publ_section_title
;
Structure prediction by ZEFSAII (Michael W. Deem and Ramdas Pophale) SiO2 
 PCOD9090327
Probable space group: P -1
;
_chemical_formula_sum "Si O2"
_cell_formula_units_Z 16
_cell_length_a 17.395297
_cell_length_b 9.200906
_cell_length_c 8.989273
_cell_angle_alpha 91.389100
_cell_angle_beta 58.411203
_cell_angle_gamma 137.945331
_cell_volume 631.362445
_symmetry_space_group_name_H-M "P -1"
_symmetry_group_IT_number 2
_symmetry_cell_setting 'triclinic'
loop_
_space_group_symop_operation_xyz
x,y,z
-x,-y,-z
loop_
_atom_site_type_symbol
_atom_site_label
_atom_site_fract_x
_atom_site_fract_y
_atom_site_fract_z
Si Si1 0.535787 0.718349 0.892297
Si Si2 0.895663 0.001464 0.164789
Si Si3 0.247074 0.097136 0.093129
Si Si4 0.956004 0.900290 0.708775
Si Si5 0.322929 0.063873 0.738111
Si Si6 0.776743 0.386038 0.269104
Si Si7 0.585597 0.304932 0.690562
Si Si8 0.620168 0.257410 0.122295
O O1 0.431215 0.441528 0.915835
O O2 0.413190 0.603337 0.154896
O O3 0.526917 0.833613 0.784935
O O4 0.724060 0.935413 0.775137
O O5 0.717795 0.835904 0.290938
O O6 0.889556 0.949238 0.343222
O O7 0.035379 0.317993 0.983984
O O8 0.000000 0.000000 0.000000
O O9 0.117394 0.043536 0.169375
O O10 0.221328 0.935811 0.996436
O O11 0.799447 0.569083 0.881641
O O12 0.000000 0.000000 0.500000
O O13 0.260644 0.837463 0.704754
O O14 0.513348 0.297451 0.623542
O O15 0.737339 0.414361 0.465278
O O16 0.649185 0.280346 0.269236
O O17 0.438533 0.981385 0.874778
#
# Coordination Sequence:
#
# PCOD9090327 Si02
#       8
#     2   2   2   2   2   2   2   2
#     4   9  18  33  60  85 118 157 199 241 310 356
#     4  11  22  39  64  87 122 166 204 247 313 366
#     4   9  18  35  58  84 116 160 197 249 299 358
#     4  10  21  38  56  84 122 159 205 249 297 356
#     4  10  19  38  65  89 123 162 201 251 309 367
#     4  10  22  39  64  93 124 157 202 258 307 363
#     4  10  20  38  64  93 122 153 206 257 306 360
#     4   9  18  35  61  83 117 160 194 245 305 359
#
# _framework density 25.342020999999999
#
# number of rings (size 3 to 8) (size 9 to 14) (size 15 to 20)
#    0.000    2.250    1.250    2.250    0.000    2.000 
#    4.500    0.625    5.500    4.500    0.000    0.000 
#    0.000    0.000    0.000    0.000    0.000    0.000 
#
# Total GULP energy -89127.054232 kJ/mol
# GULP energy per Si atom -5570.440889 kJ/mol
# Density = 2.528434 g / cm^3
# Si number density = 25.342021 Si / 1000 Ang^3
#
#
#
# Elastic Constant Matrix: (Units=GPa)
#
#
# Indices 1 2 3 4 5 6 
#
# 1 193.3466 34.4462 11.4878 -5.1224 17.6453 -3.1918
# 2 34.4462 84.5608 42.0587 6.4144 -3.9810 -12.9925
# 3 11.4878 42.0587 97.0899 8.2363 11.3389 -15.3028
# 4 -5.1224 6.4144 8.2363 31.4233 -6.2135 -1.3756
# 5 17.6453 -3.9810 11.3389 -6.2135 28.7596 2.4913
# 6 -3.1918 -12.9925 -15.3028 -1.3756 2.4913 38.8438
#
#
#
# Elastic Compliance Matrix: (Units=1/GPa)
#
#
# Indices 1 2 3 4 5 6 
#
# 1 0.006132 -0.003347 0.001260 0.000443 -0.004643 0.000194
# 2 -0.003347 0.017763 -0.007760 -0.000610 0.007256 0.002122
# 3 0.001260 -0.007760 0.015563 -0.003927 -0.009185 0.004089
# 4 0.000443 -0.000610 -0.003927 0.034742 0.008789 -0.001048
# 5 -0.004643 0.007256 -0.009185 0.008789 0.044501 -0.004116
# 6 0.000194 0.002122 0.004089 -0.001048 -0.004116 0.028308
#
#
# Mechanical properties :
#
#
# Convention : Reuss Voigt Hill
#
# Bulk Modulus (GPa) = 50.59909 61.22028 55.90969
# Shear Modulus (GPa) = 28.85343 38.93898 33.89621
#
# Velocity S-wave (km/s) = 3.37792 3.92412 3.66122
# Velocity P-wave (km/s) = 5.93495 6.68892 6.32318
#
# Compressibility (1/GPa) = 0.01976320
#
# Stress axis : x y z
#
# Youngs Moduli (GPa) = 163.07390 56.29786 64.25677
#
# Poissons Ratio (x) = 0.18842 -0.08094
# Poissons Ratio (y) = 0.54578 0.49862
# Poissons Ratio (z) = -0.20540 0.43686
#
# Static dielectric constant tensor:
#      x y z
#    x 2.176900 -0.118750 -0.436970 
#    y -0.118750 2.672060 1.702280 
#    z -0.436970 1.702280 6.287370 
# 
# From -- ./inp_files/329016.got.cif
#   From: 2010.05.17/outbox.cif.g08.bks.cpg/sg2_165_cif.got.tgz:329016.got - 2010.06.03 11:33:40.
