data_PCOD9090219
_publ_section_title
;
Structure prediction by ZEFSAII (Michael W. Deem and Ramdas Pophale) SiO2 
 PCOD9090219
Probable space group: P -1
;
_chemical_formula_sum "Si O2"
_cell_formula_units_Z 15
_cell_length_a 9.739039
_cell_length_b 14.482064
_cell_length_c 7.783839
_cell_angle_alpha 128.185430
_cell_angle_beta 121.182666
_cell_angle_gamma 94.460678
_cell_volume 595.164432
_symmetry_space_group_name_H-M "P -1"
_symmetry_group_IT_number 2
_symmetry_cell_setting 'triclinic'
loop_
_space_group_symop_operation_xyz
x,y,z
-x,-y,-z
loop_
_atom_site_type_symbol
_atom_site_label
_atom_site_fract_x
_atom_site_fract_y
_atom_site_fract_z
Si Si1 0.904390 0.449221 0.168075
Si Si2 0.500000 0.000000 0.000000
Si Si3 0.553444 0.129070 0.554038
Si Si4 0.748132 0.490063 0.752824
Si Si5 0.211772 0.377429 0.532447
Si Si6 0.191194 0.116456 0.148432
Si Si7 0.348100 0.331960 0.920769
Si Si8 0.412107 0.187363 0.052780
O O1 0.739056 0.283288 0.922742
O O2 0.816449 0.462755 0.945543
O O3 0.922282 0.569033 0.442806
O O4 0.107725 0.478387 0.273082
O O5 0.400973 0.903027 0.643441
O O6 0.437761 0.855469 0.900125
O O7 0.378127 0.148091 0.418191
O O8 0.500000 0.000000 0.500000
O O9 0.743145 0.624589 0.942607
O O10 0.533915 0.345437 0.400820
O O11 0.165624 0.244104 0.234092
O O12 0.425333 0.526232 0.796343
O O13 0.238537 0.316257 0.657803
O O14 0.241350 0.074148 0.948220
O O15 0.000000 0.000000 0.000000
O O16 0.339861 0.198205 0.835424
#
# Coordination Sequence:
#
# PCOD9090219 Si02
#       8
#     2   1   2   2   2   2   2   2
#     4  10  21  39  65  95 127 168 219 270 331 393
#     4  10  24  40  64  94 132 180 226 266 342 406
#     4  11  24  45  66  92 137 184 221 279 343 409
#     4  10  19  38  64  92 127 161 211 279 327 389
#     4  10  21  40  67  97 128 170 220 277 335 396
#     4  11  24  44  64  94 137 174 224 282 340 411
#     4  10  20  37  69  91 126 167 215 275 333 394
#     4  11  22  41  64  93 128 173 217 277 340 398
#
# _framework density 25.203116999999999
#
# number of rings (size 3 to 8) (size 9 to 14) (size 15 to 20)
#    0.000    1.600    4.000    2.000    3.733    3.200 
#    4.800    1.333    0.000    0.000    0.000    0.000 
#    0.000    0.000    0.000    0.000    0.000    0.000 
#
# Total GULP energy -83598.628088 kJ/mol
# GULP energy per Si atom -5573.241873 kJ/mol
# Density = 2.514575 g / cm^3
# Si number density = 25.203117 Si / 1000 Ang^3
#
#
#
# Elastic Constant Matrix: (Units=GPa)
#
#
# Indices 1 2 3 4 5 6 
#
# 1 85.0937 28.9776 17.5214 -0.2425 11.7360 12.1649
# 2 28.9776 162.3214 14.4320 5.6884 -2.7402 2.1749
# 3 17.5214 14.4320 58.5520 0.0439 -1.0818 8.1757
# 4 -0.2425 5.6884 0.0439 35.4160 6.2886 -4.6887
# 5 11.7360 -2.7402 -1.0818 6.2886 30.3769 6.6208
# 6 12.1649 2.1749 8.1757 -4.6887 6.6208 37.4695
#
#
#
# Elastic Compliance Matrix: (Units=1/GPa)
#
#
# Indices 1 2 3 4 5 6 
#
# 1 0.014421 -0.002364 -0.003464 0.001116 -0.005558 -0.002667
# 2 -0.002364 0.006743 -0.000934 -0.001398 0.001757 0.000095
# 3 -0.003464 -0.000934 0.018897 -0.000882 0.002886 -0.003565
# 4 0.001116 -0.001398 -0.000882 0.030580 -0.008044 0.005159
# 5 -0.005558 0.001757 0.002886 -0.008044 0.038460 -0.006730
# 6 -0.002667 0.000095 -0.003565 0.005159 -0.006730 0.030161
#
#
# Mechanical properties :
#
#
# Convention : Reuss Voigt Hill
#
# Bulk Modulus (GPa) = 37.68261 47.53659 42.60960
# Shear Modulus (GPa) = 30.93426 36.98822 33.96124
#
# Velocity S-wave (km/s) = 3.50722 3.83509 3.67482
# Velocity P-wave (km/s) = 5.60222 6.20587 5.91176
#
# Compressibility (1/GPa) = 0.02653744
#
# Stress axis : x y z
#
# Youngs Moduli (GPa) = 69.34375 148.30142 52.91712
#
# Poissons Ratio (x) = 0.35053 0.18330
# Poissons Ratio (y) = 0.16390 0.04945
# Poissons Ratio (z) = 0.24020 0.13858
#
# Static dielectric constant tensor:
#      x y z
#    x 2.418720 -0.193970 0.206680 
#    y -0.193970 2.107470 -0.147980 
#    z 0.206680 -0.147980 2.337810 
# 
# From -- ./inp_files/209139.got.cif
#   From: 2010.05.17/outbox.cif.g08.bks.cpg/sg2_105_cif.got.tgz:209139.got - 2010.06.03 11:33:40.
