data_PCOD9090323
_publ_section_title
;
Structure prediction by ZEFSAII (Michael W. Deem and Ramdas Pophale) SiO2 
 PCOD9090323
Probable space group: P -1
;
_chemical_formula_sum "Si O2"
_cell_formula_units_Z 16
_cell_length_a 10.361077
_cell_length_b 6.642503
_cell_length_c 16.262454
_cell_angle_alpha 63.712864
_cell_angle_beta 131.659826
_cell_angle_gamma 94.133134
_cell_volume 707.223250
_symmetry_space_group_name_H-M "P -1"
_symmetry_group_IT_number 2
_symmetry_cell_setting 'triclinic'
loop_
_space_group_symop_operation_xyz
x,y,z
-x,-y,-z
loop_
_atom_site_type_symbol
_atom_site_label
_atom_site_fract_x
_atom_site_fract_y
_atom_site_fract_z
Si Si1 0.397034 0.460758 0.694582
Si Si2 0.121819 0.180457 0.193841
Si Si3 0.368558 0.340028 0.980198
Si Si4 0.955097 0.262632 0.281437
Si Si5 0.744174 0.480441 0.923592
Si Si6 0.272390 0.997032 0.566806
Si Si7 0.704805 0.957427 0.238624
Si Si8 0.547039 0.263860 0.616258
O O1 0.558331 0.432739 0.833359
O O2 0.263194 0.320687 0.692223
O O3 0.498570 0.341665 0.675860
O O4 0.295713 0.738907 0.587696
O O5 0.215963 0.356009 0.159808
O O6 0.089697 0.241604 0.265299
O O7 0.248059 0.911993 0.279391
O O8 0.921937 0.250161 0.054214
O O9 0.196350 0.475036 0.825676
O O10 0.500000 0.500000 0.000000
O O11 0.282195 0.376658 0.028078
O O12 0.513361 0.076612 0.087639
O O13 0.072062 0.175895 0.428313
O O14 0.852190 0.072766 0.249249
O O15 0.313965 0.963817 0.687356
O O16 0.416764 0.107900 0.569187
O O17 0.500000 0.500000 0.500000
#
# Coordination Sequence:
#
# PCOD9090323 Si02
#       8
#     2   2   2   2   2   2   2   2
#     4  11  22  38  68  86 119 169 205 250 309 361
#     4  10  21  39  61  89 126 156 208 250 300 372
#     4   9  18  39  64  88 122 158 203 254 303 359
#     4  10  22  37  65  91 124 166 198 256 315 354
#     4  10  19  38  65  89 119 165 199 250 312 358
#     4  11  22  41  65  88 124 165 202 255 312 361
#     4  10  21  41  64  92 120 160 213 251 300 375
#     4  11  24  39  59  91 125 159 208 250 301 374
#
# _framework density 22.623692999999999
#
# number of rings (size 3 to 8) (size 9 to 14) (size 15 to 20)
#    0.000    1.750    2.500    1.875    1.750    2.000 
#    2.250    6.875    0.000    0.000    0.000    0.000 
#    0.000    0.000    0.000    0.000    0.000    0.000 
#
# Total GULP energy -89394.027333 kJ/mol
# GULP energy per Si atom -5587.126708 kJ/mol
# Density = 2.257220 g / cm^3
# Si number density = 22.623693 Si / 1000 Ang^3
#
#
#
# Elastic Constant Matrix: (Units=GPa)
#
#
# Indices 1 2 3 4 5 6 
#
# 1 75.1074 4.9347 10.3054 -8.0835 -14.6335 0.8275
# 2 4.9347 39.3469 22.2691 -9.9470 -8.5250 2.3620
# 3 10.3054 22.2691 148.9070 -12.0203 14.6195 -3.9283
# 4 -8.0835 -9.9470 -12.0203 28.5095 6.0398 -5.0406
# 5 -14.6335 -8.5250 14.6195 6.0398 32.4895 -2.7371
# 6 0.8275 2.3620 -3.9283 -5.0406 -2.7371 31.1416
#
#
#
# Elastic Compliance Matrix: (Units=1/GPa)
#
#
# Indices 1 2 3 4 5 6 
#
# 1 0.015211 0.001355 -0.001790 0.002485 0.007579 0.000336
# 2 0.001355 0.032333 -0.005382 0.007053 0.010109 -0.001137
# 3 -0.001790 -0.005382 0.008547 0.002841 -0.006473 0.001425
# 4 0.002485 0.007053 0.002841 0.041679 -0.005550 0.006016
# 5 0.007579 0.010109 -0.006473 -0.005550 0.040866 0.000909
# 6 0.000336 -0.001137 0.001425 0.006016 0.000909 0.033422
#
#
# Mechanical properties :
#
#
# Convention : Reuss Voigt Hill
#
# Bulk Modulus (GPa) = 22.49370 37.59773 30.04571
# Shear Modulus (GPa) = 25.18759 33.48493 29.33626
#
# Velocity S-wave (km/s) = 3.34028 3.85136 3.60489
# Velocity P-wave (km/s) = 4.98405 6.03590 5.53502
#
# Compressibility (1/GPa) = 0.04445689
#
# Stress axis : x y z
#
# Youngs Moduli (GPa) = 65.74130 30.92832 117.00251
#
# Poissons Ratio (x) = -0.04192 0.20944
# Poissons Ratio (y) = -0.08911 0.62975
# Poissons Ratio (z) = 0.11768 0.16647
#
# Static dielectric constant tensor:
#      x y z
#    x 1.844350 0.000950 0.003950 
#    y 0.000950 1.817800 0.009460 
#    z 0.003950 0.009460 1.871980 
# 
# From -- ./inp_files/118819.got.cif
#   From: 2010.05.17/outbox.cif.g08.bks.cpg/sg2_60_cif.got.tgz:118819.got - 2010.06.03 11:33:40.
