data_PCOD9090209
_publ_section_title
;
Structure prediction by ZEFSAII (Michael W. Deem and Ramdas Pophale) SiO2 
 PCOD9090209
Probable space group: P -1
;
_chemical_formula_sum "Si O2"
_cell_formula_units_Z 14
_cell_length_a 11.423981
_cell_length_b 8.423987
_cell_length_c 9.282912
_cell_angle_alpha 132.824818
_cell_angle_beta 54.459008
_cell_angle_gamma 111.973335
_cell_volume 532.816382
_symmetry_space_group_name_H-M "P -1"
_symmetry_group_IT_number 2
_symmetry_cell_setting 'triclinic'
loop_
_space_group_symop_operation_xyz
x,y,z
-x,-y,-z
loop_
_atom_site_type_symbol
_atom_site_label
_atom_site_fract_x
_atom_site_fract_y
_atom_site_fract_z
Si Si1 0.905672 0.421173 0.655443
Si Si2 0.269660 0.865222 0.599266
Si Si3 0.561627 0.855454 0.537143
Si Si4 0.709249 0.692221 0.595092
Si Si5 0.927616 0.288271 0.129314
Si Si6 0.825183 0.175848 0.816970
Si Si7 0.476414 0.677348 0.000668
O O1 0.778202 0.309823 0.591063
O O2 0.926313 0.230376 0.642956
O O3 0.000000 0.500000 0.500000
O O4 0.917928 0.631701 0.878904
O O5 0.419384 0.789863 0.518307
O O6 0.145297 0.883762 0.819120
O O7 0.310158 0.083458 0.623351
O O8 0.613551 0.694022 0.521772
O O9 0.520920 0.085605 0.782483
O O10 0.828368 0.503185 0.371788
O O11 0.775354 0.930014 0.704956
O O12 0.607023 0.670733 0.791245
O O13 0.901890 0.231598 0.946953
O O14 0.676680 0.318718 0.974619
O O15 0.500000 0.500000 0.000000
#
# Coordination Sequence:
#
# PCOD9090209 Si02
#       7
#     2   2   2   2   2   2   2
#     4  10  22  42  69  90 127 177 216 261 317 375
#     4  10  19  38  64  92 121 172 208 261 320 373
#     4  10  20  37  64  91 134 163 211 270 323 373
#     4  11  23  39  65 101 129 168 211 265 329 376
#     4  11  24  40  68  92 132 172 217 254 319 389
#     4  11  23  45  63  96 132 167 217 267 319 376
#     4  11  22  37  63  96 135 167 211 268 324 389
#
# _framework density 26.275465000000001
#
# number of rings (size 3 to 8) (size 9 to 14) (size 15 to 20)
#    0.000    1.429    2.857    4.714    2.000    5.143 
#    0.000    0.000    0.000    6.000    0.000    0.000 
#    0.000    0.000    0.000    0.000    0.000    0.000 
#
# Total GULP energy -78314.748134 kJ/mol
# GULP energy per Si atom -5593.910581 kJ/mol
# Density = 2.621566 g / cm^3
# Si number density = 26.275465 Si / 1000 Ang^3
#
#
#
# Elastic Constant Matrix: (Units=GPa)
#
#
# Indices 1 2 3 4 5 6 
#
# 1 120.5668 48.6172 78.7993 -1.8072 46.8640 29.2787
# 2 48.6172 172.8370 55.3058 -21.9448 5.0209 12.5762
# 3 78.7993 55.3058 113.4424 -11.8051 17.3930 -6.2051
# 4 -1.8072 -21.9448 -11.8051 46.6036 -2.8592 7.6076
# 5 46.8640 5.0209 17.3930 -2.8592 65.9223 6.4011
# 6 29.2787 12.5762 -6.2051 7.6076 6.4011 51.5914
#
#
#
# Elastic Compliance Matrix: (Units=1/GPa)
#
#
# Indices 1 2 3 4 5 6 
#
# 1 0.034375 -0.001007 -0.022156 -0.002603 -0.016737 -0.019467
# 2 -0.001007 0.007554 -0.002969 0.003214 0.001283 -0.002260
# 3 -0.022156 -0.002969 0.025499 0.002228 0.007884 0.015058
# 4 -0.002603 0.003214 0.002228 0.024047 0.002340 -0.002875
# 5 -0.016737 0.001283 0.007884 0.002340 0.024334 0.006770
# 6 -0.019467 -0.002260 0.015058 -0.002875 0.006770 0.032377
#
#
# Mechanical properties :
#
#
# Convention : Reuss Voigt Hill
#
# Bulk Modulus (GPa) = 65.94622 85.81007 75.87814
# Shear Modulus (GPa) = 24.33012 47.76506 36.04759
#
# Velocity S-wave (km/s) = 3.04627 4.26826 3.70795
# Velocity P-wave (km/s) = 6.12581 7.55113 6.87550
#
# Compressibility (1/GPa) = 0.01516387
#
# Stress axis : x y z
#
# Youngs Moduli (GPa) = 29.09076 132.37199 39.21693
#
# Poissons Ratio (x) = 0.13336 0.86889
# Poissons Ratio (y) = 0.02931 0.11644
# Poissons Ratio (z) = 0.64453 0.39302
#
# Static dielectric constant tensor:
#      x y z
#    x 2.176880 0.023650 -0.052070 
#    y 0.023650 2.111430 0.021840 
#    z -0.052070 0.021840 2.052220 
# 
# From -- ./inp_files/245807.got.cif
#   From: 2010.05.17/outbox.cif.g08.bks.cpg/sg2_123_cif.got.tgz:245807.got - 2010.06.03 11:33:40.
