data_PCOD9090653
_publ_section_title
;
Structure prediction by ZEFSAII (Michael W. Deem and Ramdas Pophale) SiO2 
 PCOD9090653
Probable space group: P -1
;
_chemical_formula_sum "Si O2"
_cell_formula_units_Z 14
_cell_length_a 7.581135
_cell_length_b 14.261508
_cell_length_c 9.799555
_cell_angle_alpha 115.343858
_cell_angle_beta 73.592585
_cell_angle_gamma 54.629052
_cell_volume 542.236044
_symmetry_space_group_name_H-M "P -1"
_symmetry_group_IT_number 2
_symmetry_cell_setting 'triclinic'
loop_
_space_group_symop_operation_xyz
x,y,z
-x,-y,-z
loop_
_atom_site_type_symbol
_atom_site_label
_atom_site_fract_x
_atom_site_fract_y
_atom_site_fract_z
Si Si1 0.077586 0.368057 0.308230
Si Si2 0.976319 0.087759 0.283672
Si Si3 0.255769 0.744491 0.071220
Si Si4 0.835903 0.290615 0.202299
Si Si5 0.398120 0.908308 0.498720
Si Si6 0.570723 0.932035 0.748821
Si Si7 0.262791 0.353295 0.957886
O O1 0.801945 0.409663 0.373024
O O2 0.342103 0.186408 0.221414
O O3 0.146111 0.375066 0.145474
O O4 0.000000 0.500000 0.500000
O O5 0.709082 0.160555 0.483043
O O6 0.827023 0.195631 0.243758
O O7 0.184301 0.086087 0.296194
O O8 0.190035 0.887218 0.101597
O O9 0.519565 0.646528 0.060928
O O10 0.922619 0.879755 0.300383
O O11 0.333704 0.635872 0.860165
O O12 0.206010 0.123664 0.971103
O O13 0.408550 0.134934 0.443638
O O14 0.555010 0.823859 0.266363
O O15 0.000000 0.500000 0.000000
#
# Coordination Sequence:
#
# PCOD9090653 Si02
#       7
#     2   2   2   2   2   2   2
#     4  11  24  41  66  91 133 179 217 264 332 401
#     4   9  18  34  68 103 134 151 215 284 331 373
#     4   9  20  38  66 101 127 165 217 281 323 384
#     4  10  19  38  69 105 123 167 225 281 329 378
#     4   9  22  38  67 101 132 161 216 277 334 380
#     4  10  19  39  70 105 126 166 220 277 335 383
#     4  12  24  43  63  87 135 187 217 260 333 401
#
# _framework density 25.819013999999999
#
# number of rings (size 3 to 8) (size 9 to 14) (size 15 to 20)
#    0.857    1.143    0.000    5.143    2.000    0.000 
#    2.571    3.571    6.286    0.000    0.000    0.000 
#    0.000    0.000    0.000    0.000    0.000    0.000 
#
# Total GULP energy -78325.244427 kJ/mol
# GULP energy per Si atom -5594.660316 kJ/mol
# Density = 2.576025 g / cm^3
# Si number density = 25.819014 Si / 1000 Ang^3
#
#
#
# Elastic Constant Matrix: (Units=GPa)
#
#
# Indices 1 2 3 4 5 6 
#
# 1 112.3933 37.8346 38.7701 -16.8502 23.6346 -16.6473
# 2 37.8346 87.3603 41.3869 -19.5537 6.8023 -27.0823
# 3 38.7701 41.3869 121.4611 -40.1139 28.2275 -2.9850
# 4 -16.8502 -19.5537 -40.1139 34.4391 -1.2753 4.4517
# 5 23.6346 6.8023 28.2275 -1.2753 42.1034 -15.1824
# 6 -16.6473 -27.0823 -2.9850 4.4517 -15.1824 51.6727
#
#
#
# Elastic Compliance Matrix: (Units=1/GPa)
#
#
# Indices 1 2 3 4 5 6 
#
# 1 0.012011 -0.004146 0.000210 0.003592 -0.006264 -0.000441
# 2 -0.004146 0.019054 -0.006674 -0.000060 0.007499 0.010473
# 3 0.000210 -0.006674 0.020753 0.021024 -0.015407 -0.008569
# 4 0.003592 -0.000060 0.021024 0.055581 -0.017114 -0.007477
# 5 -0.006264 0.007499 -0.015407 -0.017114 0.041124 0.014579
# 6 -0.000441 0.010473 -0.008569 -0.007477 0.014579 0.029132
#
#
# Mechanical properties :
#
#
# Convention : Reuss Voigt Hill
#
# Bulk Modulus (GPa) = 32.68233 61.91088 47.29660
# Shear Modulus (GPa) = 23.91482 39.19124 31.55303
#
# Velocity S-wave (km/s) = 3.04673 3.90028 3.49963
# Velocity P-wave (km/s) = 5.00625 6.65686 5.88966
#
# Compressibility (1/GPa) = 0.03059758
#
# Stress axis : x y z
#
# Youngs Moduli (GPa) = 83.25728 52.48264 48.18483
#
# Poissons Ratio (x) = 0.21761 -0.01013
# Poissons Ratio (y) = 0.34522 0.32160
# Poissons Ratio (z) = -0.01751 0.35028
#
# Static dielectric constant tensor:
#      x y z
#    x 2.122930 0.036850 -0.060050 
#    y 0.036850 2.050750 0.050690 
#    z -0.060050 0.050690 2.111890 
# 
# From -- ./inp_files/207623.got.cif
#   From: 2010.05.17/outbox.cif.g08.bks.cpg/sg2_104_cif.got.tgz:207623.got - 2010.06.03 11:33:40.
