data_PCOD9090372
_publ_section_title
;
Structure prediction by ZEFSAII (Michael W. Deem and Ramdas Pophale) SiO2 
 PCOD9090372
Probable space group: P -1
;
_chemical_formula_sum "Si O2"
_cell_formula_units_Z 14
_cell_length_a 14.875260
_cell_length_b 15.514253
_cell_length_c 9.325417
_cell_angle_alpha 29.275082
_cell_angle_beta 141.278993
_cell_angle_gamma 138.237869
_cell_volume 643.094193
_symmetry_space_group_name_H-M "P -1"
_symmetry_group_IT_number 2
_symmetry_cell_setting 'triclinic'
loop_
_space_group_symop_operation_xyz
x,y,z
-x,-y,-z
loop_
_atom_site_type_symbol
_atom_site_label
_atom_site_fract_x
_atom_site_fract_y
_atom_site_fract_z
Si Si1 0.194114 0.677542 0.401590
Si Si2 0.495247 0.192748 0.287702
Si Si3 0.959004 0.698313 0.323173
Si Si4 0.430750 0.302286 0.752942
Si Si5 0.857633 0.956285 0.285537
Si Si6 0.407931 0.982025 0.765703
Si Si7 0.909587 0.062355 0.626753
O O1 0.341151 0.687800 0.660874
O O2 0.150001 0.495288 0.519071
O O3 0.058657 0.683970 0.329543
O O4 0.212364 0.867257 0.066550
O O5 0.500000 0.000000 0.500000
O O6 0.439631 0.144361 0.451485
O O7 0.412995 0.284292 0.930270
O O8 0.069115 0.766245 0.491591
O O9 0.885483 0.870314 0.957815
O O10 0.500000 0.500000 0.500000
O O11 0.275471 0.214037 0.612110
O O12 0.545542 0.182109 0.021760
O O13 0.936983 0.923067 0.284418
O O14 0.000000 0.000000 0.500000
O O15 0.234615 0.946069 0.634679
O O16 0.500000 0.000000 0.000000
#
# Coordination Sequence:
#
# PCOD9090372 Si02
#       7
#     2   2   2   2   2   2   2
#     4  10  19  38  65  94 122 176 222 265 324 406
#     4  10  20  39  70  89 128 173 222 259 333 395
#     4   9  20  36  63  95 128 163 221 270 330 394
#     4  11  25  45  69  96 130 181 229 268 331 402
#     4  11  23  41  66  92 133 176 221 270 335 401
#     4  11  23  42  68  95 135 171 214 277 337 390
#     4  10  22  38  64  95 135 163 211 277 340 382
#
# _framework density 21.769749999999998
#
# number of rings (size 3 to 8) (size 9 to 14) (size 15 to 20)
#    0.000    1.714    2.857    2.571    4.000    5.714 
#    2.571    2.857    0.000    0.000    0.000    0.000 
#    0.000    0.000    0.000    0.000    0.000    0.000 
#
# Total GULP energy -78073.436635 kJ/mol
# GULP energy per Si atom -5576.674045 kJ/mol
# Density = 2.172020 g / cm^3
# Si number density = 21.769750 Si / 1000 Ang^3
#
#
#
# Elastic Constant Matrix: (Units=GPa)
#
#
# Indices 1 2 3 4 5 6 
#
# 1 49.0385 21.3890 25.6356 -7.0757 -9.9915 3.3328
# 2 21.3890 182.2936 69.6294 -0.6584 -5.8796 9.9511
# 3 25.6356 69.6294 57.7889 2.1080 -13.7359 4.5497
# 4 -7.0757 -0.6584 2.1080 42.4292 5.4582 0.2227
# 5 -9.9915 -5.8796 -13.7359 5.4582 30.2719 8.2718
# 6 3.3328 9.9511 4.5497 0.2227 8.2718 36.5830
#
#
#
# Elastic Compliance Matrix: (Units=1/GPa)
#
#
# Indices 1 2 3 4 5 6 
#
# 1 0.028707 0.002754 -0.015463 0.005274 0.002606 -0.002063
# 2 0.002754 0.010968 -0.015488 0.001946 -0.004241 -0.000361
# 3 -0.015463 -0.015488 0.047072 -0.007138 0.015547 -0.003704
# 4 0.005274 0.001946 -0.007138 0.025603 -0.006034 0.001086
# 5 0.002606 -0.004241 0.015547 -0.006034 0.044212 -0.010978
# 6 -0.002063 -0.000361 -0.003704 0.001086 -0.010978 0.030558
#
#
# Mechanical properties :
#
#
# Convention : Reuss Voigt Hill
#
# Bulk Modulus (GPa) = 32.94544 58.04768 45.49656
# Shear Modulus (GPa) = 19.71362 33.35461 26.53411
#
# Velocity S-wave (km/s) = 3.01250 3.91852 3.49499
# Velocity P-wave (km/s) = 5.22175 6.86989 6.10172
#
# Compressibility (1/GPa) = 0.03035321
#
# Stress axis : x y z
#
# Youngs Moduli (GPa) = 34.83507 91.17261 21.24402
#
# Poissons Ratio (x) = -0.25107 0.32850
# Poissons Ratio (y) = -0.09593 0.32902
# Poissons Ratio (z) = 0.53866 1.41204
#
# Static dielectric constant tensor:
#      x y z
#    x 1.857230 -0.008640 -0.038700 
#    y -0.008640 1.790710 0.021250 
#    z -0.038700 0.021250 1.812400 
# 
# From -- ./inp_files/294889.got.cif
#   From: 2010.05.17/outbox.cif.g08.bks.cpg/sg2_148_cif.got.tgz:294889.got - 2010.06.03 11:33:40.
