data_PCOD9090315
_publ_section_title
;
Structure prediction by ZEFSAII (Michael W. Deem and Ramdas Pophale) SiO2 
 PCOD9090315
Probable space group: P -1
;
_chemical_formula_sum "Si O2"
_cell_formula_units_Z 14
_cell_length_a 7.704966
_cell_length_b 6.481069
_cell_length_c 16.330247
_cell_angle_alpha 111.036585
_cell_angle_beta 124.023160
_cell_angle_gamma 61.548010
_cell_volume 589.444089
_symmetry_space_group_name_H-M "P -1"
_symmetry_group_IT_number 2
_symmetry_cell_setting 'triclinic'
loop_
_space_group_symop_operation_xyz
x,y,z
-x,-y,-z
loop_
_atom_site_type_symbol
_atom_site_label
_atom_site_fract_x
_atom_site_fract_y
_atom_site_fract_z
Si Si1 0.184493 0.422962 0.298261
Si Si2 0.783276 0.347105 0.354053
Si Si3 0.010299 0.003557 0.151996
Si Si4 0.354652 0.503108 0.181245
Si Si5 0.632270 0.984585 0.948751
Si Si6 0.691366 0.741748 0.524424
Si Si7 0.215243 0.115239 0.758095
O O1 0.295390 0.495578 0.260173
O O2 0.338770 0.356615 0.408869
O O3 0.961225 0.647303 0.289557
O O4 0.114208 0.202508 0.223297
O O5 0.621500 0.444124 0.245949
O O6 0.707841 0.555565 0.430292
O O7 0.052104 0.262297 0.403389
O O8 0.742621 0.101172 0.324366
O O9 0.203789 0.756797 0.145928
O O10 0.895929 0.953086 0.198529
O O11 0.831584 0.068724 0.040450
O O12 0.293486 0.291417 0.095042
O O13 0.450273 0.123602 0.853023
O O14 0.500000 0.000000 0.000000
O O15 0.500000 0.000000 0.500000
#
# Coordination Sequence:
#
# PCOD9090315 Si02
#       7
#     2   2   2   2   2   2   2
#     4  11  23  39  65  94 128 166 213 268 317 370
#     4  10  22  44  64  91 131 162 213 262 316 388
#     4  10  19  38  65  88 133 170 204 264 309 368
#     4  10  22  41  63  96 126 168 216 257 319 380
#     4   9  19  38  63  92 127 173 212 254 317 375
#     4  11  24  44  69  95 122 170 217 259 329 383
#     4   9  20  40  61  93 129 164 212 258 315 376
#
# _framework density 23.751194000000002
#
# number of rings (size 3 to 8) (size 9 to 14) (size 15 to 20)
#    0.000    2.000    1.429    1.286    2.000    2.286 
#   15.429    0.000    0.000    0.000    0.000    0.000 
#    0.000    0.000    0.000    0.000    0.000    0.000 
#
# Total GULP energy -78257.332460 kJ/mol
# GULP energy per Si atom -5589.809461 kJ/mol
# Density = 2.369714 g / cm^3
# Si number density = 23.751194 Si / 1000 Ang^3
#
#
#
# Elastic Constant Matrix: (Units=GPa)
#
#
# Indices 1 2 3 4 5 6 
#
# 1 74.5194 9.3449 11.0975 -8.5174 1.4512 -6.5965
# 2 9.3449 120.0413 39.7897 -22.6645 1.0117 -43.9001
# 3 11.0975 39.7897 108.1903 6.4639 19.3453 -4.9213
# 4 -8.5174 -22.6645 6.4639 35.6494 -4.0601 -2.4522
# 5 1.4512 1.0117 19.3453 -4.0601 35.0186 0.4684
# 6 -6.5965 -43.9001 -4.9213 -2.4522 0.4684 38.7851
#
#
#
# Elastic Compliance Matrix: (Units=1/GPa)
#
#
# Indices 1 2 3 4 5 6 
#
# 1 0.014853 0.003867 -0.003411 0.007319 0.001913 0.006910
# 2 0.003867 0.029034 -0.012540 0.024907 0.008369 0.033403
# 3 -0.003411 -0.012540 0.016175 -0.013768 -0.009848 -0.013473
# 4 0.007319 0.024907 -0.013768 0.051635 0.012158 0.030808
# 5 0.001913 0.008369 -0.009848 0.012158 0.034966 0.008895
# 6 0.006910 0.033403 -0.013473 0.030808 0.008895 0.064898
#
#
# Mechanical properties :
#
#
# Convention : Reuss Voigt Hill
#
# Bulk Modulus (GPa) = 27.85844 47.02391 37.44118
# Shear Modulus (GPa) = 20.18624 38.05853 29.12239
#
# Velocity S-wave (km/s) = 2.91847 4.00732 3.50543
# Velocity P-wave (km/s) = 4.80743 6.42285 5.67294
#
# Compressibility (1/GPa) = 0.03589576
#
# Stress axis : x y z
#
# Youngs Moduli (GPa) = 67.32491 34.44258 61.82248
#
# Poissons Ratio (x) = -0.13320 0.21087
# Poissons Ratio (y) = -0.26036 0.77524
# Poissons Ratio (z) = 0.22964 0.43190
#
# Static dielectric constant tensor:
#      x y z
#    x 2.022510 -0.033080 0.010240 
#    y -0.033080 1.874710 -0.001230 
#    z 0.010240 -0.001230 1.889920 
# 
# From -- ./inp_files/126964.got.cif
#   From: 2010.05.17/outbox.cif.g08.bks.cpg/sg2_64_cif.got.tgz:126964.got - 2010.06.03 11:33:40.
