data_PCOD9090060
_publ_section_title
;
Structure prediction by ZEFSAII (Michael W. Deem and Ramdas Pophale) SiO2 
 PCOD9090060
Probable space group: P -1
;
_chemical_formula_sum "Si O2"
_cell_formula_units_Z 14
_cell_length_a 9.903182
_cell_length_b 12.468621
_cell_length_c 12.857256
_cell_angle_alpha 134.235789
_cell_angle_beta 143.702250
_cell_angle_gamma 60.220055
_cell_volume 665.269467
_symmetry_space_group_name_H-M "P -1"
_symmetry_group_IT_number 2
_symmetry_cell_setting 'triclinic'
loop_
_space_group_symop_operation_xyz
x,y,z
-x,-y,-z
loop_
_atom_site_type_symbol
_atom_site_label
_atom_site_fract_x
_atom_site_fract_y
_atom_site_fract_z
Si Si1 0.330562 0.803840 0.686996
Si Si2 0.821580 0.890037 0.125483
Si Si3 0.459252 0.250712 0.834222
Si Si4 0.611402 0.373797 0.782082
Si Si5 0.247895 0.594677 0.694361
Si Si6 0.065248 0.343731 0.788341
Si Si7 0.338330 0.942634 0.456882
O O1 0.254482 0.709551 0.680796
O O2 0.193136 0.711542 0.446478
O O3 0.248248 0.966886 0.758994
O O4 0.608193 0.831408 0.878185
O O5 0.861704 0.761814 0.146351
O O6 0.069602 0.939589 0.260745
O O7 0.534744 0.315086 0.810955
O O8 0.230685 0.313585 0.773641
O O9 0.402997 0.068443 0.670588
O O10 0.653301 0.311047 0.079104
O O11 0.426753 0.478350 0.703292
O O12 0.622508 0.229076 0.619942
O O13 0.857681 0.481915 0.015911
O O14 0.000000 0.500000 0.500000
O O15 0.500000 0.000000 0.500000
#
# Coordination Sequence:
#
# PCOD9090060 Si02
#       7
#     2   2   2   2   2   2   2
#     4  11  22  37  65  97 124 153 213 265 304 355
#     4  11  23  39  64  93 126 160 211 256 309 364
#     4  10  19  38  63  91 120 166 208 250 307 364
#     4  10  21  39  61  91 127 166 201 251 317 368
#     4  11  21  36  64  96 124 156 213 264 299 357
#     4  11  20  39  66  93 119 161 210 260 307 354
#     4  10  23  40  64  85 125 172 202 245 318 379
#
# _framework density 21.044104000000001
#
# number of rings (size 3 to 8) (size 9 to 14) (size 15 to 20)
#    0.000    1.429    4.286    3.857    2.000    0.571 
#    0.000    1.429    9.429    0.000    0.000    0.000 
#    0.000    0.000    0.000    0.000    0.000    0.000 
#
# Total GULP energy -78261.056700 kJ/mol
# GULP energy per Si atom -5590.075479 kJ/mol
# Density = 2.099621 g / cm^3
# Si number density = 21.044104 Si / 1000 Ang^3
#
#
#
# Elastic Constant Matrix: (Units=GPa)
#
#
# Indices 1 2 3 4 5 6 
#
# 1 76.8757 12.6688 24.5313 -4.4259 24.3193 9.7700
# 2 12.6688 81.0756 38.4549 17.1918 -3.2320 11.2351
# 3 24.5313 38.4549 156.9598 9.9495 36.7871 -3.3210
# 4 -4.4259 17.1918 9.9495 41.6810 -9.7868 -1.0868
# 5 24.3193 -3.2320 36.7871 -9.7868 29.4255 -5.3482
# 6 9.7700 11.2351 -3.3210 -1.0868 -5.3482 18.4693
#
#
#
# Elastic Compliance Matrix: (Units=1/GPa)
#
#
# Indices 1 2 3 4 5 6 
#
# 1 0.023947 -0.003226 0.004010 -0.004661 -0.030161 -0.018992
# 2 -0.003226 0.018076 -0.005967 -0.004422 0.009194 -0.007960
# 3 0.004010 -0.005967 0.012682 -0.005421 -0.022164 -0.002948
# 4 -0.004661 -0.004422 -0.005421 0.032409 0.023253 0.012822
# 5 -0.030161 0.009194 -0.022164 0.023253 0.102147 0.037324
# 6 -0.018992 -0.007960 -0.002948 0.012822 0.037324 0.080065
#
#
# Mechanical properties :
#
#
# Convention : Reuss Voigt Hill
#
# Bulk Modulus (GPa) = 22.55386 51.80231 37.17808
# Shear Modulus (GPa) = 16.97958 33.86559 25.42259
#
# Velocity S-wave (km/s) = 2.84360 4.01592 3.47949
# Velocity P-wave (km/s) = 4.63920 6.79507 5.81787
#
# Compressibility (1/GPa) = 0.04433832
#
# Stress axis : x y z
#
# Youngs Moduli (GPa) = 41.75955 55.32186 78.85158
#
# Poissons Ratio (x) = 0.17848 -0.31623
# Poissons Ratio (y) = 0.13473 0.47054
# Poissons Ratio (z) = -0.16747 0.33013
#
# Static dielectric constant tensor:
#      x y z
#    x 1.772010 0.007350 0.024510 
#    y 0.007350 1.748670 0.031810 
#    z 0.024510 0.031810 1.775510 
# 
# From -- ./inp_files/433124.got.cif
#   From: 2010.05.17/outbox.cif.g08.bks.cpg/sg2_217_cif.got.tgz:433124.got - 2010.06.03 11:33:40.
