data_PCOD9090640
_publ_section_title
;
Structure prediction by ZEFSAII (Michael W. Deem and Ramdas Pophale) SiO2 
 PCOD9090640
Probable space group: P -1
;
_chemical_formula_sum "Si O2"
_cell_formula_units_Z 16
_cell_length_a 16.461841
_cell_length_b 16.349627
_cell_length_c 8.073342
_cell_angle_alpha 47.756742
_cell_angle_beta 57.669711
_cell_angle_gamma 24.410884
_cell_volume 643.179097
_symmetry_space_group_name_H-M "P -1"
_symmetry_group_IT_number 2
_symmetry_cell_setting 'triclinic'
loop_
_space_group_symop_operation_xyz
x,y,z
-x,-y,-z
loop_
_atom_site_type_symbol
_atom_site_label
_atom_site_fract_x
_atom_site_fract_y
_atom_site_fract_z
Si Si1 0.549089 0.332595 0.885908
Si Si2 0.966900 0.713836 0.034928
Si Si3 0.453658 0.412469 0.538122
Si Si4 0.777145 0.685679 0.931712
Si Si5 0.282568 0.668140 0.952678
Si Si6 0.561273 0.082782 0.789953
Si Si7 0.971716 0.823638 0.229959
Si Si8 0.008759 0.147698 0.480563
O O1 0.567258 0.259250 0.789206
O O2 0.498505 0.511762 0.661689
O O3 0.357536 0.494912 0.983066
O O4 0.761445 0.101472 0.055807
O O5 0.981358 0.729581 0.192545
O O6 0.960931 0.826492 0.764287
O O7 0.158713 0.447424 0.120715
O O8 0.752075 0.874518 0.993291
O O9 0.519679 0.252113 0.556461
O O10 0.224265 0.648386 0.527475
O O11 0.645923 0.744316 0.125803
O O12 0.000000 0.500000 0.000000
O O13 0.628767 0.942639 0.748654
O O14 0.148797 0.736727 0.137339
O O15 0.141539 0.904392 0.702452
O O16 0.500000 0.500000 0.000000
O O17 0.963969 0.796392 0.467954
#
# Coordination Sequence:
#
# PCOD9090640 Si02
#       8
#     2   2   2   2   2   2   2   2
#     4  11  23  39  59  95 135 170 220 270 319 383
#     4  11  23  40  67  97 126 166 221 267 325 390
#     4  11  21  37  64  93 131 170 217 270 318 385
#     4   9  20  38  65 101 126 164 215 267 329 395
#     4  12  24  39  59  85 134 186 221 267 323 377
#     4  10  19  38  68  95 130 169 210 269 333 384
#     4  12  25  42  62  93 135 177 219 272 321 380
#     4  12  24  41  62  92 132 174 223 265 316 388
#
# _framework density 24.876428000000001
#
# number of rings (size 3 to 8) (size 9 to 14) (size 15 to 20)
#    0.000    1.000    5.000    2.625    1.750    1.000 
#    0.000    0.000    0.000    7.500    0.000    0.000 
#    0.000    0.000    0.000    0.000    0.000    0.000 
#
# Total GULP energy -89299.117651 kJ/mol
# GULP energy per Si atom -5581.194853 kJ/mol
# Density = 2.481981 g / cm^3
# Si number density = 24.876428 Si / 1000 Ang^3
#
#
#
# Elastic Constant Matrix: (Units=GPa)
#
#
# Indices 1 2 3 4 5 6 
#
# 1 69.8682 40.1771 9.6364 -3.5064 5.6037 10.9166
# 2 40.1771 186.6112 16.3367 -10.7528 -1.3481 16.8778
# 3 9.6364 16.3367 29.9360 -2.1933 13.7659 2.3484
# 4 -3.5064 -10.7528 -2.1933 40.9352 8.2534 -1.8015
# 5 5.6037 -1.3481 13.7659 8.2534 37.6802 -3.6176
# 6 10.9166 16.8778 2.3484 -1.8015 -3.6176 59.5767
#
#
#
# Elastic Compliance Matrix: (Units=1/GPa)
#
#
# Indices 1 2 3 4 5 6 
#
# 1 0.017072 -0.003222 -0.002528 0.000811 -0.002121 -0.002220
# 2 -0.003222 0.006474 -0.003055 0.000908 0.001532 -0.001003
# 3 -0.002528 -0.003055 0.044164 0.004723 -0.017028 -0.001303
# 4 0.000811 0.000908 0.004723 0.026520 -0.007647 -0.000254
# 5 -0.002121 0.001532 -0.017028 -0.007647 0.035047 0.002523
# 6 -0.002220 -0.001003 -0.001303 -0.000254 0.002523 0.017673
#
#
# Mechanical properties :
#
#
# Convention : Reuss Voigt Hill
#
# Bulk Modulus (GPa) = 19.96031 46.52398 33.24214
# Shear Modulus (GPa) = 27.58465 42.32278 34.95371
#
# Velocity S-wave (km/s) = 3.33358 4.12918 3.75252
# Velocity P-wave (km/s) = 4.78102 6.44020 5.67161
#
# Compressibility (1/GPa) = 0.05009941
#
# Stress axis : x y z
#
# Youngs Moduli (GPa) = 58.57597 154.46508 22.64294
#
# Poissons Ratio (x) = 0.49769 0.05724
# Poissons Ratio (y) = 0.18873 0.06917
# Poissons Ratio (z) = 0.14809 0.47189
#
# Static dielectric constant tensor:
#      x y z
#    x 2.168800 0.087170 0.066710 
#    y 0.087170 2.018920 0.084720 
#    z 0.066710 0.084720 2.033440 
# 
# From -- ./inp_files/314784.got.cif
#   From: 2010.05.17/outbox.cif.g08.bks.cpg/sg2_158_cif.got.tgz:314784.got - 2010.06.03 11:33:40.
