data_PCOD9090549
_publ_section_title
;
Structure prediction by ZEFSAII (Michael W. Deem and Ramdas Pophale) SiO2 
 PCOD9090549
Probable space group: P -1
;
_chemical_formula_sum "Si O2"
_cell_formula_units_Z 16
_cell_length_a 14.647888
_cell_length_b 9.911081
_cell_length_c 8.619129
_cell_angle_alpha 125.303792
_cell_angle_beta 123.296264
_cell_angle_gamma 93.161470
_cell_volume 715.119929
_symmetry_space_group_name_H-M "P -1"
_symmetry_group_IT_number 2
_symmetry_cell_setting 'triclinic'
loop_
_space_group_symop_operation_xyz
x,y,z
-x,-y,-z
loop_
_atom_site_type_symbol
_atom_site_label
_atom_site_fract_x
_atom_site_fract_y
_atom_site_fract_z
Si Si1 0.584532 0.347445 0.397635
Si Si2 0.310781 0.113989 0.817419
Si Si3 0.647340 0.557212 0.142240
Si Si4 0.280051 0.247815 0.354930
Si Si5 0.488982 0.807277 0.422206
Si Si6 0.082951 0.005958 0.773251
Si Si7 0.204650 0.698835 0.364528
Si Si8 0.950161 0.674168 0.219620
O O1 0.641193 0.579771 0.587542
O O2 0.550491 0.259572 0.480697
O O3 0.702738 0.324274 0.447126
O O4 0.456815 0.224652 0.092530
O O5 0.295326 0.267946 0.810420
O O6 0.206709 0.041813 0.811294
O O7 0.280187 0.932175 0.558797
O O8 0.725167 0.634829 0.425194
O O9 0.500000 0.500000 0.000000
O O10 0.619023 0.364028 0.903582
O O11 0.372158 0.173412 0.443465
O O12 0.142685 0.076319 0.045683
O O13 0.500000 0.000000 0.500000
O O14 0.046791 0.160208 0.779764
O O15 0.971640 0.780171 0.476749
O O16 0.072101 0.654380 0.288127
O O17 0.168082 0.540621 0.088055
#
# Coordination Sequence:
#
# PCOD9090549 Si02
#       8
#     2   2   2   2   2   2   2   2
#     4  12  21  36  65  94 128 157 207 241 307 382
#     4  11  21  37  61  96 126 160 203 247 316 370
#     4  10  22  37  55  84 138 164 190 244 315 374
#     4  11  21  39  60  89 123 168 202 244 304 368
#     4  11  24  38  57  91 134 163 194 245 309 377
#     4  10  19  38  67  85 116 166 208 263 295 369
#     4  10  22  34  59  94 123 155 200 272 295 355
#     4   9  20  39  57  93 117 152 220 263 304 336
#
# _framework density 22.373868000000002
#
# number of rings (size 3 to 8) (size 9 to 14) (size 15 to 20)
#    0.000    1.500    5.000    1.500    3.500    1.000 
#    0.000    0.000    0.000    7.500    0.000    0.000 
#    0.000    0.000    0.000    0.000    0.000    0.000 
#
# Total GULP energy -89298.627870 kJ/mol
# GULP energy per Si atom -5581.164242 kJ/mol
# Density = 2.232294 g / cm^3
# Si number density = 22.373868 Si / 1000 Ang^3
#
#
#
# Elastic Constant Matrix: (Units=GPa)
#
#
# Indices 1 2 3 4 5 6 
#
# 1 62.0321 20.5310 25.1023 -7.1144 8.9981 -20.4072
# 2 20.5310 119.0673 62.6928 14.3775 -18.9292 -23.4937
# 3 25.1023 62.6928 188.3856 13.7712 -23.5416 -2.6191
# 4 -7.1144 14.3775 13.7712 44.4479 -11.2659 -5.8993
# 5 8.9981 -18.9292 -23.5416 -11.2659 36.6865 -8.8976
# 6 -20.4072 -23.4937 -2.6191 -5.8993 -8.8976 30.6898
#
#
#
# Elastic Compliance Matrix: (Units=1/GPa)
#
#
# Indices 1 2 3 4 5 6 
#
# 1 0.024100 -0.000219 -0.003706 0.006584 -0.002478 0.016089
# 2 -0.000219 0.014059 -0.003459 0.000281 0.008273 0.012775
# 3 -0.003706 -0.003459 0.007305 -0.001712 0.002278 -0.004157
# 4 0.006584 0.000281 -0.001712 0.027928 0.009023 0.012431
# 5 -0.002478 0.008273 0.002278 0.009023 0.040843 0.018455
# 6 0.016089 0.012775 -0.004157 0.012431 0.018455 0.060447
#
#
# Mechanical properties :
#
#
# Convention : Reuss Voigt Hill
#
# Bulk Modulus (GPa) = 32.57571 65.12635 48.85103
# Shear Modulus (GPa) = 25.03978 39.77544 32.40761
#
# Velocity S-wave (km/s) = 3.34900 4.22093 3.80999
# Velocity P-wave (km/s) = 5.43560 7.27505 6.42153
#
# Compressibility (1/GPa) = 0.03069772
#
# Stress axis : x y z
#
# Youngs Moduli (GPa) = 41.49374 71.12678 136.89038
#
# Poissons Ratio (x) = 0.01557 0.50728
# Poissons Ratio (y) = 0.00908 0.47347
# Poissons Ratio (z) = 0.15377 0.24601
#
# Static dielectric constant tensor:
#      x y z
#    x 1.930160 0.007760 -0.017440 
#    y 0.007760 1.792740 0.013540 
#    z -0.017440 0.013540 1.882340 
# 
# From -- ./inp_files/241013.got.cif
#   From: 2010.05.17/outbox.cif.g08.bks.cpg/sg2_121_cif.got.tgz:241013.got - 2010.06.03 11:33:40.
