data_PCOD9090753
_publ_section_title
;
Structure prediction by ZEFSAII (Michael W. Deem and Ramdas Pophale) SiO2 
 PCOD9090753
Probable space group: P -1
;
_chemical_formula_sum "Si O2"
_cell_formula_units_Z 14
_cell_length_a 12.007989
_cell_length_b 8.377251
_cell_length_c 9.582473
_cell_angle_alpha 71.938981
_cell_angle_beta 126.548678
_cell_angle_gamma 127.805459
_cell_volume 609.534346
_symmetry_space_group_name_H-M "P -1"
_symmetry_group_IT_number 2
_symmetry_cell_setting 'triclinic'
loop_
_space_group_symop_operation_xyz
x,y,z
-x,-y,-z
loop_
_atom_site_type_symbol
_atom_site_label
_atom_site_fract_x
_atom_site_fract_y
_atom_site_fract_z
Si Si1 0.577694 0.904933 0.487015
Si Si2 0.754000 0.782199 0.845610
Si Si3 0.033500 0.735220 0.058805
Si Si4 0.522174 0.246936 0.043701
Si Si5 0.329529 0.789371 0.106048
Si Si6 0.056665 0.702742 0.401933
Si Si7 0.268038 0.333492 0.818670
O O1 0.752439 0.099260 0.500503
O O2 0.500000 0.000000 0.500000
O O3 0.618689 0.768025 0.645800
O O4 0.439855 0.766614 0.306721
O O5 0.864472 0.024205 0.892914
O O6 0.710559 0.690779 0.992967
O O7 0.860212 0.697873 0.886661
O O8 0.144567 0.704158 0.043974
O O9 0.024214 0.644993 0.228642
O O10 0.648972 0.268923 0.015322
O O11 0.375652 0.256424 0.856306
O O12 0.629015 0.425439 0.185314
O O13 0.427006 0.032636 0.104470
O O14 0.000000 0.500000 0.500000
O O15 0.925087 0.762329 0.327986
#
# Coordination Sequence:
#
# PCOD9090753 Si02
#       7
#     2   2   2   2   2   2   2
#     4  11  19  33  59  88 115 152 191 237 286 349
#     4   9  17  31  58  81 105 148 195 230 277 347
#     4   9  17  33  56  81 110 150 193 233 277 343
#     4  10  22  35  60  82 118 156 193 240 283 349
#     4  11  20  37  57  88 117 151 196 236 289 339
#     4  10  20  33  59  88 116 148 196 241 284 342
#     4  10  19  39  58  83 112 158 196 235 288 345
#
# _framework density 22.968354000000001
#
# number of rings (size 3 to 8) (size 9 to 14) (size 15 to 20)
#    0.000    2.000    4.286    1.714    0.000    1.143 
#    0.000    4.286    3.143    0.000    0.000    0.000 
#    0.000    0.000    0.000    0.000    0.000    0.000 
#
# Total GULP energy -78162.143336 kJ/mol
# GULP energy per Si atom -5583.010238 kJ/mol
# Density = 2.291608 g / cm^3
# Si number density = 22.968354 Si / 1000 Ang^3
#
#
#
# Elastic Constant Matrix: (Units=GPa)
#
#
# Indices 1 2 3 4 5 6 
#
# 1 143.5775 10.7696 42.7025 -7.2828 32.7071 20.5231
# 2 10.7696 64.2947 18.1662 -4.8994 1.1973 26.8875
# 3 42.7025 18.1662 87.8421 -12.6647 24.2670 5.1291
# 4 -7.2828 -4.8994 -12.6647 30.9397 9.4096 4.8924
# 5 32.7071 1.1973 24.2670 9.4096 39.8534 0.2663
# 6 20.5231 26.8875 5.1291 4.8924 0.2663 23.9809
#
#
#
# Elastic Compliance Matrix: (Units=1/GPa)
#
#
# Indices 1 2 3 4 5 6 
#
# 1 0.013971 0.009708 -0.001991 0.011931 -0.013197 -0.024703
# 2 0.009708 0.040369 -0.003950 0.019337 -0.010963 -0.056548
# 3 -0.001991 -0.003950 0.017580 0.009410 -0.011177 0.000577
# 4 0.011931 0.019337 0.009410 0.058215 -0.029543 -0.045452
# 5 -0.013197 -0.010963 -0.011177 -0.029543 0.049823 0.031450
# 6 -0.024703 -0.056548 0.000577 -0.045452 0.031450 0.135043
#
#
# Mechanical properties :
#
#
# Convention : Reuss Voigt Hill
#
# Bulk Modulus (GPa) = 12.58590 48.77676 30.68133
# Shear Modulus (GPa) = 14.97224 33.89321 24.43272
#
# Velocity S-wave (km/s) = 2.55593 3.84558 3.26507
# Velocity P-wave (km/s) = 3.76855 6.40317 5.25369
#
# Compressibility (1/GPa) = 0.07945397
#
# Stress axis : x y z
#
# Youngs Moduli (GPa) = 71.57432 24.77155 56.88424
#
# Poissons Ratio (x) = -0.24048 0.11327
# Poissons Ratio (y) = -0.69483 0.22467
# Poissons Ratio (z) = 0.14252 0.09784
#
# Static dielectric constant tensor:
#      x y z
#    x 1.920670 0.021850 0.041470 
#    y 0.021850 1.933760 -0.001740 
#    z 0.041470 -0.001740 1.901140 
# 
# From -- ./inp_files/182440.got.cif
#   From: 2010.05.17/outbox.cif.g08.bks.cpg/sg2_92_cif.got.tgz:182440.got - 2010.06.03 11:33:40.
