data_PCOD9090957
_publ_section_title
;
Structure prediction by ZEFSAII (Michael W. Deem and Ramdas Pophale) SiO2 
 PCOD9090957
Probable space group: P -1
;
_chemical_formula_sum "Si O2"
_cell_formula_units_Z 16
_cell_length_a 8.930880
_cell_length_b 10.593623
_cell_length_c 21.037365
_cell_angle_alpha 56.876422
_cell_angle_beta 143.322684
_cell_angle_gamma 135.576325
_cell_volume 830.495121
_symmetry_space_group_name_H-M "P -1"
_symmetry_group_IT_number 2
_symmetry_cell_setting 'triclinic'
loop_
_space_group_symop_operation_xyz
x,y,z
-x,-y,-z
loop_
_atom_site_type_symbol
_atom_site_label
_atom_site_fract_x
_atom_site_fract_y
_atom_site_fract_z
Si Si1 0.754393 0.969576 0.576100
Si Si2 0.239221 0.320302 0.267828
Si Si3 0.328101 0.792859 0.152126
Si Si4 0.382278 0.403427 0.053619
Si Si5 0.283227 0.794367 0.788933
Si Si6 0.675815 0.452966 0.882817
Si Si7 0.648467 0.674270 0.374846
Si Si8 0.846625 0.810230 0.537246
O O1 0.049150 0.157706 0.600616
O O2 0.500000 0.000000 0.500000
O O3 0.811182 0.870597 0.679947
O O4 0.659258 0.830265 0.523148
O O5 0.271860 0.384813 0.189237
O O6 0.538855 0.483426 0.358772
O O7 0.961188 0.314715 0.208546
O O8 0.449335 0.723849 0.155390
O O9 0.395412 0.714165 0.259188
O O10 0.507197 0.004921 0.166630
O O11 0.980678 0.713378 0.042147
O O12 0.522077 0.284395 0.142145
O O13 0.479857 0.543655 0.106732
O O14 0.500000 0.500000 0.000000
O O15 0.091994 0.795181 0.663912
O O16 0.000000 0.500000 0.000000
O O17 0.683969 0.669871 0.463624
O O18 0.000000 0.000000 0.500000
#
# Coordination Sequence:
#
# PCOD9090957 Si02
#       8
#     2   2   2   2   2   2   2   2
#     4  10  21  36  56  86 119 154 202 248 290 356
#     4  10  21  39  64  81 124 167 195 246 309 362
#     4  10  19  39  63  85 126 159 200 246 305 361
#     4  11  23  40  60  91 122 154 207 257 297 360
#     4  11  20  37  64  91 119 162 207 247 301 360
#     4   9  20  38  59  84 118 161 197 246 306 362
#     4  10  19  39  62  86 121 164 201 243 304 361
#     4   9  18  36  61  84 122 157 196 246 302 350
#
# _framework density 19.265615
#
# number of rings (size 3 to 8) (size 9 to 14) (size 15 to 20)
#    0.000    2.000    3.750    2.625    0.000    4.500 
#    0.000   13.125    0.000    0.000    0.000    0.000 
#    0.000    0.000    0.000    0.000    0.000    0.000 
#
# Total GULP energy -89148.338361 kJ/mol
# GULP energy per Si atom -5571.771148 kJ/mol
# Density = 1.922177 g / cm^3
# Si number density = 19.265615 Si / 1000 Ang^3
#
#
#
# Elastic Constant Matrix: (Units=GPa)
#
#
# Indices 1 2 3 4 5 6 
#
# 1 110.6304 44.8284 63.6082 -12.3415 -5.6502 -19.5564
# 2 44.8284 87.0008 30.5741 1.3810 1.2299 -9.1092
# 3 63.6082 30.5741 102.3073 -0.0825 -4.0070 -21.0587
# 4 -12.3415 1.3810 -0.0825 31.0353 -5.4583 0.2184
# 5 -5.6502 1.2299 -4.0070 -5.4583 40.7361 -4.1839
# 6 -19.5564 -9.1092 -21.0587 0.2184 -4.1839 27.5731
#
#
#
# Elastic Compliance Matrix: (Units=1/GPa)
#
#
# Indices 1 2 3 4 5 6 
#
# 1 0.018319 -0.006148 -0.008371 0.008117 0.003508 0.005036
# 2 -0.006148 0.014992 -0.000789 -0.003441 -0.001872 -0.000267
# 3 -0.008371 -0.000789 0.016605 -0.003164 0.000752 0.006623
# 4 0.008117 -0.003441 -0.003164 0.036651 0.006121 0.002842
# 5 0.003508 -0.001872 0.000752 0.006121 0.026647 0.006439
# 6 0.005036 -0.000267 0.006623 0.002842 0.006439 0.045764
#
#
# Mechanical properties :
#
#
# Convention : Reuss Voigt Hill
#
# Bulk Modulus (GPa) = 51.81551 64.21777 58.01664
# Shear Modulus (GPa) = 25.50662 30.59743 28.05203
#
# Velocity S-wave (km/s) = 3.64255 3.98953 3.81998
# Velocity P-wave (km/s) = 6.68166 7.39101 7.04527
#
# Compressibility (1/GPa) = 0.01929924
#
# Stress axis : x y z
#
# Youngs Moduli (GPa) = 54.58954 66.70023 60.22167
#
# Poissons Ratio (x) = 0.41008 0.50414
# Poissons Ratio (y) = 0.33562 0.04751
# Poissons Ratio (z) = 0.45700 0.05262
#
# Static dielectric constant tensor:
#      x y z
#    x 1.682620 0.004770 -0.020300 
#    y 0.004770 1.725240 0.020030 
#    z -0.020300 0.020030 1.693910 
# 
# From -- ./inp_files/587940.got.cif
#   From: 2010.05.17/outbox.cif.g08.bks.cpg/sg2_294_cif.got.tgz:587940.got - 2010.06.03 11:33:40.
