data_PCOD9090251
_publ_section_title
;
Structure prediction by ZEFSAII (Michael W. Deem and Ramdas Pophale) SiO2 
 PCOD9090251
Probable space group: P -1
;
_chemical_formula_sum "Si O2"
_cell_formula_units_Z 16
_cell_length_a 7.334255
_cell_length_b 9.469511
_cell_length_c 16.238029
_cell_angle_alpha 51.957810
_cell_angle_beta 123.711237
_cell_angle_gamma 130.456816
_cell_volume 652.766948
_symmetry_space_group_name_H-M "P -1"
_symmetry_group_IT_number 2
_symmetry_cell_setting 'triclinic'
loop_
_space_group_symop_operation_xyz
x,y,z
-x,-y,-z
loop_
_atom_site_type_symbol
_atom_site_label
_atom_site_fract_x
_atom_site_fract_y
_atom_site_fract_z
Si Si1 0.154493 0.886440 0.984096
Si Si2 0.840939 0.192940 0.693622
Si Si3 0.824704 0.691189 0.118003
Si Si4 0.625789 0.036532 0.151912
Si Si5 0.560509 0.240533 0.213348
Si Si6 0.728878 0.703426 0.370122
Si Si7 0.505230 0.264560 0.462537
Si Si8 0.850021 0.183309 0.447705
O O1 0.389309 0.893726 0.088120
O O2 0.915587 0.741123 0.028944
O O3 0.203148 0.118110 0.924318
O O4 0.161621 0.847909 0.903627
O O5 0.648737 0.258222 0.583278
O O6 0.949320 0.289213 0.774015
O O7 0.067564 0.261979 0.662416
O O8 0.692299 0.948220 0.750641
O O9 0.602942 0.467161 0.153541
O O10 0.670599 0.887683 0.276926
O O11 0.578475 0.189986 0.141109
O O12 0.780151 0.224544 0.325138
O O13 0.508558 0.478548 0.381442
O O14 0.871778 0.712717 0.487086
O O15 0.679163 0.247835 0.439574
O O16 0.253419 0.056364 0.474690
#
# Coordination Sequence:
#
# PCOD9090251 Si02
#       8
#     2   2   2   2   2   2   2   2
#     4  10  24  45  65  89 120 159 215 261 299 371
#     4  10  19  38  64  95 123 157 213 250 290 371
#     4  11  21  43  72  87 113 166 216 250 307 358
#     4  11  24  43  59  92 133 156 198 264 314 361
#     4  11  23  39  66  95 125 157 201 262 303 362
#     4  11  20  37  64  88 128 171 193 244 316 358
#     4   9  18  34  61  93 125 160 205 251 289 354
#     4   9  19  35  58  97 125 152 213 246 283 377
#
# _framework density 24.511044999999999
#
# number of rings (size 3 to 8) (size 9 to 14) (size 15 to 20)
#    0.000    1.750    2.500    3.750    0.000    1.500 
#    2.250    3.750    0.000    0.000    0.000    0.000 
#    0.000    0.000    0.000    0.000    0.000    0.000 
#
# Total GULP energy -89546.991002 kJ/mol
# GULP energy per Si atom -5596.686938 kJ/mol
# Density = 2.445526 g / cm^3
# Si number density = 24.511045 Si / 1000 Ang^3
#
#
#
# Elastic Constant Matrix: (Units=GPa)
#
#
# Indices 1 2 3 4 5 6 
#
# 1 48.1753 4.5108 17.0610 0.9897 -19.6690 -0.2749
# 2 4.5108 110.1517 29.2035 -25.2780 -8.9540 18.3382
# 3 17.0610 29.2035 61.5481 6.4308 -17.2907 -1.7090
# 4 0.9897 -25.2780 6.4308 42.7702 0.7108 -11.7880
# 5 -19.6690 -8.9540 -17.2907 0.7108 30.0181 6.0908
# 6 -0.2749 18.3382 -1.7090 -11.7880 6.0908 19.2647
#
#
#
# Elastic Compliance Matrix: (Units=1/GPa)
#
#
# Indices 1 2 3 4 5 6 
#
# 1 0.030229 0.002826 -0.004130 -0.001493 0.020329 -0.009966
# 2 0.002826 0.014829 -0.007656 0.006436 0.004176 -0.012137
# 3 -0.004130 -0.007656 0.024371 -0.007727 0.008853 0.001864
# 4 -0.001493 0.006436 -0.007727 0.032802 -0.007450 0.015594
# 5 0.020329 0.004176 0.008853 -0.007450 0.058415 -0.025927
# 6 -0.009966 -0.012137 0.001864 0.015594 -0.025927 0.081224
#
#
# Mechanical properties :
#
#
# Convention : Reuss Voigt Hill
#
# Bulk Modulus (GPa) = 19.41394 35.71399 27.56397
# Shear Modulus (GPa) = 18.05303 29.68392 23.86847
#
# Velocity S-wave (km/s) = 2.71685 3.48378 3.12394
# Velocity P-wave (km/s) = 4.21656 5.54838 4.92767
#
# Compressibility (1/GPa) = 0.05150938
#
# Stress axis : x y z
#
# Youngs Moduli (GPa) = 33.08053 67.43377 41.03212
#
# Poissons Ratio (x) = -0.19058 0.16947
# Poissons Ratio (y) = -0.09349 0.31415
# Poissons Ratio (z) = 0.13663 0.51628
#
# Static dielectric constant tensor:
#      x y z
#    x 2.015400 -0.011340 0.005480 
#    y -0.011340 1.912150 0.028970 
#    z 0.005480 0.028970 1.968780 
# 
# From -- ./inp_files/218490.got.cif
#   From: 2010.05.17/outbox.cif.g08.bks.cpg/sg2_110_cif.got.tgz:218490.got - 2010.06.03 11:33:40.
