data_PCOD9090594
_publ_section_title
;
Structure prediction by ZEFSAII (Michael W. Deem and Ramdas Pophale) SiO2 
 PCOD9090594
Probable space group: P -1
;
_chemical_formula_sum "Si O2"
_cell_formula_units_Z 15
_cell_length_a 8.436311
_cell_length_b 17.076743
_cell_length_c 12.164712
_cell_angle_alpha 42.652052
_cell_angle_beta 34.983222
_cell_angle_gamma 35.107638
_cell_volume 566.444786
_symmetry_space_group_name_H-M "P -1"
_symmetry_group_IT_number 2
_symmetry_cell_setting 'triclinic'
loop_
_space_group_symop_operation_xyz
x,y,z
-x,-y,-z
loop_
_atom_site_type_symbol
_atom_site_label
_atom_site_fract_x
_atom_site_fract_y
_atom_site_fract_z
Si Si1 0.606898 0.629525 0.744395
Si Si2 0.875944 0.944868 0.377064
Si Si3 0.794080 0.681215 0.220452
Si Si4 0.365499 0.572834 0.620269
Si Si5 0.000000 0.000000 0.500000
Si Si6 0.107925 0.716117 0.326974
Si Si7 0.932578 0.161942 0.998329
Si Si8 0.962097 0.742979 0.845433
O O1 0.411535 0.719366 0.869959
O O2 0.321216 0.660301 0.789880
O O3 0.866239 0.468732 0.793736
O O4 0.819256 0.686097 0.515931
O O5 0.909750 0.979519 0.445965
O O6 0.068464 0.784853 0.396712
O O7 0.500000 0.000000 0.500000
O O8 0.001328 0.021084 0.151835
O O9 0.519869 0.664874 0.447696
O O10 0.806812 0.802168 0.145284
O O11 0.751279 0.717956 0.078014
O O12 0.500000 0.500000 0.500000
O O13 0.559121 0.432907 0.726640
O O14 0.005581 0.670135 0.778341
O O15 0.883574 0.895624 0.718791
O O16 0.074861 0.819508 0.145890
#
# Coordination Sequence:
#
# PCOD9090594 Si02
#       8
#     2   2   2   2   1   2   2   2
#     4  10  19  38  67  98 129 167 220 276 337 395
#     4  12  24  45  67  97 137 183 226 275 337 401
#     4  10  21  38  67  96 126 171 223 272 334 399
#     4  11  24  41  60  92 134 170 220 280 339 392
#     4  12  24  44  72  94 140 184 220 280 336 402
#     4  11  22  39  66  98 129 174 218 279 337 393
#     4  11  20  39  65  98 128 167 226 272 329 404
#     4  11  21  41  64  94 131 171 221 275 331 401
#
# _framework density 26.480955000000002
#
# number of rings (size 3 to 8) (size 9 to 14) (size 15 to 20)
#    0.000    1.067    4.000    5.200    0.000    2.667 
#    2.400    0.667    0.000    0.000    0.000    0.000 
#    0.000    0.000    0.000    0.000    0.000    0.000 
#
# Total GULP energy -83777.177747 kJ/mol
# GULP energy per Si atom -5585.145183 kJ/mol
# Density = 2.642068 g / cm^3
# Si number density = 26.480955 Si / 1000 Ang^3
#
#
#
# Elastic Constant Matrix: (Units=GPa)
#
#
# Indices 1 2 3 4 5 6 
#
# 1 106.8249 28.1388 47.3613 8.4205 13.3087 27.9522
# 2 28.1388 97.3929 19.8257 -8.1375 -3.3999 12.4016
# 3 47.3613 19.8257 153.2814 -32.6703 25.6862 5.9080
# 4 8.4205 -8.1375 -32.6703 36.8049 9.0647 8.4303
# 5 13.3087 -3.3999 25.6862 9.0647 50.3487 5.7992
# 6 27.9522 12.4016 5.9080 8.4303 5.7992 37.5983
#
#
#
# Elastic Compliance Matrix: (Units=1/GPa)
#
#
# Indices 1 2 3 4 5 6 
#
# 1 0.015266 -0.002817 -0.005896 -0.007807 0.001099 -0.007913
# 2 -0.002817 0.011775 0.000024 0.003613 0.001198 -0.002789
# 3 -0.005896 0.000024 0.012650 0.014360 -0.007517 0.000327
# 4 -0.007807 0.003613 0.014360 0.047075 -0.012776 -0.006228
# 5 0.001099 0.001198 -0.007517 -0.012776 0.025921 -0.001165
# 6 -0.007913 -0.002789 0.000327 -0.006228 -0.001165 0.034924
#
#
# Mechanical properties :
#
#
# Convention : Reuss Voigt Hill
#
# Bulk Modulus (GPa) = 44.81445 60.90565 52.86005
# Shear Modulus (GPa) = 28.99776 42.42860 35.71318
#
# Velocity S-wave (km/s) = 3.31273 4.00713 3.67636
# Velocity P-wave (km/s) = 5.62070 6.66777 6.16650
#
# Compressibility (1/GPa) = 0.02231423
#
# Stress axis : x y z
#
# Youngs Moduli (GPa) = 65.50488 84.92260 79.05058
#
# Poissons Ratio (x) = 0.23921 0.46607
# Poissons Ratio (y) = 0.18452 -0.00190
# Poissons Ratio (z) = 0.38621 -0.00204
#
# Static dielectric constant tensor:
#      x y z
#    x 2.132930 -0.018730 0.035020 
#    y -0.018730 2.117820 0.052270 
#    z 0.035020 0.052270 2.033400 
# 
# From -- ./inp_files/276055.got.cif
#   From: 2010.05.17/outbox.cif.g08.bks.cpg/sg2_139_cif.got.tgz:276055.got - 2010.06.03 11:33:40.
