data_PCOD9090422
_publ_section_title
;
Structure prediction by ZEFSAII (Michael W. Deem and Ramdas Pophale) SiO2 
 PCOD9090422
Probable space group: P -1
;
_chemical_formula_sum "Si O2"
_cell_formula_units_Z 14
_cell_length_a 8.091682
_cell_length_b 8.229610
_cell_length_c 18.020653
_cell_angle_alpha 82.093898
_cell_angle_beta 47.951225
_cell_angle_gamma 52.343152
_cell_volume 625.653841
_symmetry_space_group_name_H-M "P -1"
_symmetry_group_IT_number 2
_symmetry_cell_setting 'triclinic'
loop_
_space_group_symop_operation_xyz
x,y,z
-x,-y,-z
loop_
_atom_site_type_symbol
_atom_site_label
_atom_site_fract_x
_atom_site_fract_y
_atom_site_fract_z
Si Si1 0.450199 0.727245 0.085502
Si Si2 0.679959 0.587397 0.360676
Si Si3 0.738764 0.906601 0.501557
Si Si4 0.926099 0.556680 0.141459
Si Si5 0.164929 0.778360 0.015200
Si Si6 0.893792 0.349866 0.457045
Si Si7 0.781298 0.104638 0.708433
O O1 0.312610 0.790150 0.040903
O O2 0.205137 0.922553 0.205554
O O3 0.561878 0.480752 0.086155
O O4 0.778757 0.654501 0.983214
O O5 0.934797 0.482798 0.226883
O O6 0.821192 0.520417 0.405246
O O7 0.551364 0.450474 0.575494
O O8 0.440425 0.862432 0.410643
O O9 0.888388 0.719968 0.534231
O O10 0.036918 0.831383 0.376997
O O11 0.500000 0.000000 0.500000
O O12 0.586935 0.684145 0.207258
O O13 0.946211 0.745093 0.116330
O O14 0.000000 0.000000 0.000000
O O15 0.066478 0.121484 0.369290
#
# Coordination Sequence:
#
# PCOD9090422 Si02
#       7
#     2   2   2   2   2   2   2
#     4   9  22  38  60  91 125 152 202 252 301 361
#     4  10  20  40  63  89 119 162 204 252 304 360
#     4  11  23  38  63  88 126 161 202 259 305 359
#     4  10  19  38  66  82 125 161 195 253 300 357
#     4   9  21  42  60  86 122 161 199 246 305 362
#     4  10  21  40  62  89 123 159 208 251 302 363
#     4  11  20  40  61  90 121 161 204 249 308 354
#
# _framework density 22.376591999999999
#
# number of rings (size 3 to 8) (size 9 to 14) (size 15 to 20)
#    0.857    1.143    2.857    1.286    2.000    1.714 
#    2.571    1.429    0.000    0.000    0.000    0.000 
#    0.000    0.000    0.000    0.000    0.000    0.000 
#
# Total GULP energy -77970.813181 kJ/mol
# GULP energy per Si atom -5569.343799 kJ/mol
# Density = 2.232566 g / cm^3
# Si number density = 22.376592 Si / 1000 Ang^3
#
#
#
# Elastic Constant Matrix: (Units=GPa)
#
#
# Indices 1 2 3 4 5 6 
#
# 1 53.0527 28.7951 10.8383 0.1073 5.9208 -19.7819
# 2 28.7951 131.3345 24.4331 -26.2190 11.0588 -16.7012
# 3 10.8383 24.4331 116.0000 -8.6834 14.6868 2.6928
# 4 0.1073 -26.2190 -8.6834 21.8031 -1.1660 -2.1273
# 5 5.9208 11.0588 14.6868 -1.1660 15.8503 1.0472
# 6 -19.7819 -16.7012 2.6928 -2.1273 1.0472 28.1333
#
#
#
# Elastic Compliance Matrix: (Units=1/GPa)
#
#
# Indices 1 2 3 4 5 6 
#
# 1 0.028994 -0.003871 -0.001590 -0.004088 -0.008162 0.018236
# 2 -0.003871 0.013107 -0.000546 0.015857 -0.006459 0.006551
# 3 -0.001590 -0.000546 0.010164 0.002779 -0.008112 -0.001903
# 4 -0.004088 0.015857 0.002779 0.066768 -0.007967 0.011618
# 5 -0.008162 -0.006459 -0.008112 -0.007967 0.078390 -0.012317
# 6 0.018236 0.006551 -0.001903 0.011618 -0.012317 0.053776
#
#
# Mechanical properties :
#
#
# Convention : Reuss Voigt Hill
#
# Bulk Modulus (GPa) = 24.84439 47.61333 36.22886
# Shear Modulus (GPa) = 18.07476 28.91203 23.49340
#
# Velocity S-wave (km/s) = 2.84518 3.59843 3.24375
# Velocity P-wave (km/s) = 4.68192 6.21203 5.50044
#
# Compressibility (1/GPa) = 0.04025053
#
# Stress axis : x y z
#
# Youngs Moduli (GPa) = 34.49006 76.29548 98.39017
#
# Poissons Ratio (x) = 0.29534 0.15640
# Poissons Ratio (y) = 0.13351 0.05376
# Poissons Ratio (z) = 0.05482 0.04169
#
# Static dielectric constant tensor:
#      x y z
#    x 2.007460 0.025760 0.030520 
#    y 0.025760 1.878770 -0.023380 
#    z 0.030520 -0.023380 1.855470 
# 
# From -- ./inp_files/460875.got.cif
#   From: 2010.05.17/outbox.cif.g08.bks.cpg/sg2_231_cif.got.tgz:460875.got - 2010.06.03 11:33:40.
