data_PCOD9090449
_publ_section_title
;
Structure prediction by ZEFSAII (Michael W. Deem and Ramdas Pophale) SiO2 
 PCOD9090449
Probable space group: P -1
;
_chemical_formula_sum "Si O2"
_cell_formula_units_Z 16
_cell_length_a 9.589623
_cell_length_b 14.556577
_cell_length_c 9.228511
_cell_angle_alpha 85.790665
_cell_angle_beta 60.191651
_cell_angle_gamma 47.161848
_cell_volume 745.411633
_symmetry_space_group_name_H-M "P -1"
_symmetry_group_IT_number 2
_symmetry_cell_setting 'triclinic'
loop_
_space_group_symop_operation_xyz
x,y,z
-x,-y,-z
loop_
_atom_site_type_symbol
_atom_site_label
_atom_site_fract_x
_atom_site_fract_y
_atom_site_fract_z
Si Si1 0.790546 0.382170 0.368799
Si Si2 0.121983 0.814204 0.866498
Si Si3 0.873296 0.353472 0.661216
Si Si4 0.776896 0.579601 0.211657
Si Si5 0.630160 0.280882 0.825707
Si Si6 0.105047 0.028374 0.736229
Si Si7 0.385809 0.348992 0.235356
Si Si8 0.658004 0.782995 0.483753
O O1 0.500000 0.500000 0.500000
O O2 0.912548 0.258450 0.209651
O O3 0.875270 0.329382 0.493644
O O4 0.844779 0.462954 0.286403
O O5 0.085255 0.927260 0.792542
O O6 0.402261 0.692867 0.778235
O O7 0.979721 0.883111 0.083103
O O8 0.669302 0.372922 0.826851
O O9 0.813047 0.487305 0.695423
O O10 0.135141 0.229037 0.609213
O O11 0.534909 0.661861 0.235355
O O12 0.727045 0.685936 0.328976
O O13 0.000000 0.500000 0.000000
O O14 0.496667 0.286591 0.026491
O O15 0.907753 0.130426 0.701894
O O16 0.384959 0.929136 0.581201
O O17 0.332115 0.280495 0.362900
#
# Coordination Sequence:
#
# PCOD9090449 Si02
#       8
#     2   2   2   2   2   2   2   2
#     4  12  21  41  66  98 130 162 216 266 326 379
#     4   9  18  38  66  92 122 169 215 266 304 379
#     4  12  23  37  65  99 128 169 213 264 327 372
#     4  12  26  43  65 102 133 161 205 277 333 368
#     4  11  24  39  66  98 127 167 217 266 312 374
#     4   9  21  41  65  89 128 175 221 245 315 386
#     4  10  19  38  66  90 125 164 214 259 317 381
#     4  11  24  43  66  90 133 177 209 256 320 390
#
# _framework density 21.464649000000001
#
# number of rings (size 3 to 8) (size 9 to 14) (size 15 to 20)
#    0.000    1.250    3.750    3.000    1.750    4.000 
#    0.000    0.625    0.000    0.000    0.000    0.000 
#    0.000    0.000    0.000    0.000    0.000    0.000 
#
# Total GULP energy -89401.638946 kJ/mol
# GULP energy per Si atom -5587.602434 kJ/mol
# Density = 2.141579 g / cm^3
# Si number density = 21.464649 Si / 1000 Ang^3
#
#
#
# Elastic Constant Matrix: (Units=GPa)
#
#
# Indices 1 2 3 4 5 6 
#
# 1 107.0810 27.7967 39.1815 14.2548 -2.0484 -20.4402
# 2 27.7967 94.6287 26.4815 9.5521 0.4128 -20.7560
# 3 39.1815 26.4815 89.3601 13.5380 -4.5082 0.0039
# 4 14.2548 9.5521 13.5380 36.3095 4.0135 -2.6093
# 5 -2.0484 0.4128 -4.5082 4.0135 27.0204 3.8120
# 6 -20.4402 -20.7560 0.0039 -2.6093 3.8120 25.1710
#
#
#
# Elastic Compliance Matrix: (Units=1/GPa)
#
#
# Indices 1 2 3 4 5 6 
#
# 1 0.013897 0.000335 -0.005892 -0.002388 -0.001202 0.011497
# 2 0.000335 0.014592 -0.004428 -0.001135 -0.002541 0.012572
# 3 -0.005892 -0.004428 0.015834 -0.003559 0.004122 -0.009431
# 4 -0.002388 -0.001135 -0.003559 0.030794 -0.005494 0.001150
# 5 -0.001202 -0.002541 0.004122 -0.005494 0.039825 -0.009673
# 6 0.011497 0.012572 -0.009431 0.001150 -0.009673 0.061016
#
#
# Mechanical properties :
#
#
# Convention : Reuss Voigt Hill
#
# Bulk Modulus (GPa) = 41.06370 53.10993 47.08681
# Shear Modulus (GPa) = 24.50433 30.87419 27.68926
#
# Velocity S-wave (km/s) = 3.38244 3.79670 3.59554
# Velocity P-wave (km/s) = 5.86745 6.63450 6.26273
#
# Compressibility (1/GPa) = 0.02435241
#
# Stress axis : x y z
#
# Youngs Moduli (GPa) = 71.95692 68.53278 63.15601
#
# Poissons Ratio (x) = -0.02293 0.37211
# Poissons Ratio (y) = -0.02407 0.27964
# Poissons Ratio (z) = 0.42397 0.30344
#
# Static dielectric constant tensor:
#      x y z
#    x 1.773230 0.023170 -0.040440 
#    y 0.023170 1.829980 -0.020060 
#    z -0.040440 -0.020060 1.799580 
# 
# From -- ./inp_files/207651.got.cif
#   From: 2010.05.17/outbox.cif.g08.bks.cpg/sg2_104_cif.got.tgz:207651.got - 2010.06.03 11:33:40.
