data_PCOD9090747
_publ_section_title
;
Structure prediction by ZEFSAII (Michael W. Deem and Ramdas Pophale) SiO2 
 PCOD9090747
Probable space group: P -1
;
_chemical_formula_sum "Si O2"
_cell_formula_units_Z 16
_cell_length_a 14.111646
_cell_length_b 9.543299
_cell_length_c 13.554976
_cell_angle_alpha 69.214196
_cell_angle_beta 147.811204
_cell_angle_gamma 125.832961
_cell_volume 745.462535
_symmetry_space_group_name_H-M "P -1"
_symmetry_group_IT_number 2
_symmetry_cell_setting 'triclinic'
loop_
_space_group_symop_operation_xyz
x,y,z
-x,-y,-z
loop_
_atom_site_type_symbol
_atom_site_label
_atom_site_fract_x
_atom_site_fract_y
_atom_site_fract_z
Si Si1 0.764617 0.374915 0.547855
Si Si2 0.217269 0.080224 0.551979
Si Si3 0.117670 0.101616 0.249021
Si Si4 0.354931 0.071829 0.138812
Si Si5 0.924325 0.579063 0.829814
Si Si6 0.750519 0.089098 0.716558
Si Si7 0.630198 0.138806 0.964089
Si Si8 0.040854 0.771320 0.615088
O O1 0.544269 0.243789 0.324148
O O2 0.863121 0.261957 0.698963
O O3 0.747782 0.439364 0.627197
O O4 0.914769 0.554782 0.568921
O O5 0.246064 0.097109 0.456406
O O6 0.076511 0.870650 0.517873
O O7 0.449042 0.178346 0.785267
O O8 0.090182 0.168760 0.450199
O O9 0.186219 0.046170 0.226747
O O10 0.153723 0.297088 0.231219
O O11 0.861150 0.945411 0.080395
O O12 0.244291 0.903166 0.162830
O O13 0.445930 0.031530 0.133448
O O14 0.142130 0.703936 0.925397
O O15 0.000000 0.500000 0.000000
O O16 0.500000 0.000000 0.500000
O O17 0.720743 0.134852 0.150944
#
# Coordination Sequence:
#
# PCOD9090747 Si02
#       8
#     2   2   2   2   2   2   2   2
#     4  10  19  39  57  87 124 151 201 264 295 349
#     4  11  20  39  67  85 117 164 209 252 313 357
#     4  11  21  40  60  88 118 170 205 238 310 382
#     4  10  20  37  59  85 125 158 195 243 305 372
#     4  10  21  40  61  90 127 154 208 261 296 359
#     4  10  21  37  58  84 122 167 196 238 308 373
#     4  10  20  40  63  88 120 163 201 243 313 373
#     4  10  22  40  62  90 120 155 213 263 300 359
#
# _framework density 21.463184999999999
#
# number of rings (size 3 to 8) (size 9 to 14) (size 15 to 20)
#    0.000    1.750    3.750    3.750    0.000    1.000 
#    9.000    6.250    0.000    0.000    0.000    0.000 
#    0.000    0.000    0.000    0.000    0.000    0.000 
#
# Total GULP energy -89134.198328 kJ/mol
# GULP energy per Si atom -5570.887396 kJ/mol
# Density = 2.141433 g / cm^3
# Si number density = 21.463185 Si / 1000 Ang^3
#
#
#
# Elastic Constant Matrix: (Units=GPa)
#
#
# Indices 1 2 3 4 5 6 
#
# 1 40.5212 16.9618 4.6306 -5.8405 -6.7959 -7.2720
# 2 16.9618 113.0677 29.9782 -1.6664 -9.4556 0.9124
# 3 4.6306 29.9782 115.3962 1.1828 -8.3507 -14.3921
# 4 -5.8405 -1.6664 1.1828 33.1272 1.9284 -12.6927
# 5 -6.7959 -9.4556 -8.3507 1.9284 38.0750 -6.0570
# 6 -7.2720 0.9124 -14.3921 -12.6927 -6.0570 30.8118
#
#
#
# Elastic Compliance Matrix: (Units=1/GPa)
#
#
# Indices 1 2 3 4 5 6 
#
# 1 0.031522 -0.004689 0.002085 0.010257 0.006640 0.014083
# 2 -0.004689 0.010362 -0.002841 -0.001475 0.000677 -0.003215
# 3 0.002085 -0.002841 0.010377 0.002354 0.002932 0.006969
# 4 0.010257 -0.001475 0.002354 0.039491 0.003237 0.020468
# 5 0.006640 0.000677 0.002932 0.003237 0.029701 0.010089
# 6 0.014083 -0.003215 0.006969 0.020468 0.010089 0.049544
#
#
# Mechanical properties :
#
#
# Convention : Reuss Voigt Hill
#
# Bulk Modulus (GPa) = 24.17074 41.34738 32.75906
# Shear Modulus (GPa) = 25.55238 34.89711 30.22474
#
# Velocity S-wave (km/s) = 3.45414 4.03663 3.75669
# Velocity P-wave (km/s) = 5.21479 6.40562 5.84063
#
# Compressibility (1/GPa) = 0.04137233
#
# Stress axis : x y z
#
# Youngs Moduli (GPa) = 31.72377 96.51074 96.36384
#
# Poissons Ratio (x) = 0.45251 -0.20091
# Poissons Ratio (y) = 0.14874 0.27372
# Poissons Ratio (z) = -0.06614 0.27414
#
# Static dielectric constant tensor:
#      x y z
#    x 1.813220 0.012370 -0.030980 
#    y 0.012370 1.882150 0.011330 
#    z -0.030980 0.011330 1.863150 
# 
# From -- ./inp_files/528433.got.cif
#   From: 2010.05.17/outbox.cif.g08.bks.cpg/sg2_265_cif.got.tgz:528433.got - 2010.06.03 11:33:40.
