data_PCOD9090966
_publ_section_title
;
Structure prediction by ZEFSAII (Michael W. Deem and Ramdas Pophale) SiO2 
 PCOD9090966
Probable space group: P -1
;
_chemical_formula_sum "Si O2"
_cell_formula_units_Z 14
_cell_length_a 8.899783
_cell_length_b 20.908147
_cell_length_c 9.308125
_cell_angle_alpha 58.039808
_cell_angle_beta 45.879021
_cell_angle_gamma 94.999825
_cell_volume 699.967871
_symmetry_space_group_name_H-M "P -1"
_symmetry_group_IT_number 2
_symmetry_cell_setting 'triclinic'
loop_
_space_group_symop_operation_xyz
x,y,z
-x,-y,-z
loop_
_atom_site_type_symbol
_atom_site_label
_atom_site_fract_x
_atom_site_fract_y
_atom_site_fract_z
Si Si1 0.182338 0.225599 0.569437
Si Si2 0.504859 0.788360 0.375771
Si Si3 0.877953 0.676419 0.849391
Si Si4 0.304937 0.532350 0.222035
Si Si5 0.222139 0.976939 0.152528
Si Si6 0.730453 0.805532 0.889810
Si Si7 0.101126 0.707578 0.345660
O O1 0.339479 0.216524 0.595142
O O2 0.990616 0.123396 0.704597
O O3 0.947798 0.227770 0.783657
O O4 0.460826 0.349484 0.161889
O O5 0.121057 0.690060 0.760313
O O6 0.627507 0.786637 0.145327
O O7 0.633407 0.908391 0.144424
O O8 0.839061 0.749205 0.853537
O O9 0.063817 0.724644 0.515488
O O10 0.519162 0.560001 0.180169
O O11 0.000000 0.500000 0.500000
O O12 0.170268 0.424859 0.353787
O O13 0.006065 0.930730 0.491584
O O14 0.500000 0.000000 0.000000
O O15 0.424741 0.749618 0.069128
#
# Coordination Sequence:
#
# PCOD9090966 Si02
#       7
#     2   2   2   2   2   2   2
#     4  11  23  41  60  96 127 154 200 264 307 351
#     4  11  25  39  60  91 134 157 195 261 312 347
#     4  10  19  39  62  87 122 160 205 246 295 368
#     4  11  19  39  69  91 114 165 215 246 298 371
#     4  12  20  42  68  87 120 170 207 245 295 369
#     4  11  20  41  63  91 116 165 216 236 294 380
#     4  10  20  39  67  86 119 158 211 253 297 361
#
# _framework density 20.000919
#
# number of rings (size 3 to 8) (size 9 to 14) (size 15 to 20)
#    0.000    1.143    5.714    3.429    0.000    0.000 
#    5.143    8.571    0.000    0.000    0.000    0.000 
#    0.000    0.000    0.000    0.000    0.000    0.000 
#
# Total GULP energy -78022.364890 kJ/mol
# GULP energy per Si atom -5573.026064 kJ/mol
# Density = 1.995540 g / cm^3
# Si number density = 20.000919 Si / 1000 Ang^3
#
#
#
# Elastic Constant Matrix: (Units=GPa)
#
#
# Indices 1 2 3 4 5 6 
#
# 1 181.3884 64.4932 39.0586 2.0342 -26.1701 0.5983
# 2 64.4932 128.1644 34.2239 -8.3359 -7.8783 -10.9227
# 3 39.0586 34.2239 67.9821 2.3541 -28.1693 4.7365
# 4 2.0342 -8.3359 2.3541 22.3121 -8.5405 -9.4174
# 5 -26.1701 -7.8783 -28.1693 -8.5405 30.5250 -1.0483
# 6 0.5983 -10.9227 4.7365 -9.4174 -1.0483 21.2526
#
#
#
# Elastic Compliance Matrix: (Units=1/GPa)
#
#
# Indices 1 2 3 4 5 6 
#
# 1 0.007633 -0.003750 -0.000246 -0.001180 0.004938 -0.002367
# 2 -0.003750 0.013106 -0.006879 0.010259 -0.002871 0.012779
# 3 -0.000246 -0.006879 0.029120 0.000106 0.024616 -0.008757
# 4 -0.001180 0.010259 0.000106 0.074601 0.023964 0.039521
# 5 0.004938 -0.002871 0.024616 0.023964 0.065906 0.006769
# 6 -0.002367 0.012779 -0.008757 0.039521 0.006769 0.073485
#
#
# Mechanical properties :
#
#
# Convention : Reuss Voigt Hill
#
# Bulk Modulus (GPa) = 35.57412 72.56512 54.06962
# Shear Modulus (GPa) = 16.95083 30.80188 23.87635
#
# Velocity S-wave (km/s) = 2.91435 3.92857 3.45884
# Velocity P-wave (km/s) = 5.39902 7.54572 6.56077
#
# Compressibility (1/GPa) = 0.02811032
#
# Stress axis : x y z
#
# Youngs Moduli (GPa) = 131.01405 76.29965 34.34047
#
# Poissons Ratio (x) = 0.28614 0.00843
# Poissons Ratio (y) = 0.49133 0.23622
# Poissons Ratio (z) = 0.03217 0.52484
#
# Static dielectric constant tensor:
#      x y z
#    x 1.764590 -0.002690 -0.041620 
#    y -0.002690 1.737370 0.011450 
#    z -0.041620 0.011450 1.726600 
# 
# From -- ./inp_files/223379.got.cif
#   From: 2010.05.17/outbox.cif.g08.bks.cpg/sg2_112_cif.got.tgz:223379.got - 2010.06.03 11:33:40.
