data_PCOD9090379
_publ_section_title
;
Structure prediction by ZEFSAII (Michael W. Deem and Ramdas Pophale) SiO2 
 PCOD9090379
Probable space group: P -1
;
_chemical_formula_sum "Si O2"
_cell_formula_units_Z 16
_cell_length_a 17.973548
_cell_length_b 19.950791
_cell_length_c 5.007224
_cell_angle_alpha 110.706995
_cell_angle_beta 56.087607
_cell_angle_gamma 155.260284
_cell_volume 559.713267
_symmetry_space_group_name_H-M "P -1"
_symmetry_group_IT_number 2
_symmetry_cell_setting 'triclinic'
loop_
_space_group_symop_operation_xyz
x,y,z
-x,-y,-z
loop_
_atom_site_type_symbol
_atom_site_label
_atom_site_fract_x
_atom_site_fract_y
_atom_site_fract_z
Si Si1 0.747703 0.808636 0.344089
Si Si2 0.280529 0.774922 0.795622
Si Si3 0.702659 0.630700 0.974135
Si Si4 0.020379 0.685697 0.894456
Si Si5 0.372635 0.569847 0.321022
Si Si6 0.178149 0.563215 0.429772
Si Si7 0.817930 0.000358 0.750981
Si Si8 0.296130 0.990208 0.490426
O O1 0.573382 0.706867 0.322538
O O2 0.745743 0.864091 0.669607
O O3 0.713988 0.698138 0.280628
O O4 0.000000 0.000000 0.000000
O O5 0.243285 0.824809 0.803088
O O6 0.269235 0.708818 0.486393
O O7 0.484772 0.895805 0.728776
O O8 0.059076 0.608772 0.185646
O O9 0.652683 0.510942 0.964881
O O10 0.500000 0.500000 0.000000
O O11 0.930185 0.809201 0.600692
O O12 0.100677 0.788054 0.621099
O O13 0.879430 0.512718 0.846099
O O14 0.851573 0.605645 0.299371
O O15 0.336603 0.621886 0.342497
O O16 0.685573 0.951388 0.731045
O O17 0.777539 0.007383 0.126547
#
# Coordination Sequence:
#
# PCOD9090379 Si02
#       8
#     2   2   2   2   2   2   2   2
#     4   9  20  39  69  93 130 172 217 276 333 397
#     4  10  24  41  61  97 127 179 217 274 321 389
#     4   9  18  40  69  94 133 168 220 271 332 394
#     4  11  23  38  64  93 131 173 219 273 322 396
#     4  10  19  38  65  94 127 171 219 270 333 388
#     4  10  22  40  64  91 132 168 226 267 329 390
#     4  11  24  44  66 101 133 176 221 270 331 392
#     4  12  26  42  70  96 140 175 223 270 326 395
#
# _framework density 28.586067
#
# number of rings (size 3 to 8) (size 9 to 14) (size 15 to 20)
#    0.000    1.750    1.250    2.250    5.250    0.500 
#    0.000    6.250   11.000    0.000    0.000    0.000 
#    0.000    0.000    0.000    0.000    0.000    0.000 
#
# Total GULP energy -89753.106425 kJ/mol
# GULP energy per Si atom -5609.569152 kJ/mol
# Density = 2.852100 g / cm^3
# Si number density = 28.586067 Si / 1000 Ang^3
#
#
#
# Elastic Constant Matrix: (Units=GPa)
#
#
# Indices 1 2 3 4 5 6 
#
# 1 114.9263 42.9143 28.6122 -1.9886 -12.0831 6.2281
# 2 42.9143 118.7354 37.5147 0.9838 -27.8482 -6.3999
# 3 28.6122 37.5147 153.6297 10.6078 -22.2985 9.1157
# 4 -1.9886 0.9838 10.6078 51.5167 9.4517 -14.6931
# 5 -12.0831 -27.8482 -22.2985 9.4517 52.6520 -7.6720
# 6 6.2281 -6.3999 9.1157 -14.6931 -7.6720 57.5576
#
#
#
# Elastic Compliance Matrix: (Units=1/GPa)
#
#
# Indices 1 2 3 4 5 6 
#
# 1 0.010331 -0.003520 -0.001039 0.000348 -0.000180 -0.001280
# 2 -0.003520 0.011502 -0.001556 -0.000240 0.005026 0.002515
# 3 -0.001039 -0.001556 0.007700 -0.002494 0.002415 -0.001595
# 4 0.000348 -0.000240 -0.002494 0.022287 -0.004311 0.005445
# 5 -0.000180 0.005026 0.002415 -0.004311 0.023736 0.002259
# 6 -0.001280 0.002515 -0.001595 0.005445 0.002259 0.019736
#
#
# Mechanical properties :
#
#
# Convention : Reuss Voigt Hill
#
# Bulk Modulus (GPa) = 57.79131 67.26374 62.52753
# Shear Modulus (GPa) = 44.13534 50.89528 47.51531
#
# Velocity S-wave (km/s) = 3.93357 4.22408 4.08141
# Velocity P-wave (km/s) = 6.39462 6.88272 6.64315
#
# Compressibility (1/GPa) = 0.01730364
#
# Stress axis : x y z
#
# Youngs Moduli (GPa) = 96.80038 86.93886 129.87087
#
# Poissons Ratio (x) = 0.30599 0.13489
# Poissons Ratio (y) = 0.34069 0.20213
# Poissons Ratio (z) = 0.10054 0.13531
#
# Static dielectric constant tensor:
#      x y z
#    x 2.183090 -0.036650 -0.045340 
#    y -0.036650 2.283780 -0.029940 
#    z -0.045340 -0.029940 2.206600 
# 
# From -- ./inp_files/38448.got.cif
#   From: 2010.05.17/outbox.cif.g08.bks.cpg/sg2_20_cif.got.tgz:38448.got - 2010.06.03 11:33:40.
