data_PCOD9090074
_publ_section_title
;
Structure prediction by ZEFSAII (Michael W. Deem and Ramdas Pophale) SiO2 
 PCOD9090074
Probable space group: P -1
;
_chemical_formula_sum "Si O2"
_cell_formula_units_Z 16
_cell_length_a 8.472870
_cell_length_b 11.729088
_cell_length_c 8.313980
_cell_angle_alpha 65.505169
_cell_angle_beta 65.343190
_cell_angle_gamma 105.521957
_cell_volume 578.286544
_symmetry_space_group_name_H-M "P -1"
_symmetry_group_IT_number 2
_symmetry_cell_setting 'triclinic'
loop_
_space_group_symop_operation_xyz
x,y,z
-x,-y,-z
loop_
_atom_site_type_symbol
_atom_site_label
_atom_site_fract_x
_atom_site_fract_y
_atom_site_fract_z
Si Si1 0.316462 0.030224 0.596521
Si Si2 0.746247 0.622332 0.582812
Si Si3 0.005719 0.228699 0.915497
Si Si4 0.270372 0.476894 0.870939
Si Si5 0.411015 0.105294 0.016017
Si Si6 0.254523 0.627637 0.111150
Si Si7 0.911725 0.133613 0.514991
Si Si8 0.375824 0.728385 0.476093
O O1 0.165545 0.972703 0.543807
O O2 0.500000 0.000000 0.500000
O O3 0.464109 0.198498 0.486483
O O4 0.170490 0.937955 0.863572
O O5 0.828267 0.717571 0.328509
O O6 0.502776 0.522778 0.761153
O O7 0.802120 0.497288 0.658451
O O8 0.860028 0.739246 0.611165
O O9 0.116974 0.306562 0.991310
O O10 0.877744 0.298999 0.869966
O O11 0.257925 0.558473 0.668910
O O12 0.222228 0.543846 0.005409
O O13 0.520342 0.223610 0.044803
O O14 0.479835 0.213757 0.773123
O O15 0.500000 0.000000 0.000000
O O16 0.180547 0.982363 0.229648
O O17 0.780307 0.214393 0.507586
#
# Coordination Sequence:
#
# PCOD9090074 Si02
#       8
#     2   2   2   2   2   2   2   2
#     4  10  20  37  66  99 125 159 217 278 321 372
#     4  12  26  43  63  98 139 175 215 267 325 388
#     4  12  23  42  68  95 127 175 223 270 320 384
#     4  12  26  43  63  98 139 175 215 267 325 388
#     4  10  20  37  66  99 125 159 217 278 321 372
#     4  12  23  42  68  95 127 175 223 270 320 384
#     4  10  19  38  63  92 125 167 214 265 317 382
#     4  10  19  38  63  92 125 167 214 265 317 382
#
# _framework density 27.667946000000001
#
# number of rings (size 3 to 8) (size 9 to 14) (size 15 to 20)
#    0.000    1.000    0.000   10.500    0.000    0.000 
#    0.000    6.250    0.000    0.000    0.000    0.000 
#    0.000    0.000    0.000    0.000    0.000    0.000 
#
# Total GULP energy -89615.580659 kJ/mol
# GULP energy per Si atom -5600.973791 kJ/mol
# Density = 2.760497 g / cm^3
# Si number density = 27.667946 Si / 1000 Ang^3
#
#
#
# Elastic Constant Matrix: (Units=GPa)
#
#
# Indices 1 2 3 4 5 6 
#
# 1 79.7407 14.4987 7.8500 1.8052 -14.0630 -5.7713
# 2 14.4987 100.2695 6.2111 -26.0745 4.8228 22.1462
# 3 7.8500 6.2111 115.2799 -14.8532 7.1003 3.5499
# 4 1.8052 -26.0745 -14.8532 49.6292 17.3602 -12.3864
# 5 -14.0630 4.8228 7.1003 17.3602 31.5698 5.0187
# 6 -5.7713 22.1462 3.5499 -12.3864 5.0187 31.1018
#
#
#
# Elastic Compliance Matrix: (Units=1/GPa)
#
#
# Indices 1 2 3 4 5 6 
#
# 1 0.016430 -0.005412 -0.002775 -0.008428 0.013127 0.001745
# 2 -0.005412 0.015286 0.001735 0.010712 -0.010041 -0.006201
# 3 -0.002775 0.001735 0.010132 0.007094 -0.007870 0.001189
# 4 -0.008428 0.010712 0.007094 0.042545 -0.032314 0.012157
# 5 0.013127 -0.010041 -0.007870 -0.032314 0.060529 -0.012152
# 6 0.001745 -0.006201 0.001189 0.012157 -0.012152 0.043558
#
#
# Mechanical properties :
#
#
# Convention : Reuss Voigt Hill
#
# Bulk Modulus (GPa) = 34.55129 39.15661 36.85395
# Shear Modulus (GPa) = 23.69286 40.24219 31.96753
#
# Velocity S-wave (km/s) = 2.92948 3.81789 3.40280
# Velocity P-wave (km/s) = 4.89464 5.79811 5.36542
#
# Compressibility (1/GPa) = 0.02894248
#
# Stress axis : x y z
#
# Youngs Moduli (GPa) = 60.86382 65.41787 98.69432
#
# Poissons Ratio (x) = 0.35406 0.27392
# Poissons Ratio (y) = 0.32941 -0.17119
# Poissons Ratio (z) = 0.16892 -0.11347
#
# Static dielectric constant tensor:
#      x y z
#    x 2.223670 -0.027960 0.019760 
#    y -0.027960 2.157150 0.089390 
#    z 0.019760 0.089390 2.108150 
# 
# From -- ./inp_files/205897.got.cif
#   From: 2010.05.17/outbox.cif.g08.bks.cpg/sg2_103_cif.got.tgz:205897.got - 2010.06.03 11:33:40.
