data_PCOD9090204
_publ_section_title
;
Structure prediction by ZEFSAII (Michael W. Deem and Ramdas Pophale) SiO2 
 PCOD9090204
Probable space group: P -1
;
_chemical_formula_sum "Si O2"
_cell_formula_units_Z 16
_cell_length_a 10.768870
_cell_length_b 12.078025
_cell_length_c 12.003890
_cell_angle_alpha 114.749955
_cell_angle_beta 48.583791
_cell_angle_gamma 141.935909
_cell_volume 704.039057
_symmetry_space_group_name_H-M "P -1"
_symmetry_group_IT_number 2
_symmetry_cell_setting 'triclinic'
loop_
_space_group_symop_operation_xyz
x,y,z
-x,-y,-z
loop_
_atom_site_type_symbol
_atom_site_label
_atom_site_fract_x
_atom_site_fract_y
_atom_site_fract_z
Si Si1 0.674097 0.182321 0.086413
Si Si2 0.005014 0.506535 0.160230
Si Si3 0.315084 0.444652 0.678459
Si Si4 0.105702 0.648137 0.404376
Si Si5 0.623089 0.851740 0.217057
Si Si6 0.200384 0.981015 0.186529
Si Si7 0.649335 0.533526 0.700118
Si Si8 0.839117 0.822531 0.867639
O O1 0.880043 0.311212 0.115361
O O2 0.387479 0.067335 0.216150
O O3 0.680399 0.045854 0.987078
O O4 0.787158 0.329038 0.980033
O O5 0.774097 0.469985 0.259691
O O6 0.085259 0.569242 0.264755
O O7 0.500000 0.500000 0.500000
O O8 0.457084 0.512500 0.739251
O O9 0.070314 0.225893 0.724036
O O10 0.402270 0.828738 0.322725
O O11 0.000000 0.500000 0.500000
O O12 0.911873 0.653506 0.530347
O O13 0.496747 0.674787 0.290699
O O14 0.700811 0.823286 0.046077
O O15 0.876679 0.038298 0.201393
O O16 0.172598 0.098471 0.201614
O O17 0.715414 0.628548 0.819948
#
# Coordination Sequence:
#
# PCOD9090204 Si02
#       8
#     2   2   2   2   2   2   2   2
#     4   9  20  36  63  95 120 160 204 265 324 369
#     4  10  19  38  64  91 121 164 208 253 323 379
#     4  11  21  37  63  84 124 167 200 256 319 370
#     4  10  22  40  62  87 128 168 209 256 304 382
#     4  10  23  42  63  92 127 166 212 262 304 368
#     4  10  20  38  60  91 131 151 208 270 309 377
#     4  11  22  42  65  92 126 169 208 253 320 377
#     4  11  22  40  67  94 125 162 211 266 313 367
#
# _framework density 22.726009999999999
#
# number of rings (size 3 to 8) (size 9 to 14) (size 15 to 20)
#    0.000    1.750    2.500    1.875    0.000    2.500 
#    9.000    5.000    0.000    0.000    0.000    0.000 
#    0.000    0.000    0.000    0.000    0.000    0.000 
#
# Total GULP energy -89359.718120 kJ/mol
# GULP energy per Si atom -5584.982383 kJ/mol
# Density = 2.267428 g / cm^3
# Si number density = 22.726010 Si / 1000 Ang^3
#
#
#
# Elastic Constant Matrix: (Units=GPa)
#
#
# Indices 1 2 3 4 5 6 
#
# 1 62.9727 20.8625 6.8536 -9.8694 -8.7907 26.8153
# 2 20.8625 100.6041 17.2434 -5.3250 -5.6071 34.5565
# 3 6.8536 17.2434 58.5537 -17.9809 -3.4043 25.5839
# 4 -9.8694 -5.3250 -17.9809 29.0230 16.4810 -11.0205
# 5 -8.7907 -5.6071 -3.4043 16.4810 29.8898 -2.7240
# 6 26.8153 34.5565 25.5839 -11.0205 -2.7240 34.8408
#
#
#
# Elastic Compliance Matrix: (Units=1/GPa)
#
#
# Indices 1 2 3 4 5 6 
#
# 1 0.028434 0.004012 0.010325 0.000295 0.007140 -0.032793
# 2 0.004012 0.016560 0.003521 -0.005458 0.005565 -0.023389
# 3 0.010325 0.003521 0.032696 0.014552 -0.003438 -0.031113
# 4 0.000295 -0.005458 0.014552 0.067650 -0.035385 0.013133
# 5 0.007140 0.005565 -0.003438 -0.035385 0.054312 -0.015436
# 6 -0.032793 -0.023389 -0.031113 0.013133 -0.015436 0.102933
#
#
# Mechanical properties :
#
#
# Convention : Reuss Voigt Hill
#
# Bulk Modulus (GPa) = 8.81805 34.67218 21.74511
# Shear Modulus (GPa) = 16.41102 30.56210 23.48656
#
# Velocity S-wave (km/s) = 2.69015 3.67114 3.21824
# Velocity P-wave (km/s) = 3.67938 5.76710 4.83721
#
# Compressibility (1/GPa) = 0.11340374
#
# Stress axis : x y z
#
# Youngs Moduli (GPa) = 35.16871 60.38771 30.58470
#
# Poissons Ratio (x) = -0.24225 -0.31578
# Poissons Ratio (y) = -0.14108 -0.10767
# Poissons Ratio (z) = -0.36310 -0.21260
#
# Static dielectric constant tensor:
#      x y z
#    x 1.934110 -0.030150 -0.039590 
#    y -0.030150 1.939990 0.071110 
#    z -0.039590 0.071110 1.904300 
# 
# From -- ./inp_files/433072.got.cif
#   From: 2010.05.17/outbox.cif.g08.bks.cpg/sg2_217_cif.got.tgz:433072.got - 2010.06.03 11:33:40.
