data_PCOD9090403
_publ_section_title
;
Structure prediction by ZEFSAII (Michael W. Deem and Ramdas Pophale) SiO2 
 PCOD9090403
Probable space group: P -1
;
_chemical_formula_sum "Si O2"
_cell_formula_units_Z 16
_cell_length_a 14.889189
_cell_length_b 12.557768
_cell_length_c 18.113855
_cell_angle_alpha 27.459099
_cell_angle_beta 30.381341
_cell_angle_gamma 47.693972
_cell_volume 725.206617
_symmetry_space_group_name_H-M "P -1"
_symmetry_group_IT_number 2
_symmetry_cell_setting 'triclinic'
loop_
_space_group_symop_operation_xyz
x,y,z
-x,-y,-z
loop_
_atom_site_type_symbol
_atom_site_label
_atom_site_fract_x
_atom_site_fract_y
_atom_site_fract_z
Si Si1 0.997187 0.186297 0.953707
Si Si2 0.392144 0.455394 0.179111
Si Si3 0.557277 0.903900 0.944652
Si Si4 0.758158 0.627960 0.046026
Si Si5 0.656378 0.277921 0.198650
Si Si6 0.572005 0.412809 0.577353
Si Si7 0.991848 0.033233 0.222028
Si Si8 0.789479 0.288883 0.767724
O O1 0.817072 0.271067 0.030426
O O2 0.969513 0.076916 0.124460
O O3 0.208464 0.408474 0.668302
O O4 0.000000 0.000000 0.000000
O O5 0.539644 0.426804 0.152250
O O6 0.324244 0.687008 0.094625
O O7 0.500000 0.500000 0.000000
O O8 0.201336 0.197330 0.474658
O O9 0.579179 0.135771 0.732676
O O10 0.738274 0.837295 0.875281
O O11 0.355840 0.669353 0.212988
O O12 0.500000 0.000000 0.000000
O O13 0.748270 0.409006 0.131202
O O14 0.568676 0.560730 0.274292
O O15 0.936810 0.746827 0.902793
O O16 0.500000 0.000000 0.500000
O O17 0.500000 0.500000 0.500000
O O18 0.170959 0.945008 0.144839
O O19 0.000000 0.500000 0.500000
#
# Coordination Sequence:
#
# PCOD9090403 Si02
#       8
#     2   2   2   2   2   2   2   2
#     4  12  27  46  70 105 141 186 244 291 357 436
#     4  11  26  46  67 104 143 185 236 288 356 424
#     4  10  19  38  65  98 135 177 224 280 348 407
#     4  11  23  45  72  99 145 186 232 297 358 422
#     4  12  26  50  70  99 141 194 233 293 363 423
#     4  11  22  42  69 107 143 179 240 286 349 427
#     4  11  23  46  70 108 138 187 236 290 359 419
#     4  10  20  38  71  97 136 175 232 281 343 413
#
# _framework density 22.062677000000001
#
# number of rings (size 3 to 8) (size 9 to 14) (size 15 to 20)
#    0.000    1.000    6.250    0.750    1.750    2.500 
#    4.500    1.250    0.000    0.000    0.000    0.000 
#    0.000    0.000    0.000    0.000    0.000    0.000 
#
# Total GULP energy -89088.052560 kJ/mol
# GULP energy per Si atom -5568.003285 kJ/mol
# Density = 2.201246 g / cm^3
# Si number density = 22.062677 Si / 1000 Ang^3
#
#
#
# Elastic Constant Matrix: (Units=GPa)
#
#
# Indices 1 2 3 4 5 6 
#
# 1 114.1561 43.6305 33.1866 -7.4272 -11.8523 8.1772
# 2 43.6305 140.0210 35.2980 12.6629 -15.9953 22.6179
# 3 33.1866 35.2980 95.4592 9.4959 -19.1764 15.3188
# 4 -7.4272 12.6629 9.4959 33.6956 2.9567 -6.7733
# 5 -11.8523 -15.9953 -19.1764 2.9567 41.5617 -5.2530
# 6 8.1772 22.6179 15.3188 -6.7733 -5.2530 42.4392
#
#
#
# Elastic Compliance Matrix: (Units=1/GPa)
#
#
# Indices 1 2 3 4 5 6 
#
# 1 0.011257 -0.003350 -0.003400 0.005016 0.000206 0.001670
# 2 -0.003350 0.009924 -0.000699 -0.005474 0.002302 -0.004980
# 3 -0.003400 -0.000699 0.014248 -0.005843 0.005194 -0.004405
# 4 0.005016 -0.005474 -0.005843 0.036786 -0.004809 0.009336
# 5 0.000206 0.002302 0.005194 -0.004809 0.027683 -0.000482
# 6 0.001670 -0.004980 -0.004405 0.009336 -0.000482 0.028916
#
#
# Mechanical properties :
#
#
# Convention : Reuss Voigt Hill
#
# Bulk Modulus (GPa) = 48.70872 63.76295 56.23584
# Shear Modulus (GPa) = 33.21020 39.37404 36.29212
#
# Velocity S-wave (km/s) = 3.88398 4.22909 4.06020
# Velocity P-wave (km/s) = 6.49916 7.26708 6.89382
#
# Compressibility (1/GPa) = 0.02053020
#
# Stress axis : x y z
#
# Youngs Moduli (GPa) = 88.83287 100.76193 70.18632
#
# Poissons Ratio (x) = 0.33759 0.23865
# Poissons Ratio (y) = 0.29763 0.04905
# Poissons Ratio (z) = 0.30205 0.07042
#
# Static dielectric constant tensor:
#      x y z
#    x 2.147690 -0.034010 0.016210 
#    y -0.034010 1.928940 -0.059690 
#    z 0.016210 -0.059690 1.843670 
# 
# From -- ./inp_files/261815.got.cif
#   From: 2010.05.17/outbox.cif.g08.bks.cpg/sg2_131_cif.got.tgz:261815.got - 2010.06.03 11:33:40.
