data_PCOD9090617
_publ_section_title
;
Structure prediction by ZEFSAII (Michael W. Deem and Ramdas Pophale) SiO2 
 PCOD9090617
Probable space group: P -1
;
_chemical_formula_sum "Si O2"
_cell_formula_units_Z 16
_cell_length_a 7.322516
_cell_length_b 16.476331
_cell_length_c 11.788872
_cell_angle_alpha 145.606363
_cell_angle_beta 59.989283
_cell_angle_gamma 115.423819
_cell_volume 695.311718
_symmetry_space_group_name_H-M "P -1"
_symmetry_group_IT_number 2
_symmetry_cell_setting 'triclinic'
loop_
_space_group_symop_operation_xyz
x,y,z
-x,-y,-z
loop_
_atom_site_type_symbol
_atom_site_label
_atom_site_fract_x
_atom_site_fract_y
_atom_site_fract_z
Si Si1 0.338687 0.567103 0.968687
Si Si2 0.044215 0.227107 0.185045
Si Si3 0.174130 0.792204 0.989075
Si Si4 0.104522 0.320774 0.860616
Si Si5 0.460217 0.411861 0.296119
Si Si6 0.294316 0.050677 0.374464
Si Si7 0.209483 0.919158 0.708190
Si Si8 0.667590 0.125640 0.622766
O O1 0.436457 0.720628 0.154960
O O2 0.110779 0.617509 0.051959
O O3 0.281268 0.448854 0.944551
O O4 0.466484 0.512563 0.757343
O O5 0.223199 0.349623 0.286540
O O6 0.935615 0.180623 0.282095
O O7 0.867191 0.259998 0.185497
O O8 0.148482 0.083973 0.936321
O O9 0.967879 0.740207 0.065366
O O10 0.217811 0.963107 0.186624
O O11 0.381388 0.720300 0.891782
O O12 0.184777 0.194831 0.610414
O O13 0.500000 0.500000 0.500000
O O14 0.544689 0.084499 0.336363
O O15 0.242692 0.933460 0.355747
O O16 0.188856 0.869321 0.527128
O O17 0.500000 0.000000 0.500000
#
# Coordination Sequence:
#
# PCOD9090617 Si02
#       8
#     2   2   2   2   2   2   2   2
#     4  10  22  42  62  99 141 170 224 282 343 405
#     4  11  24  44  64  99 138 180 229 277 334 405
#     4  11  23  43  70 100 136 176 235 284 334 419
#     4  10  22  37  65 103 132 173 224 282 345 401
#     4  11  24  47  68  92 140 189 221 272 348 410
#     4  11  20  41  68 102 134 175 229 284 352 396
#     4  10  23  40  64 102 136 173 227 286 334 400
#     4  10  19  38  68  90 129 172 217 281 334 392
#
# _framework density 23.011263
#
# number of rings (size 3 to 8) (size 9 to 14) (size 15 to 20)
#    0.000    1.500    3.750    1.875    1.750    6.000 
#    2.250    5.625    0.000    0.000    0.000    0.000 
#    0.000    0.000    0.000    0.000    0.000    0.000 
#
# Total GULP energy -89457.652736 kJ/mol
# GULP energy per Si atom -5591.103296 kJ/mol
# Density = 2.295889 g / cm^3
# Si number density = 23.011263 Si / 1000 Ang^3
#
#
#
# Elastic Constant Matrix: (Units=GPa)
#
#
# Indices 1 2 3 4 5 6 
#
# 1 64.4559 5.7446 -6.0908 1.6638 8.9101 13.1412
# 2 5.7446 66.4114 25.1348 3.4253 -4.1639 11.5200
# 3 -6.0908 25.1348 86.1121 -8.0920 14.3598 9.0465
# 4 1.6638 3.4253 -8.0920 35.7877 6.0497 6.9550
# 5 8.9101 -4.1639 14.3598 6.0497 24.7304 -4.9582
# 6 13.1412 11.5200 9.0465 6.9550 -4.9582 20.4135
#
#
#
# Elastic Compliance Matrix: (Units=1/GPa)
#
#
# Indices 1 2 3 4 5 6 
#
# 1 0.026422 -0.003627 0.011585 0.012046 -0.025918 -0.030496
# 2 -0.003627 0.019478 -0.008060 -0.005106 0.010348 -0.000833
# 3 0.011585 -0.008060 0.023545 0.015212 -0.028002 -0.025328
# 4 0.012046 -0.005106 0.015212 0.043224 -0.031418 -0.033973
# 5 -0.025918 0.010348 -0.028002 -0.031418 0.086482 0.054964
# 6 -0.030496 -0.000833 -0.025328 -0.033973 0.054964 0.105238
#
#
# Mechanical properties :
#
#
# Convention : Reuss Voigt Hill
#
# Bulk Modulus (GPa) = 14.44202 29.61739 22.02970
# Shear Modulus (GPa) = 15.25916 28.99904 22.12910
#
# Velocity S-wave (km/s) = 2.57790 3.55380 3.10443
# Velocity P-wave (km/s) = 3.89236 5.45326 4.73754
#
# Compressibility (1/GPa) = 0.06924239
#
# Stress axis : x y z
#
# Youngs Moduli (GPa) = 37.84746 51.33885 42.47259
#
# Poissons Ratio (x) = 0.18618 -0.49205
# Poissons Ratio (y) = 0.13725 0.34233
# Poissons Ratio (z) = -0.43847 0.41379
#
# Static dielectric constant tensor:
#      x y z
#    x 1.926780 -0.016560 0.011740 
#    y -0.016560 1.857520 0.007960 
#    z 0.011740 0.007960 1.889060 
# 
# From -- ./inp_files/402457.got.cif
#   From: 2010.05.17/outbox.cif.g08.bks.cpg/sg2_202_cif.got.tgz:402457.got - 2010.06.03 11:33:40.
