data_PCOD9090143
_publ_section_title
;
Structure prediction by ZEFSAII (Michael W. Deem and Ramdas Pophale) SiO2 
 PCOD9090143
Probable space group: P -1
;
_chemical_formula_sum "Si O2"
_cell_formula_units_Z 16
_cell_length_a 8.626196
_cell_length_b 9.192340
_cell_length_c 16.873624
_cell_angle_alpha 135.745283
_cell_angle_beta 91.781004
_cell_angle_gamma 114.980718
_cell_volume 719.135554
_symmetry_space_group_name_H-M "P -1"
_symmetry_group_IT_number 2
_symmetry_cell_setting 'triclinic'
loop_
_space_group_symop_operation_xyz
x,y,z
-x,-y,-z
loop_
_atom_site_type_symbol
_atom_site_label
_atom_site_fract_x
_atom_site_fract_y
_atom_site_fract_z
Si Si1 0.070316 0.869863 0.882765
Si Si2 0.640954 0.930058 0.448426
Si Si3 0.936388 0.094124 0.654315
Si Si4 0.012294 0.320762 0.489952
Si Si5 0.185118 0.513712 0.942159
Si Si6 0.971028 0.194171 0.963219
Si Si7 0.501044 0.596855 0.856802
Si Si8 0.756083 0.421948 0.268115
O O1 0.930050 0.909257 0.847490
O O2 0.141080 0.714388 0.787790
O O3 0.276340 0.172541 0.019530
O O4 0.986059 0.742151 0.917885
O O5 0.737761 0.930985 0.533578
O O6 0.825358 0.171309 0.490590
O O7 0.500000 0.000000 0.500000
O O8 0.537033 0.657930 0.287258
O O9 0.979694 0.296644 0.802999
O O10 0.105785 0.295213 0.668900
O O11 0.987044 0.919181 0.629284
O O12 0.224358 0.511791 0.614530
O O13 0.000000 0.500000 0.500000
O O14 0.355794 0.537969 0.905243
O O15 0.147535 0.394681 0.982225
O O16 0.196598 0.774146 0.046444
O O17 0.449653 0.726497 0.839251
#
# Coordination Sequence:
#
# PCOD9090143 Si02
#       8
#     2   2   2   2   2   2   2   2
#     4  11  23  36  63  91 123 154 206 245 293 353
#     4  11  23  40  64  92 121 157 203 250 304 358
#     4  10  19  41  65  83 117 168 197 241 303 374
#     4  11  22  40  67  91 115 156 210 250 298 361
#     4  10  21  40  63  80 125 160 200 237 307 353
#     4  10  23  39  56  94 118 159 198 250 290 353
#     4  11  21  40  63  87 120 164 197 241 300 365
#     4  10  19  38  64  85 119 162 202 234 298 367
#
# _framework density 22.248934999999999
#
# number of rings (size 3 to 8) (size 9 to 14) (size 15 to 20)
#    0.000    1.500    6.250    1.125    3.500    1.500 
#    0.000    1.875    0.000    0.000    0.000    0.000 
#    0.000    0.000    0.000    0.000    0.000    0.000 
#
# Total GULP energy -89083.926196 kJ/mol
# GULP energy per Si atom -5567.745387 kJ/mol
# Density = 2.219830 g / cm^3
# Si number density = 22.248935 Si / 1000 Ang^3
#
#
#
# Elastic Constant Matrix: (Units=GPa)
#
#
# Indices 1 2 3 4 5 6 
#
# 1 82.3962 37.5050 38.3655 7.7840 -34.5988 -6.7700
# 2 37.5050 128.5857 29.3297 9.0397 -9.6706 -23.0810
# 3 38.3655 29.3297 83.9428 9.0847 -15.8626 4.2330
# 4 7.7840 9.0397 9.0847 23.4421 -10.3645 -13.2796
# 5 -34.5988 -9.6706 -15.8626 -10.3645 39.3872 5.3012
# 6 -6.7700 -23.0810 4.2330 -13.2796 5.3012 40.7607
#
#
#
# Elastic Compliance Matrix: (Units=1/GPa)
#
#
# Indices 1 2 3 4 5 6 
#
# 1 0.025163 -0.004364 -0.006995 0.005627 0.019463 0.001737
# 2 -0.004364 0.010459 -0.002582 0.000508 -0.002982 0.006019
# 3 -0.006995 -0.002582 0.016969 -0.007502 -0.001017 -0.006698
# 4 0.005627 0.000508 -0.007502 0.061786 0.015599 0.020102
# 5 0.019463 -0.002982 -0.001017 0.015599 0.045336 0.000836
# 6 0.001737 0.006019 -0.006698 0.020102 0.000836 0.035366
#
#
# Mechanical properties :
#
#
# Convention : Reuss Voigt Hill
#
# Bulk Modulus (GPa) = 40.46817 56.14722 48.30770
# Shear Modulus (GPa) = 21.62644 33.36631 27.49637
#
# Velocity S-wave (km/s) = 3.12111 3.87677 3.51928
# Velocity P-wave (km/s) = 5.58719 6.73275 6.18654
#
# Compressibility (1/GPa) = 0.02471078
#
# Stress axis : x y z
#
# Youngs Moduli (GPa) = 39.74012 95.60971 58.92991
#
# Poissons Ratio (x) = 0.41726 0.41219
# Poissons Ratio (y) = 0.17343 0.15214
# Poissons Ratio (z) = 0.27797 0.24684
#
# Static dielectric constant tensor:
#      x y z
#    x 1.943120 -0.008050 -0.012510 
#    y -0.008050 1.815630 0.022450 
#    z -0.012510 0.022450 1.902870 
# 
# From -- ./inp_files/223060.got.cif
#   From: 2010.05.17/outbox.cif.g08.bks.cpg/sg2_112_cif.got.tgz:223060.got - 2010.06.03 11:33:40.
