data_PCOD9090448
_publ_section_title
;
Structure prediction by ZEFSAII (Michael W. Deem and Ramdas Pophale) SiO2 
 PCOD9090448
Probable space group: P -1
;
_chemical_formula_sum "Si O2"
_cell_formula_units_Z 14
_cell_length_a 15.396653
_cell_length_b 8.825593
_cell_length_c 10.004066
_cell_angle_alpha 106.339672
_cell_angle_beta 43.230124
_cell_angle_gamma 81.689004
_cell_volume 756.673982
_symmetry_space_group_name_H-M "P -1"
_symmetry_group_IT_number 2
_symmetry_cell_setting 'triclinic'
loop_
_space_group_symop_operation_xyz
x,y,z
-x,-y,-z
loop_
_atom_site_type_symbol
_atom_site_label
_atom_site_fract_x
_atom_site_fract_y
_atom_site_fract_z
Si Si1 0.025610 0.876777 0.140177
Si Si2 0.167452 0.898230 0.349532
Si Si3 0.642180 0.932646 0.917998
Si Si4 0.932512 0.550599 0.440327
Si Si5 0.207994 0.580211 0.067218
Si Si6 0.939912 0.805085 0.946244
Si Si7 0.630399 0.850472 0.221289
O O1 0.171666 0.719674 0.018459
O O2 0.981945 0.785923 0.049271
O O3 0.878714 0.010324 0.429352
O O4 0.064882 0.017008 0.063489
O O5 0.227082 0.682118 0.199702
O O6 0.276768 0.951634 0.169344
O O7 0.000000 0.000000 0.500000
O O8 0.768229 0.725932 0.678707
O O9 0.609673 0.919061 0.107344
O O10 0.500000 0.000000 0.000000
O O11 0.000000 0.500000 0.500000
O O12 0.048140 0.594948 0.253525
O O13 0.942552 0.377844 0.313097
O O14 0.334425 0.361759 0.864616
O O15 0.782270 0.828497 0.099786
O O16 0.500000 0.000000 0.500000
#
# Coordination Sequence:
#
# PCOD9090448 Si02
#       7
#     2   2   2   2   2   2   2
#     4  10  20  35  61  99 117 154 208 278 298 358
#     4  10  19  38  66  90 121 160 216 251 305 377
#     4  12  25  40  62  98 131 163 209 267 318 368
#     4  11  19  38  64  90 117 166 214 256 306 376
#     4  10  20  36  68  88 113 164 223 252 303 373
#     4  10  22  37  62  90 128 157 218 255 313 371
#     4  11  25  41  60  86 132 172 201 257 323 380
#
# _framework density 18.502023000000001
#
# number of rings (size 3 to 8) (size 9 to 14) (size 15 to 20)
#    0.000    1.429    5.714    2.571    2.000    3.429 
#    0.000    6.429    0.000    0.000    0.000    0.000 
#    0.000    0.000    0.000    0.000    0.000    0.000 
#
# Total GULP energy -78025.404815 kJ/mol
# GULP energy per Si atom -5573.243201 kJ/mol
# Density = 1.845991 g / cm^3
# Si number density = 18.502023 Si / 1000 Ang^3
#
#
#
# Elastic Constant Matrix: (Units=GPa)
#
#
# Indices 1 2 3 4 5 6 
#
# 1 99.8924 32.3868 50.1351 15.0796 14.1147 1.2925
# 2 32.3868 74.6548 47.3521 17.1956 4.9078 6.8369
# 3 50.1351 47.3521 134.9721 26.5583 12.0658 -5.3006
# 4 15.0796 17.1956 26.5583 32.0990 1.9214 2.4376
# 5 14.1147 4.9078 12.0658 1.9214 39.3871 2.9796
# 6 1.2925 6.8369 -5.3006 2.4376 2.9796 21.5201
#
#
#
# Elastic Compliance Matrix: (Units=1/GPa)
#
#
# Indices 1 2 3 4 5 6 
#
# 1 0.013382 -0.003146 -0.003224 -0.001738 -0.003336 0.000060
# 2 -0.003146 0.019643 -0.005259 -0.004223 0.001027 -0.007011
# 3 -0.003224 -0.005259 0.012028 -0.005937 -0.002021 0.005779
# 4 -0.001738 -0.004223 -0.005937 0.039416 0.001399 -0.004675
# 5 -0.003336 0.001027 -0.002021 0.001399 0.027353 -0.004569
# 6 0.000060 -0.007011 0.005779 -0.004675 -0.004569 0.051278
#
#
# Mechanical properties :
#
#
# Convention : Reuss Voigt Hill
#
# Bulk Modulus (GPa) = 45.88524 63.25195 54.56859
# Shear Modulus (GPa) = 25.82353 30.57759 28.20056
#
# Velocity S-wave (km/s) = 3.73998 4.06970 3.90832
# Velocity P-wave (km/s) = 6.59575 7.50627 7.06569
#
# Compressibility (1/GPa) = 0.02179350
#
# Stress axis : x y z
#
# Youngs Moduli (GPa) = 74.72712 50.91001 83.14270
#
# Poissons Ratio (x) = 0.16017 0.26808
# Poissons Ratio (y) = 0.23510 0.43723
# Poissons Ratio (z) = 0.24095 0.26773
#
# Static dielectric constant tensor:
#      x y z
#    x 1.639350 -0.017010 0.049960 
#    y -0.017010 1.745840 -0.018160 
#    z 0.049960 -0.018160 1.681050 
# 
# From -- ./inp_files/203224.got.cif
#   From: 2010.05.17/outbox.cif.g08.bks.cpg/sg2_102_cif.got.tgz:203224.got - 2010.06.03 11:33:40.
