data_PCOD9090619
_publ_section_title
;
Structure prediction by ZEFSAII (Michael W. Deem and Ramdas Pophale) SiO2 
 PCOD9090619
Probable space group: P -1
;
_chemical_formula_sum "Si O2"
_cell_formula_units_Z 16
_cell_length_a 21.793453
_cell_length_b 8.444129
_cell_length_c 6.624489
_cell_angle_alpha 74.233614
_cell_angle_beta 76.008666
_cell_angle_gamma 39.577287
_cell_volume 746.438165
_symmetry_space_group_name_H-M "P -1"
_symmetry_group_IT_number 2
_symmetry_cell_setting 'triclinic'
loop_
_space_group_symop_operation_xyz
x,y,z
-x,-y,-z
loop_
_atom_site_type_symbol
_atom_site_label
_atom_site_fract_x
_atom_site_fract_y
_atom_site_fract_z
Si Si1 0.867079 0.490273 0.086735
Si Si2 0.693585 0.766128 0.813590
Si Si3 0.965224 0.980696 0.332307
Si Si4 0.280935 0.065912 0.654487
Si Si5 0.070998 0.457624 0.309849
Si Si6 0.784927 0.086162 0.471465
Si Si7 0.360516 0.391447 0.390607
Si Si8 0.424924 0.985310 0.797901
O O1 0.812667 0.655228 0.276035
O O2 0.932123 0.201799 0.152656
O O3 0.781042 0.623256 0.948969
O O4 0.931828 0.510506 0.938948
O O5 0.689166 0.911886 0.591142
O O6 0.698574 0.588943 0.742095
O O7 0.600300 0.945124 0.971160
O O8 0.050346 0.686652 0.312002
O O9 0.868749 0.057291 0.390645
O O10 0.000000 0.000000 0.500000
O O11 0.368256 0.935692 0.780184
O O12 0.254304 0.927605 0.693091
O O13 0.000000 0.500000 0.500000
O O14 0.166467 0.162963 0.366931
O O15 0.698797 0.340074 0.570513
O O16 0.379875 0.225026 0.618032
O O17 0.463422 0.237392 0.269617
#
# Coordination Sequence:
#
# PCOD9090619 Si02
#       8
#     2   2   2   2   2   2   2   2
#     4  11  22  43  71  93 123 181 216 257 330 379
#     4  10  19  38  68  91 130 170 213 267 310 384
#     4  11  24  42  69  94 126 166 224 272 316 387
#     4  10  21  39  66  91 137 166 212 266 315 391
#     4  10  23  43  63  93 131 160 215 269 325 384
#     4  11  22  42  62  95 133 169 205 275 327 373
#     4  10  21  38  65  96 136 165 220 264 312 394
#     4   9  20  39  64 100 124 177 216 259 320 374
#
# _framework density 21.435130999999998
#
# number of rings (size 3 to 8) (size 9 to 14) (size 15 to 20)
#    0.000    1.750    1.250    3.750    1.750    0.500 
#    4.500    9.375    0.000    0.000    0.000    0.000 
#    0.000    0.000    0.000    0.000    0.000    0.000 
#
# Total GULP energy -89172.625744 kJ/mol
# GULP energy per Si atom -5573.289109 kJ/mol
# Density = 2.138634 g / cm^3
# Si number density = 21.435131 Si / 1000 Ang^3
#
#
#
# Elastic Constant Matrix: (Units=GPa)
#
#
# Indices 1 2 3 4 5 6 
#
# 1 102.1991 33.9138 26.5292 14.2255 1.7157 10.7932
# 2 33.9138 122.1778 30.9333 30.9539 -2.6670 0.1900
# 3 26.5292 30.9333 94.0749 22.7157 -17.5169 -2.8982
# 4 14.2255 30.9539 22.7157 32.1944 -1.4729 3.7167
# 5 1.7157 -2.6670 -17.5169 -1.4729 35.9627 6.5143
# 6 10.7932 0.1900 -2.8982 3.7167 6.5143 15.6459
#
#
#
# Elastic Compliance Matrix: (Units=1/GPa)
#
#
# Indices 1 2 3 4 5 6 
#
# 1 0.012398 -0.002747 -0.003069 0.000324 -0.000667 -0.008887
# 2 -0.002747 0.011627 -0.000573 -0.010071 -0.000465 0.004234
# 3 -0.003069 -0.000573 0.015177 -0.009026 0.006321 0.004448
# 4 0.000324 -0.010071 -0.009026 0.048424 -0.000833 -0.012929
# 5 -0.000667 -0.000465 0.006321 -0.000833 0.033006 -0.011907
# 6 -0.008887 0.004234 0.004448 -0.012929 -0.011907 0.078847
#
#
# Mechanical properties :
#
#
# Convention : Reuss Voigt Hill
#
# Bulk Modulus (GPa) = 37.84454 55.68937 46.76696
# Shear Modulus (GPa) = 22.61779 31.89897 27.25838
#
# Velocity S-wave (km/s) = 3.25187 3.86186 3.56991
# Velocity P-wave (km/s) = 5.63855 6.77658 6.23359
#
# Compressibility (1/GPa) = 0.02642389
#
# Stress axis : x y z
#
# Youngs Moduli (GPa) = 80.65985 86.00526 65.88837
#
# Poissons Ratio (x) = 0.23627 0.20222
# Poissons Ratio (y) = 0.22158 0.03774
# Poissons Ratio (z) = 0.24756 0.04927
#
# Static dielectric constant tensor:
#      x y z
#    x 1.961420 -0.122560 0.081280 
#    y -0.122560 1.849200 -0.082300 
#    z 0.081280 -0.082300 1.934710 
# 
# From -- ./inp_files/122502.got.cif
#   From: 2010.05.17/outbox.cif.g08.bks.cpg/sg2_62_cif.got.tgz:122502.got - 2010.06.03 11:33:40.
