data_PCOD9090577
_publ_section_title
;
Structure prediction by ZEFSAII (Michael W. Deem and Ramdas Pophale) SiO2 
 PCOD9090577
Probable space group: P -1
;
_chemical_formula_sum "Si O2"
_cell_formula_units_Z 16
_cell_length_a 6.497983
_cell_length_b 10.576266
_cell_length_c 15.355410
_cell_angle_alpha 95.952456
_cell_angle_beta 133.573861
_cell_angle_gamma 110.113417
_cell_volume 621.378400
_symmetry_space_group_name_H-M "P -1"
_symmetry_group_IT_number 2
_symmetry_cell_setting 'triclinic'
loop_
_space_group_symop_operation_xyz
x,y,z
-x,-y,-z
loop_
_atom_site_type_symbol
_atom_site_label
_atom_site_fract_x
_atom_site_fract_y
_atom_site_fract_z
Si Si1 0.252647 0.376892 0.028341
Si Si2 0.761085 0.679939 0.299339
Si Si3 0.665645 0.363888 0.471276
Si Si4 0.940397 0.843040 0.197711
Si Si5 0.315550 0.114710 0.202153
Si Si6 0.553474 0.612987 0.421434
Si Si7 0.713171 0.144977 0.989408
Si Si8 0.797409 0.292366 0.208562
O O1 0.445064 0.550087 0.136390
O O2 0.517114 0.332707 0.127287
O O3 0.913842 0.272782 0.981242
O O4 0.177643 0.316990 0.901786
O O5 0.998941 0.821683 0.313296
O O6 0.614879 0.689999 0.350813
O O7 0.006639 0.629306 0.399383
O O8 0.476561 0.259699 0.325156
O O9 0.761488 0.534560 0.489820
O O10 0.399568 0.293890 0.470944
O O11 0.672497 0.893270 0.132232
O O12 0.234540 0.973396 0.229187
O O13 0.629157 0.168773 0.230034
O O14 0.950442 0.076286 0.054303
O O15 0.161495 0.458617 0.309205
O O16 0.775648 0.200186 0.111322
#
# Coordination Sequence:
#
# PCOD9090577 Si02
#       8
#     2   2   2   2   2   2   2   2
#     4  10  21  41  64  94 122 163 207 263 311 359
#     4  12  24  42  64  95 130 161 207 260 317 370
#     4  11  25  39  70  93 126 162 206 271 306 366
#     4  11  27  41  62  92 130 175 204 246 313 386
#     4  11  24  42  63  95 127 166 211 254 310 367
#     4  11  22  39  67 101 115 160 213 259 318 356
#     4  10  21  41  66  93 121 165 210 265 301 360
#     4  10  19  38  67  94 122 151 211 264 306 365
#
# _framework density 25.749206999999998
#
# number of rings (size 3 to 8) (size 9 to 14) (size 15 to 20)
#    0.000    1.250    3.750    1.875    3.500    7.500 
#    0.000    0.625    0.000    0.000    0.000    0.000 
#    0.000    0.000    0.000    0.000    0.000    0.000 
#
# Total GULP energy -89202.894216 kJ/mol
# GULP energy per Si atom -5575.180889 kJ/mol
# Density = 2.569060 g / cm^3
# Si number density = 25.749207 Si / 1000 Ang^3
#
#
#
# Elastic Constant Matrix: (Units=GPa)
#
#
# Indices 1 2 3 4 5 6 
#
# 1 140.0901 40.3457 50.5199 -13.1003 -16.2186 25.7446
# 2 40.3457 53.2705 17.1186 -28.9189 -3.8911 34.6060
# 3 50.5199 17.1186 50.2258 -8.5096 -8.6623 19.7487
# 4 -13.1003 -28.9189 -8.5096 34.0960 11.8856 -15.2991
# 5 -16.2186 -3.8911 -8.6623 11.8856 43.7775 -0.0553
# 6 25.7446 34.6060 19.7487 -15.2991 -0.0553 50.2403
#
#
#
# Elastic Compliance Matrix: (Units=1/GPa)
#
#
# Indices 1 2 3 4 5 6 
#
# 1 0.014711 -0.015326 -0.012429 -0.009717 0.004273 0.004950
# 2 -0.015326 0.073244 0.009219 0.047973 -0.010408 -0.031624
# 3 -0.012429 0.009219 0.035280 0.005889 0.001582 -0.012054
# 4 -0.009717 0.047973 0.005889 0.069571 -0.017071 -0.009213
# 5 0.004273 -0.010408 0.001582 -0.017071 0.028447 -0.000809
# 6 0.004950 -0.031624 -0.012054 -0.009213 -0.000809 0.041083
#
#
# Mechanical properties :
#
#
# Convention : Reuss Voigt Hill
#
# Bulk Modulus (GPa) = 11.60593 51.06163 31.33378
# Shear Modulus (GPa) = 15.23799 34.66291 24.95045
#
# Velocity S-wave (km/s) = 2.43530 3.67300 3.11622
# Velocity P-wave (km/s) = 3.52486 6.15316 5.01428
#
# Compressibility (1/GPa) = 0.08616287
#
# Stress axis : x y z
#
# Youngs Moduli (GPa) = 67.97822 13.65306 28.34498
#
# Poissons Ratio (x) = 0.20925 0.35229
# Poissons Ratio (y) = 1.04183 -0.26132
# Poissons Ratio (z) = 0.84489 -0.12587
#
# Static dielectric constant tensor:
#      x y z
#    x 2.137280 0.001570 -0.026750 
#    y 0.001570 2.121700 0.082960 
#    z -0.026750 0.082960 2.122480 
# 
# From -- ./inp_files/482852.got.cif
#   From: 2010.05.17/outbox.cif.g08.bks.cpg/sg2_242_cif.got.tgz:482852.got - 2010.06.03 11:33:40.
