data_PCOD9090692
_publ_section_title
;
Structure prediction by ZEFSAII (Michael W. Deem and Ramdas Pophale) SiO2 
 PCOD9090692
Probable space group: P -1
;
_chemical_formula_sum "Si O2"
_cell_formula_units_Z 16
_cell_length_a 19.231231
_cell_length_b 12.129322
_cell_length_c 8.245083
_cell_angle_alpha 76.072797
_cell_angle_beta 131.948315
_cell_angle_gamma 141.293573
_cell_volume 712.837342
_symmetry_space_group_name_H-M "P -1"
_symmetry_group_IT_number 2
_symmetry_cell_setting 'triclinic'
loop_
_space_group_symop_operation_xyz
x,y,z
-x,-y,-z
loop_
_atom_site_type_symbol
_atom_site_label
_atom_site_fract_x
_atom_site_fract_y
_atom_site_fract_z
Si Si1 0.149777 0.688018 0.395029
Si Si2 0.666088 0.813034 0.804118
Si Si3 0.252986 0.563181 0.718898
Si Si4 0.052924 0.142585 0.390059
Si Si5 0.239096 0.682677 0.175895
Si Si6 0.604563 0.624932 0.287613
Si Si7 0.471009 0.126974 0.249829
Si Si8 0.431726 0.175311 0.690985
O O1 0.146719 0.571107 0.540418
O O2 0.198541 0.700197 0.281742
O O3 0.305675 0.934926 0.607723
O O4 0.953283 0.541780 0.126557
O O5 0.524304 0.565609 0.710287
O O6 0.644997 0.883008 0.890877
O O7 0.616272 0.827326 0.559561
O O8 0.871754 0.983855 0.065519
O O9 0.135212 0.339933 0.535810
O O10 0.424974 0.760014 0.796345
O O11 0.356016 0.634778 0.017887
O O12 0.207195 0.245781 0.483483
O O13 0.000000 0.000000 0.500000
O O14 0.369193 0.715956 0.420020
O O15 0.351658 0.890026 0.171860
O O16 0.621351 0.775159 0.294176
O O17 0.500000 0.500000 0.000000
#
# Coordination Sequence:
#
# PCOD9090692 Si02
#       8
#     2   2   2   2   2   2   2   2
#     4  10  21  39  66 101 137 172 233 275 339 403
#     4  12  24  42  73 104 135 175 232 286 340 393
#     4  11  23  42  69  96 141 186 222 274 341 409
#     4  12  25  44  77 101 126 182 236 278 337 414
#     4   9  19  37  65  99 130 179 224 279 330 406
#     4  12  24  49  71  98 137 181 230 280 344 413
#     4  10  19  38  70  94 134 183 226 267 340 409
#     4  12  25  42  68 103 142 179 221 291 343 393
#
# _framework density 22.445512000000001
#
# number of rings (size 3 to 8) (size 9 to 14) (size 15 to 20)
#    0.000    1.000    5.000    1.500    3.500    0.500 
#    0.000    3.125    0.000    0.000    0.000    0.000 
#    0.000    0.000    0.000    0.000    0.000    0.000 
#
# Total GULP energy -89546.626530 kJ/mol
# GULP energy per Si atom -5596.664158 kJ/mol
# Density = 2.239442 g / cm^3
# Si number density = 22.445512 Si / 1000 Ang^3
#
#
#
# Elastic Constant Matrix: (Units=GPa)
#
#
# Indices 1 2 3 4 5 6 
#
# 1 38.5881 1.1927 39.1188 11.5003 15.1419 -11.6780
# 2 1.1927 96.0809 39.0214 2.7210 -1.1047 -12.6861
# 3 39.1188 39.0214 121.1190 2.8708 21.1565 9.1311
# 4 11.5003 2.7210 2.8708 32.7245 4.3236 -1.5532
# 5 15.1419 -1.1047 21.1565 4.3236 39.4401 0.9610
# 6 -11.6780 -12.6861 9.1311 -1.5532 0.9610 35.5562
#
#
#
# Elastic Compliance Matrix: (Units=1/GPa)
#
#
# Indices 1 2 3 4 5 6 
#
# 1 0.084860 0.018954 -0.034022 -0.024789 -0.012119 0.042616
# 2 0.018954 0.017654 -0.012912 -0.006318 0.000458 0.015551
# 3 -0.034022 -0.012912 0.025033 0.009973 -0.001291 -0.021739
# 4 -0.024789 -0.006318 0.009973 0.038377 0.000058 -0.011282
# 5 -0.012119 0.000458 -0.001291 0.000058 0.030812 -0.004316
# 6 0.042616 0.015551 -0.021739 -0.011282 -0.004316 0.052876
#
#
# Mechanical properties :
#
#
# Convention : Reuss Voigt Hill
#
# Bulk Modulus (GPa) = 13.96937 46.05042 30.00990
# Shear Modulus (GPa) = 15.17749 33.30782 24.24265
#
# Velocity S-wave (km/s) = 2.60319 3.85637 3.29000
# Velocity P-wave (km/s) = 3.90803 6.35531 5.27554
#
# Compressibility (1/GPa) = 0.07158519
#
# Stress axis : x y z
#
# Youngs Moduli (GPa) = 11.78416 56.64411 39.94754
#
# Poissons Ratio (x) = -1.07361 1.35911
# Poissons Ratio (y) = -0.22335 0.51580
# Poissons Ratio (z) = 0.40093 0.73138
#
# Static dielectric constant tensor:
#      x y z
#    x 1.880360 0.035980 -0.015500 
#    y 0.035980 1.818970 -0.032280 
#    z -0.015500 -0.032280 1.853820 
# 
# From -- ./inp_files/346113.got.cif
#   From: 2010.05.17/outbox.cif.g08.bks.cpg/sg2_174_cif.got.tgz:346113.got - 2010.06.03 11:33:40.
