data_PCOD9090770
_publ_section_title
;
Structure prediction by ZEFSAII (Michael W. Deem and Ramdas Pophale) SiO2 
 PCOD9090770
Probable space group: P -1
;
_chemical_formula_sum "Si O2"
_cell_formula_units_Z 16
_cell_length_a 9.411193
_cell_length_b 8.945760
_cell_length_c 14.161561
_cell_angle_alpha 104.195265
_cell_angle_beta 135.878623
_cell_angle_gamma 57.728656
_cell_volume 682.239383
_symmetry_space_group_name_H-M "P -1"
_symmetry_group_IT_number 2
_symmetry_cell_setting 'triclinic'
loop_
_space_group_symop_operation_xyz
x,y,z
-x,-y,-z
loop_
_atom_site_type_symbol
_atom_site_label
_atom_site_fract_x
_atom_site_fract_y
_atom_site_fract_z
Si Si1 0.869336 0.259254 0.189162
Si Si2 0.711905 0.345907 0.511899
Si Si3 0.723785 0.578045 0.397249
Si Si4 0.575461 0.794226 0.713245
Si Si5 0.308478 0.935111 0.289376
Si Si6 0.584349 0.679406 0.903344
Si Si7 0.712613 0.291888 0.903600
Si Si8 0.971220 0.556754 0.217068
O O1 0.662710 0.283415 0.163076
O O2 0.912845 0.425857 0.229964
O O3 0.788882 0.250419 0.041478
O O4 0.120320 0.071042 0.296683
O O5 0.500000 0.500000 0.500000
O O6 0.695985 0.427105 0.412939
O O7 0.655766 0.189912 0.445283
O O8 0.948054 0.326849 0.666973
O O9 0.563106 0.758447 0.413812
O O10 0.000000 0.500000 0.500000
O O11 0.550120 0.795861 0.813574
O O12 0.801696 0.595761 0.760011
O O13 0.629715 0.942319 0.725882
O O14 0.176569 0.859502 0.148535
O O15 0.730206 0.464214 0.912774
O O16 0.747594 0.686224 0.064103
O O17 0.435287 0.354003 0.762656
#
# Coordination Sequence:
#
# PCOD9090770 Si02
#       8
#     2   2   2   2   2   2   2   2
#     4  10  20  36  61  96 124 153 204 260 307 352
#     4  10  21  39  60  89 124 159 208 248 300 362
#     4  10  22  38  68  84 115 164 215 236 301 365
#     4  10  19  39  58  91 126 165 199 253 307 363
#     4   9  21  40  63  89 125 162 201 253 307 366
#     4  11  20  35  65  97 120 156 209 255 303 359
#     4   9  19  37  63  88 120 162 206 242 300 366
#     4   9  20  33  60  90 128 161 207 249 299 368
#
# _framework density 23.452182000000001
#
# number of rings (size 3 to 8) (size 9 to 14) (size 15 to 20)
#    0.750    1.500    1.250    2.250    3.500    0.000 
#    0.000    8.125    0.000    4.500    0.000    0.000 
#    0.000    0.000    0.000    0.000    0.000    0.000 
#
# Total GULP energy -89295.905897 kJ/mol
# GULP energy per Si atom -5580.994119 kJ/mol
# Density = 2.339880 g / cm^3
# Si number density = 23.452182 Si / 1000 Ang^3
#
#
#
# Elastic Constant Matrix: (Units=GPa)
#
#
# Indices 1 2 3 4 5 6 
#
# 1 85.4171 11.7639 27.7358 -3.4767 6.8785 8.2365
# 2 11.7639 46.9711 32.3690 10.3296 -0.3469 5.6241
# 3 27.7358 32.3690 114.3605 7.8087 18.7488 -1.8447
# 4 -3.4767 10.3296 7.8087 21.8632 2.9254 -1.0686
# 5 6.8785 -0.3469 18.7488 2.9254 23.2845 1.5812
# 6 8.2365 5.6241 -1.8447 -1.0686 1.5812 16.2499
#
#
#
# Elastic Compliance Matrix: (Units=1/GPa)
#
#
# Indices 1 2 3 4 5 6 
#
# 1 0.013805 -0.001482 -0.003015 0.003890 -0.001727 -0.006403
# 2 -0.001482 0.033958 -0.010471 -0.014876 0.012219 -0.014358
# 3 -0.003015 -0.010471 0.014374 0.001269 -0.011541 0.007990
# 4 0.003890 -0.014876 0.001269 0.054627 -0.009790 0.007866
# 5 -0.001727 0.012219 -0.011541 -0.009790 0.054885 -0.010648
# 6 -0.006403 -0.014358 0.007990 0.007866 -0.010648 0.072214
#
#
# Mechanical properties :
#
#
# Convention : Reuss Voigt Hill
#
# Bulk Modulus (GPa) = 31.05458 43.38732 37.22095
# Shear Modulus (GPa) = 17.57277 23.93819 20.75548
#
# Velocity S-wave (km/s) = 2.74031 3.19834 2.97814
# Velocity P-wave (km/s) = 4.82522 5.67271 5.26605
#
# Compressibility (1/GPa) = 0.03220136
#
# Stress axis : x y z
#
# Youngs Moduli (GPa) = 72.43771 29.44848 69.57226
#
# Poissons Ratio (x) = 0.04363 0.20973
# Poissons Ratio (y) = 0.10733 0.72851
# Poissons Ratio (z) = 0.21837 0.30836
#
# Static dielectric constant tensor:
#      x y z
#    x 1.861540 -0.062110 0.001120 
#    y -0.062110 1.931110 0.014180 
#    z 0.001120 0.014180 1.971590 
# 
# From -- ./inp_files/293250.got.cif
#   From: 2010.05.17/outbox.cif.g08.bks.cpg/sg2_147_cif.got.tgz:293250.got - 2010.06.03 11:33:40.
