data_PCOD9090335
_publ_section_title
;
Structure prediction by ZEFSAII (Michael W. Deem and Ramdas Pophale) SiO2 
 PCOD9090335
Probable space group: P -1
;
_chemical_formula_sum "Si O2"
_cell_formula_units_Z 16
_cell_length_a 13.165183
_cell_length_b 9.674430
_cell_length_c 16.842848
_cell_angle_alpha 93.705413
_cell_angle_beta 53.238275
_cell_angle_gamma 47.394319
_cell_volume 764.511941
_symmetry_space_group_name_H-M "P -1"
_symmetry_group_IT_number 2
_symmetry_cell_setting 'triclinic'
loop_
_space_group_symop_operation_xyz
x,y,z
-x,-y,-z
loop_
_atom_site_type_symbol
_atom_site_label
_atom_site_fract_x
_atom_site_fract_y
_atom_site_fract_z
Si Si1 0.360230 0.305830 0.394343
Si Si2 0.481280 0.533949 0.893629
Si Si3 0.536607 0.319776 0.695189
Si Si4 0.377555 0.549408 0.482050
Si Si5 0.750402 0.810099 0.760595
Si Si6 0.307132 0.267639 0.841550
Si Si7 0.228183 0.949796 0.149415
Si Si8 0.855078 0.399496 0.657762
O O1 0.493720 0.285978 0.390894
O O2 0.351889 0.380553 0.313307
O O3 0.032103 0.593213 0.577265
O O4 0.517668 0.007155 0.306803
O O5 0.480988 0.462841 0.805703
O O6 0.519858 0.371269 0.931438
O O7 0.749093 0.376327 0.759155
O O8 0.237775 0.874101 0.054410
O O9 0.561375 0.403635 0.615386
O O10 0.308391 0.419387 0.809338
O O11 0.837761 0.942207 0.533857
O O12 0.500000 0.500000 0.500000
O O13 0.052350 0.828859 0.665713
O O14 0.819344 0.579709 0.727097
O O15 0.483179 0.095055 0.836632
O O16 0.733613 0.923148 0.850928
O O17 0.000000 0.500000 0.000000
#
# Coordination Sequence:
#
# PCOD9090335 Si02
#       8
#     2   2   2   2   2   2   2   2
#     4  10  19  39  65  91 121 162 210 261 302 372
#     4  11  21  35  63  98 121 151 207 270 314 361
#     4  12  20  40  66  93 119 170 216 253 309 390
#     4  11  24  42  63  87 127 169 214 257 312 378
#     4  10  19  38  65  90 126 162 209 259 302 370
#     4  11  22  37  61  98 129 162 205 262 319 370
#     4  10  22  39  61  92 129 159 200 267 317 357
#     4  11  18  34  68  95 113 158 220 253 299 373
#
# _framework density 20.928384999999999
#
# number of rings (size 3 to 8) (size 9 to 14) (size 15 to 20)
#    0.000    1.250    6.250    1.875    0.000    1.500 
#    4.500    1.875    0.000    0.000    0.000    0.000 
#    0.000    0.000    0.000    0.000    0.000    0.000 
#
# Total GULP energy -89180.768528 kJ/mol
# GULP energy per Si atom -5573.798033 kJ/mol
# Density = 2.088075 g / cm^3
# Si number density = 20.928385 Si / 1000 Ang^3
#
#
#
# Elastic Constant Matrix: (Units=GPa)
#
#
# Indices 1 2 3 4 5 6 
#
# 1 165.1344 62.0688 48.7298 3.0543 21.1204 44.0499
# 2 62.0688 42.8658 15.8282 -4.1514 11.3946 27.4450
# 3 48.7298 15.8282 89.0276 -6.5877 6.0853 12.4384
# 4 3.0543 -4.1514 -6.5877 18.9806 7.0412 0.2199
# 5 21.1204 11.3946 6.0853 7.0412 43.7349 1.4859
# 6 44.0499 27.4450 12.4384 0.2199 1.4859 35.7365
#
#
#
# Elastic Compliance Matrix: (Units=1/GPa)
#
#
# Indices 1 2 3 4 5 6 
#
# 1 0.016428 -0.021518 -0.005614 -0.009281 0.000006 -0.001713
# 2 -0.021518 0.085956 0.005610 0.030747 -0.016343 -0.040951
# 3 -0.005614 0.005610 0.014350 0.007855 -0.001932 -0.002350
# 4 -0.009281 0.030747 0.007855 0.069479 -0.015308 -0.014698
# 5 0.000006 -0.016343 -0.001932 -0.015308 0.029443 0.012085
# 6 -0.001713 -0.040951 -0.002350 -0.014698 0.012085 0.061950
#
#
# Mechanical properties :
#
#
# Convention : Reuss Voigt Hill
#
# Bulk Modulus (GPa) = 13.57066 61.14238 37.35652
# Shear Modulus (GPa) = 14.48375 31.05046 22.76710
#
# Velocity S-wave (km/s) = 2.63356 3.85600 3.30185
# Velocity P-wave (km/s) = 3.96812 7.00739 5.69427
#
# Compressibility (1/GPa) = 0.07368841
#
# Stress axis : x y z
#
# Youngs Moduli (GPa) = 60.87027 11.63385 69.68757
#
# Poissons Ratio (x) = 0.25034 0.39124
# Poissons Ratio (y) = 1.30983 -0.39093
# Poissons Ratio (z) = 0.34174 -0.06526
#
# Static dielectric constant tensor:
#      x y z
#    x 1.812940 0.064920 0.020340 
#    y 0.064920 1.824150 0.012130 
#    z 0.020340 0.012130 1.814360 
# 
# From -- ./inp_files/402184.got.cif
#   From: 2010.05.17/outbox.cif.g08.bks.cpg/sg2_202_cif.got.tgz:402184.got - 2010.06.03 11:33:40.
