data_PCOD9090905
_publ_section_title
;
Structure prediction by ZEFSAII (Michael W. Deem and Ramdas Pophale) SiO2 
 PCOD9090905
Probable space group: P -1
;
_chemical_formula_sum "Si O2"
_cell_formula_units_Z 16
_cell_length_a 12.887806
_cell_length_b 12.551405
_cell_length_c 12.974940
_cell_angle_alpha 138.879585
_cell_angle_beta 101.903995
_cell_angle_gamma 112.351165
_cell_volume 748.394502
_symmetry_space_group_name_H-M "P -1"
_symmetry_group_IT_number 2
_symmetry_cell_setting 'triclinic'
loop_
_space_group_symop_operation_xyz
x,y,z
-x,-y,-z
loop_
_atom_site_type_symbol
_atom_site_label
_atom_site_fract_x
_atom_site_fract_y
_atom_site_fract_z
Si Si1 0.213569 0.130141 0.554328
Si Si2 0.382883 0.864423 0.218438
Si Si3 0.733606 0.327394 0.494874
Si Si4 0.964337 0.847846 0.783146
Si Si5 0.056272 0.288357 0.625972
Si Si6 0.943467 0.748919 0.040213
Si Si7 0.887150 0.228788 0.349686
Si Si8 0.534472 0.300578 0.730219
O O1 0.175557 0.272764 0.636010
O O2 0.427777 0.335414 0.739166
O O3 0.133263 0.989116 0.549089
O O4 0.077093 0.867365 0.249459
O O5 0.452655 0.781546 0.220354
O O6 0.524839 0.098083 0.327518
O O7 0.404196 0.020246 0.426921
O O8 0.174395 0.571194 0.919313
O O9 0.796143 0.517268 0.548912
O O10 0.741668 0.153262 0.329140
O O11 0.874127 0.544448 0.781583
O O12 0.145018 0.963627 0.873220
O O13 0.941856 0.955191 0.770417
O O14 0.000000 0.000000 0.000000
O O15 0.017246 0.309361 0.521454
O O16 0.746161 0.564471 0.916468
O O17 0.000000 0.500000 0.500000
#
# Coordination Sequence:
#
# PCOD9090905 Si02
#       8
#     2   2   2   2   2   2   2   2
#     4  11  23  38  61  91 126 162 203 247 309 367
#     4  10  21  39  57  90 128 154 206 250 299 371
#     4   9  20  35  62  86 115 163 200 251 301 357
#     4   9  18  36  62  80 117 158 204 249 298 360
#     4  11  23  38  57  92 127 160 203 256 299 369
#     4  10  19  39  61  89 121 157 207 249 298 367
#     4  10  20  37  58  88 115 157 210 241 308 359
#     4  10  22  38  60  90 124 166 198 249 306 358
#
# _framework density 21.379099
#
# number of rings (size 3 to 8) (size 9 to 14) (size 15 to 20)
#    0.000    2.000    2.500    0.750    1.750    2.000 
#    0.000    2.500    5.500    3.000    0.000    0.000 
#    0.000    0.000    0.000    0.000    0.000    0.000 
#
# Total GULP energy -89142.034587 kJ/mol
# GULP energy per Si atom -5571.377162 kJ/mol
# Density = 2.133044 g / cm^3
# Si number density = 21.379099 Si / 1000 Ang^3
#
#
#
# Elastic Constant Matrix: (Units=GPa)
#
#
# Indices 1 2 3 4 5 6 
#
# 1 84.3115 25.9315 8.7648 -7.8415 -1.4981 3.9716
# 2 25.9315 114.4610 14.2291 1.3465 4.3955 -6.0603
# 3 8.7648 14.2291 48.6994 -10.4349 -6.0050 6.4787
# 4 -7.8415 1.3465 -10.4349 17.6189 6.0441 -4.9295
# 5 -1.4981 4.3955 -6.0050 6.0441 25.6804 -5.1107
# 6 3.9716 -6.0603 6.4787 -4.9295 -5.1107 22.3142
#
#
#
# Elastic Compliance Matrix: (Units=1/GPa)
#
#
# Indices 1 2 3 4 5 6 
#
# 1 0.013481 -0.003213 -0.000022 0.005803 -0.000450 -0.002087
# 2 -0.003213 0.010190 -0.003657 -0.002930 -0.001415 0.003430
# 3 -0.000022 -0.003657 0.025366 0.013063 0.002508 -0.004894
# 4 0.005803 -0.002930 0.013063 0.073581 -0.011847 0.007920
# 5 -0.000450 -0.001415 0.002508 -0.011847 0.043801 0.006382
# 6 -0.002087 0.003430 -0.004894 0.007920 0.006382 0.050750
#
#
# Mechanical properties :
#
#
# Convention : Reuss Voigt Hill
#
# Bulk Modulus (GPa) = 28.36710 38.36920 33.36815
# Shear Modulus (GPa) = 20.60121 26.35914 23.48017
#
# Velocity S-wave (km/s) = 3.10758 3.51513 3.31762
# Velocity P-wave (km/s) = 5.11600 5.87034 5.50611
#
# Compressibility (1/GPa) = 0.03525210
#
# Stress axis : x y z
#
# Youngs Moduli (GPa) = 74.17692 98.13958 39.42265
#
# Poissons Ratio (x) = 0.31532 0.00087
# Poissons Ratio (y) = 0.23833 0.14419
# Poissons Ratio (z) = 0.00163 0.35894
#
# Static dielectric constant tensor:
#      x y z
#    x 1.802750 -0.007490 -0.047230 
#    y -0.007490 1.818980 0.015840 
#    z -0.047230 0.015840 1.830670 
# 
# From -- ./inp_files/284982.got.cif
#   From: 2010.05.17/outbox.cif.g08.bks.cpg/sg2_143_cif.got.tgz:284982.got - 2010.06.03 11:33:40.
