data_PCOD9090122
_publ_section_title
;
Structure prediction by ZEFSAII (Michael W. Deem and Ramdas Pophale) SiO2 
 PCOD9090122
Probable space group: P -1
;
_chemical_formula_sum "Si O2"
_cell_formula_units_Z 14
_cell_length_a 16.467975
_cell_length_b 9.932554
_cell_length_c 19.517013
_cell_angle_alpha 136.246958
_cell_angle_beta 21.279679
_cell_angle_gamma 147.844166
_cell_volume 578.863131
_symmetry_space_group_name_H-M "P -1"
_symmetry_group_IT_number 2
_symmetry_cell_setting 'triclinic'
loop_
_space_group_symop_operation_xyz
x,y,z
-x,-y,-z
loop_
_atom_site_type_symbol
_atom_site_label
_atom_site_fract_x
_atom_site_fract_y
_atom_site_fract_z
Si Si1 0.779045 0.961001 0.551246
Si Si2 0.250593 0.039665 0.862817
Si Si3 0.711849 0.593702 0.193501
Si Si4 0.463936 0.249423 0.141291
Si Si5 0.854551 0.866951 0.887209
Si Si6 0.545047 0.122306 0.896117
Si Si7 0.126916 0.734666 0.539046
O O1 0.478423 0.657015 0.698037
O O2 0.777793 0.151947 0.672098
O O3 0.778808 0.031910 0.499794
O O4 0.093850 0.029371 0.340412
O O5 0.562306 0.150846 0.626596
O O6 0.058075 0.755144 0.950861
O O7 0.340061 0.233624 0.927143
O O8 0.000000 0.000000 0.000000
O O9 0.522532 0.469140 0.225305
O O10 0.805711 0.850596 0.251797
O O11 0.569301 0.131191 0.061808
O O12 0.629699 0.321422 0.964409
O O13 0.882253 0.672357 0.761674
O O14 0.712593 0.931033 0.967728
O O15 0.000000 0.500000 0.500000
#
# Coordination Sequence:
#
# PCOD9090122 Si02
#       7
#     2   2   2   2   2   2   2
#     4  11  21  43  68 103 140 174 226 275 339 402
#     4  10  25  48  66  97 133 178 226 285 342 391
#     4   9  22  43  68  99 139 166 224 284 342 395
#     4  10  21  37  64 103 142 177 215 277 335 413
#     4  10  23  45  67 102 126 182 230 271 350 401
#     4  10  19  38  63  98 137 173 224 259 349 402
#     4  12  27  45  70  97 137 183 231 279 333 413
#
# _framework density 24.185338999999999
#
# number of rings (size 3 to 8) (size 9 to 14) (size 15 to 20)
#    0.857    0.857    2.857    1.714    2.000    6.857 
#   12.857    0.000    0.000    0.000    0.000    0.000 
#    0.000    0.000    0.000    0.000    0.000    0.000 
#
# Total GULP energy -78015.599101 kJ/mol
# GULP energy per Si atom -5572.542793 kJ/mol
# Density = 2.413029 g / cm^3
# Si number density = 24.185339 Si / 1000 Ang^3
#
#
#
# Elastic Constant Matrix: (Units=GPa)
#
#
# Indices 1 2 3 4 5 6 
#
# 1 120.6686 10.9433 32.5437 17.4053 -1.9232 12.8302
# 2 10.9433 81.1699 11.5241 0.6079 -11.8085 0.0946
# 3 32.5437 11.5241 122.7342 15.7897 -12.3294 -1.0817
# 4 17.4053 0.6079 15.7897 34.2516 2.0649 9.5761
# 5 -1.9232 -11.8085 -12.3294 2.0649 42.7222 1.7834
# 6 12.8302 0.0946 -1.0817 9.5761 1.7834 36.9129
#
#
#
# Elastic Compliance Matrix: (Units=1/GPa)
#
#
# Indices 1 2 3 4 5 6 
#
# 1 0.009678 -0.001007 -0.002102 -0.003197 -0.000187 -0.002585
# 2 -0.001007 0.013034 -0.000669 0.000376 0.003345 0.000038
# 3 -0.002102 -0.000669 0.009563 -0.004025 0.002594 0.001931
# 4 -0.003197 0.000376 -0.004025 0.035054 -0.002563 -0.007978
# 5 -0.000187 0.003345 0.002594 -0.002563 0.025213 -0.000421
# 6 -0.002585 0.000038 0.001931 -0.007978 -0.000421 0.030136
#
#
# Mechanical properties :
#
#
# Convention : Reuss Voigt Hill
#
# Bulk Modulus (GPa) = 40.45199 48.28831 44.37015
# Shear Modulus (GPa) = 36.10777 40.74811 38.42794
#
# Velocity S-wave (km/s) = 3.86808 4.10912 3.99042
# Velocity P-wave (km/s) = 6.05900 6.52092 6.29420
#
# Compressibility (1/GPa) = 0.02472066
#
# Stress axis : x y z
#
# Youngs Moduli (GPa) = 103.32334 76.72102 104.56650
#
# Poissons Ratio (x) = 0.07723 0.21979
# Poissons Ratio (y) = 0.10401 0.06996
# Poissons Ratio (z) = 0.21718 0.05133
#
# Static dielectric constant tensor:
#      x y z
#    x 1.952280 -0.014000 0.036460 
#    y -0.014000 2.072470 0.016830 
#    z 0.036460 0.016830 1.898870 
# 
# From -- ./inp_files/600079.got.cif
#   From: 2010.05.17/outbox.cif.g08.bks.cpg/sg2_301_cif.got.tgz:600079.got - 2010.06.03 11:33:40.
