data_PCOD9090765
_publ_section_title
;
Structure prediction by ZEFSAII (Michael W. Deem and Ramdas Pophale) SiO2 
 PCOD9090765
Probable space group: P -1
;
_chemical_formula_sum "Si O2"
_cell_formula_units_Z 16
_cell_length_a 22.719337
_cell_length_b 12.229623
_cell_length_c 6.419343
_cell_angle_alpha 77.358988
_cell_angle_beta 101.072267
_cell_angle_gamma 158.004719
_cell_volume 651.534304
_symmetry_space_group_name_H-M "P -1"
_symmetry_group_IT_number 2
_symmetry_cell_setting 'triclinic'
loop_
_space_group_symop_operation_xyz
x,y,z
-x,-y,-z
loop_
_atom_site_type_symbol
_atom_site_label
_atom_site_fract_x
_atom_site_fract_y
_atom_site_fract_z
Si Si1 0.638683 0.130370 0.597335
Si Si2 0.372225 0.769040 0.828777
Si Si3 0.861413 0.033637 0.604467
Si Si4 0.062364 0.292492 0.249413
Si Si5 0.358949 0.255224 0.759190
Si Si6 0.195061 0.254323 0.974864
Si Si7 0.048575 0.699887 0.052931
Si Si8 0.536555 0.743559 0.901869
O O1 0.664344 0.181842 0.345308
O O2 0.763152 0.429054 0.667588
O O3 0.464548 0.863317 0.666893
O O4 0.651618 0.029341 0.748672
O O5 0.228238 0.444265 0.942864
O O6 0.500000 0.000000 0.000000
O O7 0.980861 0.205319 0.433792
O O8 0.923240 0.239665 0.708810
O O9 0.706496 0.812564 0.474568
O O10 0.841955 0.887883 0.792484
O O11 0.939309 0.993750 0.188325
O O12 0.071747 0.409413 0.041070
O O13 0.502365 0.580395 0.794298
O O14 0.404851 0.206370 0.859929
O O15 0.212634 0.017913 0.920190
O O16 0.364922 0.500061 0.920348
O O17 0.000000 0.500000 0.000000
#
# Coordination Sequence:
#
# PCOD9090765 Si02
#       8
#     2   2   2   2   2   2   2   2
#     4  10  23  42  63  87 124 153 195 259 304 350
#     4  10  24  42  65  93 115 155 204 246 314 368
#     4  10  20  36  60  86 120 167 200 240 303 359
#     4  10  21  39  60  89 118 161 202 243 310 358
#     4  10  20  34  57  89 120 159 209 237 299 358
#     4  10  21  40  61  87 124 156 201 260 295 359
#     4  10  20  37  55  85 127 160 204 253 287 351
#     4  10  19  39  58  87 123 159 197 257 293 348
#
# _framework density 24.557421000000001
#
# number of rings (size 3 to 8) (size 9 to 14) (size 15 to 20)
#    0.000    2.000    3.750    0.750    1.750    6.000 
#    0.000    3.750    0.000    0.000    0.000    0.000 
#    0.000    0.000    0.000    0.000    0.000    0.000 
#
# Total GULP energy -89298.167334 kJ/mol
# GULP energy per Si atom -5581.135458 kJ/mol
# Density = 2.450153 g / cm^3
# Si number density = 24.557421 Si / 1000 Ang^3
#
#
#
# Elastic Constant Matrix: (Units=GPa)
#
#
# Indices 1 2 3 4 5 6 
#
# 1 35.9010 23.4988 25.5742 -6.5807 5.5027 -0.3267
# 2 23.4988 94.4533 58.6009 18.9080 12.3111 -5.8494
# 3 25.5742 58.6009 150.1302 12.3673 13.9773 -14.4003
# 4 -6.5807 18.9080 12.3673 36.8972 1.7932 5.9805
# 5 5.5027 12.3111 13.9773 1.7932 33.5315 -2.1072
# 6 -0.3267 -5.8494 -14.4003 5.9805 -2.1072 44.4449
#
#
#
# Elastic Compliance Matrix: (Units=1/GPa)
#
#
# Indices 1 2 3 4 5 6 
#
# 1 0.040819 -0.010458 -0.004344 0.014944 -0.002136 -0.004596
# 2 -0.010458 0.018182 -0.004029 -0.010069 -0.002601 0.002242
# 3 -0.004344 -0.004029 0.009568 -0.002294 -0.001499 0.002776
# 4 0.014944 -0.010069 -0.002294 0.036829 -0.000204 -0.006924
# 5 -0.002136 -0.002601 -0.001499 -0.000204 0.031807 0.000692
# 6 -0.004596 0.002242 0.002776 -0.006924 0.000692 0.024625
#
#
# Mechanical properties :
#
#
# Convention : Reuss Voigt Hill
#
# Bulk Modulus (GPa) = 32.35473 55.09247 43.72360
# Shear Modulus (GPa) = 23.83273 34.49542 29.16408
#
# Velocity S-wave (km/s) = 3.11865 3.75198 3.44988
# Velocity P-wave (km/s) = 5.11583 6.42282 5.80622
#
# Compressibility (1/GPa) = 0.03090738
#
# Stress axis : x y z
#
# Youngs Moduli (GPa) = 24.49839 54.99884 104.51046
#
# Poissons Ratio (x) = 0.57516 0.45404
# Poissons Ratio (y) = 0.25620 0.42108
# Poissons Ratio (z) = 0.10643 0.22159
#
# Static dielectric constant tensor:
#      x y z
#    x 2.141660 -0.012900 0.074830 
#    y -0.012900 1.953680 -0.008020 
#    z 0.074830 -0.008020 2.019470 
# 
# From -- ./inp_files/128643.got.cif
#   From: 2010.05.17/outbox.cif.g08.bks.cpg/sg2_65_cif.got.tgz:128643.got - 2010.06.03 11:33:40.
