data_PCOD9090510
_publ_section_title
;
Structure prediction by ZEFSAII (Michael W. Deem and Ramdas Pophale) SiO2 
 PCOD9090510
Probable space group: P -1
;
_chemical_formula_sum "Si O2"
_cell_formula_units_Z 16
_cell_length_a 20.350939
_cell_length_b 19.654984
_cell_length_c 8.452820
_cell_angle_alpha 126.145348
_cell_angle_beta 41.299422
_cell_angle_gamma 158.751523
_cell_volume 717.499106
_symmetry_space_group_name_H-M "P -1"
_symmetry_group_IT_number 2
_symmetry_cell_setting 'triclinic'
loop_
_space_group_symop_operation_xyz
x,y,z
-x,-y,-z
loop_
_atom_site_type_symbol
_atom_site_label
_atom_site_fract_x
_atom_site_fract_y
_atom_site_fract_z
Si Si1 0.446505 0.644702 0.829643
Si Si2 0.253980 0.170176 0.178997
Si Si3 0.105932 0.905643 0.464646
Si Si4 0.116163 0.514343 0.411136
Si Si5 0.783911 0.773092 0.008099
Si Si6 0.724105 0.545966 0.430160
Si Si7 0.548952 0.256348 0.581299
Si Si8 0.342902 0.952359 0.301936
O O1 0.529633 0.653819 0.839594
O O2 0.251372 0.458800 0.802646
O O3 0.702634 0.868830 0.585819
O O4 0.339258 0.648740 0.090903
O O5 0.260556 0.234995 0.104618
O O6 0.329334 0.136921 0.913868
O O7 0.000000 0.000000 0.500000
O O8 0.249707 0.936849 0.305380
O O9 0.899426 0.770267 0.782920
O O10 0.964797 0.777302 0.382377
O O11 0.243871 0.618672 0.498038
O O12 0.000000 0.500000 0.500000
O O13 0.895237 0.275499 0.499574
O O14 0.519746 0.583782 0.305474
O O15 0.000000 0.000000 0.000000
O O16 0.660839 0.416143 0.480076
O O17 0.464047 0.112441 0.427044
O O18 0.500000 0.000000 0.000000
#
# Coordination Sequence:
#
# PCOD9090510 Si02
#       8
#     2   2   2   2   2   2   2   2
#     4  11  23  41  65  95 138 170 217 282 338 386
#     4  10  19  38  66  95 139 177 210 267 340 388
#     4  12  22  40  68  98 130 179 231 272 329 407
#     4  11  26  46  67  98 136 168 223 288 345 397
#     4  11  20  39  67  97 136 184 225 273 328 404
#     4  11  22  40  66 102 131 179 224 273 332 402
#     4  10  23  43  71  97 135 174 225 277 333 403
#     4  12  26  45  73 100 127 179 232 281 340 404
#
# _framework density 22.299679000000001
#
# number of rings (size 3 to 8) (size 9 to 14) (size 15 to 20)
#    0.000    1.000    5.000    1.875    0.000    4.000 
#    0.000    0.625    0.000    0.000    0.000    0.000 
#    0.000    0.000    0.000    0.000    0.000    0.000 
#
# Total GULP energy -89285.342774 kJ/mol
# GULP energy per Si atom -5580.333923 kJ/mol
# Density = 2.224892 g / cm^3
# Si number density = 22.299679 Si / 1000 Ang^3
#
#
#
# Elastic Constant Matrix: (Units=GPa)
#
#
# Indices 1 2 3 4 5 6 
#
# 1 95.8161 32.4322 42.8503 9.4364 -25.6158 20.2463
# 2 32.4322 105.0920 19.7303 23.7744 -11.0454 20.8720
# 3 42.8503 19.7303 94.9171 15.5470 -15.0796 8.4768
# 4 9.4364 23.7744 15.5470 31.1828 0.5813 10.1317
# 5 -25.6158 -11.0454 -15.0796 0.5813 37.1815 -6.2849
# 6 20.2463 20.8720 8.4768 10.1317 -6.2849 42.6374
#
#
#
# Elastic Compliance Matrix: (Units=1/GPa)
#
#
# Indices 1 2 3 4 5 6 
#
# 1 0.016752 -0.002633 -0.005551 0.001085 0.007698 -0.004685
# 2 -0.002633 0.012905 0.000423 -0.008345 0.001832 -0.002898
# 3 -0.005551 0.000423 0.014233 -0.006252 0.002415 0.001441
# 4 0.001085 -0.008345 -0.006252 0.043409 -0.006026 -0.006390
# 5 0.007698 0.001832 0.002415 -0.006026 0.034056 0.001420
# 6 -0.004685 -0.002898 0.001441 -0.006390 0.001420 0.028538
#
#
# Mechanical properties :
#
#
# Convention : Reuss Voigt Hill
#
# Bulk Modulus (GPa) = 35.25374 53.98342 44.61858
# Shear Modulus (GPa) = 28.59238 35.58784 32.09011
#
# Velocity S-wave (km/s) = 3.58465 3.99919 3.79758
# Velocity P-wave (km/s) = 5.74250 6.75170 6.26745
#
# Compressibility (1/GPa) = 0.02836579
#
# Stress axis : x y z
#
# Youngs Moduli (GPa) = 59.69464 77.49121 70.26044
#
# Poissons Ratio (x) = 0.20406 0.39005
# Poissons Ratio (y) = 0.15720 -0.02973
# Poissons Ratio (z) = 0.33139 -0.03278
#
# Static dielectric constant tensor:
#      x y z
#    x 1.840450 -0.012660 0.001370 
#    y -0.012660 1.867480 -0.053580 
#    z 0.001370 -0.053580 1.996310 
# 
# From -- ./inp_files/187330.got.cif
#   From: 2010.05.17/outbox.cif.g08.bks.cpg/sg2_94_cif.got.tgz:187330.got - 2010.06.03 11:33:40.
