data_PCOD9090503
_publ_section_title
;
Structure prediction by ZEFSAII (Michael W. Deem and Ramdas Pophale) SiO2 
 PCOD9090503
Probable space group: P -1
;
_chemical_formula_sum "Si O2"
_cell_formula_units_Z 14
_cell_length_a 14.613660
_cell_length_b 9.171715
_cell_length_c 7.929029
_cell_angle_alpha 121.190686
_cell_angle_beta 101.721508
_cell_angle_gamma 39.764462
_cell_volume 543.351864
_symmetry_space_group_name_H-M "P -1"
_symmetry_group_IT_number 2
_symmetry_cell_setting 'triclinic'
loop_
_space_group_symop_operation_xyz
x,y,z
-x,-y,-z
loop_
_atom_site_type_symbol
_atom_site_label
_atom_site_fract_x
_atom_site_fract_y
_atom_site_fract_z
Si Si1 0.949403 0.810204 0.287057
Si Si2 0.127679 0.257067 0.138200
Si Si3 0.371197 0.046049 0.529756
Si Si4 0.638509 0.335698 0.672419
Si Si5 0.918211 0.340825 0.294578
Si Si6 0.413419 0.955576 0.883634
Si Si7 0.136072 0.774800 0.143681
O O1 0.004842 0.584820 0.299304
O O2 0.105049 0.686863 0.228464
O O3 0.790710 0.109325 0.476958
O O4 0.908209 0.787980 0.077919
O O5 0.079394 0.198660 0.228569
O O6 0.293923 0.086717 0.065294
O O7 0.220010 0.327856 0.541054
O O8 0.500000 0.000000 0.500000
O O9 0.405258 0.793956 0.367804
O O10 0.346407 0.087884 0.750136
O O11 0.513245 0.637648 0.719313
O O12 0.706163 0.353100 0.859248
O O13 0.870829 0.304669 0.087191
O O14 0.977499 0.113538 0.308798
O O15 0.500000 0.000000 0.000000
#
# Coordination Sequence:
#
# PCOD9090503 Si02
#       7
#     2   2   2   2   2   2   2
#     4  10  19  38  66  95 127 169 227 275 324 401
#     4  10  19  40  69  90 129 179 224 266 331 400
#     4  12  27  45  67 100 142 177 223 287 347 392
#     4  12  24  42  67 101 136 174 228 280 337 399
#     4  10  22  45  65  93 135 177 223 274 338 406
#     4  12  26  45  70 100 139 183 228 276 340 411
#     4  10  23  38  68  98 129 174 224 279 333 403
#
# _framework density 25.765995
#
# number of rings (size 3 to 8) (size 9 to 14) (size 15 to 20)
#    0.000    1.143    2.857    4.286    2.000    4.000 
#    0.000    2.143    0.000    0.000    0.000    0.000 
#    0.000    0.000    0.000    0.000    0.000    0.000 
#
# Total GULP energy -78278.556631 kJ/mol
# GULP energy per Si atom -5591.325474 kJ/mol
# Density = 2.570735 g / cm^3
# Si number density = 25.765995 Si / 1000 Ang^3
#
#
#
# Elastic Constant Matrix: (Units=GPa)
#
#
# Indices 1 2 3 4 5 6 
#
# 1 164.1145 -3.7441 16.0584 0.2067 10.1002 -10.8488
# 2 -3.7441 97.3782 1.1801 23.8204 -4.3036 7.4443
# 3 16.0584 1.1801 85.5836 10.7135 4.3238 -2.4228
# 4 0.2067 23.8204 10.7135 45.3646 -1.3087 0.3893
# 5 10.1002 -4.3036 4.3238 -1.3087 40.8598 4.8556
# 6 -10.8488 7.4443 -2.4228 0.3893 4.8556 30.4800
#
#
#
# Elastic Compliance Matrix: (Units=1/GPa)
#
#
# Indices 1 2 3 4 5 6 
#
# 1 0.006473 -0.000053 -0.001075 0.000179 -0.001785 0.002513
# 2 -0.000053 0.012128 0.000488 -0.006417 0.001400 -0.003083
# 3 -0.001075 0.000488 0.012361 -0.003211 -0.001178 0.000709
# 4 0.000179 -0.006417 -0.003211 0.026172 0.000341 0.000987
# 5 -0.001785 0.001400 -0.001178 0.000341 0.025815 -0.005187
# 6 0.002513 -0.003083 0.000709 0.000987 -0.005187 0.035326
#
#
# Mechanical properties :
#
#
# Convention : Reuss Voigt Hill
#
# Bulk Modulus (GPa) = 33.68967 41.56278 37.62622
# Shear Modulus (GPa) = 38.62522 45.57968 42.10245
#
# Velocity S-wave (km/s) = 3.87599 4.21049 4.04670
# Velocity P-wave (km/s) = 5.75628 6.30901 6.03897
#
# Compressibility (1/GPa) = 0.02968269
#
# Stress axis : x y z
#
# Youngs Moduli (GPa) = 154.48656 82.45043 80.89984
#
# Poissons Ratio (x) = 0.00436 0.08696
# Poissons Ratio (y) = 0.00818 -0.03947
# Poissons Ratio (z) = 0.16606 -0.04023
#
# Static dielectric constant tensor:
#      x y z
#    x 2.005500 -0.036220 0.120570 
#    y -0.036220 1.985200 -0.006850 
#    z 0.120570 -0.006850 2.140850 
# 
# From -- ./inp_files/299525.got.cif
#   From: 2010.05.17/outbox.cif.g08.bks.cpg/sg2_150_cif.got.tgz:299525.got - 2010.06.03 11:33:40.
