data_PCOD9090862
_publ_section_title
;
Structure prediction by ZEFSAII (Michael W. Deem and Ramdas Pophale) SiO2 
 PCOD9090862
Probable space group: P -1
;
_chemical_formula_sum "Si O2"
_cell_formula_units_Z 15
_cell_length_a 14.408115
_cell_length_b 11.314137
_cell_length_c 9.526695
_cell_angle_alpha 83.387817
_cell_angle_beta 67.802115
_cell_angle_gamma 27.416063
_cell_volume 566.900554
_symmetry_space_group_name_H-M "P -1"
_symmetry_group_IT_number 2
_symmetry_cell_setting 'triclinic'
loop_
_space_group_symop_operation_xyz
x,y,z
-x,-y,-z
loop_
_atom_site_type_symbol
_atom_site_label
_atom_site_fract_x
_atom_site_fract_y
_atom_site_fract_z
Si Si1 0.617334 0.409606 0.150253
Si Si2 0.243673 0.196529 0.310677
Si Si3 0.518237 0.859425 0.674015
Si Si4 0.069880 0.737876 0.928745
Si Si5 0.958967 0.464036 0.891160
Si Si6 0.000000 0.000000 0.500000
Si Si7 0.711899 0.422636 0.791068
Si Si8 0.004601 0.739409 0.666547
O O1 0.363707 0.605434 0.275645
O O2 0.702457 0.418699 0.205960
O O3 0.626459 0.467068 0.984459
O O4 0.837489 0.071099 0.068767
O O5 0.466675 0.027076 0.278515
O O6 0.000000 0.500000 0.500000
O O7 0.199806 0.297823 0.167858
O O8 0.217589 0.084611 0.315160
O O9 0.593018 0.674866 0.770963
O O10 0.738725 0.609581 0.468151
O O11 0.249070 0.127612 0.724466
O O12 0.965275 0.783706 0.847870
O O13 0.147540 0.550920 0.017222
O O14 0.000000 0.500000 0.000000
O O15 0.997104 0.910511 0.363246
O O16 0.046639 0.828189 0.589477
#
# Coordination Sequence:
#
# PCOD9090862 Si02
#       8
#     2   2   2   2   2   1   2   2
#     4  10  21  36  65  86 128 164 208 263 324 380
#     4  10  23  44  66  95 127 173 216 262 325 386
#     4  10  23  42  68  92 130 174 216 261 328 378
#     4  11  21  41  60  96 125 164 213 268 322 372
#     4  12  24  43  68  96 132 167 219 276 315 378
#     4  10  20  36  62  88 120 164 204 258 312 372
#     4  10  19  39  60  91 123 168 208 262 316 387
#     4  10  21  42  62  90 132 165 214 264 314 394
#
# _framework density 26.459668000000001
#
# number of rings (size 3 to 8) (size 9 to 14) (size 15 to 20)
#    0.000    1.600    4.000    0.800    0.000    2.667 
#    2.400    6.667    0.000    0.000    0.000    0.000 
#    0.000    0.000    0.000    0.000    0.000    0.000 
#
# Total GULP energy -83727.426887 kJ/mol
# GULP energy per Si atom -5581.828459 kJ/mol
# Density = 2.639944 g / cm^3
# Si number density = 26.459668 Si / 1000 Ang^3
#
#
#
# Elastic Constant Matrix: (Units=GPa)
#
#
# Indices 1 2 3 4 5 6 
#
# 1 153.5323 20.1355 18.3368 -0.6526 -16.9667 0.3492
# 2 20.1355 73.9258 15.1798 6.2773 -5.3245 12.8137
# 3 18.3368 15.1798 59.1229 -12.1311 -7.2134 11.1063
# 4 -0.6526 6.2773 -12.1311 43.5007 9.0100 -9.7316
# 5 -16.9667 -5.3245 -7.2134 9.0100 34.9712 -8.0845
# 6 0.3492 12.8137 11.1063 -9.7316 -8.0845 23.9544
#
#
#
# Elastic Compliance Matrix: (Units=1/GPa)
#
#
# Indices 1 2 3 4 5 6 
#
# 1 0.007383 -0.001820 -0.001981 -0.000285 0.003639 0.002897
# 2 -0.001820 0.016817 -0.003031 -0.005523 0.000226 -0.009732
# 3 -0.001981 -0.003031 0.020399 0.004753 0.000219 -0.005803
# 4 -0.000285 -0.005523 0.004753 0.028507 -0.004872 0.010692
# 5 0.003639 0.000226 0.000219 -0.004872 0.033812 0.009157
# 6 0.002897 -0.009732 -0.005803 0.010692 0.009157 0.057034
#
#
# Mechanical properties :
#
#
# Convention : Reuss Voigt Hill
#
# Bulk Modulus (GPa) = 32.32638 43.76502 38.04570
# Shear Modulus (GPa) = 26.60598 36.01387 31.30992
#
# Velocity S-wave (km/s) = 3.17445 3.69329 3.44366
# Velocity P-wave (km/s) = 5.06754 5.89605 5.49742
#
# Compressibility (1/GPa) = 0.03093449
#
# Stress axis : x y z
#
# Youngs Moduli (GPa) = 135.44697 59.46291 49.02311
#
# Poissons Ratio (x) = 0.10822 0.09712
# Poissons Ratio (y) = 0.24651 0.14859
# Poissons Ratio (z) = 0.26834 0.18023
#
# Static dielectric constant tensor:
#      x y z
#    x 2.491200 -1.007110 -0.954000 
#    y -1.007110 4.687330 2.589680 
#    z -0.954000 2.589680 4.807590 
# 
# From -- ./inp_files/307297.got.cif
#   From: 2010.05.17/outbox.cif.g08.bks.cpg/sg2_154_cif.got.tgz:307297.got - 2010.06.03 11:33:40.
