data_PCOD9090646
_publ_section_title
;
Structure prediction by ZEFSAII (Michael W. Deem and Ramdas Pophale) SiO2 
 PCOD9090646
Probable space group: P -1
;
_chemical_formula_sum "Si O2"
_cell_formula_units_Z 16
_cell_length_a 10.325356
_cell_length_b 8.990814
_cell_length_c 10.266563
_cell_angle_alpha 93.995652
_cell_angle_beta 60.461419
_cell_angle_gamma 121.284294
_cell_volume 686.023754
_symmetry_space_group_name_H-M "P -1"
_symmetry_group_IT_number 2
_symmetry_cell_setting 'triclinic'
loop_
_space_group_symop_operation_xyz
x,y,z
-x,-y,-z
loop_
_atom_site_type_symbol
_atom_site_label
_atom_site_fract_x
_atom_site_fract_y
_atom_site_fract_z
Si Si1 0.153256 0.705563 0.469662
Si Si2 0.135681 0.133320 0.836614
Si Si3 0.523240 0.770012 0.986792
Si Si4 0.113729 0.001052 0.565349
Si Si5 0.790101 0.175132 0.838949
Si Si6 0.479576 0.333752 0.307856
Si Si7 0.121833 0.460998 0.849310
Si Si8 0.473793 0.671812 0.302877
O O1 0.211777 0.822844 0.315500
O O2 0.322363 0.700987 0.426806
O O3 0.000000 0.500000 0.500000
O O4 0.087083 0.809153 0.592955
O O5 0.067224 0.068069 0.721073
O O6 0.160577 0.318516 0.878019
O O7 0.328429 0.163559 0.748138
O O8 0.000000 0.000000 0.000000
O O9 0.539877 0.686839 0.840947
O O10 0.700413 0.973227 0.924009
O O11 0.353691 0.781800 0.043187
O O12 0.478326 0.669996 0.141638
O O13 0.320057 0.152561 0.440261
O O14 0.000000 0.000000 0.500000
O O15 0.986832 0.342435 0.792333
O O16 0.672166 0.375258 0.261035
O O17 0.451419 0.493795 0.362297
O O18 0.000000 0.500000 0.000000
#
# Coordination Sequence:
#
# PCOD9090646 Si02
#       8
#     2   2   2   2   2   2   2   2
#     4  11  24  44  68  99 133 181 231 288 348 413
#     4  11  27  46  67 101 140 184 228 287 350 410
#     4  10  19  38  68  97 138 181 231 279 338 403
#     4  12  27  47  73 101 135 185 237 290 350 413
#     4  10  20  37  66 101 134 179 235 280 336 409
#     4  11  23  42  69 101 138 184 230 285 345 412
#     4  11  23  41  67 104 141 179 229 285 345 410
#     4  10  24  41  67 102 141 176 226 284 344 413
#
# _framework density 23.322807999999998
#
# number of rings (size 3 to 8) (size 9 to 14) (size 15 to 20)
#    0.000    1.250    2.500    2.625    1.750    5.500 
#    2.250    0.000    0.000    0.000    0.000    0.000 
#    0.000    0.000    0.000    0.000    0.000    0.000 
#
# Total GULP energy -89383.303790 kJ/mol
# GULP energy per Si atom -5586.456487 kJ/mol
# Density = 2.326972 g / cm^3
# Si number density = 23.322808 Si / 1000 Ang^3
#
#
#
# Elastic Constant Matrix: (Units=GPa)
#
#
# Indices 1 2 3 4 5 6 
#
# 1 131.6467 37.8551 40.2899 -0.6864 -34.3912 18.9828
# 2 37.8551 105.3775 44.8544 -1.3486 -15.1285 -2.2802
# 3 40.2899 44.8544 80.0459 4.7733 -11.7759 5.7361
# 4 -0.6864 -1.3486 4.7733 39.3279 7.5472 -10.4754
# 5 -34.3912 -15.1285 -11.7759 7.5472 41.6415 3.4320
# 6 18.9828 -2.2802 5.7361 -10.4754 3.4320 33.0715
#
#
#
# Elastic Compliance Matrix: (Units=1/GPa)
#
#
# Indices 1 2 3 4 5 6 
#
# 1 0.013405 -0.002267 -0.002903 -0.004220 0.011001 -0.009826
# 2 -0.002267 0.013320 -0.006699 0.002248 0.000330 0.004060
# 3 -0.002903 -0.006699 0.018346 -0.003621 0.001282 -0.003258
# 4 -0.004220 0.002248 -0.003621 0.031735 -0.010627 0.014360
# 5 0.011001 0.000330 0.001282 -0.010627 0.036636 -0.013682
# 6 -0.009826 0.004060 -0.003258 0.014360 -0.013682 0.042691
#
#
# Mechanical properties :
#
#
# Convention : Reuss Voigt Hill
#
# Bulk Modulus (GPa) = 46.87664 62.56319 54.71992
# Shear Modulus (GPa) = 26.74075 35.74621 31.24348
#
# Velocity S-wave (km/s) = 3.38975 3.91918 3.66404
# Velocity P-wave (km/s) = 5.95510 6.88209 6.43531
#
# Compressibility (1/GPa) = 0.02133258
#
# Stress axis : x y z
#
# Youngs Moduli (GPa) = 74.59836 75.07713 54.50912
#
# Poissons Ratio (x) = 0.17022 0.15822
# Poissons Ratio (y) = 0.16914 0.36516
# Poissons Ratio (z) = 0.21653 0.50294
#
# Static dielectric constant tensor:
#      x y z
#    x 2.014690 0.080280 0.028220 
#    y 0.080280 1.941990 0.036000 
#    z 0.028220 0.036000 1.898620 
# 
# From -- ./inp_files/417528.got.cif
#   From: 2010.05.17/outbox.cif.g08.bks.cpg/sg2_209_cif.got.tgz:417528.got - 2010.06.03 11:33:40.
