data_PCOD9090964
_publ_section_title
;
Structure prediction by ZEFSAII (Michael W. Deem and Ramdas Pophale) SiO2 
 PCOD9090964
Probable space group: P -1
;
_chemical_formula_sum "Si O2"
_cell_formula_units_Z 15
_cell_length_a 4.884114
_cell_length_b 14.166892
_cell_length_c 16.066309
_cell_angle_alpha 141.208238
_cell_angle_beta 118.290206
_cell_angle_gamma 58.523519
_cell_volume 589.290337
_symmetry_space_group_name_H-M "P -1"
_symmetry_group_IT_number 2
_symmetry_cell_setting 'triclinic'
loop_
_space_group_symop_operation_xyz
x,y,z
-x,-y,-z
loop_
_atom_site_type_symbol
_atom_site_label
_atom_site_fract_x
_atom_site_fract_y
_atom_site_fract_z
Si Si1 0.317033 0.211069 0.841694
Si Si2 0.578581 0.858256 0.998437
Si Si3 0.210365 0.600271 0.926648
Si Si4 0.286938 0.101801 0.362531
Si Si5 0.900088 0.577678 0.361063
Si Si6 0.000000 0.500000 0.000000
Si Si7 0.425135 0.845542 0.731736
Si Si8 0.387503 0.604860 0.690186
O O1 0.435471 0.151518 0.909465
O O2 0.448729 0.064332 0.701431
O O3 0.459171 0.366950 0.968184
O O4 0.955403 0.314223 0.852890
O O5 0.469158 0.048404 0.108825
O O6 0.384719 0.750245 0.852099
O O7 0.954679 0.763326 0.972138
O O8 0.286477 0.488539 0.782135
O O9 0.025816 0.529755 0.920796
O O10 0.244225 0.240367 0.516781
O O11 0.361683 0.169531 0.330128
O O12 0.943479 0.063842 0.282373
O O13 0.874238 0.476704 0.370489
O O14 0.270069 0.527286 0.349090
O O15 0.383328 0.686682 0.656441
#
# Coordination Sequence:
#
# PCOD9090964 Si02
#       8
#     2   2   2   2   2   1   2   2
#     4  10  19  39  62  87 118 151 196 244 302 364
#     4   9  19  35  57  90 120 158 201 253 301 347
#     4  10  19  39  62  87 118 151 196 244 302 364
#     4  11  24  40  60  87 125 166 199 243 301 356
#     4  11  24  40  60  87 125 166 199 243 301 356
#     4  10  22  36  68  96 110 144 198 252 300 362
#     4  11  22  37  60  88 123 164 211 254 289 341
#     4  11  22  37  60  88 123 164 211 254 289 341
#
# _framework density 25.454346999999999
#
# number of rings (size 3 to 8) (size 9 to 14) (size 15 to 20)
#    0.000    1.600    2.667    2.400    0.000    3.200 
#    0.000    4.667    0.000    1.600    0.000    0.000 
#    0.000    0.000    0.000    0.000    0.000    0.000 
#
# Total GULP energy -83612.378843 kJ/mol
# GULP energy per Si atom -5574.158590 kJ/mol
# Density = 2.539641 g / cm^3
# Si number density = 25.454347 Si / 1000 Ang^3
#
#
#
# Elastic Constant Matrix: (Units=GPa)
#
#
# Indices 1 2 3 4 5 6 
#
# 1 102.1550 -2.1713 17.0221 -6.6438 -13.2227 15.7256
# 2 -2.1713 58.0175 31.7533 25.3557 -8.7168 -2.3243
# 3 17.0221 31.7533 169.0381 44.9410 -20.7027 1.2623
# 4 -6.6438 25.3557 44.9410 39.8603 -4.2557 -5.7170
# 5 -13.2227 -8.7168 -20.7027 -4.2557 30.2748 3.4805
# 6 15.7256 -2.3243 1.2623 -5.7170 3.4805 37.1388
#
#
#
# Elastic Compliance Matrix: (Units=1/GPa)
#
#
# Indices 1 2 3 4 5 6 
#
# 1 0.011666 0.000441 -0.001403 0.003108 0.005261 -0.004879
# 2 0.000441 0.024662 0.000067 -0.015334 0.005357 -0.001508
# 3 -0.001403 0.000067 0.009470 -0.010723 0.004582 -0.001804
# 4 0.003108 -0.015334 -0.010723 0.047827 -0.004341 0.005858
# 5 0.005261 0.005357 0.004582 -0.004341 0.040139 -0.006478
# 6 -0.004879 -0.001508 -0.001804 0.005858 -0.006478 0.030468
#
#
# Mechanical properties :
#
#
# Convention : Reuss Voigt Hill
#
# Bulk Modulus (GPa) = 22.72260 46.93541 34.82900
# Shear Modulus (GPa) = 27.67150 40.29521 33.98336
#
# Velocity S-wave (km/s) = 3.30070 3.98306 3.65783
# Velocity P-wave (km/s) = 4.84483 6.29540 5.61714
#
# Compressibility (1/GPa) = 0.04400905
#
# Stress axis : x y z
#
# Youngs Moduli (GPa) = 85.71647 40.54804 105.59517
#
# Poissons Ratio (x) = -0.01790 0.14817
# Poissons Ratio (y) = -0.03783 -0.00708
# Poissons Ratio (z) = 0.12028 -0.00272
#
# Static dielectric constant tensor:
#      x y z
#    x 2.584620 -0.437380 -0.134900 
#    y -0.437380 2.577140 0.151260 
#    z -0.134900 0.151260 2.070660 
# 
# From -- ./inp_files/44719.got.cif
#   From: 2010.05.17/outbox.cif.g08.bks.cpg/sg2_23_cif.got.tgz:44719.got - 2010.06.03 11:33:40.
