data_PCOD9090229
_publ_section_title
;
Structure prediction by ZEFSAII (Michael W. Deem and Ramdas Pophale) SiO2 
 PCOD9090229
Probable space group: P -1
;
_chemical_formula_sum "Si O2"
_cell_formula_units_Z 16
_cell_length_a 15.898859
_cell_length_b 12.353199
_cell_length_c 11.203372
_cell_angle_alpha 114.548302
_cell_angle_beta 98.381513
_cell_angle_gamma 26.074330
_cell_volume 723.546479
_symmetry_space_group_name_H-M "P -1"
_symmetry_group_IT_number 2
_symmetry_cell_setting 'triclinic'
loop_
_space_group_symop_operation_xyz
x,y,z
-x,-y,-z
loop_
_atom_site_type_symbol
_atom_site_label
_atom_site_fract_x
_atom_site_fract_y
_atom_site_fract_z
Si Si1 0.507096 0.690982 0.820042
Si Si2 0.912494 0.277776 0.860008
Si Si3 0.235507 0.569801 0.843034
Si Si4 0.491862 0.480850 0.850120
Si Si5 0.036958 0.745430 0.636003
Si Si6 0.757535 0.747370 0.075915
Si Si7 0.458805 0.044033 0.368966
Si Si8 0.196643 0.761079 0.532256
O O1 0.726722 0.432336 0.830800
O O2 0.392518 0.727740 0.877504
O O3 0.572941 0.556775 0.641568
O O4 0.398284 0.962722 0.904158
O O5 0.911502 0.239703 0.979208
O O6 0.819961 0.532608 0.949210
O O7 0.143140 0.949409 0.681349
O O8 0.340294 0.561555 0.831900
O O9 0.085693 0.702979 0.767923
O O10 0.461717 0.193746 0.748641
O O11 0.500000 0.500000 0.000000
O O12 0.767070 0.097278 0.702861
O O13 0.191613 0.433017 0.477550
O O14 0.163840 0.694208 0.582971
O O15 0.627214 0.900530 0.248214
O O16 0.000000 0.500000 0.000000
O O17 0.500000 0.000000 0.500000
O O18 0.000000 0.000000 0.500000
#
# Coordination Sequence:
#
# PCOD9090229 Si02
#       8
#     2   2   2   2   2   2   2   2
#     4  11  22  42  64  92 136 166 217 279 327 396
#     4  10  21  43  65  93 130 172 216 271 340 391
#     4  10  23  42  65  99 134 174 225 271 333 396
#     4  12  24  41  64 101 132 170 231 274 327 401
#     4  11  21  41  71  89 134 180 213 278 334 393
#     4  11  24  42  68  97 131 175 224 277 329 401
#     4   9  21  43  66  93 135 177 219 271 341 399
#     4  10  19  38  64  93 122 173 215 261 342 383
#
# _framework density 22.113299999999999
#
# number of rings (size 3 to 8) (size 9 to 14) (size 15 to 20)
#    0.000    1.500    5.000    0.375    0.000    6.500 
#    4.500    1.250    0.000    0.000    0.000    0.000 
#    0.000    0.000    0.000    0.000    0.000    0.000 
#
# Total GULP energy -89222.871797 kJ/mol
# GULP energy per Si atom -5576.429487 kJ/mol
# Density = 2.206297 g / cm^3
# Si number density = 22.113300 Si / 1000 Ang^3
#
#
#
# Elastic Constant Matrix: (Units=GPa)
#
#
# Indices 1 2 3 4 5 6 
#
# 1 136.0185 33.3195 42.1005 8.6963 7.2094 17.5573
# 2 33.3195 51.1229 10.4885 -0.5100 0.6674 11.5899
# 3 42.1005 10.4885 100.9957 -5.5617 10.3645 8.1465
# 4 8.6963 -0.5100 -5.5617 29.0786 10.0439 0.1062
# 5 7.2094 0.6674 10.3645 10.0439 24.1379 0.7046
# 6 17.5573 11.5899 8.1465 0.1062 0.7046 43.4985
#
#
#
# Elastic Compliance Matrix: (Units=1/GPa)
#
#
# Indices 1 2 3 4 5 6 
#
# 1 0.010415 -0.005590 -0.003876 -0.004112 0.000477 -0.001986
# 2 -0.005590 0.024127 0.000269 0.002117 0.000130 -0.004230
# 3 -0.003876 0.000269 0.012558 0.005870 -0.006662 -0.000765
# 4 -0.004112 0.002117 0.005870 0.043499 -0.019457 0.000205
# 5 0.000477 0.000130 -0.006662 -0.019457 0.052233 0.000222
# 6 -0.001986 -0.004230 -0.000765 0.000205 0.000222 0.025057
#
#
# Mechanical properties :
#
#
# Convention : Reuss Voigt Hill
#
# Bulk Modulus (GPa) = 34.83587 51.10601 42.97094
# Shear Modulus (GPa) = 25.52962 32.82491 29.17727
#
# Velocity S-wave (km/s) = 3.40147 3.85697 3.63636
# Velocity P-wave (km/s) = 5.58697 6.55714 6.09140
#
# Compressibility (1/GPa) = 0.02870604
#
# Stress axis : x y z
#
# Youngs Moduli (GPa) = 96.01594 41.44735 79.63097
#
# Poissons Ratio (x) = 0.23168 0.30866
# Poissons Ratio (y) = 0.53670 -0.02142
# Poissons Ratio (z) = 0.37218 -0.01115
#
# Static dielectric constant tensor:
#      x y z
#    x 1.816470 0.036470 -0.021030 
#    y 0.036470 1.922540 0.077080 
#    z -0.021030 0.077080 1.942170 
# 
# From -- ./inp_files/452579.got.cif
#   From: 2010.05.17/outbox.cif.g08.bks.cpg/sg2_227_cif.got.tgz:452579.got - 2010.06.03 11:33:40.
