data_PCOD9090159
_publ_section_title
;
Structure prediction by ZEFSAII (Michael W. Deem and Ramdas Pophale) SiO2 
 PCOD9090159
Probable space group: P -1
;
_chemical_formula_sum "Si O2"
_cell_formula_units_Z 16
_cell_length_a 8.290918
_cell_length_b 18.574049
_cell_length_c 7.143839
_cell_angle_alpha 81.330462
_cell_angle_beta 124.048410
_cell_angle_gamma 128.593141
_cell_volume 678.142163
_symmetry_space_group_name_H-M "P -1"
_symmetry_group_IT_number 2
_symmetry_cell_setting 'triclinic'
loop_
_space_group_symop_operation_xyz
x,y,z
-x,-y,-z
loop_
_atom_site_type_symbol
_atom_site_label
_atom_site_fract_x
_atom_site_fract_y
_atom_site_fract_z
Si Si1 0.453892 0.074140 0.974426
Si Si2 0.333543 0.396463 0.847402
Si Si3 0.901077 0.931308 0.779535
Si Si4 0.024968 0.430637 0.426616
Si Si5 0.420371 0.740004 0.076611
Si Si6 0.844735 0.786059 0.060852
Si Si7 0.295754 0.574047 0.240696
Si Si8 0.416553 0.896897 0.519895
O O1 0.595982 0.177738 0.930474
O O2 0.544702 0.109467 0.233793
O O3 0.500000 0.000000 0.000000
O O4 0.143587 0.001263 0.774796
O O5 0.306528 0.326485 0.009263
O O6 0.493258 0.403719 0.774927
O O7 0.081880 0.376116 0.617439
O O8 0.500000 0.500000 0.000000
O O9 0.628924 0.898168 0.558913
O O10 0.867844 0.841501 0.871853
O O11 0.000000 0.000000 0.000000
O O12 0.788861 0.344673 0.175311
O O13 0.000000 0.500000 0.500000
O O14 0.267487 0.513138 0.420509
O O15 0.694532 0.793041 0.126382
O O16 0.376029 0.679265 0.256074
O O17 0.122801 0.826584 0.293248
O O18 0.000000 0.500000 0.000000
O O19 0.500000 0.000000 0.500000
#
# Coordination Sequence:
#
# PCOD9090159 Si02
#       8
#     2   2   2   2   2   2   2   2
#     4  11  22  40  61  92 135 170 208 263 321 374
#     4  11  23  39  64  97 130 168 216 264 324 402
#     4  10  19  38  64  87 125 162 210 260 306 369
#     4  11  22  42  67  95 125 168 215 274 336 388
#     4  10  20  40  65  91 129 167 211 266 325 389
#     4  11  20  38  68  91 120 167 220 256 316 376
#     4   9  20  39  64  86 125 164 207 269 327 380
#     4  11  19  37  67  89 117 172 216 256 314 372
#
# _framework density 23.593874
#
# number of rings (size 3 to 8) (size 9 to 14) (size 15 to 20)
#    0.000    1.500    5.000    3.375    0.000    0.000 
#    6.750    2.500    5.500    0.000    0.000    0.000 
#    0.000    0.000    0.000    0.000    0.000    0.000 
#
# Total GULP energy -89256.021779 kJ/mol
# GULP energy per Si atom -5578.501361 kJ/mol
# Density = 2.354017 g / cm^3
# Si number density = 23.593874 Si / 1000 Ang^3
#
#
#
# Elastic Constant Matrix: (Units=GPa)
#
#
# Indices 1 2 3 4 5 6 
#
# 1 50.7196 31.7348 22.1536 11.6002 22.3047 -12.1315
# 2 31.7348 200.9049 24.2915 -27.6379 6.4235 -20.5174
# 3 22.1536 24.2915 89.7563 -0.1866 21.7693 -7.4744
# 4 11.6002 -27.6379 -0.1866 36.6803 0.1057 6.7927
# 5 22.3047 6.4235 21.7693 0.1057 36.1420 -3.7009
# 6 -12.1315 -20.5174 -7.4744 6.7927 -3.7009 33.2972
#
#
#
# Elastic Compliance Matrix: (Units=1/GPa)
#
#
# Indices 1 2 3 4 5 6 
#
# 1 0.043358 -0.007564 -0.002129 -0.021681 -0.022783 0.012549
# 2 -0.007564 0.007277 -0.001029 0.007793 0.004008 0.000353
# 3 -0.002129 -0.001029 0.013628 -0.000190 -0.006614 0.000953
# 4 -0.021681 0.007793 -0.000190 0.041898 0.010914 -0.010474
# 5 -0.022783 0.004008 -0.006614 0.010914 0.044498 -0.004597
# 6 0.012549 0.000353 0.000953 -0.010474 -0.004597 0.036662
#
#
# Mechanical properties :
#
#
# Convention : Reuss Voigt Hill
#
# Bulk Modulus (GPa) = 23.35373 55.30454 39.32913
# Shear Modulus (GPa) = 22.41777 38.77061 30.59419
#
# Velocity S-wave (km/s) = 3.08580 4.05810 3.60488
# Velocity P-wave (km/s) = 4.75562 6.74156 5.83372
#
# Compressibility (1/GPa) = 0.04281971
#
# Stress axis : x y z
#
# Youngs Moduli (GPa) = 23.06369 137.42719 73.37687
#
# Poissons Ratio (x) = 1.03949 0.15621
# Poissons Ratio (y) = 0.17445 0.07550
# Poissons Ratio (z) = 0.04910 0.14139
#
# Static dielectric constant tensor:
#      x y z
#    x 1.954490 0.031570 0.006100 
#    y 0.031570 1.929220 -0.033410 
#    z 0.006100 -0.033410 1.907970 
# 
# From -- ./inp_files/217373.got.cif
#   From: 2010.05.17/outbox.cif.g08.bks.cpg/sg2_109_cif.got.tgz:217373.got - 2010.06.03 11:33:40.
