data_PCOD9090913
_publ_section_title
;
Structure prediction by ZEFSAII (Michael W. Deem and Ramdas Pophale) SiO2 
 PCOD9090913
Probable space group: P -1
;
_chemical_formula_sum "Si O2"
_cell_formula_units_Z 16
_cell_length_a 7.343663
_cell_length_b 8.128157
_cell_length_c 14.833706
_cell_angle_alpha 70.000543
_cell_angle_beta 129.867269
_cell_angle_gamma 96.522321
_cell_volume 631.725731
_symmetry_space_group_name_H-M "P -1"
_symmetry_group_IT_number 2
_symmetry_cell_setting 'triclinic'
loop_
_space_group_symop_operation_xyz
x,y,z
-x,-y,-z
loop_
_atom_site_type_symbol
_atom_site_label
_atom_site_fract_x
_atom_site_fract_y
_atom_site_fract_z
Si Si1 0.486209 0.059696 0.382146
Si Si2 0.172961 0.268858 0.459226
Si Si3 0.906435 0.061712 0.817541
Si Si4 0.259209 0.733908 0.803613
Si Si5 0.686043 0.416266 0.337409
Si Si6 0.673935 0.923396 0.941007
Si Si7 0.085420 0.482569 0.928736
Si Si8 0.669314 0.444515 0.665506
O O1 0.661466 0.901541 0.418173
O O2 0.500000 0.000000 0.500000
O O3 0.995731 0.204937 0.338160
O O4 0.593309 0.237780 0.373203
O O5 0.334788 0.402057 0.439667
O O6 0.972559 0.380638 0.435976
O O7 0.805878 0.255448 0.710700
O O8 0.775194 0.045325 0.875429
O O9 0.781331 0.926389 0.744093
O O10 0.190865 0.029052 0.933374
O O11 0.373931 0.590214 0.788629
O O12 0.401586 0.897488 0.838289
O O13 0.236245 0.624951 0.907813
O O14 0.560224 0.559344 0.341398
O O15 0.787986 0.718001 0.004035
O O16 0.856786 0.499097 0.788177
O O17 0.000000 0.500000 0.000000
#
# Coordination Sequence:
#
# PCOD9090913 Si02
#       8
#     2   2   2   2   2   2   2   2
#     4  12  22  40  69  95 121 173 212 265 320 378
#     4   9  21  37  65  93 123 160 219 260 313 371
#     4  10  23  37  64  90 136 166 211 260 322 385
#     4   9  19  35  64  92 127 161 208 268 305 373
#     4  10  20  38  67  90 127 160 217 264 308 379
#     4  10  19  39  61  90 128 174 199 261 324 364
#     4  10  20  32  63  96 124 167 217 256 311 381
#     4  10  20  40  59  93 124 171 207 260 323 374
#
# _framework density 25.327449000000001
#
# number of rings (size 3 to 8) (size 9 to 14) (size 15 to 20)
#    0.750    1.250    2.500    1.500    0.000    0.500 
#    0.000    0.625    8.250    5.250    0.000    0.000 
#    0.000    0.000    0.000    0.000    0.000    0.000 
#
# Total GULP energy -89322.721170 kJ/mol
# GULP energy per Si atom -5582.670073 kJ/mol
# Density = 2.526980 g / cm^3
# Si number density = 25.327449 Si / 1000 Ang^3
#
#
#
# Elastic Constant Matrix: (Units=GPa)
#
#
# Indices 1 2 3 4 5 6 
#
# 1 81.0137 33.2514 12.6936 16.4629 -1.4828 7.0024
# 2 33.2514 46.2441 17.4524 3.4581 3.0956 10.9499
# 3 12.6936 17.4524 74.1171 7.9671 5.4926 14.6549
# 4 16.4629 3.4581 7.9671 44.6535 13.4953 5.3053
# 5 -1.4828 3.0956 5.4926 13.4953 49.2204 10.5554
# 6 7.0024 10.9499 14.6549 5.3053 10.5554 50.9230
#
#
#
# Elastic Compliance Matrix: (Units=1/GPa)
#
#
# Indices 1 2 3 4 5 6 
#
# 1 0.019500 -0.013922 0.000418 -0.007226 0.003344 0.000252
# 2 -0.013922 0.034365 -0.005244 0.004605 -0.002412 -0.003946
# 3 0.000418 -0.005244 0.015514 -0.002100 -0.000138 -0.003147
# 4 -0.007226 0.004605 -0.002100 0.027472 -0.007662 -0.000666
# 5 0.003344 -0.002412 -0.000138 -0.007662 0.023540 -0.003982
# 6 0.000252 -0.003946 -0.003147 -0.000666 -0.003982 0.022252
#
#
# Mechanical properties :
#
#
# Convention : Reuss Voigt Hill
#
# Bulk Modulus (GPa) = 31.36471 36.46328 33.91399
# Shear Modulus (GPa) = 26.21006 38.15789 32.18398
#
# Velocity S-wave (km/s) = 3.22040 3.88568 3.56858
# Velocity P-wave (km/s) = 5.12235 5.87872 5.51352
#
# Compressibility (1/GPa) = 0.03188297
#
# Stress axis : x y z
#
# Youngs Moduli (GPa) = 51.28130 29.09907 64.45952
#
# Poissons Ratio (x) = 0.40512 -0.02693
# Poissons Ratio (y) = 0.71395 0.33801
# Poissons Ratio (z) = -0.02142 0.15259
#
# Static dielectric constant tensor:
#      x y z
#    x 2.114870 -0.018350 0.068730 
#    y -0.018350 2.027730 0.111380 
#    z 0.068730 0.111380 2.039380 
# 
# From -- ./inp_files/547090.got.cif
#   From: 2010.05.17/outbox.cif.g08.bks.cpg/sg2_274_cif.got.tgz:547090.got - 2010.06.03 11:33:40.
