data_PCOD9090967
_publ_section_title
;
Structure prediction by ZEFSAII (Michael W. Deem and Ramdas Pophale) SiO2 
 PCOD9090967
Probable space group: P -1
;
_chemical_formula_sum "Si O2"
_cell_formula_units_Z 16
_cell_length_a 12.275799
_cell_length_b 12.427240
_cell_length_c 11.513359
_cell_angle_alpha 76.029799
_cell_angle_beta 35.109680
_cell_angle_gamma 100.381137
_cell_volume 721.761821
_symmetry_space_group_name_H-M "P -1"
_symmetry_group_IT_number 2
_symmetry_cell_setting 'triclinic'
loop_
_space_group_symop_operation_xyz
x,y,z
-x,-y,-z
loop_
_atom_site_type_symbol
_atom_site_label
_atom_site_fract_x
_atom_site_fract_y
_atom_site_fract_z
Si Si1 0.236976 0.509053 0.765265
Si Si2 0.185044 0.094459 0.659243
Si Si3 0.820152 0.074927 0.698247
Si Si4 0.639645 0.173180 0.687263
Si Si5 0.735816 0.430179 0.684033
Si Si6 0.679129 0.597783 0.499999
Si Si7 0.377054 0.148490 0.721205
Si Si8 0.338884 0.185667 0.265731
O O1 0.375625 0.499328 0.754656
O O2 0.187965 0.407706 0.726575
O O3 0.473719 0.677915 0.469547
O O4 0.000000 0.500000 0.000000
O O5 0.203257 0.233760 0.629555
O O6 0.288485 0.076877 0.690050
O O7 0.374449 0.148560 0.371511
O O8 0.883768 0.943242 0.951491
O O9 0.869687 0.197400 0.538079
O O10 0.079255 0.150674 0.516645
O O11 0.731754 0.939580 0.728685
O O12 0.598963 0.992085 0.009108
O O13 0.656157 0.301934 0.694309
O O14 0.585107 0.156358 0.604285
O O15 0.722436 0.536784 0.591147
O O16 0.000000 0.500000 0.500000
O O17 0.540297 0.342977 0.985182
#
# Coordination Sequence:
#
# PCOD9090967 Si02
#       8
#     2   2   2   2   2   2   2   2
#     4  10  22  43  70  98 132 176 225 268 328 410
#     4  10  22  39  66  93 128 167 218 270 330 386
#     4   9  20  35  63  89 119 164 211 270 325 380
#     4  10  19  39  62  87 123 167 215 262 327 395
#     4  11  25  39  62  92 133 178 219 269 330 400
#     4  10  23  43  66  94 135 182 211 277 341 378
#     4  10  20  40  65  90 124 171 205 273 325 383
#     4  10  21  40  61  92 126 165 220 272 322 398
#
# _framework density 22.167978000000002
#
# number of rings (size 3 to 8) (size 9 to 14) (size 15 to 20)
#    0.000    2.000    2.500    0.000    1.750    4.500 
#    0.000    5.000    0.000    0.000    0.000    0.000 
#    0.000    0.000    0.000    0.000    0.000    0.000 
#
# Total GULP energy -89120.516383 kJ/mol
# GULP energy per Si atom -5570.032274 kJ/mol
# Density = 2.211752 g / cm^3
# Si number density = 22.167978 Si / 1000 Ang^3
#
#
#
# Elastic Constant Matrix: (Units=GPa)
#
#
# Indices 1 2 3 4 5 6 
#
# 1 143.3220 18.8709 32.0467 4.3865 23.0605 -16.2368
# 2 18.8709 43.7108 23.3187 -1.1628 -9.0358 -2.4408
# 3 32.0467 23.3187 79.9995 -7.4169 8.7575 3.6883
# 4 4.3865 -1.1628 -7.4169 25.1509 -4.4115 4.9003
# 5 23.0605 -9.0358 8.7575 -4.4115 28.9596 -3.7326
# 6 -16.2368 -2.4408 3.6883 4.9003 -3.7326 30.8984
#
#
#
# Elastic Compliance Matrix: (Units=1/GPa)
#
#
# Indices 1 2 3 4 5 6 
#
# 1 0.010411 -0.004963 -0.002445 -0.005385 -0.009262 0.005106
# 2 -0.004963 0.034412 -0.010013 0.002117 0.018452 0.003199
# 3 -0.002445 -0.010013 0.017866 0.005221 -0.006536 -0.005826
# 4 -0.005385 0.002117 0.005221 0.045777 0.009126 -0.009444
# 5 -0.009262 0.018452 -0.006536 0.009126 0.051303 0.002121
# 6 0.005106 0.003199 -0.005826 -0.009444 0.002121 0.037749
#
#
# Mechanical properties :
#
#
# Convention : Reuss Voigt Hill
#
# Bulk Modulus (GPa) = 35.91147 46.16722 41.03934
# Shear Modulus (GPa) = 20.69168 29.85486 25.27327
#
# Velocity S-wave (km/s) = 3.05848 3.67380 3.38017
# Velocity P-wave (km/s) = 5.35792 6.23434 5.81267
#
# Compressibility (1/GPa) = 0.02784626
#
# Stress axis : x y z
#
# Youngs Moduli (GPa) = 96.05352 29.06005 55.97150
#
# Poissons Ratio (x) = 0.14423 0.13683
# Poissons Ratio (y) = 0.47673 0.56047
# Poissons Ratio (z) = 0.23481 0.29099
#
# Static dielectric constant tensor:
#      x y z
#    x 1.933470 -0.032090 0.004840 
#    y -0.032090 1.833920 0.024720 
#    z 0.004840 0.024720 1.871690 
# 
# From -- ./inp_files/239976.got.cif
#   From: 2010.05.17/outbox.cif.g08.bks.cpg/sg2_120_cif.got.tgz:239976.got - 2010.06.03 11:33:40.
