data_PCOD9090050
_publ_section_title
;
Structure prediction by ZEFSAII (Michael W. Deem and Ramdas Pophale) SiO2 
 PCOD9090050
Probable space group: P -1
;
_chemical_formula_sum "Si O2"
_cell_formula_units_Z 10
_cell_length_a 10.604381
_cell_length_b 9.016979
_cell_length_c 10.353081
_cell_angle_alpha 141.634670
_cell_angle_beta 38.527133
_cell_angle_gamma 141.461454
_cell_volume 344.317022
_symmetry_space_group_name_H-M "P -1"
_symmetry_group_IT_number 2
_symmetry_cell_setting 'triclinic'
loop_
_space_group_symop_operation_xyz
x,y,z
-x,-y,-z
loop_
_atom_site_type_symbol
_atom_site_label
_atom_site_fract_x
_atom_site_fract_y
_atom_site_fract_z
Si Si1 0.719750 0.408691 0.016416
Si Si2 0.204044 0.201128 0.556908
Si Si3 0.691973 0.623957 0.822077
Si Si4 0.351664 0.797967 0.800593
Si Si5 0.909361 0.294346 0.282065
O O1 0.797064 0.695656 0.225396
O O2 0.456680 0.299586 0.111143
O O3 0.743348 0.240922 0.004812
O O4 0.893118 0.481142 0.809531
O O5 0.291205 0.484949 0.607530
O O6 0.382581 0.078497 0.330722
O O7 0.000000 0.000000 0.500000
O O8 0.749576 0.395468 0.554977
O O9 0.943348 0.786921 0.793565
O O10 0.500000 0.500000 0.000000
O O11 0.252323 0.894618 0.828677
#
# Coordination Sequence:
#
# PCOD9090050 Si02
#       5
#     2   2   2   2   2
#     4   9  17  30  49  73 100 130 161 201 246 288
#     4   9  17  30  50  73 103 132 159 198 247 289
#     4   9  17  27  45  76 100 128 164 200 246 293
#     4   9  17  31  51  74  98 128 166 202 241 286
#     4  10  16  28  50  75  99 126 167 204 239 293
#
# _framework density 29.043002999999999
#
# number of rings (size 3 to 8) (size 9 to 14) (size 15 to 20)
#    1.200    1.600    2.000    0.600    0.000    0.000 
#    0.000    1.000    0.000    1.200    0.000   19.600 
#    0.000    0.000    0.000    0.000    0.000    0.000 
#
# Total GULP energy -55848.680680 kJ/mol
# GULP energy per Si atom -5584.868068 kJ/mol
# Density = 2.897690 g / cm^3
# Si number density = 29.043003 Si / 1000 Ang^3
#
#
#
# Elastic Constant Matrix: (Units=GPa)
#
#
# Indices 1 2 3 4 5 6 
#
# 1 180.3289 32.0753 56.6119 -1.4828 -27.9194 58.7208
# 2 32.0753 130.6806 5.6631 -2.7441 16.1253 49.2915
# 3 56.6119 5.6631 184.2441 -26.4555 4.0603 9.3438
# 4 -1.4828 -2.7441 -26.4555 36.9133 20.2913 10.2349
# 5 -27.9194 16.1253 4.0603 20.2913 58.1602 -7.4494
# 6 58.7208 49.2915 9.3438 10.2349 -7.4494 87.3509
#
#
#
# Elastic Compliance Matrix: (Units=1/GPa)
#
#
# Indices 1 2 3 4 5 6 
#
# 1 0.008960 -0.001414 -0.003253 -0.004249 0.005907 -0.003875
# 2 -0.001414 0.012078 0.001928 0.008948 -0.008286 -0.007826
# 3 -0.003253 0.001928 0.007928 0.009440 -0.006120 -0.001377
# 4 -0.004249 0.008948 0.009440 0.050860 -0.024363 -0.011239
# 5 0.005907 -0.008286 -0.006120 -0.024363 0.032145 0.006956
# 6 -0.003875 -0.007826 -0.001377 -0.011239 0.006956 0.020527
#
#
# Mechanical properties :
#
#
# Convention : Reuss Voigt Hill
#
# Bulk Modulus (GPa) = 42.57880 75.99490 59.28685
# Shear Modulus (GPa) = 34.29198 63.21176 48.75187
#
# Velocity S-wave (km/s) = 3.43990 4.67035 4.10153
# Velocity P-wave (km/s) = 5.51994 7.43680 6.54888
#
# Compressibility (1/GPa) = 0.02348587
#
# Stress axis : x y z
#
# Youngs Moduli (GPa) = 111.60902 82.79398 126.13194
#
# Poissons Ratio (x) = 0.11711 0.41035
# Poissons Ratio (y) = 0.15787 -0.24314
# Poissons Ratio (z) = 0.36310 -0.15960
#
# Static dielectric constant tensor:
#      x y z
#    x 2.332810 0.050090 -0.055970 
#    y 0.050090 2.380580 0.150170 
#    z -0.055970 0.150170 2.290020 
# 
# From -- ./inp_files/213939.got.cif
#   From: 2010.05.17/outbox.cif.g08.bks.cpg/sg2_107_cif.got.tgz:213939.got - 2010.06.03 11:33:40.
