data_PCOD9090072
_publ_section_title
;
Structure prediction by ZEFSAII (Michael W. Deem and Ramdas Pophale) SiO2 
 PCOD9090072
Probable space group: P -1
;
_chemical_formula_sum "Si O2"
_cell_formula_units_Z 16
_cell_length_a 12.719200
_cell_length_b 9.980103
_cell_length_c 20.151728
_cell_angle_alpha 53.286190
_cell_angle_beta 23.664385
_cell_angle_gamma 43.010946
_cell_volume 675.786199
_symmetry_space_group_name_H-M "P -1"
_symmetry_group_IT_number 2
_symmetry_cell_setting 'triclinic'
loop_
_space_group_symop_operation_xyz
x,y,z
-x,-y,-z
loop_
_atom_site_type_symbol
_atom_site_label
_atom_site_fract_x
_atom_site_fract_y
_atom_site_fract_z
Si Si1 0.429510 0.301934 0.962063
Si Si2 0.649644 0.550598 0.177055
Si Si3 0.633386 0.884106 0.324886
Si Si4 0.368721 0.313932 0.354337
Si Si5 0.366861 0.863036 0.346504
Si Si6 0.550441 0.878997 0.873141
Si Si7 0.640648 0.308117 0.065161
Si Si8 0.180688 0.527413 0.657141
O O1 0.496280 0.292132 0.848548
O O2 0.502164 0.457493 0.905303
O O3 0.427860 0.895836 0.014707
O O4 0.047270 0.429609 0.159723
O O5 0.575165 0.386279 0.248115
O O6 0.484829 0.644870 0.314218
O O7 0.000000 0.500000 0.000000
O O8 0.442068 0.883202 0.372023
O O9 0.730267 0.679567 0.368504
O O10 0.434848 0.105862 0.407581
O O11 0.978548 0.822856 0.119327
O O12 0.514511 0.242832 0.217525
O O13 0.000000 0.500000 0.500000
O O14 0.542852 0.935742 0.174967
O O15 0.000000 0.000000 0.500000
O O16 0.469108 0.737246 0.924951
O O17 0.933837 0.734063 0.700117
O O18 0.500000 0.500000 0.500000
#
# Coordination Sequence:
#
# PCOD9090072 Si02
#       8
#     2   2   2   2   2   2   2   2
#     4   8  20  37  57  91 123 167 200 260 321 375
#     4  11  24  41  63  94 135 168 208 271 328 381
#     4  11  22  39  69  93 120 168 224 260 309 392
#     4  11  23  40  61  96 132 164 207 274 328 372
#     4  12  24  39  65 100 122 166 222 262 320 388
#     4  10  21  35  64  92 122 163 214 266 313 374
#     4  10  19  38  63  92 121 165 219 258 312 384
#     4   9  19  37  60  92 128 162 210 262 324 376
#
# _framework density 23.676129
#
# number of rings (size 3 to 8) (size 9 to 14) (size 15 to 20)
#    0.750    1.000    1.250    4.500    1.750    0.500 
#    0.000    0.000    0.000    0.750    0.000    0.000 
#    0.000    0.000    0.000    0.000    0.000    0.000 
#
# Total GULP energy -89199.256102 kJ/mol
# GULP energy per Si atom -5574.953506 kJ/mol
# Density = 2.362224 g / cm^3
# Si number density = 23.676129 Si / 1000 Ang^3
#
#
#
# Elastic Constant Matrix: (Units=GPa)
#
#
# Indices 1 2 3 4 5 6 
#
# 1 69.0545 5.5952 -18.4861 -14.7123 -8.0367 18.8953
# 2 5.5952 81.3461 -7.9266 0.3962 10.4649 -1.3734
# 3 -18.4861 -7.9266 62.7412 -1.1225 -19.6905 20.1382
# 4 -14.7123 0.3962 -1.1225 27.1998 -4.2142 1.2442
# 5 -8.0367 10.4649 -19.6905 -4.2142 24.5291 -7.5610
# 6 18.8953 -1.3734 20.1382 1.2442 -7.5610 42.1442
#
#
#
# Elastic Compliance Matrix: (Units=1/GPa)
#
#
# Indices 1 2 3 4 5 6 
#
# 1 0.046554 -0.005924 0.037835 0.035160 0.044253 -0.032243
# 2 -0.005924 0.013807 -0.004875 -0.005567 -0.011618 0.003516
# 3 0.037835 -0.004875 0.055019 0.032692 0.053540 -0.034772
# 4 0.035160 -0.005567 0.032692 0.065113 0.043402 -0.025703
# 5 0.044253 -0.011618 0.053540 0.043402 0.101774 -0.028826
# 6 -0.032243 0.003516 -0.034772 -0.025703 -0.028826 0.050501
#
#
# Mechanical properties :
#
#
# Convention : Reuss Voigt Hill
#
# Bulk Modulus (GPa) = 5.90146 19.05631 12.47889
# Shear Modulus (GPa) = 14.91735 34.37189 24.64462
#
# Velocity S-wave (km/s) = 2.51282 3.81432 3.22981
# Velocity P-wave (km/s) = 3.30409 5.24070 4.38075
#
# Compressibility (1/GPa) = 0.16944958
#
# Stress axis : x y z
#
# Youngs Moduli (GPa) = 21.48065 72.42897 18.17559
#
# Poissons Ratio (x) = 0.42907 -0.68767
# Poissons Ratio (y) = 0.12725 0.08861
# Poissons Ratio (z) = -0.81271 0.35311
#
# Static dielectric constant tensor:
#      x y z
#    x 1.962250 -0.098340 -0.027610 
#    y -0.098340 2.036230 -0.043100 
#    z -0.027610 -0.043100 1.915070 
# 
# From -- ./inp_files/619261.got.cif
#   From: 2010.05.17/outbox.cif.g08.bks.cpg/sg2_310_cif.got.tgz:619261.got - 2010.06.03 11:33:40.
