data_PCOD9090542
_publ_section_title
;
Structure prediction by ZEFSAII (Michael W. Deem and Ramdas Pophale) SiO2 
 PCOD9090542
Probable space group: P -1
;
_chemical_formula_sum "Si O2"
_cell_formula_units_Z 16
_cell_length_a 27.671911
_cell_length_b 8.259728
_cell_length_c 27.849267
_cell_angle_alpha 37.892390
_cell_angle_beta 9.915527
_cell_angle_gamma 38.745371
_cell_volume 672.993396
_symmetry_space_group_name_H-M "P -1"
_symmetry_group_IT_number 2
_symmetry_cell_setting 'triclinic'
loop_
_space_group_symop_operation_xyz
x,y,z
-x,-y,-z
loop_
_atom_site_type_symbol
_atom_site_label
_atom_site_fract_x
_atom_site_fract_y
_atom_site_fract_z
Si Si1 0.236323 0.412805 0.345212
Si Si2 0.322770 0.747214 0.636215
Si Si3 0.404242 0.666319 0.415491
Si Si4 0.120637 0.227511 0.666066
Si Si5 0.842096 0.791665 0.170720
Si Si6 0.128406 0.367870 0.111943
Si Si7 0.564674 0.232297 0.159306
Si Si8 0.293354 0.838744 0.116710
O O1 0.405480 0.370206 0.238603
O O2 0.249559 0.707909 0.241928
O O3 0.920549 0.312303 0.674379
O O4 0.401210 0.235806 0.185202
O O5 0.500000 0.500000 0.500000
O O6 0.572160 0.911999 0.378423
O O7 0.169843 0.926182 0.704287
O O8 0.082134 0.680552 0.925609
O O9 0.297061 0.435442 0.608310
O O10 0.128008 0.762312 0.634939
O O11 0.521820 0.918750 0.268349
O O12 0.636567 0.573165 0.171286
O O13 0.009506 0.383521 0.784493
O O14 0.411621 0.320218 0.337748
O O15 0.892212 0.266267 0.838732
O O16 0.000000 0.000000 0.000000
O O17 0.239866 0.148198 0.091435
#
# Coordination Sequence:
#
# PCOD9090542 Si02
#       8
#     2   2   2   2   2   2   2   2
#     4  10  20  37  68 102 137 172 228 278 326 390
#     4  12  27  51  70  96 136 187 227 275 354 423
#     4  12  25  43  73  98 131 175 237 285 330 403
#     4  12  28  43  68  96 143 179 222 282 348 411
#     4  12  27  48  73 103 133 172 229 295 349 400
#     4  12  23  45  66 104 137 181 221 279 349 403
#     4  12  23  45  65 104 134 180 231 278 325 402
#     4  10  19  38  67 103 135 177 219 280 334 396
#
# _framework density 23.774381000000002
#
# number of rings (size 3 to 8) (size 9 to 14) (size 15 to 20)
#    0.000    0.500    2.500    6.000    0.000    4.000 
#    0.000    1.250    0.000    0.000    0.000    0.000 
#    0.000    0.000    0.000    0.000    0.000    0.000 
#
# Total GULP energy -89636.099509 kJ/mol
# GULP energy per Si atom -5602.256219 kJ/mol
# Density = 2.372027 g / cm^3
# Si number density = 23.774381 Si / 1000 Ang^3
#
#
#
# Elastic Constant Matrix: (Units=GPa)
#
#
# Indices 1 2 3 4 5 6 
#
# 1 78.0587 22.8891 24.8075 7.8102 12.6732 -10.3819
# 2 22.8891 77.0502 23.1090 16.6114 23.0337 -7.3195
# 3 24.8075 23.1090 124.9066 13.9175 12.8009 5.8899
# 4 7.8102 16.6114 13.9175 31.4059 3.6147 -3.4199
# 5 12.6732 23.0337 12.8009 3.6147 55.2033 4.7438
# 6 -10.3819 -7.3195 5.8899 -3.4199 4.7438 24.5097
#
#
#
# Elastic Compliance Matrix: (Units=1/GPa)
#
#
# Indices 1 2 3 4 5 6 
#
# 1 0.015763 -0.002328 -0.002722 -0.000412 -0.002598 0.007081
# 2 -0.002328 0.018146 -0.001684 -0.006948 -0.006634 0.005152
# 3 -0.002722 -0.001684 0.009429 -0.003045 -0.000291 -0.004290
# 4 -0.000412 -0.006948 -0.003045 0.037238 0.000961 0.003492
# 5 -0.002598 -0.006634 -0.000291 0.000961 0.022099 -0.007155
# 6 0.007081 0.005152 -0.004290 0.003492 -0.007155 0.048241
#
#
# Mechanical properties :
#
#
# Convention : Reuss Voigt Hill
#
# Bulk Modulus (GPa) = 33.47691 46.84743 40.16217
# Shear Modulus (GPa) = 28.67951 36.17110 32.42530
#
# Velocity S-wave (km/s) = 3.47698 3.90479 3.69708
# Velocity P-wave (km/s) = 5.49826 6.33069 5.92910
#
# Compressibility (1/GPa) = 0.02987133
#
# Stress axis : x y z
#
# Youngs Moduli (GPa) = 63.43811 55.10924 106.05088
#
# Poissons Ratio (x) = 0.12831 0.28864
# Poissons Ratio (y) = 0.14771 0.17855
# Poissons Ratio (z) = 0.17266 0.09278
#
# Static dielectric constant tensor:
#      x y z
#    x 1.963810 -0.015470 -0.014130 
#    y -0.015470 1.904790 -0.005500 
#    z -0.014130 -0.005500 1.857300 
# 
# From -- ./inp_files/621143.got.cif
#   From: 2010.05.17/outbox.cif.g08.bks.cpg/sg2_311_cif.got.tgz:621143.got - 2010.06.03 11:33:40.
