data_PCOD9090381
_publ_section_title
;
Structure prediction by ZEFSAII (Michael W. Deem and Ramdas Pophale) SiO2 
 PCOD9090381
Probable space group: P -1
;
_chemical_formula_sum "Si O2"
_cell_formula_units_Z 14
_cell_length_a 13.162581
_cell_length_b 9.645757
_cell_length_c 14.852389
_cell_angle_alpha 132.241684
_cell_angle_beta 150.701238
_cell_angle_gamma 35.920185
_cell_volume 537.559198
_symmetry_space_group_name_H-M "P -1"
_symmetry_group_IT_number 2
_symmetry_cell_setting 'triclinic'
loop_
_space_group_symop_operation_xyz
x,y,z
-x,-y,-z
loop_
_atom_site_type_symbol
_atom_site_label
_atom_site_fract_x
_atom_site_fract_y
_atom_site_fract_z
Si Si1 0.935145 0.774390 0.407975
Si Si2 0.656685 0.842938 0.838559
Si Si3 0.758536 0.169218 0.956951
Si Si4 0.466045 0.215195 0.460980
Si Si5 0.492541 0.516470 0.753955
Si Si6 0.223100 0.260117 0.918783
Si Si7 0.916881 0.710868 0.646719
O O1 0.191169 0.754222 0.620044
O O2 0.972653 0.559599 0.399431
O O3 0.646920 0.014431 0.304010
O O4 0.950421 0.708462 0.285672
O O5 0.698890 0.019555 0.902124
O O6 0.674470 0.689798 0.702465
O O7 0.832037 0.742593 0.019774
O O8 0.521202 0.362655 0.793697
O O9 0.843896 0.288520 0.140473
O O10 0.000000 0.000000 0.000000
O O11 0.541830 0.363277 0.636415
O O12 0.269052 0.216610 0.377007
O O13 0.726355 0.937656 0.533597
O O14 0.703510 0.560762 0.950886
O O15 0.500000 0.000000 0.000000
#
# Coordination Sequence:
#
# PCOD9090381 Si02
#       7
#     2   2   2   2   2   2   2
#     4  10  23  44  68  94 133 170 218 267 319 383
#     4  11  24  41  64  99 132 168 217 270 319 381
#     4  12  21  40  68  98 131 170 213 266 326 380
#     4  10  20  37  63  99 129 167 212 265 325 376
#     4  11  23  43  72  90 128 179 212 262 331 380
#     4  10  24  47  64  92 134 173 215 266 322 385
#     4  10  19  38  65  94 134 167 208 270 319 379
#
# _framework density 26.043642999999999
#
# number of rings (size 3 to 8) (size 9 to 14) (size 15 to 20)
#    0.000    1.429    4.286    1.714    0.000    5.714 
#    7.714    6.429    0.000    0.000    0.000    0.000 
#    0.000    0.000    0.000    0.000    0.000    0.000 
#
# Total GULP energy -78381.994527 kJ/mol
# GULP energy per Si atom -5598.713895 kJ/mol
# Density = 2.598437 g / cm^3
# Si number density = 26.043643 Si / 1000 Ang^3
#
#
#
# Elastic Constant Matrix: (Units=GPa)
#
#
# Indices 1 2 3 4 5 6 
#
# 1 105.4097 10.5232 17.1052 -6.8458 -21.8419 12.5944
# 2 10.5232 55.9423 -0.5194 -0.9960 -1.3161 4.7696
# 3 17.1052 -0.5194 107.6158 -12.8513 -12.7374 11.9228
# 4 -6.8458 -0.9960 -12.8513 49.4241 8.1631 -6.3144
# 5 -21.8419 -1.3161 -12.7374 8.1631 41.2081 -9.4992
# 6 12.5944 4.7696 11.9228 -6.3144 -9.4992 42.3563
#
#
#
# Elastic Compliance Matrix: (Units=1/GPa)
#
#
# Indices 1 2 3 4 5 6 
#
# 1 0.011093 -0.001832 -0.000962 0.000196 0.005105 -0.001647
# 2 -0.001832 0.018365 0.000516 0.000131 -0.000665 -0.001798
# 3 -0.000962 0.000516 0.010108 0.001963 0.001799 -0.001921
# 4 0.000196 0.000131 0.001963 0.021529 -0.003115 0.001885
# 5 0.005105 -0.000665 0.001799 -0.003115 0.029072 0.004106
# 6 -0.001647 -0.001798 -0.001921 0.001885 0.004106 0.026044
#
#
# Mechanical properties :
#
#
# Convention : Reuss Voigt Hill
#
# Bulk Modulus (GPa) = 28.56270 35.90953 32.23612
# Shear Modulus (GPa) = 37.75412 42.72164 40.23788
#
# Velocity S-wave (km/s) = 3.81156 4.05456 3.93494
# Velocity P-wave (km/s) = 5.51014 5.97808 5.74887
#
# Compressibility (1/GPa) = 0.03501069
#
# Stress axis : x y z
#
# Youngs Moduli (GPa) = 90.14552 54.45175 98.93244
#
# Poissons Ratio (x) = 0.09973 0.09516
# Poissons Ratio (y) = 0.16511 -0.05104
# Poissons Ratio (z) = 0.08671 -0.02809
#
# Static dielectric constant tensor:
#      x y z
#    x 2.055130 -0.032690 -0.003610 
#    y -0.032690 2.114530 -0.047110 
#    z -0.003610 -0.047110 2.032860 
# 
# From -- ./inp_files/516162.got.cif
#   From: 2010.05.17/outbox.cif.g08.bks.cpg/sg2_259_cif.got.tgz:516162.got - 2010.06.03 11:33:40.
