data_PCOD9090731
_publ_section_title
;
Structure prediction by ZEFSAII (Michael W. Deem and Ramdas Pophale) SiO2 
 PCOD9090731
Probable space group: P -1
;
_chemical_formula_sum "Si O2"
_cell_formula_units_Z 16
_cell_length_a 7.920622
_cell_length_b 16.681380
_cell_length_c 8.759274
_cell_angle_alpha 124.749127
_cell_angle_beta 126.196869
_cell_angle_gamma 74.809736
_cell_volume 762.524271
_symmetry_space_group_name_H-M "P -1"
_symmetry_group_IT_number 2
_symmetry_cell_setting 'triclinic'
loop_
_space_group_symop_operation_xyz
x,y,z
-x,-y,-z
loop_
_atom_site_type_symbol
_atom_site_label
_atom_site_fract_x
_atom_site_fract_y
_atom_site_fract_z
Si Si1 0.337991 0.753774 0.017922
Si Si2 0.235584 0.379216 0.179707
Si Si3 0.461998 0.390341 0.797222
Si Si4 0.305511 0.111579 0.581051
Si Si5 0.034336 0.385503 0.406297
Si Si6 0.322204 0.605364 0.414111
Si Si7 0.024435 0.759951 0.353092
Si Si8 0.706429 0.112410 0.609508
O O1 0.181119 0.682996 0.758369
O O2 0.450383 0.682480 0.114787
O O3 0.528600 0.831696 0.147198
O O4 0.207683 0.823307 0.128572
O O5 0.116229 0.359685 0.254367
O O6 0.219763 0.493119 0.253981
O O7 0.482446 0.375915 0.344108
O O8 0.134393 0.305718 0.917823
O O9 0.215996 0.370226 0.606183
O O10 0.582138 0.384809 0.695242
O O11 0.500000 0.500000 0.000000
O O12 0.453310 0.112085 0.507927
O O13 0.108581 0.172943 0.540951
O O14 0.247936 0.999478 0.476205
O O15 0.000000 0.500000 0.500000
O O16 0.155778 0.682340 0.418777
O O17 0.191078 0.832352 0.421710
#
# Coordination Sequence:
#
# PCOD9090731 Si02
#       8
#     2   2   2   2   2   2   2   2
#     4  10  19  39  56  84 117 154 191 244 289 350
#     4  10  22  36  52  85 124 161 190 245 284 355
#     4  11  21  33  58  85 119 160 197 237 290 352
#     4   9  21  35  66  87 112 156 198 253 298 351
#     4  11  21  34  57  82 118 162 196 231 293 352
#     4  10  22  36  53  84 125 155 199 237 288 360
#     4  12  20  37  65  84 116 158 197 243 309 340
#     4   9  19  40  60  91 113 147 209 246 299 354
#
# _framework density 20.982938000000001
#
# number of rings (size 3 to 8) (size 9 to 14) (size 15 to 20)
#    0.750    1.000    3.750    0.750    1.750    2.000 
#    0.000    0.000    0.000    9.000    0.000    0.000 
#    0.000    0.000    0.000    0.000    0.000    0.000 
#
# Total GULP energy -89317.902515 kJ/mol
# GULP energy per Si atom -5582.368907 kJ/mol
# Density = 2.093518 g / cm^3
# Si number density = 20.982938 Si / 1000 Ang^3
#
#
#
# Elastic Constant Matrix: (Units=GPa)
#
#
# Indices 1 2 3 4 5 6 
#
# 1 114.3735 64.6098 25.7549 0.8186 4.1312 -16.4220
# 2 64.6098 143.9206 84.3066 23.1917 2.8073 -28.7960
# 3 25.7549 84.3066 107.5489 7.8430 16.8659 -5.7268
# 4 0.8186 23.1917 7.8430 33.0025 2.3947 0.4802
# 5 4.1312 2.8073 16.8659 2.3947 15.3423 2.4510
# 6 -16.4220 -28.7960 -5.7268 0.4802 2.4510 37.9460
#
#
#
# Elastic Compliance Matrix: (Units=1/GPa)
#
#
# Indices 1 2 3 4 5 6 
#
# 1 0.013554 -0.010591 0.005990 0.006359 -0.009168 -0.000755
# 2 -0.010591 0.029905 -0.022480 -0.017248 0.022632 0.013474
# 3 0.005990 -0.022480 0.028885 0.011057 -0.029647 -0.008333
# 4 0.006359 -0.017248 0.011057 0.040901 -0.015790 -0.008166
# 5 -0.009168 0.022632 -0.029647 -0.015790 0.098149 0.002592
# 6 -0.000755 0.013474 -0.008333 -0.008166 0.002592 0.034930
#
#
# Mechanical properties :
#
#
# Convention : Reuss Voigt Hill
#
# Bulk Modulus (GPa) = 54.99681 79.46506 67.23094
# Shear Modulus (GPa) = 16.31077 30.00295 23.15686
#
# Velocity S-wave (km/s) = 2.79110 3.78547 3.32566
# Velocity P-wave (km/s) = 6.05426 7.55380 6.84522
#
# Compressibility (1/GPa) = 0.01818287
#
# Stress axis : x y z
#
# Youngs Moduli (GPa) = 73.77703 33.43919 34.62035
#
# Poissons Ratio (x) = 0.35414 -0.20737
# Poissons Ratio (y) = 0.78135 0.77826
# Poissons Ratio (z) = -0.44192 0.75171
#
# Static dielectric constant tensor:
#      x y z
#    x 1.830780 0.021600 -0.020240 
#    y 0.021600 1.726710 0.023260 
#    z -0.020240 0.023260 1.706930 
# 
# From -- ./inp_files/215626.got.cif
#   From: 2010.05.17/outbox.cif.g08.bks.cpg/sg2_108_cif.got.tgz:215626.got - 2010.06.03 11:33:40.
