data_PCOD9090857
_publ_section_title
;
Structure prediction by ZEFSAII (Michael W. Deem and Ramdas Pophale) SiO2 
 PCOD9090857
Probable space group: P -1
;
_chemical_formula_sum "Si O2"
_cell_formula_units_Z 12
_cell_length_a 11.782188
_cell_length_b 9.378394
_cell_length_c 10.087737
_cell_angle_alpha 121.767235
_cell_angle_beta 73.148304
_cell_angle_gamma 140.822916
_cell_volume 583.990208
_symmetry_space_group_name_H-M "P -1"
_symmetry_group_IT_number 2
_symmetry_cell_setting 'triclinic'
loop_
_space_group_symop_operation_xyz
x,y,z
-x,-y,-z
loop_
_atom_site_type_symbol
_atom_site_label
_atom_site_fract_x
_atom_site_fract_y
_atom_site_fract_z
Si Si1 0.569715 0.090294 0.744416
Si Si2 0.416595 0.212356 0.255426
Si Si3 0.251195 0.650279 0.453601
Si Si4 0.624451 0.780498 0.031333
Si Si5 0.781223 0.788469 0.450036
Si Si6 0.121519 0.889670 0.669074
O O1 0.716066 0.315643 0.698267
O O2 0.468647 0.141305 0.863668
O O3 0.630379 0.030147 0.809477
O O4 0.435708 0.835251 0.567873
O O5 0.638110 0.481102 0.325527
O O6 0.306803 0.204237 0.395386
O O7 0.361410 0.210007 0.126295
O O8 0.181994 0.762207 0.566960
O O9 0.097199 0.348895 0.394425
O O10 0.816484 0.986023 0.146142
O O11 0.500000 0.500000 0.000000
O O12 0.773471 0.889851 0.368181
O O13 0.000000 0.000000 0.500000
#
# Coordination Sequence:
#
# PCOD9090857 Si02
#       6
#     2   2   2   2   2   2
#     4  10  20  38  65  91 124 163 206 252 315 364
#     4  11  23  42  63  93 129 161 207 259 311 368
#     4   9  19  35  66  91 116 160 210 253 302 365
#     4  11  23  40  61  90 128 167 201 253 319 368
#     4  11  23  39  66  91 123 163 211 258 306 368
#     4  10  19  39  60  90 123 158 208 255 299 372
#
# _framework density 20.548289
#
# number of rings (size 3 to 8) (size 9 to 14) (size 15 to 20)
#    0.000    1.667    3.333    1.500    0.000    1.333 
#    3.000    2.500    0.000    0.000    0.000    0.000 
#    0.000    0.000    0.000    0.000    0.000    0.000 
#
# Total GULP energy -66963.018512 kJ/mol
# GULP energy per Si atom -5580.251543 kJ/mol
# Density = 2.050152 g / cm^3
# Si number density = 20.548289 Si / 1000 Ang^3
#
#
#
# Elastic Constant Matrix: (Units=GPa)
#
#
# Indices 1 2 3 4 5 6 
#
# 1 37.3214 10.3272 18.5285 -3.6192 8.9195 -4.4404
# 2 10.3272 96.6172 31.8005 -27.1667 3.3109 -4.4295
# 3 18.5285 31.8005 81.7461 -24.0658 18.7620 -4.7762
# 4 -3.6192 -27.1667 -24.0658 27.5229 -10.2202 12.3150
# 5 8.9195 3.3109 18.7620 -10.2202 22.0119 -3.2135
# 6 -4.4404 -4.4295 -4.7762 12.3150 -3.2135 39.5070
#
#
#
# Elastic Compliance Matrix: (Units=1/GPa)
#
#
# Indices 1 2 3 4 5 6 
#
# 1 0.033605 -0.004323 -0.006441 -0.012545 -0.012513 0.005406
# 2 -0.004323 0.016356 -0.002189 0.018959 0.009366 -0.004065
# 3 -0.006441 -0.002189 0.020130 0.012792 -0.008752 -0.003235
# 4 -0.012545 0.018959 0.012792 0.084533 0.027386 -0.021861
# 5 -0.012513 0.009366 -0.008752 0.027386 0.068629 -0.004369
# 6 0.005406 -0.004065 -0.003235 -0.021861 -0.004369 0.031532
#
#
# Mechanical properties :
#
#
# Convention : Reuss Voigt Hill
#
# Bulk Modulus (GPa) = 22.63141 37.44412 30.03777
# Shear Modulus (GPa) = 16.92515 28.14360 22.53438
#
# Velocity S-wave (km/s) = 2.87309 3.70487 3.31517
# Velocity P-wave (km/s) = 4.69509 6.04677 5.41329
#
# Compressibility (1/GPa) = 0.04418637
#
# Stress axis : x y z
#
# Youngs Moduli (GPa) = 29.75741 61.13917 49.67755
#
# Poissons Ratio (x) = 0.26430 0.31996
# Poissons Ratio (y) = 0.12864 0.10873
# Poissons Ratio (z) = 0.19166 0.13382
#
# Static dielectric constant tensor:
#      x y z
#    x 1.750640 0.012340 0.041840 
#    y 0.012340 1.729080 0.015900 
#    z 0.041840 0.015900 1.729290 
# 
# From -- ./inp_files/158394.got.cif
#   From: 2010.05.17/outbox.cif.g08.bks.cpg/sg2_80_cif.got.tgz:158394.got - 2010.06.03 11:33:40.
