data_PCOD9090626
_publ_section_title
;
Structure prediction by ZEFSAII (Michael W. Deem and Ramdas Pophale) SiO2 
 PCOD9090626
Probable space group: P -1
;
_chemical_formula_sum "Si O2"
_cell_formula_units_Z 16
_cell_length_a 8.434201
_cell_length_b 8.652126
_cell_length_c 14.404367
_cell_angle_alpha 36.247566
_cell_angle_beta 88.468044
_cell_angle_gamma 88.411588
_cell_volume 621.257903
_symmetry_space_group_name_H-M "P -1"
_symmetry_group_IT_number 2
_symmetry_cell_setting 'triclinic'
loop_
_space_group_symop_operation_xyz
x,y,z
-x,-y,-z
loop_
_atom_site_type_symbol
_atom_site_label
_atom_site_fract_x
_atom_site_fract_y
_atom_site_fract_z
Si Si1 0.490520 0.225290 0.523096
Si Si2 0.994548 0.200483 0.341573
Si Si3 0.313729 0.875286 0.585010
Si Si4 0.359263 0.767148 0.278275
Si Si5 0.906857 0.229770 0.941444
Si Si6 0.895302 0.857244 0.843506
Si Si7 0.438406 0.765361 0.000371
Si Si8 0.678413 0.363792 0.141571
O O1 0.654488 0.279249 0.436907
O O2 0.378631 0.475099 0.382972
O O3 0.554708 0.227801 0.625376
O O4 0.363932 0.977829 0.643336
O O5 0.867188 0.983015 0.506286
O O6 0.806352 0.318927 0.252353
O O7 0.054205 0.128440 0.271336
O O8 0.052841 0.484524 0.234842
O O9 0.500000 0.000000 0.500000
O O10 0.183817 0.876138 0.247485
O O11 0.452993 0.983265 0.114203
O O12 0.719763 0.204688 0.953222
O O13 0.960283 0.215286 0.055916
O O14 0.000000 0.000000 0.000000
O O15 0.767432 0.629641 0.970106
O O16 0.384277 0.737722 0.907595
O O17 0.534933 0.494553 0.144365
#
# Coordination Sequence:
#
# PCOD9090626 Si02
#       8
#     2   2   2   2   2   2   2   2
#     4  10  23  39  62  92 138 163 218 270 335 386
#     4  12  26  44  69  98 138 177 222 270 339 400
#     4  11  22  39  63  94 125 177 212 271 322 399
#     4  10  22  41  65  96 125 173 218 273 325 388
#     4  12  27  44  68 101 139 173 223 275 333 398
#     4  11  23  45  69  94 131 179 224 269 324 404
#     4  10  21  37  67  94 125 166 216 272 321 385
#     4  10  19  38  68  93 120 166 231 261 315 385
#
# _framework density 25.754199
#
# number of rings (size 3 to 8) (size 9 to 14) (size 15 to 20)
#    0.000    1.250    3.750    1.875    1.750    4.000 
#    0.000    3.750    0.000    0.000    0.000    0.000 
#    0.000    0.000    0.000    0.000    0.000    0.000 
#
# Total GULP energy -89163.989366 kJ/mol
# GULP energy per Si atom -5572.749335 kJ/mol
# Density = 2.569558 g / cm^3
# Si number density = 25.754199 Si / 1000 Ang^3
#
#
#
# Elastic Constant Matrix: (Units=GPa)
#
#
# Indices 1 2 3 4 5 6 
#
# 1 148.0953 67.0445 47.4354 1.8980 11.5352 -25.5015
# 2 67.0445 108.9983 83.2510 -1.5151 -0.8534 -31.8470
# 3 47.4354 83.2510 166.6867 -6.4812 18.2277 -15.0711
# 4 1.8980 -1.5151 -6.4812 52.3273 -3.7656 20.9692
# 5 11.5352 -0.8534 18.2277 -3.7656 48.3384 4.0822
# 6 -25.5015 -31.8470 -15.0711 20.9692 4.0822 62.8116
#
#
#
# Elastic Compliance Matrix: (Units=1/GPa)
#
#
# Indices 1 2 3 4 5 6 
#
# 1 0.009846 -0.006122 0.000681 -0.001344 -0.002963 0.001698
# 2 -0.006122 0.022084 -0.009245 -0.002821 0.004514 0.007142
# 3 0.000681 -0.009245 0.010741 0.001586 -0.004075 -0.002099
# 4 -0.001344 -0.002821 0.001586 0.023247 0.002287 -0.009505
# 5 -0.002963 0.004514 -0.004075 0.002287 0.023373 -0.002174
# 6 0.001698 0.007142 -0.002099 -0.009505 -0.002174 0.023042
#
#
# Mechanical properties :
#
#
# Convention : Reuss Voigt Hill
#
# Bulk Modulus (GPa) = 75.19934 91.02689 83.11312
# Shear Modulus (GPa) = 34.21397 47.76541 40.98969
#
# Velocity S-wave (km/s) = 3.64879 4.31125 3.99378
# Velocity P-wave (km/s) = 6.85666 7.75911 7.32180
#
# Compressibility (1/GPa) = 0.01329799
#
# Stress axis : x y z
#
# Youngs Moduli (GPa) = 101.56114 45.28070 93.10484
#
# Poissons Ratio (x) = 0.27722 -0.06340
# Poissons Ratio (y) = 0.62179 0.86079
# Poissons Ratio (z) = -0.06916 0.41864
#
# Static dielectric constant tensor:
#      x y z
#    x 2.061450 -0.094000 0.078410 
#    y -0.094000 1.744520 -0.046500 
#    z 0.078410 -0.046500 2.385920 
# 
# From -- ./inp_files/269465.got.cif
#   From: 2010.05.17/outbox.cif.g08.bks.cpg/sg2_135_cif.got.tgz:269465.got - 2010.06.03 11:33:40.
