data_PCOD9090296
_publ_section_title
;
Structure prediction by ZEFSAII (Michael W. Deem and Ramdas Pophale) SiO2 
 PCOD9090296
Probable space group: P -1
;
_chemical_formula_sum "Si O2"
_cell_formula_units_Z 14
_cell_length_a 6.261716
_cell_length_b 16.266331
_cell_length_c 9.302254
_cell_angle_alpha 124.361568
_cell_angle_beta 128.383876
_cell_angle_gamma 81.068627
_cell_volume 584.530294
_symmetry_space_group_name_H-M "P -1"
_symmetry_group_IT_number 2
_symmetry_cell_setting 'triclinic'
loop_
_space_group_symop_operation_xyz
x,y,z
-x,-y,-z
loop_
_atom_site_type_symbol
_atom_site_label
_atom_site_fract_x
_atom_site_fract_y
_atom_site_fract_z
Si Si1 0.104320 0.431534 0.092831
Si Si2 0.698589 0.503150 0.435513
Si Si3 0.967920 0.041461 0.682987
Si Si4 0.412429 0.804611 0.901689
Si Si5 0.112671 0.103901 0.245163
Si Si6 0.216405 0.773833 0.105042
Si Si7 0.601806 0.715310 0.636590
O O1 0.414590 0.416294 0.168680
O O2 0.217897 0.485841 0.348310
O O3 0.000000 0.500000 0.000000
O O4 0.846311 0.326911 0.916639
O O5 0.615479 0.608675 0.463999
O O6 0.000000 0.500000 0.500000
O O7 0.781771 0.120650 0.706620
O O8 0.294795 0.105421 0.923977
O O9 0.000000 0.000000 0.500000
O O10 0.840347 0.940268 0.626659
O O11 0.390982 0.716220 0.682629
O O12 0.144584 0.846285 0.804914
O O13 0.412811 0.782125 0.052498
O O14 0.378529 0.191295 0.373517
O O15 0.000000 0.000000 0.000000
O O16 0.907773 0.747575 0.873552
#
# Coordination Sequence:
#
# PCOD9090296 Si02
#       7
#     2   2   2   2   2   2   2
#     4  10  23  44  67  99 134 173 226 278 340 402
#     4  10  23  45  70  99 135 175 223 282 341 402
#     4  11  23  38  55  94 129 163 206 266 325 388
#     4  10  19  38  65  85 125 171 213 263 325 385
#     4  11  19  37  62  92 119 168 219 251 320 401
#     4   9  20  39  61  88 126 169 212 265 335 392
#     4   9  20  37  65  95 121 161 225 269 320 394
#
# _framework density 23.950852999999999
#
# number of rings (size 3 to 8) (size 9 to 14) (size 15 to 20)
#    0.000    2.000    4.286    0.429    0.000   14.857 
#    7.714    0.000    0.000    0.000    0.000    0.000 
#    0.000    0.000    0.000    0.000    0.000    0.000 
#
# Total GULP energy -77987.463914 kJ/mol
# GULP energy per Si atom -5570.533137 kJ/mol
# Density = 2.389634 g / cm^3
# Si number density = 23.950853 Si / 1000 Ang^3
#
#
#
# Elastic Constant Matrix: (Units=GPa)
#
#
# Indices 1 2 3 4 5 6 
#
# 1 143.0871 72.9217 30.1848 0.2396 -13.8840 1.5903
# 2 72.9217 198.0214 39.8731 -8.7927 -27.9607 28.4812
# 3 30.1848 39.8731 72.9610 -4.9387 -5.2392 -5.3335
# 4 0.2396 -8.7927 -4.9387 35.6293 -8.0866 -9.4236
# 5 -13.8840 -27.9607 -5.2392 -8.0866 40.7382 -3.5654
# 6 1.5903 28.4812 -5.3335 -9.4236 -3.5654 42.8776
#
#
#
# Elastic Compliance Matrix: (Units=1/GPa)
#
#
# Indices 1 2 3 4 5 6 
#
# 1 0.009008 -0.003045 -0.001945 -0.000546 0.000744 0.001388
# 2 -0.003045 0.008162 -0.003219 0.001120 0.003923 -0.005136
# 3 -0.001945 -0.003219 0.016856 0.002944 0.000316 0.004980
# 4 -0.000546 0.001120 0.002944 0.032565 0.008080 0.007471
# 5 0.000744 0.003923 0.000316 0.008080 0.029279 0.001616
# 6 0.001388 -0.005136 0.004980 0.007471 0.001616 0.029078
#
#
# Mechanical properties :
#
#
# Convention : Reuss Voigt Hill
#
# Bulk Modulus (GPa) = 56.78905 77.78097 67.28501
# Shear Modulus (GPa) = 33.95949 41.92169 37.94059
#
# Velocity S-wave (km/s) = 3.76956 4.18822 3.98440
# Velocity P-wave (km/s) = 6.53516 7.47891 7.02290
#
# Compressibility (1/GPa) = 0.01760903
#
# Stress axis : x y z
#
# Youngs Moduli (GPa) = 111.00865 122.52370 59.32717
#
# Poissons Ratio (x) = 0.37303 0.11539
# Poissons Ratio (y) = 0.33797 0.19096
# Poissons Ratio (z) = 0.21592 0.39437
#
# Static dielectric constant tensor:
#      x y z
#    x 2.015920 0.038380 0.000940 
#    y 0.038380 2.038790 0.101540 
#    z 0.000940 0.101540 2.043880 
# 
# From -- ./inp_files/139429.got.cif
#   From: 2010.05.17/outbox.cif.g08.bks.cpg/sg2_70_cif.got.tgz:139429.got - 2010.06.03 11:33:40.
