data_PCOD9090154
_publ_section_title
;
Structure prediction by ZEFSAII (Michael W. Deem and Ramdas Pophale) SiO2 
 PCOD9090154
Probable space group: P -1
;
_chemical_formula_sum "Si O2"
_cell_formula_units_Z 12
_cell_length_a 13.398237
_cell_length_b 6.690938
_cell_length_c 7.362881
_cell_angle_alpha 61.415040
_cell_angle_beta 97.962516
_cell_angle_gamma 64.818611
_cell_volume 473.426360
_symmetry_space_group_name_H-M "P -1"
_symmetry_group_IT_number 2
_symmetry_cell_setting 'triclinic'
loop_
_space_group_symop_operation_xyz
x,y,z
-x,-y,-z
loop_
_atom_site_type_symbol
_atom_site_label
_atom_site_fract_x
_atom_site_fract_y
_atom_site_fract_z
Si Si1 0.557630 0.532682 0.203438
Si Si2 0.993355 0.017759 0.211292
Si Si3 0.811276 0.598904 0.849081
Si Si4 0.248421 0.493523 0.506184
Si Si5 0.564904 0.758910 0.767684
Si Si6 0.206258 0.044245 0.623154
O O1 0.625579 0.559824 0.376350
O O2 0.458189 0.462982 0.231598
O O3 0.675926 0.261996 0.250440
O O4 0.508382 0.779699 0.941947
O O5 0.899463 0.956019 0.300255
O O6 0.927812 0.344170 0.085300
O O7 0.127400 0.780025 0.419616
O O8 0.000000 0.000000 0.000000
O O9 0.765127 0.486472 0.724520
O O10 0.688080 0.736131 0.870299
O O11 0.828765 0.804634 0.649782
O O12 0.233784 0.243681 0.651999
O O13 0.500000 0.000000 0.500000
#
# Coordination Sequence:
#
# PCOD9090154 Si02
#       6
#     2   2   2   2   2   2
#     4  11  23  40  63  89 122 154 203 255 285 357
#     4  10  19  38  64  86 126 160 190 245 301 353
#     4   9  20  38  62  89 118 162 196 235 303 354
#     4   9  22  39  60  94 117 160 201 238 298 356
#     4  11  21  42  62  85 123 161 196 251 307 341
#     4  10  20  39  61  87 127 153 193 248 301 340
#
# _framework density 25.347131000000001
#
# number of rings (size 3 to 8) (size 9 to 14) (size 15 to 20)
#    1.000    1.000    3.333    0.500    0.000    1.333 
#    6.000    8.333    0.000    0.000    0.000    0.000 
#    0.000    0.000    0.000    0.000    0.000    0.000 
#
# Total GULP energy -66859.628861 kJ/mol
# GULP energy per Si atom -5571.635738 kJ/mol
# Density = 2.528944 g / cm^3
# Si number density = 25.347131 Si / 1000 Ang^3
#
#
#
# Elastic Constant Matrix: (Units=GPa)
#
#
# Indices 1 2 3 4 5 6 
#
# 1 140.5680 25.6232 52.3182 2.8388 -23.2885 1.1968
# 2 25.6232 49.1334 23.3480 -12.4157 -1.5141 10.6382
# 3 52.3182 23.3480 116.0220 -19.6886 -15.2682 7.4853
# 4 2.8388 -12.4157 -19.6886 36.9913 2.2322 6.2582
# 5 -23.2885 -1.5141 -15.2682 2.2322 55.8645 2.8316
# 6 1.1968 10.6382 7.4853 6.2582 2.8316 31.6803
#
#
#
# Elastic Compliance Matrix: (Units=1/GPa)
#
#
# Indices 1 2 3 4 5 6 
#
# 1 0.010285 -0.005341 -0.004331 -0.005622 0.003018 0.003269
# 2 -0.005341 0.028956 -0.000902 0.011685 -0.001574 -0.011476
# 3 -0.004331 -0.000902 0.012439 0.007243 0.001485 -0.004036
# 4 -0.005622 0.011685 0.007243 0.037452 -0.000898 -0.012741
# 5 0.003018 -0.001574 0.001485 -0.000898 0.019634 -0.001514
# 6 0.003269 -0.011476 -0.004036 -0.012741 -0.001514 0.038901
#
#
# Mechanical properties :
#
#
# Convention : Reuss Voigt Hill
#
# Bulk Modulus (GPa) = 32.75396 56.47802 44.61599
# Shear Modulus (GPa) = 27.93404 38.53616 33.23510
#
# Velocity S-wave (km/s) = 3.32333 3.90338 3.62497
# Velocity P-wave (km/s) = 5.26082 6.53034 5.92965
#
# Compressibility (1/GPa) = 0.03053066
#
# Stress axis : x y z
#
# Youngs Moduli (GPa) = 97.22575 34.53520 80.39546
#
# Poissons Ratio (x) = 0.18447 0.34819
# Poissons Ratio (y) = 0.51932 0.07254
# Poissons Ratio (z) = 0.42108 0.03116
#
# Static dielectric constant tensor:
#      x y z
#    x 2.129740 -0.100400 0.115090 
#    y -0.100400 2.203030 -0.001140 
#    z 0.115090 -0.001140 2.036260 
# 
# From -- ./inp_files/202904.got.cif
#   From: 2010.05.17/outbox.cif.g08.bks.cpg/sg2_102_cif.got.tgz:202904.got - 2010.06.03 11:33:40.
