data_PCOD9090342
_publ_section_title
;
Structure prediction by ZEFSAII (Michael W. Deem and Ramdas Pophale) SiO2 
 PCOD9090342
Probable space group: P -1
;
_chemical_formula_sum "Si O2"
_cell_formula_units_Z 12
_cell_length_a 9.018415
_cell_length_b 9.620444
_cell_length_c 12.059732
_cell_angle_alpha 113.298229
_cell_angle_beta 139.310900
_cell_angle_gamma 94.657147
_cell_volume 483.255254
_symmetry_space_group_name_H-M "P -1"
_symmetry_group_IT_number 2
_symmetry_cell_setting 'triclinic'
loop_
_space_group_symop_operation_xyz
x,y,z
-x,-y,-z
loop_
_atom_site_type_symbol
_atom_site_label
_atom_site_fract_x
_atom_site_fract_y
_atom_site_fract_z
Si Si1 0.124211 0.391816 0.493164
Si Si2 0.678574 0.888941 0.653757
Si Si3 0.348042 0.059886 0.584322
Si Si4 0.259377 0.302472 0.173363
Si Si5 0.155749 0.325932 0.730438
Si Si6 0.887191 0.359006 0.122653
O O1 0.466251 0.553199 0.704505
O O2 0.093318 0.277835 0.549109
O O3 0.000000 0.500000 0.500000
O O4 0.949895 0.287660 0.246966
O O5 0.493928 0.958016 0.606291
O O6 0.630546 0.734965 0.664581
O O7 0.616275 0.827947 0.471469
O O8 0.018611 0.087472 0.917040
O O9 0.013137 0.877336 0.365599
O O10 0.548847 0.206291 0.843649
O O11 0.078279 0.371561 0.134353
O O12 0.029634 0.434624 0.735498
O O13 0.500000 0.500000 0.000000
#
# Coordination Sequence:
#
# PCOD9090342 Si02
#       6
#     2   2   2   2   2   2
#     4  10  21  38  59  89 126 160 197 249 308 363
#     4   9  19  36  63  92 124 161 200 263 306 344
#     4  10  21  40  61  92 127 158 206 252 306 369
#     4  10  19  38  65  91 120 162 214 251 299 364
#     4  11  24  42  63  90 128 163 197 256 319 367
#     4  10  23  40  64  92 118 165 213 252 301 362
#
# _framework density 24.831599000000001
#
# number of rings (size 3 to 8) (size 9 to 14) (size 15 to 20)
#    0.000    2.000    0.000    3.500    0.000    2.667 
#    0.000   20.833    0.000    0.000    0.000    0.000 
#    0.000    0.000    0.000    0.000    0.000    0.000 
#
# Total GULP energy -67195.498449 kJ/mol
# GULP energy per Si atom -5599.624871 kJ/mol
# Density = 2.477508 g / cm^3
# Si number density = 24.831599 Si / 1000 Ang^3
#
#
#
# Elastic Constant Matrix: (Units=GPa)
#
#
# Indices 1 2 3 4 5 6 
#
# 1 121.6449 19.5799 14.0513 16.6243 4.5360 -3.7606
# 2 19.5799 90.6059 16.6929 12.4621 6.0929 16.9449
# 3 14.0513 16.6929 130.0261 6.4903 4.0274 17.9253
# 4 16.6243 12.4621 6.4903 33.6222 4.3270 -1.0486
# 5 4.5360 6.0929 4.0274 4.3270 43.4256 -1.5047
# 6 -3.7606 16.9449 17.9253 -1.0486 -1.5047 35.8716
#
#
#
# Elastic Compliance Matrix: (Units=1/GPa)
#
#
# Indices 1 2 3 4 5 6 
#
# 1 0.009164 -0.001694 -0.000872 -0.003644 -0.000203 0.002081
# 2 -0.001694 0.013339 -0.000391 -0.004042 -0.001480 -0.006464
# 3 -0.000872 -0.000391 0.008492 -0.001108 -0.000677 -0.004211
# 4 -0.003644 -0.004042 -0.001108 0.033632 -0.002198 0.002972
# 5 -0.000203 -0.001480 -0.000677 -0.002198 0.023606 0.001942
# 6 0.002081 -0.006464 -0.004211 0.002972 0.001942 0.033421
#
#
# Mechanical properties :
#
#
# Convention : Reuss Voigt Hill
#
# Bulk Modulus (GPa) = 39.86905 49.21390 44.54147
# Shear Modulus (GPa) = 36.78434 42.04738 39.41586
#
# Velocity S-wave (km/s) = 3.85301 4.11944 3.98845
# Velocity P-wave (km/s) = 5.99040 6.51832 6.25993
#
# Compressibility (1/GPa) = 0.02508211
#
# Stress axis : x y z
#
# Youngs Moduli (GPa) = 109.12368 74.96686 117.75907
#
# Poissons Ratio (x) = 0.12701 0.10264
# Poissons Ratio (y) = 0.18487 0.04601
# Poissons Ratio (z) = 0.09511 0.02929
#
# Static dielectric constant tensor:
#      x y z
#    x 2.026000 -0.064980 0.001660 
#    y -0.064980 1.944980 -0.048410 
#    z 0.001660 -0.048410 1.952660 
# 
# From -- ./inp_files/238973.got.cif
#   From: 2010.05.17/outbox.cif.g08.bks.cpg/sg2_120_cif.got.tgz:238973.got - 2010.06.03 11:33:40.
