data_PCOD9090712
_publ_section_title
;
Structure prediction by ZEFSAII (Michael W. Deem and Ramdas Pophale) SiO2 
 PCOD9090712
Probable space group: P -1
;
_chemical_formula_sum "Si O2"
_cell_formula_units_Z 16
_cell_length_a 13.366061
_cell_length_b 19.587372
_cell_length_c 8.365782
_cell_angle_alpha 57.263533
_cell_angle_beta 112.098103
_cell_angle_gamma 156.722421
_cell_volume 678.491199
_symmetry_space_group_name_H-M "P -1"
_symmetry_group_IT_number 2
_symmetry_cell_setting 'triclinic'
loop_
_space_group_symop_operation_xyz
x,y,z
-x,-y,-z
loop_
_atom_site_type_symbol
_atom_site_label
_atom_site_fract_x
_atom_site_fract_y
_atom_site_fract_z
Si Si1 0.111593 0.784372 0.583758
Si Si2 0.665941 0.910878 0.807667
Si Si3 0.004866 0.007825 0.798088
Si Si4 0.611124 0.453041 0.476618
Si Si5 0.719793 0.343977 0.590107
Si Si6 0.066589 0.218052 0.957234
Si Si7 0.305487 0.927786 0.868654
Si Si8 0.154316 0.546275 0.141268
O O1 0.818360 0.612709 0.550480
O O2 0.070559 0.665764 0.642588
O O3 0.158515 0.796818 0.783044
O O4 0.335803 0.999788 0.379155
O O5 0.851528 0.053735 0.893759
O O6 0.395067 0.681051 0.001202
O O7 0.811374 0.950739 0.721244
O O8 0.307874 0.235158 0.633976
O O9 0.905223 0.852810 0.864788
O O10 0.000000 0.000000 0.000000
O O11 0.681407 0.414927 0.479539
O O12 0.667556 0.563147 0.245549
O O13 0.697600 0.308037 0.810218
O O14 0.000000 0.500000 0.500000
O O15 0.481949 0.125004 0.656950
O O16 0.928836 0.192423 0.013273
O O17 0.500000 0.000000 0.000000
O O18 0.000000 0.500000 0.000000
#
# Coordination Sequence:
#
# PCOD9090712 Si02
#       8
#     2   2   2   2   2   2   2   2
#     4  10  24  39  63  96 131 159 219 264 320 381
#     4  10  22  41  67  96 124 172 217 265 322 376
#     4  10  19  38  72  94 124 166 219 270 315 379
#     4  10  21  41  65  95 125 166 220 262 318 380
#     4  11  22  39  61  91 124 170 217 260 317 388
#     4  10  20  39  63  92 128 164 219 260 317 383
#     4  12  23  41  62  93 134 175 211 263 332 385
#     4  11  23  42  62  91 132 167 213 265 318 380
#
# _framework density 23.581734999999998
#
# number of rings (size 3 to 8) (size 9 to 14) (size 15 to 20)
#    0.000    1.500    2.500    3.750    1.750    6.000 
#    0.000    0.625    0.000    9.000    0.000    0.000 
#    0.000    0.000    0.000    0.000    0.000    0.000 
#
# Total GULP energy -89071.150255 kJ/mol
# GULP energy per Si atom -5566.946891 kJ/mol
# Density = 2.352806 g / cm^3
# Si number density = 23.581735 Si / 1000 Ang^3
#
#
#
# Elastic Constant Matrix: (Units=GPa)
#
#
# Indices 1 2 3 4 5 6 
#
# 1 85.0869 18.5196 28.4781 -21.8335 -19.5449 3.7805
# 2 18.5196 50.7170 21.3519 -16.9914 -0.6710 -8.8715
# 3 28.4781 21.3519 95.8163 -42.4295 -2.2864 9.4070
# 4 -21.8335 -16.9914 -42.4295 31.9600 3.0890 -8.4855
# 5 -19.5449 -0.6710 -2.2864 3.0890 36.5278 -9.7541
# 6 3.7805 -8.8715 9.4070 -8.4855 -9.7541 25.4225
#
#
#
# Elastic Compliance Matrix: (Units=1/GPa)
#
#
# Indices 1 2 3 4 5 6 
#
# 1 0.016799 -0.001724 -0.000068 0.010643 0.009114 0.003975
# 2 -0.001724 0.030205 0.001641 0.021703 0.002847 0.018526
# 3 -0.000068 0.001641 0.025533 0.035513 -0.000683 0.002726
# 4 0.010643 0.021703 0.035513 0.104662 0.007671 0.030727
# 5 0.009114 0.002847 -0.000683 0.007671 0.035952 0.016245
# 6 0.003975 0.018526 0.002726 0.030727 0.016245 0.060689
#
#
# Mechanical properties :
#
#
# Convention : Reuss Voigt Hill
#
# Bulk Modulus (GPa) = 13.84367 40.92437 27.38402
# Shear Modulus (GPa) = 16.76610 29.66675 23.21642
#
# Velocity S-wave (km/s) = 2.66931 3.55073 3.14109
# Velocity P-wave (km/s) = 3.92219 5.84827 4.97924
#
# Compressibility (1/GPa) = 0.07223519
#
# Stress axis : x y z
#
# Youngs Moduli (GPa) = 59.52815 33.10704 39.16453
#
# Poissons Ratio (x) = 0.05706 0.00268
# Poissons Ratio (y) = 0.10260 -0.06427
# Poissons Ratio (z) = 0.00407 -0.05433
#
# Static dielectric constant tensor:
#      x y z
#    x 1.976380 0.041550 0.026900 
#    y 0.041550 1.872810 -0.013670 
#    z 0.026900 -0.013670 2.011030 
# 
# From -- ./inp_files/319306.got.cif
#   From: 2010.05.17/outbox.cif.g08.bks.cpg/sg2_160_cif.got.tgz:319306.got - 2010.06.03 11:33:40.
