data_PCOD9090012
_publ_section_title
;
Structure prediction by ZEFSAII (Michael W. Deem and Ramdas Pophale) SiO2 
 PCOD9090012
Probable space group: P -1
;
_chemical_formula_sum "Si O2"
_cell_formula_units_Z 16
_cell_length_a 11.032533
_cell_length_b 15.195571
_cell_length_c 13.680417
_cell_angle_alpha 78.569282
_cell_angle_beta 33.499577
_cell_angle_gamma 56.636243
_cell_volume 872.350156
_symmetry_space_group_name_H-M "P -1"
_symmetry_group_IT_number 2
_symmetry_cell_setting 'triclinic'
loop_
_space_group_symop_operation_xyz
x,y,z
-x,-y,-z
loop_
_atom_site_type_symbol
_atom_site_label
_atom_site_fract_x
_atom_site_fract_y
_atom_site_fract_z
Si Si1 0.418101 0.690325 0.424661
Si Si2 0.327780 0.913620 0.353379
Si Si3 0.653239 0.451340 0.205118
Si Si4 0.947793 0.798669 0.877884
Si Si5 0.125151 0.865653 0.916730
Si Si6 0.102342 0.368093 0.745441
Si Si7 0.782093 0.587417 0.537970
Si Si8 0.401095 0.094166 0.632792
O O1 0.421793 0.784560 0.346943
O O2 0.518829 0.580710 0.312174
O O3 0.674877 0.624892 0.352190
O O4 0.089722 0.767140 0.682064
O O5 0.358993 0.958813 0.426164
O O6 0.582280 0.886562 0.117810
O O7 0.000000 0.000000 0.500000
O O8 0.385840 0.456037 0.369116
O O9 0.891104 0.332576 0.145739
O O10 0.827988 0.423473 0.992615
O O11 0.053524 0.856489 0.855222
O O12 0.489144 0.740208 0.720879
O O13 0.911202 0.857567 0.121569
O O14 0.000000 0.000000 0.000000
O O15 0.022622 0.429114 0.679905
O O16 0.308659 0.218324 0.627356
O O17 0.000000 0.500000 0.500000
O O18 0.500000 0.000000 0.500000
#
# Coordination Sequence:
#
# PCOD9090012 Si02
#       8
#     2   2   2   2   2   2   2   2
#     4  11  21  36  67  89 116 162 203 246 307 373
#     4  10  23  41  57  90 130 155 203 265 309 354
#     4  11  21  39  61  94 116 157 211 242 304 387
#     4  10  20  37  63  88 119 157 206 253 295 378
#     4  10  19  38  63  87 119 162 211 249 299 376
#     4  11  20  38  65  86 121 162 201 256 304 369
#     4  11  24  41  59  92 130 156 204 269 312 352
#     4  10  20  38  64  90 113 166 218 245 300 387
#
# _framework density 18.341258
#
# number of rings (size 3 to 8) (size 9 to 14) (size 15 to 20)
#    0.000    1.500    7.500    1.500    1.750    1.000 
#    6.750    1.250    0.000    0.000    0.000    0.000 
#    0.000    0.000    0.000    0.000    0.000    0.000 
#
# Total GULP energy -89249.675170 kJ/mol
# GULP energy per Si atom -5578.104698 kJ/mol
# Density = 1.829951 g / cm^3
# Si number density = 18.341258 Si / 1000 Ang^3
#
#
#
# Elastic Constant Matrix: (Units=GPa)
#
#
# Indices 1 2 3 4 5 6 
#
# 1 81.9847 53.5538 40.5605 12.2233 9.9701 13.0112
# 2 53.5538 79.3558 35.7937 0.2389 8.9775 13.4767
# 3 40.5605 35.7937 77.4837 -11.1039 10.8831 13.6493
# 4 12.2233 0.2389 -11.1039 32.1502 0.6479 9.6999
# 5 9.9701 8.9775 10.8831 0.6479 35.0009 9.8850
# 6 13.0112 13.4767 13.6493 9.6999 9.8850 30.4546
#
#
#
# Elastic Compliance Matrix: (Units=1/GPa)
#
#
# Indices 1 2 3 4 5 6 
#
# 1 0.030127 -0.015729 -0.011569 -0.016906 -0.002150 0.005356
# 2 -0.015729 0.024704 -0.001081 0.007249 0.000056 -0.006054
# 3 -0.011569 -0.001081 0.023564 0.015481 -0.001317 -0.009643
# 4 -0.016906 0.007249 0.015481 0.048584 0.002686 -0.019269
# 5 -0.002150 0.000056 -0.001317 0.002686 0.032313 -0.009859
# 6 0.005356 -0.006054 -0.009643 -0.019269 -0.009859 0.046886
#
#
# Mechanical properties :
#
#
# Convention : Reuss Voigt Hill
#
# Bulk Modulus (GPa) = 46.21729 55.40447 50.81088
# Shear Modulus (GPa) = 18.50844 26.78222 22.64533
#
# Velocity S-wave (km/s) = 3.18010 3.82542 3.51759
# Velocity P-wave (km/s) = 6.22393 7.05585 6.65291
#
# Compressibility (1/GPa) = 0.02163692
#
# Stress axis : x y z
#
# Youngs Moduli (GPa) = 33.19263 40.47969 42.43848
#
# Poissons Ratio (x) = 0.63670 0.49097
# Poissons Ratio (y) = 0.52208 0.04587
# Poissons Ratio (z) = 0.38401 0.04375
#
# Static dielectric constant tensor:
#      x y z
#    x 1.640810 -0.000610 0.015700 
#    y -0.000610 1.624630 -0.005730 
#    z 0.015700 -0.005730 1.670060 
# 
# From -- ./inp_files/521584.got.cif
#   From: 2010.05.17/outbox.cif.g08.bks.cpg/sg2_261_cif.got.tgz:521584.got - 2010.06.03 11:33:40.
