data_PCOD9090280
_publ_section_title
;
Structure prediction by ZEFSAII (Michael W. Deem and Ramdas Pophale) SiO2 
 PCOD9090280
Probable space group: P -1
;
_chemical_formula_sum "Si O2"
_cell_formula_units_Z 13
_cell_length_a 9.188967
_cell_length_b 4.899851
_cell_length_c 16.991553
_cell_angle_alpha 52.547682
_cell_angle_beta 125.706045
_cell_angle_gamma 104.851326
_cell_volume 487.365009
_symmetry_space_group_name_H-M "P -1"
_symmetry_group_IT_number 2
_symmetry_cell_setting 'triclinic'
loop_
_space_group_symop_operation_xyz
x,y,z
-x,-y,-z
loop_
_atom_site_type_symbol
_atom_site_label
_atom_site_fract_x
_atom_site_fract_y
_atom_site_fract_z
Si Si1 0.682126 0.272819 0.626051
Si Si2 0.122955 0.789602 0.467301
Si Si3 0.312310 0.153756 0.158609
Si Si4 0.053924 0.652811 0.170170
Si Si5 0.383779 0.350315 0.740704
Si Si6 0.799256 0.289935 0.243173
Si Si7 0.000000 0.500000 0.000000
O O1 0.500000 0.500000 0.500000
O O2 0.813220 0.195666 0.605984
O O3 0.568744 0.120573 0.811314
O O4 0.786921 0.453955 0.695952
O O5 0.301547 0.644759 0.599480
O O6 0.000000 0.500000 0.500000
O O7 0.979107 0.136719 0.378257
O O8 0.375592 0.044067 0.285627
O O9 0.097044 0.047510 0.101742
O O10 0.228488 0.534979 0.042613
O O11 0.868209 0.582277 0.161748
O O12 0.062940 0.476039 0.120909
O O13 0.367567 0.554715 0.781647
O O14 0.253533 0.049204 0.756796
#
# Coordination Sequence:
#
# PCOD9090280 Si02
#       7
#     2   2   2   2   2   2   1
#     4  10  20  42  69 107 143 180 238 297 367 422
#     4  10  19  38  64  99 144 191 222 278 354 442
#     4  10  25  45  71 102 140 189 239 306 350 430
#     4  10  24  44  74  99 140 190 239 306 348 445
#     4  11  24  43  68 105 150 187 241 296 359 438
#     4  11  24  43  69 104 150 190 240 289 370 434
#     4  12  24  46  76 102 134 192 260 286 374 410
#
# _framework density 26.674054000000002
#
# number of rings (size 3 to 8) (size 9 to 14) (size 15 to 20)
#    0.923    0.615    1.538    3.692    4.308    1.231 
#    0.000    3.846    0.000    0.000    0.000    0.000 
#    0.000    0.000    0.000    0.000    0.000    0.000 
#
# Total GULP energy -72405.069702 kJ/mol
# GULP energy per Si atom -5569.620746 kJ/mol
# Density = 2.661334 g / cm^3
# Si number density = 26.674054 Si / 1000 Ang^3
#
#
#
# Elastic Constant Matrix: (Units=GPa)
#
#
# Indices 1 2 3 4 5 6 
#
# 1 112.8648 23.8728 36.6046 -9.3685 13.0655 -30.2253
# 2 23.8728 100.3410 19.4532 17.1165 -8.0030 -14.4709
# 3 36.6046 19.4532 87.0589 8.0675 26.8701 -13.5509
# 4 -9.3685 17.1165 8.0675 53.2185 -9.2101 -0.5305
# 5 13.0655 -8.0030 26.8701 -9.2101 59.4811 -14.5486
# 6 -30.2253 -14.4709 -13.5509 -0.5305 -14.5486 54.3175
#
#
#
# Elastic Compliance Matrix: (Units=1/GPa)
#
#
# Indices 1 2 3 4 5 6 
#
# 1 0.012424 -0.001800 -0.004620 0.003706 0.001060 0.005601
# 2 -0.001800 0.011975 -0.002187 -0.003279 0.003083 0.002437
# 3 -0.004620 -0.002187 0.016451 -0.003929 -0.007594 -0.001122
# 4 0.003706 -0.003279 -0.003929 0.021851 0.004287 0.001570
# 5 0.001060 0.003083 -0.007594 0.004287 0.022451 0.005572
# 6 0.005601 0.002437 -0.001122 0.001570 0.005572 0.023404
#
#
# Mechanical properties :
#
#
# Convention : Reuss Voigt Hill
#
# Bulk Modulus (GPa) = 42.31002 51.12510 46.71756
# Shear Modulus (GPa) = 37.41103 48.09236 42.75169
#
# Velocity S-wave (km/s) = 3.74909 4.25074 4.00777
# Velocity P-wave (km/s) = 5.88534 6.58027 6.24248
#
# Compressibility (1/GPa) = 0.02363507
#
# Stress axis : x y z
#
# Youngs Moduli (GPa) = 80.48703 83.50748 60.78595
#
# Poissons Ratio (x) = 0.15031 0.28085
# Poissons Ratio (y) = 0.14488 0.13296
# Poissons Ratio (z) = 0.37188 0.18266
#
# Static dielectric constant tensor:
#      x y z
#    x 2.353360 0.119930 -0.006770 
#    y 0.119930 2.149350 -0.056190 
#    z -0.006770 -0.056190 2.106490 
# 
# From -- ./inp_files/551574.got.cif
#   From: 2010.05.17/outbox.cif.g08.bks.cpg/sg2_276_cif.got.tgz:551574.got - 2010.06.03 11:33:40.
