data_PCOD9090836
_publ_section_title
;
Structure prediction by ZEFSAII (Michael W. Deem and Ramdas Pophale) SiO2 
 PCOD9090836
Probable space group: P -1
;
_chemical_formula_sum "Si O2"
_cell_formula_units_Z 14
_cell_length_a 12.935243
_cell_length_b 11.466845
_cell_length_c 13.087759
_cell_angle_alpha 45.284979
_cell_angle_beta 143.233775
_cell_angle_gamma 144.994048
_cell_volume 660.175950
_symmetry_space_group_name_H-M "P -1"
_symmetry_group_IT_number 2
_symmetry_cell_setting 'triclinic'
loop_
_space_group_symop_operation_xyz
x,y,z
-x,-y,-z
loop_
_atom_site_type_symbol
_atom_site_label
_atom_site_fract_x
_atom_site_fract_y
_atom_site_fract_z
Si Si1 0.486384 0.656796 0.764399
Si Si2 0.337647 0.230677 0.935649
Si Si3 0.086015 0.040153 0.158556
Si Si4 0.916295 0.182400 0.384006
Si Si5 0.375590 0.770677 0.001794
Si Si6 0.167271 0.740449 0.500878
Si Si7 0.626482 0.694260 0.401952
O O1 0.328495 0.412968 0.777677
O O2 0.383425 0.776599 0.608604
O O3 0.682777 0.744010 0.788028
O O4 0.584016 0.707502 0.924476
O O5 0.509060 0.229591 0.008337
O O6 0.104531 0.011893 0.885805
O O7 0.120562 0.871007 0.315973
O O8 0.000000 0.000000 0.000000
O O9 0.852025 0.218348 0.421604
O O10 0.170649 0.282161 0.508988
O O11 0.762861 0.931411 0.406771
O O12 0.850749 0.281389 0.184684
O O13 0.437968 0.665625 0.198290
O O14 0.500000 0.000000 0.000000
O O15 0.000000 0.500000 0.500000
O O16 0.500000 0.500000 0.500000
#
# Coordination Sequence:
#
# PCOD9090836 Si02
#       7
#     2   2   2   2   2   2   2
#     4  10  21  36  60  87 123 160 202 252 305 368
#     4  10  19  39  60  87 121 158 201 251 312 371
#     4  10  22  37  58  89 123 162 202 253 307 368
#     4  10  23  44  66  92 129 167 206 266 317 368
#     4  10  21  41  69  90 122 167 207 260 321 371
#     4  12  22  40  62  91 129 168 209 252 311 379
#     4  10  23  44  67  96 124 161 216 263 318 378
#
# _framework density 21.206467
#
# number of rings (size 3 to 8) (size 9 to 14) (size 15 to 20)
#    0.000    1.714    2.857    1.286    0.000    1.714 
#    2.571    2.857    0.000    0.000    0.000    0.000 
#    0.000    0.000    0.000    0.000    0.000    0.000 
#
# Total GULP energy -77951.592981 kJ/mol
# GULP energy per Si atom -5567.970927 kJ/mol
# Density = 2.115820 g / cm^3
# Si number density = 21.206467 Si / 1000 Ang^3
#
#
#
# Elastic Constant Matrix: (Units=GPa)
#
#
# Indices 1 2 3 4 5 6 
#
# 1 72.9491 38.6691 20.9623 -0.9550 7.6569 -4.7835
# 2 38.6691 67.6325 29.6835 -5.0048 -11.3839 17.9877
# 3 20.9623 29.6835 160.2448 -20.6727 1.5316 5.0826
# 4 -0.9550 -5.0048 -20.6727 21.8521 2.2464 -2.6255
# 5 7.6569 -11.3839 1.5316 2.2464 25.1697 -2.4440
# 6 -4.7835 17.9877 5.0826 -2.6255 -2.4440 31.7028
#
#
#
# Elastic Compliance Matrix: (Units=1/GPa)
#
#
# Indices 1 2 3 4 5 6 
#
# 1 0.029986 -0.025043 0.000336 -0.000107 -0.018787 0.017223
# 2 -0.025043 0.041483 -0.003957 -0.000822 0.024279 -0.024878
# 3 0.000336 -0.003957 0.007810 0.006958 -0.002852 0.001400
# 4 -0.000107 -0.000822 0.006958 0.053085 -0.005177 0.003332
# 5 -0.018787 0.024279 -0.002852 -0.005177 0.055871 -0.012275
# 6 0.017223 -0.024878 0.001400 0.003332 -0.012275 0.047362
#
#
# Mechanical properties :
#
#
# Convention : Reuss Voigt Hill
#
# Bulk Modulus (GPa) = 45.55641 53.27292 49.41467
# Shear Modulus (GPa) = 16.65317 29.84567 23.24942
#
# Velocity S-wave (km/s) = 2.80534 3.75558 3.31469
# Velocity P-wave (km/s) = 5.65881 6.63185 6.16456
#
# Compressibility (1/GPa) = 0.02195081
#
# Stress axis : x y z
#
# Youngs Moduli (GPa) = 33.34841 24.10603 128.03903
#
# Poissons Ratio (x) = 0.60369 -0.04299
# Poissons Ratio (y) = 0.83514 0.50670
# Poissons Ratio (z) = -0.01120 0.09540
#
# Static dielectric constant tensor:
#      x y z
#    x 1.831500 0.050680 0.062250 
#    y 0.050680 1.758570 0.037010 
#    z 0.062250 0.037010 1.873540 
# 
# From -- ./inp_files/200089.got.cif
#   From: 2010.05.17/outbox.cif.g08.bks.cpg/sg2_101_cif.got.tgz:200089.got - 2010.06.03 11:33:40.
