data_PCOD9090846
_publ_section_title
;
Structure prediction by ZEFSAII (Michael W. Deem and Ramdas Pophale) SiO2 
 PCOD9090846
Probable space group: P -1
;
_chemical_formula_sum "Si O2"
_cell_formula_units_Z 14
_cell_length_a 6.702234
_cell_length_b 6.822314
_cell_length_c 14.066071
_cell_angle_alpha 126.346242
_cell_angle_beta 100.376286
_cell_angle_gamma 96.121450
_cell_volume 490.738260
_symmetry_space_group_name_H-M "P -1"
_symmetry_group_IT_number 2
_symmetry_cell_setting 'triclinic'
loop_
_space_group_symop_operation_xyz
x,y,z
-x,-y,-z
loop_
_atom_site_type_symbol
_atom_site_label
_atom_site_fract_x
_atom_site_fract_y
_atom_site_fract_z
Si Si1 0.606214 0.283714 0.704165
Si Si2 0.328145 0.039487 0.126539
Si Si3 0.981840 0.182934 0.798070
Si Si4 0.908408 0.686818 0.527677
Si Si5 0.706123 0.435657 0.263076
Si Si6 0.714893 0.896394 0.064763
Si Si7 0.594463 0.314950 0.482585
O O1 0.435069 0.423698 0.768980
O O2 0.632388 0.326621 0.605031
O O3 0.842061 0.348384 0.786713
O O4 0.495851 0.989791 0.629320
O O5 0.153129 0.931937 0.154277
O O6 0.511856 0.255256 0.254843
O O7 0.465272 0.858052 0.048052
O O8 0.246742 0.140712 0.053113
O O9 0.985405 0.963767 0.660922
O O10 0.202720 0.261450 0.894494
O O11 0.854761 0.649099 0.400057
O O12 0.847726 0.371773 0.474346
O O13 0.651320 0.628574 0.531164
O O14 0.803687 0.208380 0.174878
#
# Coordination Sequence:
#
# PCOD9090846 Si02
#       7
#     2   2   2   2   2   2   2
#     4  11  22  35  62 100 118 168 226 248 317 391
#     4   9  20  41  68  84 118 179 216 257 322 374
#     4  12  21  36  64  95 126 163 215 261 321 384
#     4  12  21  36  63  93 127 163 206 256 320 387
#     4  10  19  39  60  88 128 162 206 261 315 378
#     4   9  21  40  66  87 122 170 219 262 316 379
#     4  11  20  38  60  81 134 178 199 248 311 391
#
# _framework density 28.528448000000001
#
# number of rings (size 3 to 8) (size 9 to 14) (size 15 to 20)
#    0.857    0.571    4.286    3.000    0.000    0.000 
#    0.000    5.714    0.000    0.000    0.000    0.000 
#    0.000    0.000    0.000    0.000    0.000    0.000 
#
# Total GULP energy -78102.366555 kJ/mol
# GULP energy per Si atom -5578.740468 kJ/mol
# Density = 2.846352 g / cm^3
# Si number density = 28.528448 Si / 1000 Ang^3
#
#
#
# Elastic Constant Matrix: (Units=GPa)
#
#
# Indices 1 2 3 4 5 6 
#
# 1 127.3796 72.6520 3.2946 0.4157 -9.0764 -5.2176
# 2 72.6520 174.5355 54.6395 -19.2931 -3.1972 -34.0049
# 3 3.2946 54.6395 100.9632 -17.9511 -7.6320 -7.1870
# 4 0.4157 -19.2931 -17.9511 43.9493 -15.9886 6.9773
# 5 -9.0764 -3.1972 -7.6320 -15.9886 43.6560 -10.4079
# 6 -5.2176 -34.0049 -7.1870 6.9773 -10.4079 71.7312
#
#
#
# Elastic Compliance Matrix: (Units=1/GPa)
#
#
# Indices 1 2 3 4 5 6 
#
# 1 0.011159 -0.005789 0.002688 -0.000683 0.001797 -0.001336
# 2 -0.005789 0.010714 -0.004868 0.002328 0.000542 0.004023
# 3 0.002688 -0.004868 0.013633 0.005066 0.004294 -0.000616
# 4 -0.000683 0.002328 0.005066 0.030177 0.012056 0.000376
# 5 0.001797 0.000542 0.004294 0.012056 0.029419 0.003914
# 6 -0.001336 0.004023 -0.000616 0.000376 0.003914 0.016220
#
#
# Mechanical properties :
#
#
# Convention : Reuss Voigt Hill
#
# Bulk Modulus (GPa) = 51.10598 73.78338 62.44468
# Shear Modulus (GPa) = 37.37378 50.02011 43.69695
#
# Velocity S-wave (km/s) = 3.62339 4.19183 3.91794
# Velocity P-wave (km/s) = 5.95468 7.02480 6.51176
#
# Compressibility (1/GPa) = 0.01956718
#
# Stress axis : x y z
#
# Youngs Moduli (GPa) = 89.61703 93.33221 73.35163
#
# Poissons Ratio (x) = 0.54034 -0.19719
# Poissons Ratio (y) = 0.51883 0.35710
# Poissons Ratio (z) = -0.24092 0.45437
#
# Static dielectric constant tensor:
#      x y z
#    x 2.284940 -0.024960 0.024300 
#    y -0.024960 2.255020 -0.022060 
#    z 0.024300 -0.022060 2.148940 
# 
# From -- ./inp_files/310508.got.cif
#   From: 2010.05.17/outbox.cif.g08.bks.cpg/sg2_156_cif.got.tgz:310508.got - 2010.06.03 11:33:40.
