data_PCOD9090145
_publ_section_title
;
Structure prediction by ZEFSAII (Michael W. Deem and Ramdas Pophale) SiO2 
 PCOD9090145
Probable space group: P -1
;
_chemical_formula_sum "Si O2"
_cell_formula_units_Z 12
_cell_length_a 8.046047
_cell_length_b 7.497466
_cell_length_c 21.418757
_cell_angle_alpha 150.621911
_cell_angle_beta 45.777602
_cell_angle_gamma 126.572136
_cell_volume 453.986409
_symmetry_space_group_name_H-M "P -1"
_symmetry_group_IT_number 2
_symmetry_cell_setting 'triclinic'
loop_
_space_group_symop_operation_xyz
x,y,z
-x,-y,-z
loop_
_atom_site_type_symbol
_atom_site_label
_atom_site_fract_x
_atom_site_fract_y
_atom_site_fract_z
Si Si1 0.277496 0.323857 0.924909
Si Si2 0.271972 0.973243 0.594355
Si Si3 0.263999 0.327530 0.488181
Si Si4 0.915879 0.743285 0.795955
Si Si5 0.502319 0.557904 0.216714
Si Si6 0.792542 0.330661 0.820614
O O1 0.335412 0.552300 0.917467
O O2 0.532759 0.177504 0.837695
O O3 0.177364 0.532428 0.074661
O O4 0.106993 0.033275 0.852535
O O5 0.339677 0.268624 0.719476
O O6 0.022512 0.095963 0.670135
O O7 0.500000 0.000000 0.500000
O O8 0.228003 0.571737 0.510212
O O9 0.500000 0.500000 0.500000
O O10 0.075713 0.445668 0.625058
O O11 0.334755 0.902393 0.342433
O O12 0.685214 0.742527 0.811485
O O13 0.808543 0.655809 0.865543
#
# Coordination Sequence:
#
# PCOD9090145 Si02
#       6
#     2   2   2   2   2   2
#     4  10  21  42  67  89 125 172 213 247 318 377
#     4  11  23  42  63  98 126 162 212 270 314 362
#     4  10  19  38  64  85 124 168 206 252 312 375
#     4  11  20  41  64  90 122 174 209 249 315 382
#     4  10  22  40  65  90 126 170 209 251 318 384
#     4  10  23  40  67  94 124 164 216 264 302 372
#
# _framework density 26.432507999999999
#
# number of rings (size 3 to 8) (size 9 to 14) (size 15 to 20)
#    0.000    1.667    3.333    3.000    0.000    2.000 
#    3.000    5.000    0.000    0.000    0.000    0.000 
#    0.000    0.000    0.000    0.000    0.000    0.000 
#
# Total GULP energy -66954.726058 kJ/mol
# GULP energy per Si atom -5579.560505 kJ/mol
# Density = 2.637235 g / cm^3
# Si number density = 26.432508 Si / 1000 Ang^3
#
#
#
# Elastic Constant Matrix: (Units=GPa)
#
#
# Indices 1 2 3 4 5 6 
#
# 1 115.4162 43.1757 25.3706 -2.4909 -18.8408 32.2538
# 2 43.1757 116.8505 55.6581 -15.3647 -3.9901 37.5299
# 3 25.3706 55.6581 108.8210 -24.5155 12.2054 17.9328
# 4 -2.4909 -15.3647 -24.5155 52.7054 4.4530 7.0314
# 5 -18.8408 -3.9901 12.2054 4.4530 51.8398 -4.9404
# 6 32.2538 37.5299 17.9328 7.0314 -4.9404 54.6597
#
#
#
# Elastic Compliance Matrix: (Units=1/GPa)
#
#
# Indices 1 2 3 4 5 6 
#
# 1 0.011689 -0.002077 -0.001470 -0.000469 0.004040 -0.004564
# 2 -0.002077 0.014533 -0.005227 0.002626 0.000672 -0.007315
# 3 -0.001470 -0.005227 0.014255 0.005638 -0.004909 -0.001390
# 4 -0.000469 0.002626 0.005638 0.023577 -0.003966 -0.006767
# 5 0.004040 0.000672 -0.004909 -0.003966 0.022431 0.001303
# 6 -0.004564 -0.007315 -0.001390 -0.006767 0.001303 0.027455
#
#
# Mechanical properties :
#
#
# Convention : Reuss Voigt Hill
#
# Bulk Modulus (GPa) = 43.61124 65.49960 54.55542
# Shear Modulus (GPa) = 35.93754 46.29988 41.11871
#
# Velocity S-wave (km/s) = 3.69127 4.18978 3.94840
# Velocity P-wave (km/s) = 5.89086 6.94546 6.43979
#
# Compressibility (1/GPa) = 0.02292987
#
# Stress axis : x y z
#
# Youngs Moduli (GPa) = 85.55025 68.80992 70.15000
#
# Poissons Ratio (x) = 0.14292 0.10309
# Poissons Ratio (y) = 0.17769 0.36667
# Poissons Ratio (z) = 0.12572 0.35967
#
# Static dielectric constant tensor:
#      x y z
#    x 2.136650 -0.093300 -0.024250 
#    y -0.093300 2.147670 0.101530 
#    z -0.024250 0.101530 2.182260 
# 
# From -- ./inp_files/606907.got.cif
#   From: 2010.05.17/outbox.cif.g08.bks.cpg/sg2_304_cif.got.tgz:606907.got - 2010.06.03 11:33:40.
