data_PCOD9090929
_publ_section_title
;
Structure prediction by ZEFSAII (Michael W. Deem and Ramdas Pophale) SiO2 
 PCOD9090929
Probable space group: P -1
;
_chemical_formula_sum "Si O2"
_cell_formula_units_Z 16
_cell_length_a 14.205642
_cell_length_b 11.325752
_cell_length_c 9.148520
_cell_angle_alpha 131.023670
_cell_angle_beta 62.055342
_cell_angle_gamma 80.304435
_cell_volume 686.619025
_symmetry_space_group_name_H-M "P -1"
_symmetry_group_IT_number 2
_symmetry_cell_setting 'triclinic'
loop_
_space_group_symop_operation_xyz
x,y,z
-x,-y,-z
loop_
_atom_site_type_symbol
_atom_site_label
_atom_site_fract_x
_atom_site_fract_y
_atom_site_fract_z
Si Si1 0.340847 0.477801 0.271241
Si Si2 0.815346 0.697541 0.318101
Si Si3 0.985663 0.331952 0.337017
Si Si4 0.150760 0.679709 0.043656
Si Si5 0.391588 0.847435 0.021740
Si Si6 0.875997 0.880704 0.238351
Si Si7 0.688515 0.338267 0.832208
Si Si8 0.253119 0.829436 0.857783
O O1 0.180521 0.562339 0.424536
O O2 0.406649 0.456547 0.045309
O O3 0.312569 0.655518 0.544734
O O4 0.451971 0.253000 0.105819
O O5 0.767459 0.569321 0.257965
O O6 0.772450 0.840941 0.320670
O O7 0.741435 0.884083 0.646572
O O8 0.000000 0.500000 0.000000
O O9 0.000000 0.500000 0.500000
O O10 0.011891 0.280651 0.102878
O O11 0.118995 0.086988 0.113935
O O12 0.188812 0.777714 0.984288
O O13 0.199164 0.670254 0.163329
O O14 0.972685 0.833460 0.272031
O O15 0.367741 0.724974 0.053479
O O16 0.383533 0.789125 0.816767
O O17 0.778582 0.134606 0.487239
#
# Coordination Sequence:
#
# PCOD9090929 Si02
#       8
#     2   2   2   2   2   2   2   2
#     4  12  23  44  67  97 141 173 219 280 329 394
#     4   9  21  38  66  92 131 170 221 275 318 390
#     4  12  27  41  67 100 137 174 222 273 336 393
#     4  10  20  37  65  96 124 168 227 271 319 386
#     4  10  24  43  68 100 133 177 220 272 340 390
#     4  10  19  39  61  94 130 170 223 272 323 386
#     4  10  21  38  65  96 127 174 221 272 325 391
#     4  11  23  43  69  97 132 175 226 266 328 402
#
# _framework density 23.302586999999999
#
# number of rings (size 3 to 8) (size 9 to 14) (size 15 to 20)
#    0.000    1.500    2.500    2.250    5.250    3.000 
#    0.000    5.625    0.000    0.000    0.000    0.000 
#    0.000    0.000    0.000    0.000    0.000    0.000 
#
# Total GULP energy -89195.520333 kJ/mol
# GULP energy per Si atom -5574.720021 kJ/mol
# Density = 2.324955 g / cm^3
# Si number density = 23.302587 Si / 1000 Ang^3
#
#
#
# Elastic Constant Matrix: (Units=GPa)
#
#
# Indices 1 2 3 4 5 6 
#
# 1 78.6965 45.2111 37.3996 14.6309 9.4072 -11.5054
# 2 45.2111 81.1972 20.4106 10.3658 14.6774 -11.7675
# 3 37.3996 20.4106 78.5054 15.3545 14.4999 -5.3305
# 4 14.6309 10.3658 15.3545 35.4341 1.0456 -1.2999
# 5 9.4072 14.6774 14.4999 1.0456 28.1111 4.9942
# 6 -11.5054 -11.7675 -5.3305 -1.2999 4.9942 35.9521
#
#
#
# Elastic Compliance Matrix: (Units=1/GPa)
#
#
# Indices 1 2 3 4 5 6 
#
# 1 0.023200 -0.010440 -0.007817 -0.003085 0.001382 0.002545
# 2 -0.010440 0.020153 0.002096 -0.002058 -0.008873 0.004724
# 3 -0.007817 0.002096 0.018560 -0.005117 -0.008197 0.001890
# 4 -0.003085 -0.002058 -0.005117 0.032135 0.003870 -0.001795
# 5 0.001382 -0.008873 -0.008197 0.003870 0.045581 -0.009869
# 6 0.002545 0.004724 0.001890 -0.001795 -0.009869 0.031762
#
#
# Mechanical properties :
#
#
# Convention : Reuss Voigt Hill
#
# Bulk Modulus (GPa) = 33.79389 49.38242 41.58815
# Shear Modulus (GPa) = 23.41067 28.92463 26.16765
#
# Velocity S-wave (km/s) = 3.17304 3.52698 3.35468
# Velocity P-wave (km/s) = 5.28753 6.15012 5.73506
#
# Compressibility (1/GPa) = 0.02959115
#
# Stress axis : x y z
#
# Youngs Moduli (GPa) = 43.10252 49.61990 53.87849
#
# Poissons Ratio (x) = 0.51804 0.42118
# Poissons Ratio (y) = 0.45000 -0.11293
# Poissons Ratio (z) = 0.33694 -0.10401
#
# Static dielectric constant tensor:
#      x y z
#    x 1.959120 0.026160 -0.051560 
#    y 0.026160 1.954000 0.054930 
#    z -0.051560 0.054930 1.954800 
# 
# From -- ./inp_files/308512.got.cif
#   From: 2010.05.17/outbox.cif.g08.bks.cpg/sg2_155_cif.got.tgz:308512.got - 2010.06.03 11:33:40.
