data_PCOD9090821
_publ_section_title
;
Structure prediction by ZEFSAII (Michael W. Deem and Ramdas Pophale) SiO2 
 PCOD9090821
Probable space group: P -1
;
_chemical_formula_sum "Si O2"
_cell_formula_units_Z 12
_cell_length_a 10.855687
_cell_length_b 17.466729
_cell_length_c 6.882778
_cell_angle_alpha 91.866748
_cell_angle_beta 63.566212
_cell_angle_gamma 36.051894
_cell_volume 458.956036
_symmetry_space_group_name_H-M "P -1"
_symmetry_group_IT_number 2
_symmetry_cell_setting 'triclinic'
loop_
_space_group_symop_operation_xyz
x,y,z
-x,-y,-z
loop_
_atom_site_type_symbol
_atom_site_label
_atom_site_fract_x
_atom_site_fract_y
_atom_site_fract_z
Si Si1 0.790628 0.303368 0.397700
Si Si2 0.202854 0.506803 0.999419
Si Si3 0.998176 0.891583 0.133735
Si Si4 0.881968 0.809741 0.466007
Si Si5 0.370589 0.192241 0.850321
Si Si6 0.646206 0.169610 0.890974
O O1 0.500000 0.500000 0.500000
O O2 0.570086 0.358458 0.688321
O O3 0.995703 0.250417 0.403062
O O4 0.992879 0.146536 0.089745
O O5 0.308896 0.381346 0.044271
O O6 0.961561 0.689222 0.301895
O O7 0.016583 0.592608 0.929233
O O8 0.089634 0.770591 0.196342
O O9 0.253890 0.832541 0.989096
O O10 0.613743 0.107624 0.504897
O O11 0.512534 0.956313 0.259217
O O12 0.527167 0.142922 0.939275
O O13 0.000000 0.000000 0.500000
#
# Coordination Sequence:
#
# PCOD9090821 Si02
#       6
#     2   2   2   2   2   2
#     4  12  20  34  60  92 112 152 200 235 283 347
#     4  12  20  36  63  88 116 152 194 243 288 341
#     4   9  20  38  60  81 117 150 196 228 290 337
#     4  10  21  39  60  83 121 152 190 239 291 339
#     4   9  21  40  59  83 121 156 188 236 299 337
#     4  10  19  39  60  84 117 159 190 235 288 352
#
# _framework density 26.146293
#
# number of rings (size 3 to 8) (size 9 to 14) (size 15 to 20)
#    1.000    0.667    3.333    2.500    0.000    0.000 
#    0.000   13.333    0.000    0.000    0.000    0.000 
#    0.000    0.000    0.000    0.000    0.000    0.000 
#
# Total GULP energy -67038.331998 kJ/mol
# GULP energy per Si atom -5586.527667 kJ/mol
# Density = 2.608678 g / cm^3
# Si number density = 26.146293 Si / 1000 Ang^3
#
#
#
# Elastic Constant Matrix: (Units=GPa)
#
#
# Indices 1 2 3 4 5 6 
#
# 1 99.0459 16.8132 22.3676 0.8009 31.5246 -22.1910
# 2 16.8132 125.1775 11.4525 0.0145 20.7983 -20.1316
# 3 22.3676 11.4525 56.5177 -11.3864 12.4492 -10.6942
# 4 0.8009 0.0145 -11.3864 26.5108 -6.9992 13.6502
# 5 31.5246 20.7983 12.4492 -6.9992 29.2866 -1.7803
# 6 -22.1910 -20.1316 -10.6942 13.6502 -1.7803 48.2523
#
#
#
# Elastic Compliance Matrix: (Units=1/GPa)
#
#
# Indices 1 2 3 4 5 6 
#
# 1 0.023994 0.005001 -0.004435 -0.019318 -0.031110 0.016455
# 2 0.005001 0.011236 -0.001233 -0.008997 -0.014458 0.008726
# 3 -0.004435 -0.001233 0.021814 0.009344 -0.001416 -0.000415
# 4 -0.019318 -0.008997 0.009344 0.066642 0.037435 -0.028039
# 5 -0.031110 -0.014458 -0.001416 0.037435 0.085742 -0.028080
# 6 0.016455 0.008726 -0.000415 -0.028039 -0.028080 0.038737
#
#
# Mechanical properties :
#
#
# Convention : Reuss Voigt Hill
#
# Bulk Modulus (GPa) = 17.94981 42.44528 30.19755
# Shear Modulus (GPa) = 18.65188 36.15047 27.40118
#
# Velocity S-wave (km/s) = 2.67379 3.72240 3.24079
# Velocity P-wave (km/s) = 4.05120 5.89440 5.05748
#
# Compressibility (1/GPa) = 0.05571088
#
# Stress axis : x y z
#
# Youngs Moduli (GPa) = 41.67749 88.99604 45.84135
#
# Poissons Ratio (x) = -0.44504 0.20330
# Poissons Ratio (y) = -0.20841 0.05650
# Poissons Ratio (z) = 0.18483 0.10970
#
# Static dielectric constant tensor:
#      x y z
#    x 2.104420 0.063250 -0.018020 
#    y 0.063250 2.059520 -0.023020 
#    z -0.018020 -0.023020 2.062950 
# 
# From -- ./inp_files/69799.got.cif
#   From: 2010.05.17/outbox.cif.g08.bks.cpg/sg2_35_cif.got.tgz:69799.got - 2010.06.03 11:33:40.
