data_PCOD9090855
_publ_section_title
;
Structure prediction by ZEFSAII (Michael W. Deem and Ramdas Pophale) SiO2 
 PCOD9090855
Probable space group: P -1
;
_chemical_formula_sum "Si O2"
_cell_formula_units_Z 16
_cell_length_a 15.467010
_cell_length_b 11.991391
_cell_length_c 10.635655
_cell_angle_alpha 50.826092
_cell_angle_beta 23.375856
_cell_angle_gamma 53.349810
_cell_volume 605.799669
_symmetry_space_group_name_H-M "P -1"
_symmetry_group_IT_number 2
_symmetry_cell_setting 'triclinic'
loop_
_space_group_symop_operation_xyz
x,y,z
-x,-y,-z
loop_
_atom_site_type_symbol
_atom_site_label
_atom_site_fract_x
_atom_site_fract_y
_atom_site_fract_z
Si Si1 0.424943 0.405037 0.809160
Si Si2 0.689276 0.218922 0.758548
Si Si3 0.221306 0.296078 0.548322
Si Si4 0.096599 0.642764 0.836365
Si Si5 0.531235 0.282793 0.359454
Si Si6 0.065271 0.595853 0.521380
Si Si7 0.029718 0.852778 0.189074
Si Si8 0.316387 0.019401 0.847557
O O1 0.468228 0.270731 0.944707
O O2 0.352994 0.614237 0.555132
O O3 0.456816 0.555663 0.728435
O O4 0.176835 0.406955 0.094841
O O5 0.871333 0.226221 0.399686
O O6 0.760552 0.355241 0.646316
O O7 0.677581 0.086033 0.963996
O O8 0.453965 0.290272 0.310377
O O9 0.160055 0.443482 0.450470
O O10 0.172644 0.159565 0.624750
O O11 0.053373 0.317264 0.873801
O O12 0.000000 0.500000 0.000000
O O13 0.357276 0.179919 0.725484
O O14 0.760027 0.196995 0.139472
O O15 0.037378 0.721160 0.369217
O O16 0.095784 0.986692 0.088922
O O17 0.500000 0.000000 0.500000
#
# Coordination Sequence:
#
# PCOD9090855 Si02
#       8
#     2   2   2   2   2   2   2   2
#     4  10  21  36  64  94 115 156 200 245 314 343
#     4   9  20  41  60  86 124 152 198 254 289 350
#     4  12  21  36  58  89 126 149 195 250 294 356
#     4  10  19  39  60  90 122 155 197 252 300 342
#     4  11  21  38  61  89 117 166 195 236 314 351
#     4  11  20  36  59  93 121 152 195 255 302 351
#     4  10  24  38  56  90 126 153 202 247 298 361
#     4   9  21  42  61  84 122 161 199 245 300 359
#
# _framework density 26.411373000000001
#
# number of rings (size 3 to 8) (size 9 to 14) (size 15 to 20)
#    0.750    1.000    5.000    0.375    0.000    4.500 
#    2.250    4.375    0.000    3.000    0.000    0.000 
#    0.000    0.000    0.000    0.000    0.000    0.000 
#
# Total GULP energy -89287.912953 kJ/mol
# GULP energy per Si atom -5580.494560 kJ/mol
# Density = 2.635126 g / cm^3
# Si number density = 26.411373 Si / 1000 Ang^3
#
#
#
# Elastic Constant Matrix: (Units=GPa)
#
#
# Indices 1 2 3 4 5 6 
#
# 1 81.4501 3.2829 24.1660 -9.0262 0.8389 -10.6271
# 2 3.2829 54.2565 27.4699 -16.6337 16.3290 -13.0800
# 3 24.1660 27.4699 118.4388 -11.2324 24.6035 -6.9152
# 4 -9.0262 -16.6337 -11.2324 51.3108 -15.5622 6.7210
# 5 0.8389 16.3290 24.6035 -15.5622 38.8963 0.9751
# 6 -10.6271 -13.0800 -6.9152 6.7210 0.9751 40.5394
#
#
#
# Elastic Compliance Matrix: (Units=1/GPa)
#
#
# Indices 1 2 3 4 5 6 
#
# 1 0.013824 0.001730 -0.003198 0.002452 0.001899 0.003185
# 2 0.001730 0.025572 -0.004054 0.004774 -0.006483 0.007377
# 3 -0.003198 -0.004054 0.011121 -0.001196 -0.005744 0.000087
# 4 0.002452 0.004774 -0.001196 0.024034 0.008371 -0.002207
# 5 0.001899 -0.006483 -0.005744 0.008371 0.035493 -0.004815
# 6 0.003185 0.007377 0.000087 -0.002207 -0.004815 0.028379
#
#
# Mechanical properties :
#
#
# Convention : Reuss Voigt Hill
#
# Bulk Modulus (GPa) = 25.33303 40.44257 32.88780
# Shear Modulus (GPa) = 30.74567 39.43107 35.08837
#
# Velocity S-wave (km/s) = 3.41560 3.86807 3.64886
# Velocity P-wave (km/s) = 5.01674 5.94097 5.49831
#
# Compressibility (1/GPa) = 0.03947416
#
# Stress axis : x y z
#
# Youngs Moduli (GPa) = 72.33683 39.10522 89.92113
#
# Poissons Ratio (x) = -0.06767 0.28758
# Poissons Ratio (y) = -0.12517 0.36452
# Poissons Ratio (z) = 0.23134 0.15852
#
# Static dielectric constant tensor:
#      x y z
#    x 2.124690 -0.042060 0.074590 
#    y -0.042060 2.105640 -0.005630 
#    z 0.074590 -0.005630 2.151960 
# 
# From -- ./inp_files/455441.got.cif
#   From: 2010.05.17/outbox.cif.g08.bks.cpg/sg2_228_cif.got.tgz:455441.got - 2010.06.03 11:33:40.
