data_PCOD9090238
_publ_section_title
;
Structure prediction by ZEFSAII (Michael W. Deem and Ramdas Pophale) SiO2 
 PCOD9090238
Probable space group: P -1
;
_chemical_formula_sum "Si O2"
_cell_formula_units_Z 16
_cell_length_a 8.394807
_cell_length_b 12.663264
_cell_length_c 15.996642
_cell_angle_alpha 152.496513
_cell_angle_beta 69.214842
_cell_angle_gamma 100.920299
_cell_volume 702.593711
_symmetry_space_group_name_H-M "P -1"
_symmetry_group_IT_number 2
_symmetry_cell_setting 'triclinic'
loop_
_space_group_symop_operation_xyz
x,y,z
-x,-y,-z
loop_
_atom_site_type_symbol
_atom_site_label
_atom_site_fract_x
_atom_site_fract_y
_atom_site_fract_z
Si Si1 0.669922 0.280015 0.329748
Si Si2 0.080174 0.966450 0.208630
Si Si3 0.266431 0.165998 0.884094
Si Si4 0.833516 0.468547 0.577441
Si Si5 0.937696 0.927523 0.373340
Si Si6 0.297118 0.989535 0.032254
Si Si7 0.364495 0.243946 0.731823
Si Si8 0.651378 0.429921 0.740616
O O1 0.500000 0.500000 0.500000
O O2 0.799606 0.387791 0.434879
O O3 0.634551 0.072015 0.249224
O O4 0.735103 0.166760 0.148549
O O5 0.999157 0.257093 0.432077
O O6 0.245886 0.908406 0.075028
O O7 0.925105 0.871194 0.128261
O O8 0.090363 0.874933 0.237588
O O9 0.347509 0.211521 0.811773
O O10 0.266073 0.385768 0.097798
O O11 0.662505 0.468044 0.666502
O O12 0.827746 0.741690 0.770864
O O13 0.830154 0.730606 0.253536
O O14 0.786327 0.166288 0.541630
O O15 0.000000 0.000000 0.500000
O O16 0.500000 0.000000 0.000000
O O17 0.462514 0.436003 0.819535
O O18 0.500000 0.000000 0.500000
#
# Coordination Sequence:
#
# PCOD9090238 Si02
#       8
#     2   2   2   2   2   2   2   2
#     4  11  22  39  62  90 131 165 213 271 324 376
#     4   9  22  41  63  90 129 169 218 263 324 393
#     4  10  20  38  64  90 124 168 220 261 318 395
#     4  10  21  41  63  91 127 168 215 267 318 390
#     4   9  19  40  62  90 128 167 210 267 327 387
#     4  12  23  42  61  91 132 168 219 271 328 380
#     4   9  18  36  62  90 124 162 210 262 319 383
#     4  10  19  38  64  94 122 166 215 267 319 386
#
# _framework density 22.772762
#
# number of rings (size 3 to 8) (size 9 to 14) (size 15 to 20)
#    0.000    2.000    2.500    3.000    0.000    2.000 
#   11.250    3.750    0.000    0.000    0.000    0.000 
#    0.000    0.000    0.000    0.000    0.000    0.000 
#
# Total GULP energy -89350.856569 kJ/mol
# GULP energy per Si atom -5584.428536 kJ/mol
# Density = 2.272093 g / cm^3
# Si number density = 22.772762 Si / 1000 Ang^3
#
#
#
# Elastic Constant Matrix: (Units=GPa)
#
#
# Indices 1 2 3 4 5 6 
#
# 1 52.7384 57.7313 23.5078 -25.3636 -3.7843 12.9710
# 2 57.7313 136.5179 26.3544 -42.7779 -6.0205 29.1414
# 3 23.5078 26.3544 111.6563 -21.0669 18.4695 14.2384
# 4 -25.3636 -42.7779 -21.0669 48.6209 -1.4806 -1.3245
# 5 -3.7843 -6.0205 18.4695 -1.4806 27.6944 -9.9824
# 6 12.9710 29.1414 14.2384 -1.3245 -9.9824 33.7334
#
#
#
# Elastic Compliance Matrix: (Units=1/GPa)
#
#
# Indices 1 2 3 4 5 6 
#
# 1 0.039500 -0.013487 -0.005015 0.006784 0.006444 0.000752
# 2 -0.013487 0.017874 0.002467 0.009330 -0.003407 -0.011938
# 3 -0.005015 0.002467 0.013573 0.004804 -0.012329 -0.009392
# 4 0.006784 0.009330 0.004804 0.033978 -0.002829 -0.012200
# 5 0.006444 -0.003407 -0.012329 -0.002829 0.051854 0.020903
# 6 0.000752 -0.011938 -0.009392 -0.012200 0.020903 0.049338
#
#
# Mechanical properties :
#
#
# Convention : Reuss Voigt Hill
#
# Bulk Modulus (GPa) = 25.72170 57.34441 41.53305
# Shear Modulus (GPa) = 19.90871 34.89767 27.40319
#
# Velocity S-wave (km/s) = 2.95995 3.91887 3.47267
# Velocity P-wave (km/s) = 4.79596 6.76111 5.86148
#
# Compressibility (1/GPa) = 0.03887768
#
# Stress axis : x y z
#
# Youngs Moduli (GPa) = 25.31633 55.94771 73.67523
#
# Poissons Ratio (x) = 0.75455 0.36948
# Poissons Ratio (y) = 0.34143 -0.18175
# Poissons Ratio (z) = 0.12696 -0.13802
#
# Static dielectric constant tensor:
#      x y z
#    x 1.926830 0.026150 0.002070 
#    y 0.026150 1.933280 0.019280 
#    z 0.002070 0.019280 1.840240 
# 
# From -- ./inp_files/501112.got.cif
#   From: 2010.05.17/outbox.cif.g08.bks.cpg/sg2_251_cif.got.tgz:501112.got - 2010.06.03 11:33:40.
