data_PCOD9090349
_publ_section_title
;
Structure prediction by ZEFSAII (Michael W. Deem and Ramdas Pophale) SiO2 
 PCOD9090349
Probable space group: P -1
;
_chemical_formula_sum "Si O2"
_cell_formula_units_Z 16
_cell_length_a 9.165195
_cell_length_b 15.315772
_cell_length_c 18.917203
_cell_angle_alpha 150.398170
_cell_angle_beta 37.755871
_cell_angle_gamma 136.000255
_cell_volume 798.675489
_symmetry_space_group_name_H-M "P -1"
_symmetry_group_IT_number 2
_symmetry_cell_setting 'triclinic'
loop_
_space_group_symop_operation_xyz
x,y,z
-x,-y,-z
loop_
_atom_site_type_symbol
_atom_site_label
_atom_site_fract_x
_atom_site_fract_y
_atom_site_fract_z
Si Si1 0.821103 0.619826 0.430035
Si Si2 0.615089 0.815093 0.336851
Si Si3 0.833676 0.461075 0.644651
Si Si4 0.428138 0.706779 0.754100
Si Si5 0.160567 0.252319 0.268639
Si Si6 0.411689 0.288204 0.880049
Si Si7 0.992304 0.913072 0.019902
Si Si8 0.146007 0.947524 0.474278
O O1 0.607409 0.675058 0.599107
O O2 0.712636 0.489856 0.318272
O O3 0.995995 0.509465 0.331874
O O4 0.976594 0.798818 0.475823
O O5 0.405677 0.664153 0.333407
O O6 0.706328 0.753178 0.182033
O O7 0.500000 0.000000 0.500000
O O8 0.790839 0.878240 0.378227
O O9 0.781725 0.636125 0.746314
O O10 0.001312 0.360068 0.457018
O O11 0.594365 0.773587 0.802748
O O12 0.237924 0.831925 0.887538
O O13 0.995546 0.076658 0.188007
O O14 0.626422 0.159317 0.708177
O O15 0.232544 0.223608 0.966571
O O16 0.500000 0.500000 0.000000
O O17 0.000000 0.000000 0.000000
O O18 0.000000 0.000000 0.500000
#
# Coordination Sequence:
#
# PCOD9090349 Si02
#       8
#     2   2   2   2   2   2   2   2
#     4  10  20  39  63  88 126 160 208 261 319 370
#     4  10  20  40  66  91 124 172 216 266 319 390
#     4  10  19  38  65  92 121 157 221 259 319 380
#     4  10  23  39  60  90 125 167 204 264 314 380
#     4  10  22  37  63  92 124 165 209 267 317 380
#     4  11  25  45  69  93 131 177 218 267 334 392
#     4  12  26  41  63  91 132 170 216 256 324 391
#     4  11  24  40  68  98 128 163 221 274 324 384
#
# _framework density 20.033168
#
# number of rings (size 3 to 8) (size 9 to 14) (size 15 to 20)
#    0.000    1.500    2.500    3.375    7.000    1.000 
#    0.000    0.625    0.000    0.000    0.000    0.000 
#    0.000    0.000    0.000    0.000    0.000    0.000 
#
# Total GULP energy -89251.432844 kJ/mol
# GULP energy per Si atom -5578.214553 kJ/mol
# Density = 1.998757 g / cm^3
# Si number density = 20.033168 Si / 1000 Ang^3
#
#
#
# Elastic Constant Matrix: (Units=GPa)
#
#
# Indices 1 2 3 4 5 6 
#
# 1 98.2262 17.5588 29.9037 -4.3175 1.6162 -4.3550
# 2 17.5588 111.0937 23.3671 -12.9226 -4.0197 -5.7054
# 3 29.9037 23.3671 70.8542 5.2162 5.6697 0.8944
# 4 -4.3175 -12.9226 5.2162 23.4635 5.7420 1.5201
# 5 1.6162 -4.0197 5.6697 5.7420 35.0077 5.7117
# 6 -4.3550 -5.7054 0.8944 1.5201 5.7117 24.8437
#
#
#
# Elastic Compliance Matrix: (Units=1/GPa)
#
#
# Indices 1 2 3 4 5 6 
#
# 1 0.012071 -0.000357 -0.005189 0.003193 -0.000636 0.002172
# 2 -0.000357 0.010764 -0.003942 0.006486 0.000494 0.002041
# 3 -0.005189 -0.003942 0.018258 -0.006634 -0.001813 -0.001649
# 4 0.003193 0.006486 -0.006634 0.049826 -0.006625 0.000763
# 5 -0.000636 0.000494 -0.001813 -0.006625 0.031122 -0.006683
# 6 0.002172 0.002041 -0.001649 0.000763 -0.006683 0.042650
#
#
# Mechanical properties :
#
#
# Convention : Reuss Voigt Hill
#
# Bulk Modulus (GPa) = 45.21165 46.87036 46.04101
# Shear Modulus (GPa) = 26.17280 30.61928 28.39604
#
# Velocity S-wave (km/s) = 3.61844 3.91375 3.76899
# Velocity P-wave (km/s) = 6.33047 6.62348 6.47863
#
# Compressibility (1/GPa) = 0.02211819
#
# Stress axis : x y z
#
# Youngs Moduli (GPa) = 82.84312 92.90119 54.77148
#
# Poissons Ratio (x) = 0.03313 0.28418
# Poissons Ratio (y) = 0.02954 0.21592
# Poissons Ratio (z) = 0.42983 0.36624
#
# Static dielectric constant tensor:
#      x y z
#    x 1.742850 0.016430 0.036120 
#    y 0.016430 1.693580 -0.011710 
#    z 0.036120 -0.011710 1.693420 
# 
# From -- ./inp_files/561404.got.cif
#   From: 2010.05.17/outbox.cif.g08.bks.cpg/sg2_281_cif.got.tgz:561404.got - 2010.06.03 11:33:40.
