data_PCOD9090894
_publ_section_title
;
Structure prediction by ZEFSAII (Michael W. Deem and Ramdas Pophale) SiO2 
 PCOD9090894
Probable space group: P -1
;
_chemical_formula_sum "Si O2"
_cell_formula_units_Z 16
_cell_length_a 18.867805
_cell_length_b 25.247629
_cell_length_c 9.102672
_cell_angle_alpha 147.436215
_cell_angle_beta 43.276757
_cell_angle_gamma 158.493541
_cell_volume 820.366010
_symmetry_space_group_name_H-M "P -1"
_symmetry_group_IT_number 2
_symmetry_cell_setting 'triclinic'
loop_
_space_group_symop_operation_xyz
x,y,z
-x,-y,-z
loop_
_atom_site_type_symbol
_atom_site_label
_atom_site_fract_x
_atom_site_fract_y
_atom_site_fract_z
Si Si1 0.366228 0.612654 0.823694
Si Si2 0.616372 0.847550 0.254566
Si Si3 0.665735 0.734180 0.166840
Si Si4 0.543316 0.016502 0.804824
Si Si5 0.383791 0.333604 0.585366
Si Si6 0.065088 0.659823 0.219249
Si Si7 0.375635 0.986556 0.731196
Si Si8 0.934928 0.002991 0.957676
O O1 0.422835 0.568075 0.533308
O O2 0.134849 0.451523 0.795973
O O3 0.443664 0.653384 0.965909
O O4 0.503043 0.815060 0.025729
O O5 0.662080 0.829190 0.294308
O O6 0.537360 0.893971 0.499083
O O7 0.811317 0.993209 0.193099
O O8 0.680840 0.763419 0.386537
O O9 0.858182 0.824966 0.042768
O O10 0.461773 0.507079 0.906099
O O11 0.766768 0.220370 0.880041
O O12 0.390343 0.962617 0.820201
O O13 0.500000 0.000000 0.000000
O O14 0.218625 0.180219 0.348597
O O15 0.162897 0.800612 0.536545
O O16 0.000000 0.500000 0.000000
O O17 0.500000 0.000000 0.500000
O O18 0.000000 0.000000 0.000000
#
# Coordination Sequence:
#
# PCOD9090894 Si02
#       8
#     2   2   2   2   2   2   2   2
#     4  11  21  37  63  90 115 160 207 246 297 367
#     4  10  21  39  59  88 121 156 199 250 295 358
#     4  10  22  41  59  88 125 155 199 251 310 360
#     4  11  23  39  61  89 128 157 194 258 310 347
#     4  10  23  38  62  89 122 156 196 257 306 356
#     4  11  20  38  66  86 114 166 208 241 293 370
#     4  10  19  39  61  86 123 153 203 249 298 361
#     4   9  20  38  63  86 114 156 202 243 296 360
#
# _framework density 19.503488999999998
#
# number of rings (size 3 to 8) (size 9 to 14) (size 15 to 20)
#    0.000    1.750    5.000    0.375    3.500    4.500 
#    2.250    3.750    0.000    0.000    0.000    0.000 
#    0.000    0.000    0.000    0.000    0.000    0.000 
#
# Total GULP energy -89093.795839 kJ/mol
# GULP energy per Si atom -5568.362240 kJ/mol
# Density = 1.945910 g / cm^3
# Si number density = 19.503489 Si / 1000 Ang^3
#
#
#
# Elastic Constant Matrix: (Units=GPa)
#
#
# Indices 1 2 3 4 5 6 
#
# 1 106.5139 36.8691 26.6965 -0.3480 26.4956 0.3809
# 2 36.8691 86.9867 20.7128 -5.3285 26.0937 3.3396
# 3 26.6965 20.7128 68.2264 0.4525 18.3501 -7.4713
# 4 -0.3480 -5.3285 0.4525 34.5790 -5.7520 5.0718
# 5 26.4956 26.0937 18.3501 -5.7520 33.1206 -4.1708
# 6 0.3809 3.3396 -7.4713 5.0718 -4.1708 33.1099
#
#
#
# Elastic Compliance Matrix: (Units=1/GPa)
#
#
# Indices 1 2 3 4 5 6 
#
# 1 0.012676 -0.002738 -0.002346 -0.001275 -0.007043 -0.001091
# 2 -0.002738 0.016217 -0.001568 0.001343 -0.009914 -0.003413
# 3 -0.002346 -0.001568 0.018354 -0.002220 -0.006965 0.003789
# 4 -0.001275 0.001343 -0.002220 0.030808 0.005964 -0.004590
# 5 -0.007043 -0.009914 -0.006965 0.005964 0.049134 0.004785
# 6 -0.001091 -0.003413 0.003789 -0.004590 0.004785 0.032720
#
#
# Mechanical properties :
#
#
# Convention : Reuss Voigt Hill
#
# Bulk Modulus (GPa) = 29.46066 47.80932 38.63499
# Shear Modulus (GPa) = 27.09641 31.99181 29.54411
#
# Velocity S-wave (km/s) = 3.73139 4.05447 3.89628
# Velocity P-wave (km/s) = 5.80538 6.81797 6.33195
#
# Compressibility (1/GPa) = 0.03394357
#
# Stress axis : x y z
#
# Youngs Moduli (GPa) = 78.89220 61.66368 54.48391
#
# Poissons Ratio (x) = 0.16881 0.12780
# Poissons Ratio (y) = 0.21598 0.08545
# Poissons Ratio (z) = 0.18505 0.09671
#
# Static dielectric constant tensor:
#      x y z
#    x 1.766480 0.004120 0.008140 
#    y 0.004120 1.705010 0.024600 
#    z 0.008140 0.024600 1.724520 
# 
# From -- ./inp_files/350261.got.cif
#   From: 2010.05.17/outbox.cif.g08.bks.cpg/sg2_176_cif.got.tgz:350261.got - 2010.06.03 11:33:40.
