data_PCOD9090250
_publ_section_title
;
Structure prediction by ZEFSAII (Michael W. Deem and Ramdas Pophale) SiO2 
 PCOD9090250
Probable space group: P -1
;
_chemical_formula_sum "Si O2"
_cell_formula_units_Z 16
_cell_length_a 15.842499
_cell_length_b 19.703006
_cell_length_c 8.879046
_cell_angle_alpha 42.763129
_cell_angle_beta 138.713611
_cell_angle_gamma 157.218734
_cell_volume 698.768783
_symmetry_space_group_name_H-M "P -1"
_symmetry_group_IT_number 2
_symmetry_cell_setting 'triclinic'
loop_
_space_group_symop_operation_xyz
x,y,z
-x,-y,-z
loop_
_atom_site_type_symbol
_atom_site_label
_atom_site_fract_x
_atom_site_fract_y
_atom_site_fract_z
Si Si1 0.866702 0.631920 0.021619
Si Si2 0.310794 0.479412 0.367683
Si Si3 0.243112 0.205203 0.367001
Si Si4 0.132255 0.151183 0.708202
Si Si5 0.231688 0.817556 0.417526
Si Si6 0.193040 0.998547 0.212060
Si Si7 0.556982 0.319008 0.357429
Si Si8 0.944429 0.542289 0.728876
O O1 0.699479 0.476225 0.175169
O O2 0.110949 0.740354 0.217779
O O3 0.776017 0.548111 0.869722
O O4 0.852259 0.743756 0.833078
O O5 0.558492 0.678410 0.430673
O O6 0.296695 0.349673 0.573005
O O7 0.126415 0.403382 0.363273
O O8 0.381422 0.278252 0.275953
O O9 0.047841 0.994141 0.428064
O O10 0.232718 0.110467 0.959870
O O11 0.995177 0.094620 0.766362
O O12 0.136502 0.676496 0.639767
O O13 0.500000 0.000000 0.500000
O O14 0.133652 0.858233 0.283816
O O15 0.424787 0.147037 0.374080
O O16 0.718379 0.373690 0.606991
O O17 0.000000 0.500000 0.000000
#
# Coordination Sequence:
#
# PCOD9090250 Si02
#       8
#     2   2   2   2   2   2   2   2
#     4  11  22  40  60  95 133 172 210 264 330 392
#     4  11  23  40  64  99 134 166 210 274 333 389
#     4  10  20  38  64  95 132 167 212 261 332 390
#     4  10  20  37  66  97 130 165 211 263 326 390
#     4  11  24  44  64  93 132 174 222 272 320 391
#     4  10  19  38  64  95 121 166 215 264 319 388
#     4   9  21  37  67  90 121 170 221 261 329 395
#     4  10  23  46  67  89 126 174 226 274 325 390
#
# _framework density 22.897416
#
# number of rings (size 3 to 8) (size 9 to 14) (size 15 to 20)
#    0.000    1.750    2.500    1.500    0.000    2.500 
#    9.000    3.750    0.000    0.000    0.000    0.000 
#    0.000    0.000    0.000    0.000    0.000    0.000 
#
# Total GULP energy -89365.910011 kJ/mol
# GULP energy per Si atom -5585.369376 kJ/mol
# Density = 2.284530 g / cm^3
# Si number density = 22.897416 Si / 1000 Ang^3
#
#
#
# Elastic Constant Matrix: (Units=GPa)
#
#
# Indices 1 2 3 4 5 6 
#
# 1 31.1099 7.3428 1.9129 16.8804 -14.7116 -6.0685
# 2 7.3428 114.6555 50.3733 21.3858 -17.8113 -4.2524
# 3 1.9129 50.3733 138.0871 23.7747 -25.6202 -2.6620
# 4 16.8804 21.3858 23.7747 36.9936 -12.7540 0.3148
# 5 -14.7116 -17.8113 -25.6202 -12.7540 24.1584 7.5109
# 6 -6.0685 -4.2524 -2.6620 0.3148 7.5109 34.2349
#
#
#
# Elastic Compliance Matrix: (Units=1/GPa)
#
#
# Indices 1 2 3 4 5 6 
#
# 1 0.060464 0.001973 0.008782 -0.022578 0.034325 0.004323
# 2 0.001973 0.011211 -0.002576 -0.004251 0.004291 0.000640
# 3 0.008782 -0.002576 0.011359 -0.005380 0.012857 -0.000651
# 4 -0.022578 -0.004251 -0.005380 0.044189 0.002581 -0.005921
# 5 0.034325 0.004291 0.012857 0.002581 0.083814 -0.010795
# 6 0.004323 0.000640 -0.000651 -0.005921 -0.010795 0.032428
#
#
# Mechanical properties :
#
#
# Convention : Reuss Voigt Hill
#
# Bulk Modulus (GPa) = 10.06121 44.79005 27.42563
# Shear Modulus (GPa) = 19.21313 34.02560 26.61937
#
# Velocity S-wave (km/s) = 2.89986 3.85905 3.41332
# Velocity P-wave (km/s) = 3.95168 6.28172 5.24766
#
# Compressibility (1/GPa) = 0.09939160
#
# Stress axis : x y z
#
# Youngs Moduli (GPa) = 16.53865 89.20045 88.03475
#
# Poissons Ratio (x) = -0.17603 -0.77309
# Poissons Ratio (y) = -0.03264 0.22681
# Poissons Ratio (z) = -0.14524 0.22982
#
# Static dielectric constant tensor:
#      x y z
#    x 1.925210 0.022620 -0.009700 
#    y 0.022620 1.880550 0.027290 
#    z -0.009700 0.027290 1.860370 
# 
# From -- ./inp_files/243143.got.cif
#   From: 2010.05.17/outbox.cif.g08.bks.cpg/sg2_122_cif.got.tgz:243143.got - 2010.06.03 11:33:40.
