data_PCOD9090401
_publ_section_title
;
Structure prediction by ZEFSAII (Michael W. Deem and Ramdas Pophale) SiO2 
 PCOD9090401
Probable space group: P -1
;
_chemical_formula_sum "Si O2"
_cell_formula_units_Z 14
_cell_length_a 15.025098
_cell_length_b 10.836735
_cell_length_c 10.105975
_cell_angle_alpha 113.905002
_cell_angle_beta 45.222262
_cell_angle_gamma 147.066235
_cell_volume 556.452899
_symmetry_space_group_name_H-M "P -1"
_symmetry_group_IT_number 2
_symmetry_cell_setting 'triclinic'
loop_
_space_group_symop_operation_xyz
x,y,z
-x,-y,-z
loop_
_atom_site_type_symbol
_atom_site_label
_atom_site_fract_x
_atom_site_fract_y
_atom_site_fract_z
Si Si1 0.426739 0.206248 0.216250
Si Si2 0.725640 0.749258 0.136685
Si Si3 0.211347 0.009498 0.062925
Si Si4 0.309486 0.549631 0.541757
Si Si5 0.964385 0.677925 0.533490
Si Si6 0.148587 0.561311 0.183982
Si Si7 0.211409 0.754567 0.797064
O O1 0.600820 0.491511 0.175307
O O2 0.315543 0.112035 0.144618
O O3 0.187780 0.982075 0.457510
O O4 0.600227 0.235745 0.063492
O O5 0.552307 0.692579 0.371711
O O6 0.731994 0.808326 0.004282
O O7 0.000000 0.000000 0.000000
O O8 0.922740 0.715933 0.247744
O O9 0.320705 0.977512 0.861536
O O10 0.352258 0.748560 0.607547
O O11 0.219054 0.441637 0.438116
O O12 0.090339 0.661278 0.327605
O O13 0.847800 0.522545 0.723065
O O14 0.928306 0.316980 0.215077
O O15 0.000000 0.500000 0.000000
#
# Coordination Sequence:
#
# PCOD9090401 Si02
#       7
#     2   2   2   2   2   2   2
#     4  11  23  40  65  94 131 168 210 267 316 380
#     4  12  26  42  61  91 130 177 223 262 315 380
#     4  10  22  42  67  95 126 166 213 264 329 386
#     4   9  21  42  66  93 128 167 214 270 322 382
#     4   9  20  37  66 100 125 164 214 264 327 377
#     4  10  19  38  65  98 132 161 206 264 322 387
#     4   9  19  40  67  95 128 164 205 261 325 382
#
# _framework density 25.159364
#
# number of rings (size 3 to 8) (size 9 to 14) (size 15 to 20)
#    0.000    2.000    0.000    3.429    0.000    4.571 
#    0.000   10.000    0.000    0.000    0.000    0.000 
#    0.000    0.000    0.000    0.000    0.000    0.000 
#
# Total GULP energy -78432.105096 kJ/mol
# GULP energy per Si atom -5602.293221 kJ/mol
# Density = 2.510210 g / cm^3
# Si number density = 25.159364 Si / 1000 Ang^3
#
#
#
# Elastic Constant Matrix: (Units=GPa)
#
#
# Indices 1 2 3 4 5 6 
#
# 1 51.8261 12.5545 25.9687 -1.2244 -10.9405 3.9884
# 2 12.5545 104.0319 26.9761 -26.9435 -15.0893 7.6092
# 3 25.9687 26.9761 104.2634 -18.6195 -37.1710 10.1016
# 4 -1.2244 -26.9435 -18.6195 38.0775 0.9554 3.9665
# 5 -10.9405 -15.0893 -37.1710 0.9554 45.8710 -5.2624
# 6 3.9884 7.6092 10.1016 3.9665 -5.2624 24.2216
#
#
#
# Elastic Compliance Matrix: (Units=1/GPa)
#
#
# Indices 1 2 3 4 5 6 
#
# 1 0.022600 -0.002154 -0.005633 -0.003549 0.000182 -0.000075
# 2 -0.002154 0.013169 0.000671 0.009999 0.003589 -0.004920
# 3 -0.005633 0.000671 0.017232 0.008973 0.012044 -0.005323
# 4 -0.003549 0.009999 0.008973 0.038560 0.007654 -0.010951
# 5 0.000182 0.003589 0.012044 0.007654 0.032584 -0.000355
# 6 -0.000075 -0.004920 -0.005323 -0.010951 -0.000355 0.046779
#
#
# Mechanical properties :
#
#
# Convention : Reuss Voigt Hill
#
# Bulk Modulus (GPa) = 25.79339 43.45779 34.62559
# Shear Modulus (GPa) = 25.24254 34.60881 29.92567
#
# Velocity S-wave (km/s) = 3.17094 3.71291 3.45257
# Velocity P-wave (km/s) = 4.86628 5.97423 5.44849
#
# Compressibility (1/GPa) = 0.03876963
#
# Stress axis : x y z
#
# Youngs Moduli (GPa) = 44.24761 75.93861 58.03103
#
# Poissons Ratio (x) = 0.16356 0.32690
# Poissons Ratio (y) = 0.09530 -0.03896
# Poissons Ratio (z) = 0.24926 -0.05099
#
# Static dielectric constant tensor:
#      x y z
#    x 1.945590 -0.021550 0.009350 
#    y -0.021550 2.003750 0.006230 
#    z 0.009350 0.006230 2.030470 
# 
# From -- ./inp_files/464731.got.cif
#   From: 2010.05.17/outbox.cif.g08.bks.cpg/sg2_233_cif.got.tgz:464731.got - 2010.06.03 11:33:40.
