data_PCOD9090356
_publ_section_title
;
Structure prediction by ZEFSAII (Michael W. Deem and Ramdas Pophale) SiO2 
 PCOD9090356
Probable space group: P -1
;
_chemical_formula_sum "Si O2"
_cell_formula_units_Z 16
_cell_length_a 12.193622
_cell_length_b 8.869855
_cell_length_c 14.199327
_cell_angle_alpha 129.156540
_cell_angle_beta 41.104759
_cell_angle_gamma 134.118256
_cell_volume 705.999860
_symmetry_space_group_name_H-M "P -1"
_symmetry_group_IT_number 2
_symmetry_cell_setting 'triclinic'
loop_
_space_group_symop_operation_xyz
x,y,z
-x,-y,-z
loop_
_atom_site_type_symbol
_atom_site_label
_atom_site_fract_x
_atom_site_fract_y
_atom_site_fract_z
Si Si1 0.421507 0.458116 0.674936
Si Si2 0.796872 0.572126 0.886299
Si Si3 0.058516 0.362545 0.980376
Si Si4 0.508768 0.249222 0.807988
Si Si5 0.085466 0.073441 0.186379
Si Si6 0.731213 0.598483 0.665667
Si Si7 0.499773 0.820871 0.626758
Si Si8 0.077886 0.942038 0.521307
O O1 0.256881 0.382929 0.824911
O O2 0.608916 0.612194 0.665969
O O3 0.390733 0.604310 0.671915
O O4 0.463609 0.268690 0.530228
O O5 0.658668 0.351845 0.836680
O O6 0.941217 0.746629 0.788710
O O7 0.906182 0.559841 0.903753
O O8 0.653693 0.674567 0.045622
O O9 0.922358 0.114031 0.949652
O O10 0.000000 0.500000 0.000000
O O11 0.633912 0.365204 0.681831
O O12 0.419456 0.994343 0.749290
O O13 0.269627 0.234680 0.186610
O O14 0.957547 0.966236 0.318759
O O15 0.943415 0.690104 0.530571
O O16 0.705223 0.965402 0.590950
O O17 0.000000 0.000000 0.500000
#
# Coordination Sequence:
#
# PCOD9090356 Si02
#       8
#     2   2   2   2   2   2   2   2
#     4  11  22  42  61  97 129 169 219 272 320 389
#     4  10  22  44  66  93 136 164 223 274 316 395
#     4  12  25  41  67  96 132 174 219 271 328 386
#     4  10  22  41  67  98 122 176 217 268 327 383
#     4   9  21  41  64  91 129 173 209 268 330 373
#     4   9  19  39  66  89 126 170 209 262 326 373
#     4  11  23  39  66  90 133 169 216 271 326 386
#     4  10  19  38  65  92 127 173 208 267 324 384
#
# _framework density 22.662893
#
# number of rings (size 3 to 8) (size 9 to 14) (size 15 to 20)
#    0.750    1.000    3.750    0.375    1.750    3.000 
#    0.000    1.250    0.000    0.000    0.000    0.000 
#    0.000    0.000    0.000    0.000    0.000    0.000 
#
# Total GULP energy -89093.861174 kJ/mol
# GULP energy per Si atom -5568.366323 kJ/mol
# Density = 2.261131 g / cm^3
# Si number density = 22.662893 Si / 1000 Ang^3
#
#
#
# Elastic Constant Matrix: (Units=GPa)
#
#
# Indices 1 2 3 4 5 6 
#
# 1 93.6917 7.1184 15.8301 3.3267 27.6606 -5.3259
# 2 7.1184 78.7450 38.1347 6.4081 5.1651 -4.4404
# 3 15.8301 38.1347 56.2794 -3.2101 9.1407 -13.3257
# 4 3.3267 6.4081 -3.2101 39.7308 -1.1605 1.9215
# 5 27.6606 5.1651 9.1407 -1.1605 22.4405 -9.6241
# 6 -5.3259 -4.4404 -13.3257 1.9215 -9.6241 21.6981
#
#
#
# Elastic Compliance Matrix: (Units=1/GPa)
#
#
# Indices 1 2 3 4 5 6 
#
# 1 0.018278 0.001935 -0.004624 -0.002520 -0.025007 -0.008826
# 2 0.001935 0.020211 -0.015331 -0.004475 -0.003598 -0.006004
# 3 -0.004624 -0.015331 0.033268 0.004813 0.003302 0.017197
# 4 -0.002520 -0.004475 0.004813 0.026566 0.003890 0.000794
# 5 -0.025007 -0.003598 0.003302 0.003890 0.089957 0.034708
# 6 -0.008826 -0.006004 0.017197 0.000794 0.034708 0.068577
#
#
# Mechanical properties :
#
#
# Convention : Reuss Voigt Hill
#
# Bulk Modulus (GPa) = 27.99947 38.98695 33.49321
# Shear Modulus (GPa) = 16.40399 27.94941 22.17670
#
# Velocity S-wave (km/s) = 2.69332 3.51560 3.13157
# Velocity P-wave (km/s) = 4.69612 5.80686 5.28077
#
# Compressibility (1/GPa) = 0.03571496
#
# Stress axis : x y z
#
# Youngs Moduli (GPa) = 54.70972 49.47881 30.05912
#
# Poissons Ratio (x) = -0.09573 0.13900
# Poissons Ratio (y) = -0.10585 0.46085
# Poissons Ratio (z) = 0.25299 0.75858
#
# Static dielectric constant tensor:
#      x y z
#    x 1.853550 -0.010550 0.015300 
#    y -0.010550 1.921970 -0.013690 
#    z 0.015300 -0.013690 1.883470 
# 
# From -- ./inp_files/516229.got.cif
#   From: 2010.05.17/outbox.cif.g08.bks.cpg/sg2_259_cif.got.tgz:516229.got - 2010.06.03 11:33:40.
