data_PCOD9090210
_publ_section_title
;
Structure prediction by ZEFSAII (Michael W. Deem and Ramdas Pophale) SiO2 
 PCOD9090210
Probable space group: P -1
;
_chemical_formula_sum "Si O2"
_cell_formula_units_Z 16
_cell_length_a 11.129160
_cell_length_b 8.787192
_cell_length_c 14.730568
_cell_angle_alpha 61.469292
_cell_angle_beta 125.110631
_cell_angle_gamma 72.603136
_cell_volume 623.612906
_symmetry_space_group_name_H-M "P -1"
_symmetry_group_IT_number 2
_symmetry_cell_setting 'triclinic'
loop_
_space_group_symop_operation_xyz
x,y,z
-x,-y,-z
loop_
_atom_site_type_symbol
_atom_site_label
_atom_site_fract_x
_atom_site_fract_y
_atom_site_fract_z
Si Si1 0.074393 0.239441 0.570872
Si Si2 0.457670 0.032065 0.681505
Si Si3 0.184491 0.322560 0.217751
Si Si4 0.175039 0.836546 0.923347
Si Si5 0.779494 0.340783 0.823565
Si Si6 0.827182 0.453198 0.123821
Si Si7 0.307423 0.557922 0.530380
Si Si8 0.489662 0.813138 0.020694
O O1 0.218443 0.140928 0.568159
O O2 0.000000 0.500000 0.500000
O O3 0.844713 0.335533 0.471851
O O4 0.288118 0.981668 0.806289
O O5 0.403850 0.280818 0.616675
O O6 0.561091 0.931503 0.653137
O O7 0.659084 0.760022 0.915697
O O8 0.171858 0.506388 0.222816
O O9 0.094689 0.248375 0.262271
O O10 0.000000 0.500000 0.000000
O O11 0.235129 0.676590 0.904070
O O12 0.368104 0.802562 0.043759
O O13 0.212529 0.653621 0.065526
O O14 0.906042 0.169781 0.706403
O O15 0.525852 0.490628 0.643885
O O16 0.000000 0.000000 0.000000
O O17 0.749592 0.524010 0.174358
O O18 0.500000 0.000000 0.000000
#
# Coordination Sequence:
#
# PCOD9090210 Si02
#       8
#     2   2   2   2   2   2   2   2
#     4   8  17  35  58  87 126 160 201 266 318 366
#     4   9  17  37  67  88 126 177 207 259 330 382
#     4  10  19  38  64  92 121 174 213 256 328 384
#     4  11  24  43  66  97 133 171 210 272 331 370
#     4  12  25  41  69  96 130 172 221 263 320 393
#     4  10  20  40  66  88 134 174 209 264 329 386
#     4  10  23  41  64  97 131 164 224 268 318 383
#     4  10  22  36  65  98 123 167 221 266 320 382
#
# _framework density 25.656943999999999
#
# number of rings (size 3 to 8) (size 9 to 14) (size 15 to 20)
#    0.000    2.000    2.500    1.875    7.000    0.500 
#    0.000    5.000    0.000    0.000    0.000    0.000 
#    0.000    0.000    0.000    0.000    0.000    0.000 
#
# Total GULP energy -89372.515287 kJ/mol
# GULP energy per Si atom -5585.782205 kJ/mol
# Density = 2.559855 g / cm^3
# Si number density = 25.656944 Si / 1000 Ang^3
#
#
#
# Elastic Constant Matrix: (Units=GPa)
#
#
# Indices 1 2 3 4 5 6 
#
# 1 93.1001 18.8603 19.6636 9.8107 36.6891 9.3884
# 2 18.8603 101.9551 12.5012 -7.7738 17.4376 17.7659
# 3 19.6636 12.5012 128.0735 9.2255 26.2904 14.4475
# 4 9.8107 -7.7738 9.2255 27.6697 10.8935 9.5608
# 5 36.6891 17.4376 26.2904 10.8935 50.0440 -7.2003
# 6 9.3884 17.7659 14.4475 9.5608 -7.2003 50.8564
#
#
#
# Elastic Compliance Matrix: (Units=1/GPa)
#
#
# Indices 1 2 3 4 5 6 
#
# 1 0.016249 0.000241 0.000767 0.001223 -0.013448 -0.005436
# 2 0.000241 0.013147 0.000559 0.009307 -0.008185 -0.007705
# 3 0.000767 0.000559 0.009355 0.000677 -0.006398 -0.004027
# 4 0.001223 0.009307 0.000677 0.050497 -0.017742 -0.015674
# 5 -0.013448 -0.008185 -0.006398 -0.017742 0.042289 0.016483
# 6 -0.005436 -0.007705 -0.004027 -0.015674 0.016483 0.029783
#
#
# Mechanical properties :
#
#
# Convention : Reuss Voigt Hill
#
# Bulk Modulus (GPa) = 23.87509 47.24212 35.55860
# Shear Modulus (GPa) = 29.04469 43.85426 36.44947
#
# Velocity S-wave (km/s) = 3.36823 4.13880 3.77324
# Velocity P-wave (km/s) = 4.94493 6.42592 5.73345
#
# Compressibility (1/GPa) = 0.04188466
#
# Stress axis : x y z
#
# Youngs Moduli (GPa) = 61.54112 76.06086 106.89810
#
# Poissons Ratio (x) = -0.01829 -0.08203
# Poissons Ratio (y) = -0.01480 -0.05973
# Poissons Ratio (z) = -0.04723 -0.04250
#
# Static dielectric constant tensor:
#      x y z
#    x 2.162440 -0.094610 -0.023890 
#    y -0.094610 2.005460 0.037550 
#    z -0.023890 0.037550 2.071770 
# 
# From -- ./inp_files/566645.got.cif
#   From: 2010.05.17/outbox.cif.g08.bks.cpg/sg2_284_cif.got.tgz:566645.got - 2010.06.03 11:33:40.
