data_PCOD9090228
_publ_section_title
;
Structure prediction by ZEFSAII (Michael W. Deem and Ramdas Pophale) SiO2 
 PCOD9090228
Probable space group: P -1
;
_chemical_formula_sum "Si O2"
_cell_formula_units_Z 16
_cell_length_a 28.132387
_cell_length_b 8.363393
_cell_length_c 14.491200
_cell_angle_alpha 141.132320
_cell_angle_beta 19.096771
_cell_angle_gamma 133.785738
_cell_volume 683.882546
_symmetry_space_group_name_H-M "P -1"
_symmetry_group_IT_number 2
_symmetry_cell_setting 'triclinic'
loop_
_space_group_symop_operation_xyz
x,y,z
-x,-y,-z
loop_
_atom_site_type_symbol
_atom_site_label
_atom_site_fract_x
_atom_site_fract_y
_atom_site_fract_z
Si Si1 0.229200 0.307803 0.925506
Si Si2 0.481555 0.934335 0.396935
Si Si3 0.111524 0.329250 0.789145
Si Si4 0.197816 0.005431 0.190865
Si Si5 0.954369 0.456024 0.790934
Si Si6 0.556873 0.635253 0.803518
Si Si7 0.470067 0.185775 0.277563
Si Si8 0.185798 0.835374 0.333156
O O1 0.362448 0.327654 0.617855
O O2 0.319273 0.072621 0.717097
O O3 0.096060 0.343669 0.110776
O O4 0.171340 0.544848 0.207741
O O5 0.497785 0.630842 0.208156
O O6 0.500000 0.000000 0.500000
O O7 0.626610 0.023212 0.131543
O O8 0.272661 0.382372 0.489820
O O9 0.117332 0.023476 0.625145
O O10 0.073808 0.402312 0.996351
O O11 0.000000 0.500000 0.000000
O O12 0.120069 0.274232 0.404600
O O13 0.148482 0.763005 0.122713
O O14 0.132573 0.995083 0.408732
O O15 0.559574 0.699120 0.718381
O O16 0.461494 0.881169 0.144678
O O17 0.637878 0.197134 0.995018
#
# Coordination Sequence:
#
# PCOD9090228 Si02
#       8
#     2   2   2   2   2   2   2   2
#     4  11  22  38  65  93 126 165 212 260 315 372
#     4  12  25  41  64  96 132 168 203 264 325 376
#     4  11  20  37  64  95 122 162 217 263 310 365
#     4  10  21  39  63  96 127 166 215 260 310 378
#     4  10  21  38  65  94 127 169 214 260 307 379
#     4  10  23  38  62  97 128 158 210 268 318 369
#     4  10  19  38  64  93 122 158 216 266 305 370
#     4  10  20  33  62  97 119 161 215 262 302 374
#
# _framework density 23.39583
#
# number of rings (size 3 to 8) (size 9 to 14) (size 15 to 20)
#    0.000    1.500    3.750    1.875    3.500    0.500 
#    0.000    0.625    8.250    1.500    0.000    0.000 
#    0.000    0.000    0.000    0.000    0.000    0.000 
#
# Total GULP energy -89331.194059 kJ/mol
# GULP energy per Si atom -5583.199629 kJ/mol
# Density = 2.334258 g / cm^3
# Si number density = 23.395830 Si / 1000 Ang^3
#
#
#
# Elastic Constant Matrix: (Units=GPa)
#
#
# Indices 1 2 3 4 5 6 
#
# 1 118.6849 24.3329 47.9694 17.5349 -9.5895 11.6725
# 2 24.3329 72.1360 28.8618 10.8063 6.1909 21.5529
# 3 47.9694 28.8618 93.6510 19.6549 2.1740 5.8883
# 4 17.5349 10.8063 19.6549 22.9121 3.9914 0.6158
# 5 -9.5895 6.1909 2.1740 3.9914 53.9798 16.6042
# 6 11.6725 21.5529 5.8883 0.6158 16.6042 24.6673
#
#
#
# Elastic Compliance Matrix: (Units=1/GPa)
#
#
# Indices 1 2 3 4 5 6 
#
# 1 0.012546 0.001008 -0.004896 -0.006613 0.005658 -0.009292
# 2 0.001008 0.022901 -0.004598 -0.007945 0.005333 -0.022781
# 3 -0.004896 -0.004598 0.016006 -0.007641 -0.001581 0.003769
# 4 -0.006613 -0.007945 -0.007641 0.060226 -0.009591 0.016848
# 5 0.005658 0.005333 -0.001581 -0.009591 0.027440 -0.025190
# 6 -0.009292 -0.022781 0.003769 0.016848 -0.025190 0.080477
#
#
# Mechanical properties :
#
#
# Convention : Reuss Voigt Hill
#
# Bulk Modulus (GPa) = 29.00133 54.08888 41.54511
# Shear Modulus (GPa) = 20.15623 32.53237 26.34430
#
# Velocity S-wave (km/s) = 2.93837 3.73301 3.35927
# Velocity P-wave (km/s) = 4.89233 6.46140 5.73082
#
# Compressibility (1/GPa) = 0.03448118
#
# Stress axis : x y z
#
# Youngs Moduli (GPa) = 79.70789 43.66561 62.47542
#
# Poissons Ratio (x) = -0.04403 0.30589
# Poissons Ratio (y) = -0.08038 0.28729
# Poissons Ratio (z) = 0.39026 0.20079
#
# Static dielectric constant tensor:
#      x y z
#    x 1.922360 -0.028360 -0.025280 
#    y -0.028360 1.921710 0.019830 
#    z -0.025280 0.019830 1.895900 
# 
# From -- ./inp_files/544894.got.cif
#   From: 2010.05.17/outbox.cif.g08.bks.cpg/sg2_273_cif.got.tgz:544894.got - 2010.06.03 11:33:40.
