data_PCOD9090346
_publ_section_title
;
Structure prediction by ZEFSAII (Michael W. Deem and Ramdas Pophale) SiO2 
 PCOD9090346
Probable space group: P -1
;
_chemical_formula_sum "Si O2"
_cell_formula_units_Z 16
_cell_length_a 9.234607
_cell_length_b 13.565135
_cell_length_c 14.519841
_cell_angle_alpha 115.570234
_cell_angle_beta 82.576082
_cell_angle_gamma 44.241142
_cell_volume 821.243562
_symmetry_space_group_name_H-M "P -1"
_symmetry_group_IT_number 2
_symmetry_cell_setting 'triclinic'
loop_
_space_group_symop_operation_xyz
x,y,z
-x,-y,-z
loop_
_atom_site_type_symbol
_atom_site_label
_atom_site_fract_x
_atom_site_fract_y
_atom_site_fract_z
Si Si1 0.146086 0.301728 0.201565
Si Si2 0.140115 0.670693 0.890804
Si Si3 0.284962 0.084684 0.477808
Si Si4 0.736102 0.620340 0.946825
Si Si5 0.377888 0.467269 0.232669
Si Si6 0.602756 0.124482 0.205051
Si Si7 0.654185 0.690290 0.185186
Si Si8 0.260875 0.316810 0.475341
O O1 0.265161 0.286722 0.094899
O O2 0.399775 0.155708 0.195880
O O3 0.038874 0.255314 0.154315
O O4 0.862487 0.546390 0.366603
O O5 0.415034 0.563132 0.795310
O O6 0.236898 0.499795 0.869702
O O7 0.925724 0.883300 0.054918
O O8 0.296349 0.166407 0.429142
O O9 0.955999 0.291934 0.621528
O O10 0.500000 0.000000 0.500000
O O11 0.403936 0.894047 0.354205
O O12 0.625020 0.585862 0.889499
O O13 0.075794 0.400689 0.858606
O O14 0.576334 0.743812 0.105562
O O15 0.493023 0.301377 0.228713
O O16 0.536460 0.182193 0.342026
O O17 0.000000 0.500000 0.500000
#
# Coordination Sequence:
#
# PCOD9090346 Si02
#       8
#     2   2   2   2   2   2   2   2
#     4   9  18  38  59  88 113 153 199 249 292 350
#     4  11  23  38  58  89 125 158 195 246 312 359
#     4  12  21  39  65  90 120 162 199 251 300 359
#     4   9  18  38  55  84 117 147 203 239 290 353
#     4  11  22  41  60  84 123 163 197 248 307 361
#     4  10  21  39  63  87 115 159 206 251 296 354
#     4  10  22  35  59  89 117 156 201 244 291 359
#     4  10  19  38  65  92 114 152 216 251 289 350
#
# _framework density 19.482648000000001
#
# number of rings (size 3 to 8) (size 9 to 14) (size 15 to 20)
#    0.000    1.750    5.000    1.500    5.250    1.000 
#    2.250    1.875    0.000    0.000    0.000    0.000 
#    0.000    0.000    0.000    0.000    0.000    0.000 
#
# Total GULP energy -89198.423311 kJ/mol
# GULP energy per Si atom -5574.901457 kJ/mol
# Density = 1.943830 g / cm^3
# Si number density = 19.482648 Si / 1000 Ang^3
#
#
#
# Elastic Constant Matrix: (Units=GPa)
#
#
# Indices 1 2 3 4 5 6 
#
# 1 76.8073 19.4471 28.0959 -3.7066 -12.1388 -5.6495
# 2 19.4471 59.7744 30.1310 -2.0933 -7.0724 2.3100
# 3 28.0959 30.1310 134.4384 11.2815 -4.1274 5.0136
# 4 -3.7066 -2.0933 11.2815 30.2806 1.7969 4.2753
# 5 -12.1388 -7.0724 -4.1274 1.7969 20.5213 0.0529
# 6 -5.6495 2.3100 5.0136 4.2753 0.0529 11.6205
#
#
#
# Elastic Compliance Matrix: (Units=1/GPa)
#
#
# Indices 1 2 3 4 5 6 
#
# 1 0.017051 -0.003404 -0.003008 0.001100 0.008186 0.009822
# 2 -0.003404 0.020545 -0.003820 0.002918 0.004057 -0.005183
# 3 -0.003008 -0.003820 0.009322 -0.003571 -0.000899 -0.003407
# 4 0.001100 0.002918 -0.003571 0.036507 -0.002228 -0.011926
# 5 0.008186 0.004057 -0.000899 -0.002228 0.054974 0.004131
# 6 0.009822 -0.005183 -0.003407 -0.011926 0.004131 0.097699
#
#
# Mechanical properties :
#
#
# Convention : Reuss Voigt Hill
#
# Bulk Modulus (GPa) = 37.80058 47.37426 42.58742
# Shear Modulus (GPa) = 18.84088 25.37423 22.10755
#
# Velocity S-wave (km/s) = 3.11313 3.61280 3.37223
# Velocity P-wave (km/s) = 5.68915 6.46312 6.08845
#
# Compressibility (1/GPa) = 0.02645462
#
# Stress axis : x y z
#
# Youngs Moduli (GPa) = 58.64779 48.67326 107.26946
#
# Poissons Ratio (x) = 0.16567 0.32265
# Poissons Ratio (y) = 0.19962 0.40981
# Poissons Ratio (z) = 0.17640 0.18595
#
# Static dielectric constant tensor:
#      x y z
#    x 1.654030 -0.012050 0.022300 
#    y -0.012050 1.698720 0.004850 
#    z 0.022300 0.004850 1.764080 
# 
# From -- ./inp_files/262963.got.cif
#   From: 2010.05.17/outbox.cif.g08.bks.cpg/sg2_132_cif.got.tgz:262963.got - 2010.06.03 11:33:40.
