data_PCOD9090723
_publ_section_title
;
Structure prediction by ZEFSAII (Michael W. Deem and Ramdas Pophale) SiO2 
 PCOD9090723
Probable space group: P -1
;
_chemical_formula_sum "Si O2"
_cell_formula_units_Z 15
_cell_length_a 20.958367
_cell_length_b 8.861477
_cell_length_c 6.889919
_cell_angle_alpha 127.638838
_cell_angle_beta 55.881738
_cell_angle_gamma 139.937815
_cell_volume 641.100763
_symmetry_space_group_name_H-M "P -1"
_symmetry_group_IT_number 2
_symmetry_cell_setting 'triclinic'
loop_
_space_group_symop_operation_xyz
x,y,z
-x,-y,-z
loop_
_atom_site_type_symbol
_atom_site_label
_atom_site_fract_x
_atom_site_fract_y
_atom_site_fract_z
Si Si1 0.478161 0.727097 0.033672
Si Si2 0.490407 0.639501 0.402216
Si Si3 0.659253 0.298375 0.215584
Si Si4 0.039742 0.825789 0.595467
Si Si5 0.328289 0.789292 0.419452
Si Si6 0.126647 0.694294 0.652310
Si Si7 0.000000 0.500000 0.000000
Si Si8 0.112897 0.347727 0.929627
O O1 0.481481 0.674234 0.214069
O O2 0.374437 0.678506 0.145839
O O3 0.573345 0.017025 0.067513
O O4 0.492689 0.556349 0.759944
O O5 0.389797 0.570980 0.607861
O O6 0.587440 0.913663 0.516996
O O7 0.673153 0.269137 0.396979
O O8 0.769670 0.454440 0.065089
O O9 0.112153 0.797661 0.567474
O O10 0.980813 0.600686 0.360408
O O11 0.090897 0.105986 0.679113
O O12 0.951224 0.735755 0.828418
O O13 0.221028 0.709769 0.494363
O O14 0.106634 0.784470 0.947761
O O15 0.076146 0.457940 0.943360
#
# Coordination Sequence:
#
# PCOD9090723 Si02
#       8
#     2   2   2   2   2   2   1   2
#     4   8  15  29  47  80 112 138 170 225 287 335
#     4   8  15  29  47  80 112 138 170 225 287 335
#     4   9  16  30  54  79 111 137 178 232 280 318
#     4   9  22  38  56  71 120 152 188 209 290 346
#     4   9  16  30  54  79 111 137 178 232 280 318
#     4  10  19  39  54  83 106 154 180 235 274 332
#     4  10  20  34  60  80 116 124 198 244 266 306
#     4  10  19  39  54  83 106 154 180 235 274 332
#
# _framework density 23.397258000000001
#
# number of rings (size 3 to 8) (size 9 to 14) (size 15 to 20)
#    0.000    2.933    1.333    1.600    0.000    0.533 
#   14.400    0.000    0.000    6.400    0.000    0.000 
#    0.000    0.000    0.000    0.000    0.000    0.000 
#
# Total GULP energy -83655.470976 kJ/mol
# GULP energy per Si atom -5577.031398 kJ/mol
# Density = 2.334400 g / cm^3
# Si number density = 23.397258 Si / 1000 Ang^3
#
#
#
# Elastic Constant Matrix: (Units=GPa)
#
#
# Indices 1 2 3 4 5 6 
#
# 1 166.5760 53.9146 71.9763 -11.6522 -48.9023 18.3122
# 2 53.9146 52.0040 37.5827 -6.8066 -31.5482 13.1592
# 3 71.9763 37.5827 140.2476 2.9523 -37.5857 12.0036
# 4 -11.6522 -6.8066 2.9523 31.1358 -4.0814 -5.1835
# 5 -48.9023 -31.5482 -37.5857 -4.0814 57.3117 -19.1683
# 6 18.3122 13.1592 12.0036 -5.1835 -19.1683 24.9200
#
#
#
# Elastic Compliance Matrix: (Units=1/GPa)
#
#
# Indices 1 2 3 4 5 6 
#
# 1 0.010639 -0.006040 -0.002794 0.003672 0.004497 0.000940
# 2 -0.006040 0.037380 -0.003406 0.007605 0.013048 -0.002042
# 3 -0.002794 -0.003406 0.010120 -0.002412 0.002284 0.000232
# 4 0.003672 0.007605 -0.002412 0.039086 0.012633 0.012295
# 5 0.004497 0.013048 0.002284 0.012633 0.037653 0.020296
# 6 0.000940 -0.002042 0.000232 0.012295 0.020296 0.058573
#
#
# Mechanical properties :
#
#
# Convention : Reuss Voigt Hill
#
# Bulk Modulus (GPa) = 29.70965 76.19721 52.95343
# Shear Modulus (GPa) = 21.81976 35.69711 28.75843
#
# Velocity S-wave (km/s) = 3.05713 3.91025 3.50971
# Velocity P-wave (km/s) = 5.01865 7.28177 6.25344
#
# Compressibility (1/GPa) = 0.03365910
#
# Stress axis : x y z
#
# Youngs Moduli (GPa) = 93.99193 26.75232 98.81621
#
# Poissons Ratio (x) = 0.16159 0.27612
# Poissons Ratio (y) = 0.56772 0.33653
# Poissons Ratio (z) = 0.26263 0.09111
#
# Static dielectric constant tensor:
#      x y z
#    x 1.920720 -0.015650 0.168720 
#    y -0.015650 1.876910 -0.033470 
#    z 0.168720 -0.033470 2.196700 
# 
# From -- ./inp_files/202446.got.cif
#   From: 2010.05.17/outbox.cif.g08.bks.cpg/sg2_102_cif.got.tgz:202446.got - 2010.06.03 11:33:40.
