data_PCOD9090482
_publ_section_title
;
Structure prediction by ZEFSAII (Michael W. Deem and Ramdas Pophale) SiO2 
 PCOD9090482
Probable space group: P -1
;
_chemical_formula_sum "Si O2"
_cell_formula_units_Z 16
_cell_length_a 18.635652
_cell_length_b 25.170375
_cell_length_c 8.647371
_cell_angle_alpha 149.608126
_cell_angle_beta 41.249187
_cell_angle_gamma 158.010092
_cell_volume 743.327243
_symmetry_space_group_name_H-M "P -1"
_symmetry_group_IT_number 2
_symmetry_cell_setting 'triclinic'
loop_
_space_group_symop_operation_xyz
x,y,z
-x,-y,-z
loop_
_atom_site_type_symbol
_atom_site_label
_atom_site_fract_x
_atom_site_fract_y
_atom_site_fract_z
Si Si1 0.333588 0.295602 0.098468
Si Si2 0.999496 0.073055 0.488644
Si Si3 0.301810 0.157291 0.344090
Si Si4 0.046997 0.413637 0.207024
Si Si5 0.849764 0.662547 0.373318
Si Si6 0.604759 0.387033 0.678919
Si Si7 0.616145 0.987461 0.758425
Si Si8 0.741845 0.965284 0.216287
O O1 0.328174 0.410676 0.455016
O O2 0.528051 0.413512 0.990014
O O3 0.284590 0.169582 0.994144
O O4 0.151706 0.132010 0.861304
O O5 0.189303 0.170835 0.500948
O O6 0.069253 0.203301 0.565203
O O7 0.861814 0.012930 0.692663
O O8 0.512423 0.343814 0.555197
O O9 0.320831 0.098076 0.017073
O O10 0.171194 0.468165 0.288021
O O11 0.000000 0.500000 0.500000
O O12 0.173338 0.471857 0.999257
O O13 0.836258 0.189488 0.964471
O O14 0.030150 0.813593 0.581615
O O15 0.484331 0.185714 0.417406
O O16 0.625087 0.953163 0.482150
O O17 0.500000 0.000000 0.000000
#
# Coordination Sequence:
#
# PCOD9090482 Si02
#       8
#     2   2   2   2   2   2   2   2
#     4   9  15  30  52  81 115 140 187 224 275 325
#     4   9  16  27  51  84 117 152 176 220 274 343
#     4  10  16  28  51  83 123 143 176 221 285 338
#     4  11  22  37  58  81 109 143 195 241 264 322
#     4  10  17  31  54  81 110 147 190 227 275 318
#     4  10  22  35  56  89 113 146 179 231 281 336
#     4  10  20  39  64  79 101 147 193 231 281 313
#     4   9  16  28  55  85 108 143 184 230 268 335
#
# _framework density 21.524840999999999
#
# number of rings (size 3 to 8) (size 9 to 14) (size 15 to 20)
#    0.000    2.250    3.750    3.000    0.000    0.500 
#    0.000    1.250    0.000    9.750    0.000    0.000 
#    0.000    0.000    0.000    0.000    0.000    0.000 
#
# Total GULP energy -89302.863484 kJ/mol
# GULP energy per Si atom -5581.428968 kJ/mol
# Density = 2.147585 g / cm^3
# Si number density = 21.524841 Si / 1000 Ang^3
#
#
#
# Elastic Constant Matrix: (Units=GPa)
#
#
# Indices 1 2 3 4 5 6 
#
# 1 69.7835 39.3959 46.9770 -14.2856 15.1291 30.0784
# 2 39.3959 73.3170 51.4985 -2.3899 3.9070 35.1520
# 3 46.9770 51.4985 136.7922 -22.0510 1.7638 20.5417
# 4 -14.2856 -2.3899 -22.0510 47.4344 12.5478 -5.7834
# 5 15.1291 3.9070 1.7638 12.5478 44.8423 -0.8991
# 6 30.0784 35.1520 20.5417 -5.7834 -0.8991 42.2053
#
#
#
# Elastic Compliance Matrix: (Units=1/GPa)
#
#
# Indices 1 2 3 4 5 6 
#
# 1 0.031596 -0.005454 -0.005079 0.008442 -0.012640 -0.014616
# 2 -0.005454 0.030977 -0.007984 -0.006318 0.000845 -0.018875
# 3 -0.005079 -0.007984 0.011936 0.003985 0.000925 0.005025
# 4 0.008442 -0.006318 0.003985 0.027987 -0.010267 0.000923
# 5 -0.012640 0.000845 0.000925 -0.010267 0.029470 0.007075
# 6 -0.014616 -0.018875 0.005025 0.000923 0.007075 0.047661
#
#
# Mechanical properties :
#
#
# Convention : Reuss Voigt Hill
#
# Bulk Modulus (GPa) = 26.68423 61.73728 44.21075
# Shear Modulus (GPa) = 21.81953 36.36449 29.09201
#
# Velocity S-wave (km/s) = 3.18731 4.11471 3.68034
# Velocity P-wave (km/s) = 5.09599 7.16370 6.21642
#
# Compressibility (1/GPa) = 0.03747532
#
# Stress axis : x y z
#
# Youngs Moduli (GPa) = 31.64912 32.28245 83.78045
#
# Poissons Ratio (x) = 0.17608 0.42551
# Poissons Ratio (y) = 0.17262 0.66888
# Poissons Ratio (z) = 0.16074 0.25773
#
# Static dielectric constant tensor:
#      x y z
#    x 1.806800 0.030770 0.020030 
#    y 0.030770 1.855190 -0.003070 
#    z 0.020030 -0.003070 1.847900 
# 
# From -- ./inp_files/350315.got.cif
#   From: 2010.05.17/outbox.cif.g08.bks.cpg/sg2_176_cif.got.tgz:350315.got - 2010.06.03 11:33:40.
