data_PCOD9090008
_publ_section_title
;
Structure prediction by ZEFSAII (Michael W. Deem and Ramdas Pophale) SiO2 
 PCOD9090008
Probable space group: P -1
;
_chemical_formula_sum "Si O2"
_cell_formula_units_Z 16
_cell_length_a 17.929137
_cell_length_b 7.555916
_cell_length_c 10.272273
_cell_angle_alpha 100.052760
_cell_angle_beta 124.604780
_cell_angle_gamma 39.527073
_cell_volume 630.058027
_symmetry_space_group_name_H-M "P -1"
_symmetry_group_IT_number 2
_symmetry_cell_setting 'triclinic'
loop_
_space_group_symop_operation_xyz
x,y,z
-x,-y,-z
loop_
_atom_site_type_symbol
_atom_site_label
_atom_site_fract_x
_atom_site_fract_y
_atom_site_fract_z
Si Si1 0.696100 0.488701 0.800901
Si Si2 0.774743 0.090994 0.602707
Si Si3 0.274459 0.448066 0.732831
Si Si4 0.938322 0.281347 0.685697
Si Si5 0.492187 0.288217 0.761146
Si Si6 0.639121 0.964934 0.591414
Si Si7 0.282948 0.780933 0.957416
Si Si8 0.891533 0.380277 0.169125
O O1 0.783965 0.214305 0.749224
O O2 0.532356 0.815117 0.608855
O O3 0.661297 0.423932 0.886286
O O4 0.802621 0.476833 0.960165
O O5 0.669893 0.354450 0.417263
O O6 0.682264 0.071281 0.564249
O O7 0.956873 0.736950 0.698033
O O8 0.134815 0.615655 0.517635
O O9 0.435244 0.205101 0.773337
O O10 0.270533 0.658248 0.812154
O O11 0.242163 0.379681 0.819010
O O12 0.788613 0.586360 0.665883
O O13 0.096514 0.144586 0.842280
O O14 0.010461 0.966488 0.747104
O O15 0.603989 0.078122 0.718213
O O16 0.595487 0.256005 0.945958
#
# Coordination Sequence:
#
# PCOD9090008 Si02
#       8
#     2   2   2   2   2   2   2   2
#     4   9  18  37  58  88 114 152 197 232 289 352
#     4  11  19  36  63  85 118 153 195 238 287 353
#     4  10  21  39  60  85 113 160 203 235 276 349
#     4  10  22  38  58  89 122 151 189 247 294 337
#     4  11  20  36  62  89 115 153 198 238 285 351
#     4  11  22  38  59  92 124 146 185 248 309 334
#     4  10  19  38  63  87 112 154 205 238 274 353
#     4  10  21  39  65  84 110 159 208 234 273 353
#
# _framework density 25.394487999999999
#
# number of rings (size 3 to 8) (size 9 to 14) (size 15 to 20)
#    0.000    2.000    3.750    3.000    0.000    1.000 
#    0.000    4.375    0.000    0.000    0.000    0.000 
#    0.000    0.000    0.000    0.000    0.000    0.000 
#
# Total GULP energy -89492.272514 kJ/mol
# GULP energy per Si atom -5593.267032 kJ/mol
# Density = 2.533669 g / cm^3
# Si number density = 25.394488 Si / 1000 Ang^3
#
#
#
# Elastic Constant Matrix: (Units=GPa)
#
#
# Indices 1 2 3 4 5 6 
#
# 1 71.5638 26.7730 30.0324 -11.1598 -0.3420 -16.0799
# 2 26.7730 76.5383 29.2494 0.4861 -11.3600 -20.6077
# 3 30.0324 29.2494 158.6123 -8.5451 8.5635 -14.0350
# 4 -11.1598 0.4861 -8.5451 37.2052 -6.6912 -4.1314
# 5 -0.3420 -11.3600 8.5635 -6.6912 43.5278 -11.8793
# 6 -16.0799 -20.6077 -14.0350 -4.1314 -11.8793 36.6691
#
#
#
# Elastic Compliance Matrix: (Units=1/GPa)
#
#
# Indices 1 2 3 4 5 6 
#
# 1 0.018753 -0.003561 -0.002067 0.006423 0.002514 0.006969
# 2 -0.003561 0.019630 -0.002347 0.001015 0.008867 0.011559
# 3 -0.002067 -0.002347 0.007274 0.000733 -0.001944 0.000012
# 4 0.006423 0.001015 0.000733 0.031409 0.007642 0.009681
# 5 0.002514 0.008867 -0.001944 0.007642 0.031327 0.016351
# 6 0.006969 0.011559 0.000012 0.009681 0.016351 0.043215
#
#
# Mechanical properties :
#
#
# Convention : Reuss Voigt Hill
#
# Bulk Modulus (GPa) = 33.66255 53.20268 43.43261
# Shear Modulus (GPa) = 28.17527 38.19106 33.18317
#
# Velocity S-wave (km/s) = 3.33453 3.88224 3.61876
# Velocity P-wave (km/s) = 5.30190 6.41028 5.88225
#
# Compressibility (1/GPa) = 0.02970660
#
# Stress axis : x y z
#
# Youngs Moduli (GPa) = 53.32574 50.94311 137.46950
#
# Poissons Ratio (x) = 0.18141 0.28416
# Poissons Ratio (y) = 0.18990 0.32263
# Poissons Ratio (z) = 0.11023 0.11956
#
# Static dielectric constant tensor:
#      x y z
#    x 2.142310 -0.077500 0.042160 
#    y -0.077500 2.098390 -0.025020 
#    z 0.042160 -0.025020 1.959660 
# 
# From -- ./inp_files/474681.got.cif
#   From: 2010.05.17/outbox.cif.g08.bks.cpg/sg2_238_cif.got.tgz:474681.got - 2010.06.03 11:33:40.
