data_PCOD9090056
_publ_section_title
;
Structure prediction by ZEFSAII (Michael W. Deem and Ramdas Pophale) SiO2 
 PCOD9090056
Probable space group: P -1
;
_chemical_formula_sum "Si O2"
_cell_formula_units_Z 16
_cell_length_a 14.443284
_cell_length_b 13.691261
_cell_length_c 19.357930
_cell_angle_alpha 161.179658
_cell_angle_beta 34.946165
_cell_angle_gamma 145.995885
_cell_volume 677.493800
_symmetry_space_group_name_H-M "P -1"
_symmetry_group_IT_number 2
_symmetry_cell_setting 'triclinic'
loop_
_space_group_symop_operation_xyz
x,y,z
-x,-y,-z
loop_
_atom_site_type_symbol
_atom_site_label
_atom_site_fract_x
_atom_site_fract_y
_atom_site_fract_z
Si Si1 0.280325 0.886614 0.974212
Si Si2 0.355433 0.614826 0.260839
Si Si3 0.757291 0.141594 0.638254
Si Si4 0.401526 0.130254 0.300941
Si Si5 0.189731 0.481960 0.882886
Si Si6 0.281713 0.217775 0.787202
Si Si7 0.938062 0.800940 0.756017
Si Si8 0.095330 0.297268 0.594017
O O1 0.464168 0.011825 0.912684
O O2 0.295959 0.762907 0.957835
O O3 0.179149 0.590667 0.789055
O O4 0.165050 0.119074 0.192633
O O5 0.340643 0.690825 0.240735
O O6 0.543487 0.625460 0.175746
O O7 0.206822 0.303921 0.166989
O O8 0.314313 0.912499 0.524472
O O9 0.950026 0.352567 0.672523
O O10 0.662784 0.030348 0.693796
O O11 0.781105 0.828448 0.377963
O O12 0.500000 0.500000 0.500000
O O13 0.238961 0.169172 0.385057
O O14 0.233625 0.443983 0.910434
O O15 0.000000 0.500000 0.000000
O O16 0.113154 0.078195 0.842515
O O17 0.000000 0.500000 0.500000
O O18 0.000000 0.000000 0.500000
#
# Coordination Sequence:
#
# PCOD9090056 Si02
#       8
#     2   2   2   2   2   2   2   2
#     4  11  20  37  61  94 128 157 208 262 317 375
#     4   9  20  39  60  86 118 167 213 246 299 381
#     4  10  19  38  63  90 124 162 207 251 318 377
#     4   9  17  34  58  90 127 155 196 263 311 368
#     4  11  19  33  62  95 121 156 201 259 322 379
#     4   9  19  38  62  83 123 164 200 256 316 362
#     4  10  21  41  61  84 127 170 207 257 309 372
#     4   9  17  35  61  91 123 161 197 253 322 367
#
# _framework density 23.616451000000001
#
# number of rings (size 3 to 8) (size 9 to 14) (size 15 to 20)
#    0.000    2.250    5.000    0.000    0.000    0.000 
#   11.250    5.625    0.000    0.000    0.000    0.000 
#    0.000    0.000    0.000    0.000    0.000    0.000 
#
# Total GULP energy -89389.092157 kJ/mol
# GULP energy per Si atom -5586.818260 kJ/mol
# Density = 2.356270 g / cm^3
# Si number density = 23.616451 Si / 1000 Ang^3
#
#
#
# Elastic Constant Matrix: (Units=GPa)
#
#
# Indices 1 2 3 4 5 6 
#
# 1 150.0189 86.4644 50.9282 -3.8574 -39.0123 5.0984
# 2 86.4644 194.5037 37.3311 -16.1676 -30.0567 9.1961
# 3 50.9282 37.3311 110.2635 -11.7030 -25.1083 4.1636
# 4 -3.8574 -16.1676 -11.7030 29.6208 2.2342 -11.2062
# 5 -39.0123 -30.0567 -25.1083 2.2342 49.0139 -6.7388
# 6 5.0984 9.1961 4.1636 -11.2062 -6.7388 29.8707
#
#
#
# Elastic Compliance Matrix: (Units=1/GPa)
#
#
# Indices 1 2 3 4 5 6 
#
# 1 0.011103 -0.003761 -0.002912 -0.002135 0.005140 0.000027
# 2 -0.003761 0.007309 -0.000088 0.003349 0.001284 -0.000050
# 3 -0.002912 -0.000088 0.011682 0.004436 0.003599 0.001372
# 4 -0.002135 0.003349 0.004436 0.042659 0.002793 0.015349
# 5 0.005140 0.001284 0.003599 0.002793 0.027759 0.005536
# 6 0.000027 -0.000050 0.001372 0.015349 0.005536 0.040304
#
#
# Mechanical properties :
#
#
# Convention : Reuss Voigt Hill
#
# Bulk Modulus (GPa) = 60.33840 89.35928 74.84884
# Shear Modulus (GPa) = 31.27671 40.37189 35.82430
#
# Velocity S-wave (km/s) = 3.64313 4.13907 3.89899
# Velocity P-wave (km/s) = 6.58037 7.79503 7.21331
#
# Compressibility (1/GPa) = 0.01657320
#
# Stress axis : x y z
#
# Youngs Moduli (GPa) = 90.06475 136.81098 85.59816
#
# Poissons Ratio (x) = 0.51459 0.24926
# Poissons Ratio (y) = 0.33876 0.00750
# Poissons Ratio (z) = 0.26226 0.01199
#
# Static dielectric constant tensor:
#      x y z
#    x 1.918610 0.032730 0.031000 
#    y 0.032730 1.923020 0.012710 
#    z 0.031000 0.012710 1.946690 
# 
# From -- ./inp_files/612146.got.cif
#   From: 2010.05.17/outbox.cif.g08.bks.cpg/sg2_307_cif.got.tgz:612146.got - 2010.06.03 11:33:40.
