data_PCOD9090797
_publ_section_title
;
Structure prediction by ZEFSAII (Michael W. Deem and Ramdas Pophale) SiO2 
 PCOD9090797
Probable space group: P -1
;
_chemical_formula_sum "Si O2"
_cell_formula_units_Z 16
_cell_length_a 8.984865
_cell_length_b 18.239738
_cell_length_c 11.442439
_cell_angle_alpha 32.734889
_cell_angle_beta 128.216889
_cell_angle_gamma 135.409808
_cell_volume 710.926068
_symmetry_space_group_name_H-M "P -1"
_symmetry_group_IT_number 2
_symmetry_cell_setting 'triclinic'
loop_
_space_group_symop_operation_xyz
x,y,z
-x,-y,-z
loop_
_atom_site_type_symbol
_atom_site_label
_atom_site_fract_x
_atom_site_fract_y
_atom_site_fract_z
Si Si1 0.381576 0.515549 0.225837
Si Si2 0.258803 0.507215 0.717834
Si Si3 0.214081 0.749125 0.230223
Si Si4 0.355322 0.781994 0.996468
Si Si5 0.904601 0.555747 0.040870
Si Si6 0.065925 0.310996 0.505251
Si Si7 0.660846 0.999097 0.676148
Si Si8 0.049506 0.128251 0.952072
O O1 0.580345 0.525067 0.239322
O O2 0.416779 0.656298 0.137707
O O3 0.272304 0.363163 0.455182
O O4 0.206652 0.495223 0.069035
O O5 0.292608 0.675293 0.470813
O O6 0.269687 0.474437 0.903706
O O7 0.016898 0.386199 0.734799
O O8 0.351195 0.785611 0.129795
O O9 0.153575 0.881359 0.064231
O O10 0.107720 0.721793 0.916943
O O11 0.519657 0.937063 0.807783
O O12 0.005239 0.447734 0.280600
O O13 0.114807 0.276930 0.704365
O O14 0.857508 0.164618 0.558861
O O15 0.500000 0.000000 0.500000
O O16 0.775399 0.889577 0.859783
O O17 0.000000 0.000000 0.000000
#
# Coordination Sequence:
#
# PCOD9090797 Si02
#       8
#     2   2   2   2   2   2   2   2
#     4  11  21  35  62  95 123 162 204 248 307 368
#     4  10  21  34  61  90 128 158 198 256 308 356
#     4  10  21  40  58  90 124 157 202 260 303 359
#     4  10  22  37  63  90 121 160 204 249 303 367
#     4  10  19  39  59  90 128 160 198 255 305 361
#     4  10  21  38  60  87 125 160 203 250 306 361
#     4  11  22  40  63  89 117 162 206 252 305 368
#     4  10  22  41  63  83 121 167 204 249 308 367
#
# _framework density 22.505855
#
# number of rings (size 3 to 8) (size 9 to 14) (size 15 to 20)
#    0.000    1.750    1.250    4.125    3.500    0.500 
#    0.000    5.625    0.000    0.000    0.000    0.000 
#    0.000    0.000    0.000    0.000    0.000    0.000 
#
# Total GULP energy -89309.061346 kJ/mol
# GULP energy per Si atom -5581.816334 kJ/mol
# Density = 2.245463 g / cm^3
# Si number density = 22.505855 Si / 1000 Ang^3
#
#
#
# Elastic Constant Matrix: (Units=GPa)
#
#
# Indices 1 2 3 4 5 6 
#
# 1 156.3538 19.8441 32.6848 -1.4524 -20.8863 -9.4928
# 2 19.8441 59.0395 22.0597 6.1281 -1.4022 -1.9595
# 3 32.6848 22.0597 60.8696 4.6360 -10.9785 -1.7499
# 4 -1.4524 6.1281 4.6360 36.4540 9.6513 -3.0273
# 5 -20.8863 -1.4022 -10.9785 9.6513 49.0206 2.6896
# 6 -9.4928 -1.9595 -1.7499 -3.0273 2.6896 32.1658
#
#
#
# Elastic Compliance Matrix: (Units=1/GPa)
#
#
# Indices 1 2 3 4 5 6 
#
# 1 0.007658 -0.001310 -0.003203 0.000475 0.002313 0.001857
# 2 -0.001310 0.020056 -0.006565 -0.002289 -0.001023 0.000348
# 3 -0.003203 -0.006565 0.021414 -0.002828 0.003842 -0.000768
# 4 0.000475 -0.002289 -0.002828 0.030218 -0.006624 0.003245
# 5 0.002313 -0.001023 0.003842 -0.006624 0.023617 -0.001769
# 6 0.001857 0.000348 -0.000768 0.003245 -0.001769 0.032070
#
#
# Mechanical properties :
#
#
# Convention : Reuss Voigt Hill
#
# Bulk Modulus (GPa) = 37.07593 47.27112 42.17352
# Shear Modulus (GPa) = 30.08790 36.97304 33.53047
#
# Velocity S-wave (km/s) = 3.66032 4.05757 3.86405
# Velocity P-wave (km/s) = 5.86290 6.55754 6.21992
#
# Compressibility (1/GPa) = 0.02697168
#
# Stress axis : x y z
#
# Youngs Moduli (GPa) = 130.58905 49.86043 46.69830
#
# Poissons Ratio (x) = 0.06531 0.14957
# Poissons Ratio (y) = 0.17105 0.30659
# Poissons Ratio (z) = 0.41825 0.32735
#
# Static dielectric constant tensor:
#      x y z
#    x 1.936010 -0.003580 -0.002400 
#    y -0.003580 1.919510 -0.019030 
#    z -0.002400 -0.019030 1.870890 
# 
# From -- ./inp_files/404579.got.cif
#   From: 2010.05.17/outbox.cif.g08.bks.cpg/sg2_203_cif.got.tgz:404579.got - 2010.06.03 11:33:40.
