data_PCOD9090450
_publ_section_title
;
Structure prediction by ZEFSAII (Michael W. Deem and Ramdas Pophale) SiO2 
 PCOD9090450
Probable space group: P -1
;
_chemical_formula_sum "Si O2"
_cell_formula_units_Z 14
_cell_length_a 12.465159
_cell_length_b 8.352528
_cell_length_c 8.310145
_cell_angle_alpha 125.570393
_cell_angle_beta 119.934951
_cell_angle_gamma 57.739282
_cell_volume 572.337023
_symmetry_space_group_name_H-M "P -1"
_symmetry_group_IT_number 2
_symmetry_cell_setting 'triclinic'
loop_
_space_group_symop_operation_xyz
x,y,z
-x,-y,-z
loop_
_atom_site_type_symbol
_atom_site_label
_atom_site_fract_x
_atom_site_fract_y
_atom_site_fract_z
Si Si1 0.594672 0.361495 0.848201
Si Si2 0.481573 0.075339 0.754865
Si Si3 0.412965 0.287032 0.161203
Si Si4 0.153803 0.950037 0.071168
Si Si5 0.035445 0.575327 0.326895
Si Si6 0.864002 0.784000 0.064050
Si Si7 0.198387 0.310420 0.532167
O O1 0.565562 0.144661 0.723793
O O2 0.581289 0.484425 0.742526
O O3 0.750548 0.284053 0.956879
O O4 0.500000 0.500000 0.000000
O O5 0.334703 0.206490 0.664819
O O6 0.529456 0.830387 0.696854
O O7 0.493678 0.164178 0.994167
O O8 0.264483 0.278267 0.028214
O O9 0.185273 0.999393 0.941557
O O10 0.177482 0.117692 0.309015
O O11 0.000000 0.000000 0.000000
O O12 0.057527 0.382961 0.109332
O O13 0.169896 0.499018 0.488614
O O14 0.916713 0.600110 0.373173
O O15 0.968797 0.773544 0.276490
#
# Coordination Sequence:
#
# PCOD9090450 Si02
#       7
#     2   2   2   2   2   2   2
#     4  10  23  38  63  97 123 167 218 264 312 383
#     4  10  20  40  64  93 127 168 215 257 325 379
#     4  10  20  37  67  92 125 170 214 261 312 390
#     4  11  25  42  63  93 129 172 220 270 326 385
#     4   9  20  34  62  97 115 169 216 253 319 385
#     4  10  19  38  66  90 125 168 219 254 318 388
#     4  10  21  39  63  90 134 167 210 269 325 380
#
# _framework density 24.461112
#
# number of rings (size 3 to 8) (size 9 to 14) (size 15 to 20)
#    0.000    2.000    2.857    0.000    6.000    1.714 
#    0.000    2.857    0.000    0.000    0.000    0.000 
#    0.000    0.000    0.000    0.000    0.000    0.000 
#
# Total GULP energy -77986.908315 kJ/mol
# GULP energy per Si atom -5570.493451 kJ/mol
# Density = 2.440544 g / cm^3
# Si number density = 24.461112 Si / 1000 Ang^3
#
#
#
# Elastic Constant Matrix: (Units=GPa)
#
#
# Indices 1 2 3 4 5 6 
#
# 1 123.8994 74.2448 27.5037 -10.7971 2.7465 -7.6148
# 2 74.2448 152.0243 48.5445 -51.6272 2.6281 19.1761
# 3 27.5037 48.5445 56.4423 -33.5669 -1.3540 9.7015
# 4 -10.7971 -51.6272 -33.5669 53.6409 1.2257 -10.3014
# 5 2.7465 2.6281 -1.3540 1.2257 27.7415 -6.2453
# 6 -7.6148 19.1761 9.7015 -10.3014 -6.2453 59.6982
#
#
#
# Elastic Compliance Matrix: (Units=1/GPa)
#
#
# Indices 1 2 3 4 5 6 
#
# 1 0.013532 -0.008083 -0.004567 -0.007180 0.000391 0.003867
# 2 -0.008083 0.015585 -0.002081 0.011359 -0.002173 -0.003966
# 3 -0.004567 -0.002081 0.032059 0.016707 0.000995 -0.002137
# 4 -0.007180 0.011359 0.016707 0.038465 -0.001428 -0.000792
# 5 0.000391 -0.002173 0.000995 -0.001428 0.037280 0.004240
# 6 0.003867 -0.003966 -0.002137 -0.000792 0.004240 0.019172
#
#
# Mechanical properties :
#
#
# Convention : Reuss Voigt Hill
#
# Bulk Modulus (GPa) = 31.53172 70.32800 50.92986
# Shear Modulus (GPa) = 25.49361 40.35433 32.92397
#
# Velocity S-wave (km/s) = 3.23183 4.06610 3.67273
# Velocity P-wave (km/s) = 5.18120 7.13145 6.23307
#
# Compressibility (1/GPa) = 0.03171410
#
# Stress axis : x y z
#
# Youngs Moduli (GPa) = 73.89964 64.16311 31.19236
#
# Poissons Ratio (x) = 0.51864 0.14247
# Poissons Ratio (y) = 0.59734 0.06490
# Poissons Ratio (z) = 0.33753 0.13350
#
# Static dielectric constant tensor:
#      x y z
#    x 1.960810 0.041200 0.056630 
#    y 0.041200 2.173550 -0.051400 
#    z 0.056630 -0.051400 2.037700 
# 
# From -- ./inp_files/240670.got.cif
#   From: 2010.05.17/outbox.cif.g08.bks.cpg/sg2_121_cif.got.tgz:240670.got - 2010.06.03 11:33:40.
