data_PCOD9090743
_publ_section_title
;
Structure prediction by ZEFSAII (Michael W. Deem and Ramdas Pophale) SiO2 
 PCOD9090743
Probable space group: P -1
;
_chemical_formula_sum "Si O2"
_cell_formula_units_Z 14
_cell_length_a 5.252176
_cell_length_b 26.370483
_cell_length_c 6.786292
_cell_angle_alpha 64.419232
_cell_angle_beta 69.987124
_cell_angle_gamma 106.327612
_cell_volume 687.055373
_symmetry_space_group_name_H-M "P -1"
_symmetry_group_IT_number 2
_symmetry_cell_setting 'triclinic'
loop_
_space_group_symop_operation_xyz
x,y,z
-x,-y,-z
loop_
_atom_site_type_symbol
_atom_site_label
_atom_site_fract_x
_atom_site_fract_y
_atom_site_fract_z
Si Si1 0.281512 0.053784 0.705059
Si Si2 0.212260 0.148373 0.833931
Si Si3 0.991423 0.584226 0.720952
Si Si4 0.263461 0.725451 0.595917
Si Si5 0.962330 0.088723 0.403059
Si Si6 0.155280 0.213257 0.398409
Si Si7 0.437448 0.528722 0.664372
O O1 0.366982 0.119576 0.692377
O O2 0.147002 0.060018 0.520410
O O3 0.000000 0.000000 0.000000
O O4 0.409162 0.951226 0.387450
O O5 0.009003 0.166921 0.711530
O O6 0.491619 0.218269 0.713137
O O7 0.029954 0.098512 0.137701
O O8 0.141419 0.654965 0.659188
O O9 0.758797 0.573946 0.620802
O O10 0.253832 0.567380 0.610998
O O11 0.782055 0.531270 0.031809
O O12 0.990672 0.741685 0.676954
O O13 0.482931 0.741881 0.703775
O O14 0.091477 0.161793 0.331301
O O15 0.500000 0.500000 0.500000
#
# Coordination Sequence:
#
# PCOD9090743 Si02
#       7
#     2   2   2   2   2   2   2
#     4  11  24  40  59  87 116 150 197 237 281 348
#     4   9  23  37  61  81 121 146 190 239 291 337
#     4  10  21  38  60  84 118 151 194 239 284 337
#     4  10  19  39  57  84 119 147 187 246 284 335
#     4  11  21  39  61  80 113 157 183 236 299 335
#     4   9  19  37  54  81 118 143 184 235 288 338
#     4  10  21  40  59  84 118 157 191 237 284 335
#
# _framework density 20.376815000000001
#
# number of rings (size 3 to 8) (size 9 to 14) (size 15 to 20)
#    0.857    1.143    1.429    1.714    2.000    1.143 
#    5.143    0.000    0.000    0.000    0.000    0.000 
#    0.000    0.000    0.000    0.000    0.000    0.000 
#
# Total GULP energy -78092.249775 kJ/mol
# GULP energy per Si atom -5578.017841 kJ/mol
# Density = 2.033044 g / cm^3
# Si number density = 20.376815 Si / 1000 Ang^3
#
#
#
# Elastic Constant Matrix: (Units=GPa)
#
#
# Indices 1 2 3 4 5 6 
#
# 1 128.4631 20.0484 9.8005 8.7860 10.9761 7.7290
# 2 20.0484 89.2695 5.6858 -0.4623 2.5407 12.1017
# 3 9.8005 5.6858 26.9225 12.3492 3.7568 5.0389
# 4 8.7860 -0.4623 12.3492 33.4074 0.7520 -2.3218
# 5 10.9761 2.5407 3.7568 0.7520 10.8854 -4.2269
# 6 7.7290 12.1017 5.0389 -2.3218 -4.2269 25.5955
#
#
#
# Elastic Compliance Matrix: (Units=1/GPa)
#
#
# Indices 1 2 3 4 5 6 
#
# 1 0.009306 -0.001239 0.000405 -0.002673 -0.010726 -0.004318
# 2 -0.001239 0.012441 -0.000749 0.000446 -0.003732 -0.005936
# 3 0.000405 -0.000749 0.052554 -0.020119 -0.023099 -0.015754
# 4 -0.002673 0.000446 -0.020119 0.038521 0.010685 0.009816
# 5 -0.010726 -0.003732 -0.023099 0.010685 0.122742 0.030790
# 6 -0.004318 -0.005936 -0.015754 0.009816 0.030790 0.052256
#
#
# Mechanical properties :
#
#
# Convention : Reuss Voigt Hill
#
# Bulk Modulus (GPa) = 14.05786 35.08052 24.56919
# Shear Modulus (GPa) = 15.88818 27.91902 21.90360
#
# Velocity S-wave (km/s) = 2.79537 3.70555 3.28217
# Velocity P-wave (km/s) = 4.16326 5.96334 5.14267
#
# Compressibility (1/GPa) = 0.07113461
#
# Stress axis : x y z
#
# Youngs Moduli (GPa) = 107.45971 80.37738 19.02788
#
# Poissons Ratio (x) = 0.09959 -0.00771
# Poissons Ratio (y) = 0.13314 0.01426
# Poissons Ratio (z) = -0.04352 0.06024
#
# Static dielectric constant tensor:
#      x y z
#    x 1.735090 0.012110 0.000900 
#    y 0.012110 1.721510 -0.016380 
#    z 0.000900 -0.016380 1.729340 
# 
# From -- ./inp_files/13999.got.cif
#   From: 2010.05.17/outbox.cif.g08.bks.cpg/sg2_7_cif.got.tgz:13999.got - 2010.06.03 11:33:40.
