data_PCOD9090579
_publ_section_title
;
Structure prediction by ZEFSAII (Michael W. Deem and Ramdas Pophale) SiO2 
 PCOD9090579
Probable space group: P -1
;
_chemical_formula_sum "Si O2"
_cell_formula_units_Z 16
_cell_length_a 8.455080
_cell_length_b 14.144060
_cell_length_c 10.822643
_cell_angle_alpha 126.132048
_cell_angle_beta 135.326427
_cell_angle_gamma 77.861125
_cell_volume 683.329923
_symmetry_space_group_name_H-M "P -1"
_symmetry_group_IT_number 2
_symmetry_cell_setting 'triclinic'
loop_
_space_group_symop_operation_xyz
x,y,z
-x,-y,-z
loop_
_atom_site_type_symbol
_atom_site_label
_atom_site_fract_x
_atom_site_fract_y
_atom_site_fract_z
Si Si1 0.623836 0.291984 0.020407
Si Si2 0.084691 0.117396 0.549680
Si Si3 0.235289 0.046223 0.313657
Si Si4 0.855926 0.592413 0.004343
Si Si5 0.056246 0.250008 0.304217
Si Si6 0.769792 0.202709 0.793017
Si Si7 0.990380 0.332303 0.591063
Si Si8 0.686892 0.476624 0.410761
O O1 0.711498 0.422715 0.244993
O O2 0.769792 0.216365 0.112405
O O3 0.340279 0.216479 0.817620
O O4 0.696078 0.291837 0.916819
O O5 0.147146 0.070760 0.418370
O O6 0.897556 0.188734 0.481438
O O7 0.000000 0.000000 0.500000
O O8 0.134355 0.131935 0.239802
O O9 0.525308 0.114969 0.521223
O O10 0.164937 0.896639 0.162112
O O11 0.026519 0.720518 0.130369
O O12 0.839441 0.595846 0.146931
O O13 0.597402 0.550729 0.762220
O O14 0.000000 0.500000 0.000000
O O15 0.175835 0.373799 0.381519
O O16 0.125248 0.311575 0.527227
O O17 0.800493 0.397557 0.500753
#
# Coordination Sequence:
#
# PCOD9090579 Si02
#       8
#     2   2   2   2   2   2   2   2
#     4  10  21  40  67  94 126 169 217 266 319 383
#     4  10  19  38  67  94 129 170 218 269 318 388
#     4   9  20  40  63  88 128 171 213 263 331 375
#     4  12  26  40  64  97 133 171 214 264 337 383
#     4  10  22  41  66  95 127 169 223 271 312 387
#     4  10  22  41  62  94 129 169 216 265 321 401
#     4  10  22  42  63  95 127 171 215 268 324 375
#     4  11  24  44  67  96 132 168 224 269 317 389
#
# _framework density 23.414750999999999
#
# number of rings (size 3 to 8) (size 9 to 14) (size 15 to 20)
#    0.000    1.750    1.250    3.000    3.500    1.500 
#    4.500    1.875    0.000    0.000    0.000    0.000 
#    0.000    0.000    0.000    0.000    0.000    0.000 
#
# Total GULP energy -89251.219232 kJ/mol
# GULP energy per Si atom -5578.201202 kJ/mol
# Density = 2.336146 g / cm^3
# Si number density = 23.414751 Si / 1000 Ang^3
#
#
#
# Elastic Constant Matrix: (Units=GPa)
#
#
# Indices 1 2 3 4 5 6 
#
# 1 41.1956 43.6047 26.6534 -6.6883 18.2796 -0.5529
# 2 43.6047 222.6728 52.8828 -6.4036 24.0557 -17.0436
# 3 26.6534 52.8828 63.4414 -14.9067 8.2860 4.5816
# 4 -6.6883 -6.4036 -14.9067 39.0039 -9.2776 0.4636
# 5 18.2796 24.0557 8.2860 -9.2776 26.4619 -2.1056
# 6 -0.5529 -17.0436 4.5816 0.4636 -2.1056 35.5081
#
#
#
# Elastic Compliance Matrix: (Units=1/GPa)
#
#
# Indices 1 2 3 4 5 6 
#
# 1 0.049268 -0.003089 -0.015536 -0.004657 -0.028019 -0.000312
# 2 -0.003089 0.006741 -0.004659 -0.001943 -0.002927 0.003640
# 3 -0.015536 -0.004659 0.027581 0.009359 0.009165 -0.005615
# 4 -0.004657 -0.001943 0.009359 0.031172 0.012834 -0.001859
# 5 -0.028019 -0.002927 0.009165 0.012834 0.061472 0.000454
# 6 -0.000312 0.003640 -0.005615 -0.001859 0.000454 0.030681
#
#
# Mechanical properties :
#
#
# Convention : Reuss Voigt Hill
#
# Bulk Modulus (GPa) = 27.01090 63.73242 45.37166
# Shear Modulus (GPa) = 18.80943 33.80605 26.30774
#
# Velocity S-wave (km/s) = 2.83736 3.80385 3.35558
# Velocity P-wave (km/s) = 4.72176 6.82425 5.86794
#
# Compressibility (1/GPa) = 0.03702209
#
# Stress axis : x y z
#
# Youngs Moduli (GPa) = 20.29696 148.34243 36.25746
#
# Poissons Ratio (x) = 0.45824 0.56331
# Poissons Ratio (y) = 0.06270 0.16891
# Poissons Ratio (z) = 0.31534 0.69106
#
# Static dielectric constant tensor:
#      x y z
#    x 1.953640 -0.013630 -0.084810 
#    y -0.013630 1.959810 -0.003600 
#    z -0.084810 -0.003600 1.964290 
# 
# From -- ./inp_files/399715.got.cif
#   From: 2010.05.17/outbox.cif.g08.bks.cpg/sg2_200_cif.got.tgz:399715.got - 2010.06.03 11:33:40.
