data_PCOD9090385
_publ_section_title
;
Structure prediction by ZEFSAII (Michael W. Deem and Ramdas Pophale) SiO2 
 PCOD9090385
Probable space group: P -1
;
_chemical_formula_sum "Si O2"
_cell_formula_units_Z 15
_cell_length_a 8.651991
_cell_length_b 24.728945
_cell_length_c 8.896550
_cell_angle_alpha 154.493013
_cell_angle_beta 49.309404
_cell_angle_gamma 137.404561
_cell_volume 554.261911
_symmetry_space_group_name_H-M "P -1"
_symmetry_group_IT_number 2
_symmetry_cell_setting 'triclinic'
loop_
_space_group_symop_operation_xyz
x,y,z
-x,-y,-z
loop_
_atom_site_type_symbol
_atom_site_label
_atom_site_fract_x
_atom_site_fract_y
_atom_site_fract_z
Si Si1 0.904913 0.343784 0.744989
Si Si2 0.370722 0.107422 0.975824
Si Si3 0.739121 0.276151 0.391593
Si Si4 0.975571 0.869311 0.509383
Si Si5 0.799550 0.618264 0.764915
Si Si6 0.605695 0.511426 0.121977
Si Si7 0.425499 0.233392 0.928898
Si Si8 0.000000 0.000000 0.500000
O O1 0.822684 0.231639 0.378372
O O2 0.687701 0.309806 0.900101
O O3 0.139794 0.363941 0.719148
O O4 0.000000 0.500000 0.000000
O O5 0.596117 0.163215 0.075582
O O6 0.196064 0.132056 0.257692
O O7 0.413872 0.197013 0.021094
O O8 0.231245 0.944140 0.605271
O O9 0.974379 0.390022 0.451523
O O10 0.607641 0.359635 0.750079
O O11 0.894574 0.721193 0.106438
O O12 0.971157 0.964244 0.610078
O O13 0.570206 0.489112 0.642618
O O14 0.718776 0.688614 0.857591
O O15 0.500000 0.500000 0.000000
O O16 0.280345 0.085536 0.563220
#
# Coordination Sequence:
#
# PCOD9090385 Si02
#       8
#     2   2   2   2   2   2   2   1
#     4  10  21  44  64  89 129 174 220 273 324 392
#     4  10  20  36  68  99 132 174 220 271 325 396
#     4  11  23  41  64  95 126 174 217 268 334 399
#     4   9  18  38  64  97 136 173 212 275 330 382
#     4  11  22  41  66  92 134 175 216 271 336 395
#     4  11  25  45  65  93 129 170 225 286 325 384
#     4  10  19  38  65  95 131 171 220 269 331 384
#     4   8  16  32  66  94 128 178 206 264 332 386
#
# _framework density 27.063019000000001
#
# number of rings (size 3 to 8) (size 9 to 14) (size 15 to 20)
#    0.000    1.867    4.000    0.800    1.867    2.667 
#    2.400    0.000    0.000   20.000    0.000    0.000 
#    0.000    0.000    0.000    0.000    0.000    0.000 
#
# Total GULP energy -83636.482527 kJ/mol
# GULP energy per Si atom -5575.765502 kJ/mol
# Density = 2.700142 g / cm^3
# Si number density = 27.063019 Si / 1000 Ang^3
#
#
#
# Elastic Constant Matrix: (Units=GPa)
#
#
# Indices 1 2 3 4 5 6 
#
# 1 148.4285 58.1914 41.7097 7.7107 63.3958 15.5700
# 2 58.1914 193.2328 34.3485 -31.2706 16.8952 30.0642
# 3 41.7097 34.3485 82.1741 5.4096 41.1409 8.9042
# 4 7.7107 -31.2706 5.4096 39.2997 -1.1497 15.3208
# 5 63.3958 16.8952 41.1409 -1.1497 63.5581 8.4634
# 6 15.5700 30.0642 8.9042 15.3208 8.4634 56.0997
#
#
#
# Elastic Compliance Matrix: (Units=1/GPa)
#
#
# Indices 1 2 3 4 5 6 
#
# 1 0.015349 -0.005961 0.003220 -0.010112 -0.016482 0.003672
# 2 -0.005961 0.010806 -0.005522 0.013994 0.008005 -0.008290
# 3 0.003220 -0.005522 0.021153 -0.009909 -0.016128 0.003847
# 4 -0.010112 0.013994 -0.009909 0.047636 0.016113 -0.018561
# 5 -0.016482 0.008005 -0.016128 0.016113 0.041824 -0.007866
# 6 0.003672 -0.008290 0.003847 -0.018561 -0.007866 0.026894
#
#
# Mechanical properties :
#
#
# Convention : Reuss Voigt Hill
#
# Bulk Modulus (GPa) = 32.48565 76.92605 54.70585
# Shear Modulus (GPa) = 26.25385 51.09722 38.67553
#
# Velocity S-wave (km/s) = 3.11802 4.34992 3.78443
# Velocity P-wave (km/s) = 4.99925 7.32909 6.27328
#
# Compressibility (1/GPa) = 0.03078282
#
# Stress axis : x y z
#
# Youngs Moduli (GPa) = 65.15041 92.53757 47.27501
#
# Poissons Ratio (x) = 0.55165 -0.15224
# Poissons Ratio (y) = 0.38838 0.26105
# Poissons Ratio (z) = -0.20981 0.51098
#
# Static dielectric constant tensor:
#      x y z
#    x 2.420840 0.015590 -0.140320 
#    y 0.015590 2.082360 0.072490 
#    z -0.140320 0.072490 2.292280 
# 
# From -- ./inp_files/227631.got.cif
#   From: 2010.05.17/outbox.cif.g08.bks.cpg/sg2_114_cif.got.tgz:227631.got - 2010.06.03 11:33:40.
