data_PCOD9090553
_publ_section_title
;
Structure prediction by ZEFSAII (Michael W. Deem and Ramdas Pophale) SiO2 
 PCOD9090553
Probable space group: P -1
;
_chemical_formula_sum "Si O2"
_cell_formula_units_Z 14
_cell_length_a 13.521865
_cell_length_b 8.972035
_cell_length_c 9.183735
_cell_angle_alpha 51.858237
_cell_angle_beta 39.529711
_cell_angle_gamma 49.168758
_cell_volume 521.497226
_symmetry_space_group_name_H-M "P -1"
_symmetry_group_IT_number 2
_symmetry_cell_setting 'triclinic'
loop_
_space_group_symop_operation_xyz
x,y,z
-x,-y,-z
loop_
_atom_site_type_symbol
_atom_site_label
_atom_site_fract_x
_atom_site_fract_y
_atom_site_fract_z
Si Si1 0.640623 0.629328 0.299273
Si Si2 0.055290 0.525114 0.589116
Si Si3 0.919790 0.242431 0.112891
Si Si4 0.142694 0.106679 0.200585
Si Si5 0.652552 0.127137 0.316648
Si Si6 0.455366 0.801666 0.131792
Si Si7 0.410459 0.278206 0.279830
O O1 0.785586 0.415551 0.256754
O O2 0.518024 0.714771 0.518561
O O3 0.518011 0.656847 0.284460
O O4 0.737246 0.784478 0.069597
O O5 0.254288 0.468991 0.394667
O O6 0.000000 0.500000 0.500000
O O7 0.956982 0.738539 0.651797
O O8 0.012610 0.359902 0.838565
O O9 0.815369 0.151774 0.180698
O O10 0.034756 0.093591 0.191550
O O11 0.261097 0.896753 0.261313
O O12 0.601975 0.194234 0.169014
O O13 0.647724 0.911210 0.501290
O O14 0.567200 0.697594 0.931072
O O15 0.500000 0.000000 0.000000
#
# Coordination Sequence:
#
# PCOD9090553 Si02
#       7
#     2   2   2   2   2   2   2
#     4  10  19  39  66  86 120 164 206 243 302 370
#     4  11  23  39  65  91 126 159 200 252 311 361
#     4  11  23  39  61  93 126 157 207 256 300 356
#     4  10  20  39  65  92 117 161 206 251 297 364
#     4  11  23  37  63  90 121 161 207 253 298 364
#     4  10  19  38  67  87 114 161 213 240 294 376
#     4  11  22  40  63  88 120 163 207 243 311 368
#
# _framework density 26.845780999999999
#
# number of rings (size 3 to 8) (size 9 to 14) (size 15 to 20)
#    0.000    1.429    2.857    6.429    2.000    0.571 
#    0.000    5.000    0.000    0.000    0.000    0.000 
#    0.000    0.000    0.000    0.000    0.000    0.000 
#
# Total GULP energy -78458.580006 kJ/mol
# GULP energy per Si atom -5604.184286 kJ/mol
# Density = 2.678468 g / cm^3
# Si number density = 26.845781 Si / 1000 Ang^3
#
#
#
# Elastic Constant Matrix: (Units=GPa)
#
#
# Indices 1 2 3 4 5 6 
#
# 1 168.4149 29.4884 32.1059 7.9918 -6.6311 -30.0929
# 2 29.4884 92.7559 31.3590 16.6590 -14.8231 -15.1224
# 3 32.1059 31.3590 101.2975 18.1080 -3.2556 -6.8396
# 4 7.9918 16.6590 18.1080 51.9662 -1.6433 -7.6122
# 5 -6.6311 -14.8231 -3.2556 -1.6433 40.4579 -2.9169
# 6 -30.0929 -15.1224 -6.8396 -7.6122 -2.9169 44.3440
#
#
#
# Elastic Compliance Matrix: (Units=1/GPa)
#
#
# Indices 1 2 3 4 5 6 
#
# 1 0.007254 -0.000890 -0.001771 0.000480 0.001064 0.004498
# 2 -0.000890 0.013955 -0.003186 -0.002553 0.004862 0.003545
# 3 -0.001771 -0.003186 0.011867 -0.003013 -0.000699 -0.001021
# 4 0.000480 -0.002553 -0.003013 0.021427 -0.000037 0.002666
# 5 0.001064 0.004862 -0.000699 -0.000037 0.026906 0.004036
# 6 0.004498 0.003545 -0.001021 0.002666 0.004036 0.027378
#
#
# Mechanical properties :
#
#
# Convention : Reuss Voigt Hill
#
# Bulk Modulus (GPa) = 46.77031 60.93053 53.85042
# Shear Modulus (GPa) = 39.18220 45.32129 42.25174
#
# Velocity S-wave (km/s) = 3.82452 4.11324 3.97151
# Velocity P-wave (km/s) = 6.07966 6.73083 6.41352
#
# Compressibility (1/GPa) = 0.02138109
#
# Stress axis : x y z
#
# Youngs Moduli (GPa) = 137.85140 71.66105 84.26859
#
# Poissons Ratio (x) = 0.06378 0.14928
# Poissons Ratio (y) = 0.12268 0.26846
# Poissons Ratio (z) = 0.24420 0.22830
#
# Static dielectric constant tensor:
#      x y z
#    x 2.188850 0.040510 0.273390 
#    y 0.040510 2.083150 -0.210380 
#    z 0.273390 -0.210380 5.509320 
# 
# From -- ./inp_files/221817.got.cif
#   From: 2010.05.17/outbox.cif.g08.bks.cpg/sg2_111_cif.got.tgz:221817.got - 2010.06.03 11:33:40.
