data_PCOD9090546
_publ_section_title
;
Structure prediction by ZEFSAII (Michael W. Deem and Ramdas Pophale) SiO2 
 PCOD9090546
Probable space group: P -1
;
_chemical_formula_sum "Si O2"
_cell_formula_units_Z 14
_cell_length_a 16.475586
_cell_length_b 7.926264
_cell_length_c 20.240834
_cell_angle_alpha 125.806991
_cell_angle_beta 159.910212
_cell_angle_gamma 46.261126
_cell_volume 633.616681
_symmetry_space_group_name_H-M "P -1"
_symmetry_group_IT_number 2
_symmetry_cell_setting 'triclinic'
loop_
_space_group_symop_operation_xyz
x,y,z
-x,-y,-z
loop_
_atom_site_type_symbol
_atom_site_label
_atom_site_fract_x
_atom_site_fract_y
_atom_site_fract_z
Si Si1 0.863544 0.675728 0.832982
Si Si2 0.279275 0.641783 0.248154
Si Si3 0.737303 0.524024 0.150901
Si Si4 0.830330 0.173932 0.559235
Si Si5 0.265805 0.005033 0.420924
Si Si6 0.235930 0.046413 0.664154
Si Si7 0.251278 0.308904 0.938968
O O1 0.795873 0.500575 0.786162
O O2 0.010452 0.534899 0.846207
O O3 0.580793 0.921231 0.657637
O O4 0.071517 0.711859 0.045158
O O5 0.587034 0.442689 0.416693
O O6 0.263599 0.873141 0.322219
O O7 0.794953 0.704123 0.279192
O O8 0.635980 0.618125 0.020701
O O9 0.028575 0.280082 0.307063
O O10 0.500000 0.500000 0.000000
O O11 0.117995 0.162473 0.770675
O O12 0.807857 0.123111 0.606340
O O13 0.777851 0.994372 0.433694
O O14 0.000000 0.000000 0.500000
O O15 0.522683 0.845891 0.869357
#
# Coordination Sequence:
#
# PCOD9090546 Si02
#       7
#     2   2   2   2   2   2   2
#     4  10  20  37  73 103 134 181 231 290 340 415
#     4  10  19  38  67 110 135 172 233 284 350 412
#     4  12  30  47  68 102 150 190 223 291 355 410
#     4  11  21  42  77 102 134 185 239 288 337 417
#     4  11  23  42  66 106 146 175 220 291 362 407
#     4  12  27  47  74 101 132 191 248 280 331 427
#     4  12  23  47  72 100 136 183 243 287 339 409
#
# _framework density 22.095379000000001
#
# number of rings (size 3 to 8) (size 9 to 14) (size 15 to 20)
#    0.000    0.857    5.714    2.143    2.000    1.143 
#    2.571    0.714    0.000    0.000    0.000    0.000 
#    0.000    0.000    0.000    0.000    0.000    0.000 
#
# Total GULP energy -78316.174003 kJ/mol
# GULP energy per Si atom -5594.012429 kJ/mol
# Density = 2.204509 g / cm^3
# Si number density = 22.095379 Si / 1000 Ang^3
#
#
#
# Elastic Constant Matrix: (Units=GPa)
#
#
# Indices 1 2 3 4 5 6 
#
# 1 51.5907 3.7285 12.3397 11.5983 -4.0123 -4.5783
# 2 3.7285 102.1362 43.0779 -4.6638 -4.4374 -25.9060
# 3 12.3397 43.0779 114.2687 3.8658 -7.5632 -4.4009
# 4 11.5983 -4.6638 3.8658 40.7070 -10.2663 1.2608
# 5 -4.0123 -4.4374 -7.5632 -10.2663 33.8269 7.4891
# 6 -4.5783 -25.9060 -4.4009 1.2608 7.4891 25.0772
#
#
#
# Elastic Compliance Matrix: (Units=1/GPa)
#
#
# Indices 1 2 3 4 5 6 
#
# 1 0.021687 0.001318 -0.002479 -0.006188 -0.000897 0.005465
# 2 0.001318 0.016442 -0.005885 0.000924 -0.002460 0.016881
# 3 -0.002479 -0.005885 0.011209 -0.000225 0.002548 -0.005314
# 4 -0.006188 0.000924 -0.000225 0.028879 0.009070 -0.004376
# 5 -0.000897 -0.002460 0.002548 0.009070 0.035397 -0.013284
# 6 0.005465 0.016881 -0.005314 -0.004376 -0.013284 0.061568
#
#
# Mechanical properties :
#
#
# Convention : Reuss Voigt Hill
#
# Bulk Modulus (GPa) = 28.36986 42.92085 35.64536
# Shear Modulus (GPa) = 24.87294 33.84554 29.35924
#
# Velocity S-wave (km/s) = 3.35880 3.91806 3.64916
# Velocity P-wave (km/s) = 5.28296 6.31947 5.82431
#
# Compressibility (1/GPa) = 0.03524868
#
# Stress axis : x y z
#
# Youngs Moduli (GPa) = 46.10977 60.82065 89.21396
#
# Poissons Ratio (x) = -0.08019 0.22112
# Poissons Ratio (y) = -0.06079 0.52499
# Poissons Ratio (z) = 0.11428 0.35791
#
# Static dielectric constant tensor:
#      x y z
#    x 1.855080 0.011830 0.020240 
#    y 0.011830 1.848440 -0.021600 
#    z 0.020240 -0.021600 1.787110 
# 
# From -- ./inp_files/282362.got.cif
#   From: 2010.05.17/outbox.cif.g08.bks.cpg/sg2_142_cif.got.tgz:282362.got - 2010.06.03 11:33:40.
