data_PCOD9090960
_publ_section_title
;
Structure prediction by ZEFSAII (Michael W. Deem and Ramdas Pophale) SiO2 
 PCOD9090960
Probable space group: P -1
;
_chemical_formula_sum "Si O2"
_cell_formula_units_Z 16
_cell_length_a 14.457204
_cell_length_b 16.212656
_cell_length_c 7.519939
_cell_angle_alpha 133.449901
_cell_angle_beta 120.730237
_cell_angle_gamma 28.224732
_cell_volume 581.560456
_symmetry_space_group_name_H-M "P -1"
_symmetry_group_IT_number 2
_symmetry_cell_setting 'triclinic'
loop_
_space_group_symop_operation_xyz
x,y,z
-x,-y,-z
loop_
_atom_site_type_symbol
_atom_site_label
_atom_site_fract_x
_atom_site_fract_y
_atom_site_fract_z
Si Si1 0.865923 0.737558 0.890806
Si Si2 0.527360 0.178209 0.369627
Si Si3 0.024106 0.232961 0.531397
Si Si4 0.233242 0.241269 0.557871
Si Si5 0.622740 0.278404 0.345583
Si Si6 0.629789 0.694600 0.966843
Si Si7 0.191036 0.600181 0.813964
Si Si8 0.067008 0.945201 0.192049
O O1 0.740632 0.807596 0.697558
O O2 0.012121 0.503719 0.739205
O O3 0.008935 0.709178 0.909423
O O4 0.723831 0.922136 0.172878
O O5 0.572147 0.263764 0.459541
O O6 0.378742 0.344282 0.629496
O O7 0.600311 0.761666 0.833028
O O8 0.853686 0.436203 0.798569
O O9 0.887699 0.330046 0.363905
O O10 0.115314 0.033472 0.396290
O O11 0.191964 0.165834 0.517666
O O12 0.623472 0.801003 0.258108
O O13 0.500000 0.500000 0.500000
O O14 0.542228 0.248653 0.092924
O O15 0.857124 0.099654 0.309702
O O16 0.221883 0.705724 0.039618
O O17 0.000000 0.000000 0.000000
#
# Coordination Sequence:
#
# PCOD9090960 Si02
#       8
#     2   2   2   2   2   2   2   2
#     4  10  20  37  56  78 116 157 192 227 276 352
#     4   9  19  33  58  86 108 142 191 243 284 329
#     4   9  17  30  53  81 115 146 184 232 281 334
#     4  10  21  35  53  80 119 157 188 225 284 346
#     4  10  16  30  54  87 114 132 183 239 288 331
#     4   9  18  32  54  85 114 144 189 244 281 328
#     4   9  16  32  54  82 107 141 194 234 281 330
#     4  10  16  28  53  85 115 141 181 240 288 332
#
# _framework density 27.512187999999998
#
# number of rings (size 3 to 8) (size 9 to 14) (size 15 to 20)
#    0.750    1.750    2.500    1.125    0.000    0.500 
#    0.000   10.000    0.000   12.000    0.000   22.750 
#    0.000    0.000    0.000    0.000    0.000    0.000 
#
# Total GULP energy -89559.620318 kJ/mol
# GULP energy per Si atom -5597.476270 kJ/mol
# Density = 2.744957 g / cm^3
# Si number density = 27.512188 Si / 1000 Ang^3
#
#
#
# Elastic Constant Matrix: (Units=GPa)
#
#
# Indices 1 2 3 4 5 6 
#
# 1 100.1573 24.8350 45.1883 -4.2014 37.3160 -13.1469
# 2 24.8350 87.3191 28.2706 -2.3034 -7.0113 -1.8171
# 3 45.1883 28.2706 174.8705 12.5588 20.5871 -12.2728
# 4 -4.2014 -2.3034 12.5588 50.6433 -12.0811 -1.7417
# 5 37.3160 -7.0113 20.5871 -12.0811 33.8083 -10.0247
# 6 -13.1469 -1.8171 -12.2728 -1.7417 -10.0247 16.5094
#
#
#
# Elastic Compliance Matrix: (Units=1/GPa)
#
#
# Indices 1 2 3 4 5 6 
#
# 1 0.022841 -0.008707 -0.000830 -0.005213 -0.028795 -0.001421
# 2 -0.008707 0.016377 -0.002531 0.004985 0.017569 0.004182
# 3 -0.000830 -0.002531 0.007204 -0.003055 -0.004724 0.001225
# 4 -0.005213 0.004985 -0.003055 0.025510 0.020514 0.009274
# 5 -0.028795 0.017569 -0.004724 0.020514 0.083647 0.028447
# 6 -0.001421 0.004182 0.001225 0.009274 0.028447 0.079062
#
#
# Mechanical properties :
#
#
# Convention : Reuss Voigt Hill
#
# Bulk Modulus (GPa) = 44.86973 62.10389 53.48681
# Shear Modulus (GPa) = 18.78251 37.79573 28.28912
#
# Velocity S-wave (km/s) = 2.61568 3.71048 3.21010
# Velocity P-wave (km/s) = 5.04647 6.40149 5.76394
#
# Compressibility (1/GPa) = 0.02228674
#
# Stress axis : x y z
#
# Youngs Moduli (GPa) = 43.78115 61.06086 138.81959
#
# Poissons Ratio (x) = 0.53165 0.11523
# Poissons Ratio (y) = 0.38119 0.35129
# Poissons Ratio (z) = 0.03634 0.15452
#
# Static dielectric constant tensor:
#      x y z
#    x 1.887400 -0.023570 0.156790 
#    y -0.023570 2.250740 -0.022000 
#    z 0.156790 -0.022000 2.052890 
# 
# From -- ./inp_files/456493.got.cif
#   From: 2010.05.17/outbox.cif.g08.bks.cpg/sg2_229_cif.got.tgz:456493.got - 2010.06.03 11:33:40.
