data_PCOD9090814
_publ_section_title
;
Structure prediction by ZEFSAII (Michael W. Deem and Ramdas Pophale) SiO2 
 PCOD9090814
Probable space group: P -1
;
_chemical_formula_sum "Si O2"
_cell_formula_units_Z 16
_cell_length_a 9.892393
_cell_length_b 8.966332
_cell_length_c 13.040695
_cell_angle_alpha 50.488360
_cell_angle_beta 110.314102
_cell_angle_gamma 108.639218
_cell_volume 829.049647
_symmetry_space_group_name_H-M "P -1"
_symmetry_group_IT_number 2
_symmetry_cell_setting 'triclinic'
loop_
_space_group_symop_operation_xyz
x,y,z
-x,-y,-z
loop_
_atom_site_type_symbol
_atom_site_label
_atom_site_fract_x
_atom_site_fract_y
_atom_site_fract_z
Si Si1 0.781567 0.268071 0.822262
Si Si2 0.652672 0.635170 0.988960
Si Si3 0.959234 0.584248 0.060414
Si Si4 0.718026 0.891820 0.098217
Si Si5 0.309508 0.082892 0.322966
Si Si6 0.046196 0.964620 0.191114
Si Si7 0.480624 0.248649 0.487206
Si Si8 0.541344 0.682603 0.321728
O O1 0.856253 0.147480 0.809169
O O2 0.633918 0.333995 0.715804
O O3 0.907890 0.435177 0.820052
O O4 0.731085 0.116361 0.967635
O O5 0.792048 0.515909 0.075319
O O6 0.662270 0.774761 0.830367
O O7 0.500000 0.500000 0.000000
O O8 0.668822 0.762180 0.041817
O O9 0.961004 0.819169 0.950592
O O10 0.000000 0.500000 0.000000
O O11 0.610021 0.831338 0.189167
O O12 0.880949 0.862160 0.190247
O O13 0.362427 0.197350 0.389492
O O14 0.138860 0.998018 0.305225
O O15 0.409345 0.911400 0.414961
O O16 0.569031 0.463708 0.399092
O O17 0.410829 0.253087 0.579645
#
# Coordination Sequence:
#
# PCOD9090814 Si02
#       8
#     2   2   2   2   2   2   2   2
#     4  11  19  38  62  84 121 158 181 231 303 357
#     4  11  21  35  60  94 121 142 183 241 306 342
#     4  10  21  34  54  88 122 148 186 225 286 370
#     4  11  20  37  58  91 121 143 188 240 298 358
#     4  10  20  39  63  77 114 162 193 229 291 346
#     4  10  19  39  60  83 116 162 180 225 308 359
#     4  10  22  40  57  81 111 158 210 233 271 336
#     4  11  23  36  61  87 113 151 204 244 272 331
#
# _framework density 19.299208
#
# number of rings (size 3 to 8) (size 9 to 14) (size 15 to 20)
#    0.000    1.500    5.000    1.875    5.250    0.000 
#    2.250    1.250    0.000    0.000    0.000    0.000 
#    0.000    0.000    0.000    0.000    0.000    0.000 
#
# Total GULP energy -89249.244276 kJ/mol
# GULP energy per Si atom -5578.077767 kJ/mol
# Density = 1.925528 g / cm^3
# Si number density = 19.299208 Si / 1000 Ang^3
#
#
#
# Elastic Constant Matrix: (Units=GPa)
#
#
# Indices 1 2 3 4 5 6 
#
# 1 98.7203 31.7471 20.2096 12.8087 12.0251 25.8831
# 2 31.7471 84.3874 26.2182 31.8116 7.5909 18.0709
# 3 20.2096 26.2182 64.8646 25.3996 15.8638 9.1746
# 4 12.8087 31.8116 25.3996 38.2279 4.8056 11.8087
# 5 12.0251 7.5909 15.8638 4.8056 17.7423 8.6668
# 6 25.8831 18.0709 9.1746 11.8087 8.6668 31.0679
#
#
#
# Elastic Compliance Matrix: (Units=1/GPa)
#
#
# Indices 1 2 3 4 5 6 
#
# 1 0.014095 -0.003441 -0.002228 0.002848 -0.002193 -0.009554
# 2 -0.003441 0.019030 -0.001145 -0.013031 0.000192 -0.002965
# 3 -0.002228 -0.001145 0.026845 -0.015456 -0.020893 0.006298
# 4 0.002848 -0.013031 -0.015456 0.048616 0.009899 -0.011469
# 5 -0.002193 0.000192 -0.020893 0.009899 0.083072 -0.019051
# 6 -0.009554 -0.002965 0.006298 -0.011469 -0.019051 0.049686
#
#
# Mechanical properties :
#
#
# Convention : Reuss Voigt Hill
#
# Bulk Modulus (GPa) = 21.57868 44.92469 33.25168
# Shear Modulus (GPa) = 18.48980 28.72745 23.60863
#
# Velocity S-wave (km/s) = 3.09861 3.86233 3.50136
# Velocity P-wave (km/s) = 4.89972 6.57409 5.79767
#
# Compressibility (1/GPa) = 0.04634203
#
# Stress axis : x y z
#
# Youngs Moduli (GPa) = 70.94809 52.54837 37.25094
#
# Poissons Ratio (x) = 0.18080 0.08301
# Poissons Ratio (y) = 0.24411 0.04265
# Poissons Ratio (z) = 0.15809 0.06016
#
# Static dielectric constant tensor:
#      x y z
#    x 1.712750 0.021190 0.030870 
#    y 0.021190 1.709380 0.010750 
#    z 0.030870 0.010750 1.687090 
# 
# From -- ./inp_files/239045.got.cif
#   From: 2010.05.17/outbox.cif.g08.bks.cpg/sg2_120_cif.got.tgz:239045.got - 2010.06.03 11:33:40.
