data_PCOD9090262
_publ_section_title
;
Structure prediction by ZEFSAII (Michael W. Deem and Ramdas Pophale) SiO2 
 PCOD9090262
Probable space group: P -1
;
_chemical_formula_sum "Si O2"
_cell_formula_units_Z 14
_cell_length_a 13.516807
_cell_length_b 10.086693
_cell_length_c 9.453487
_cell_angle_alpha 69.934289
_cell_angle_beta 45.218479
_cell_angle_gamma 48.881045
_cell_volume 671.578658
_symmetry_space_group_name_H-M "P -1"
_symmetry_group_IT_number 2
_symmetry_cell_setting 'triclinic'
loop_
_space_group_symop_operation_xyz
x,y,z
-x,-y,-z
loop_
_atom_site_type_symbol
_atom_site_label
_atom_site_fract_x
_atom_site_fract_y
_atom_site_fract_z
Si Si1 0.450640 0.197046 0.495477
Si Si2 0.446291 0.193815 0.108349
Si Si3 0.029059 0.047745 0.608568
Si Si4 0.070305 0.366962 0.842772
Si Si5 0.417859 0.902199 0.301536
Si Si6 0.894445 0.435232 0.694857
Si Si7 0.233508 0.976204 0.949998
O O1 0.243312 0.340720 0.614522
O O2 0.469809 0.214261 0.634836
O O3 0.609277 0.174473 0.259952
O O4 0.500000 0.000000 0.500000
O O5 0.313378 0.406322 0.188267
O O6 0.644580 0.073852 0.016095
O O7 0.365773 0.101244 0.289565
O O8 0.466522 0.173362 0.927940
O O9 0.957265 0.251650 0.626415
O O10 0.923341 0.026523 0.841804
O O11 0.000000 0.000000 0.500000
O O12 0.240277 0.923250 0.465349
O O13 0.939036 0.414522 0.826676
O O14 0.146364 0.171733 0.900969
O O15 0.000000 0.500000 0.000000
O O16 0.000000 0.500000 0.500000
#
# Coordination Sequence:
#
# PCOD9090262 Si02
#       7
#     2   2   2   2   2   2   2
#     4  10  19  38  64  95 130 175 225 274 335 407
#     4  11  22  41  70  98 131 182 233 277 335 420
#     4  12  26  45  67 104 142 183 227 294 349 403
#     4  11  24  42  71 109 137 174 233 291 334 409
#     4  11  21  39  69  96 131 180 228 272 341 415
#     4  12  26  42  71 104 138 179 235 283 337 414
#     4  11  24  44  67  97 140 183 224 282 354 399
#
# _framework density 20.846404
#
# number of rings (size 3 to 8) (size 9 to 14) (size 15 to 20)
#    0.000    0.857    5.714    3.429    4.000    2.857 
#    0.000    0.000    0.000    3.429    0.000    0.000 
#    0.000    0.000    0.000    0.000    0.000    0.000 
#
# Total GULP energy -78120.429758 kJ/mol
# GULP energy per Si atom -5580.030697 kJ/mol
# Density = 2.079896 g / cm^3
# Si number density = 20.846404 Si / 1000 Ang^3
#
#
#
# Elastic Constant Matrix: (Units=GPa)
#
#
# Indices 1 2 3 4 5 6 
#
# 1 90.7500 21.6981 16.7558 -6.2483 6.3202 -5.0791
# 2 21.6981 77.6987 22.4876 4.7691 2.3538 1.7691
# 3 16.7558 22.4876 111.4720 -11.5806 -0.6068 9.2274
# 4 -6.2483 4.7691 -11.5806 26.5741 3.7268 -1.1243
# 5 6.3202 2.3538 -0.6068 3.7268 50.4870 2.2690
# 6 -5.0791 1.7691 9.2274 -1.1243 2.2690 26.0717
#
#
#
# Elastic Compliance Matrix: (Units=1/GPa)
#
#
# Indices 1 2 3 4 5 6 
#
# 1 0.012607 -0.003429 -0.001132 0.003488 -0.001842 0.003400
# 2 -0.003429 0.014991 -0.002938 -0.004826 0.000090 -0.000861
# 3 -0.001132 -0.002938 0.010514 0.004661 0.000221 -0.003561
# 4 0.003488 -0.004826 0.004661 0.041874 -0.003312 0.001451
# 5 -0.001842 0.000090 0.000221 -0.003312 0.020387 -0.002360
# 6 0.003400 -0.000861 -0.003561 0.001451 -0.002360 0.040605
#
#
# Mechanical properties :
#
#
# Convention : Reuss Voigt Hill
#
# Bulk Modulus (GPa) = 43.26520 44.64486 43.95503
# Shear Modulus (GPa) = 30.54717 35.22518 32.88618
#
# Velocity S-wave (km/s) = 3.83214 4.11511 3.97614
# Velocity P-wave (km/s) = 6.35450 6.63638 6.49697
#
# Compressibility (1/GPa) = 0.02311327
#
# Stress axis : x y z
#
# Youngs Moduli (GPa) = 79.32160 66.70550 95.11060
#
# Poissons Ratio (x) = 0.22870 0.10771
# Poissons Ratio (y) = 0.27196 0.27948
# Poissons Ratio (z) = 0.08983 0.19601
#
# Static dielectric constant tensor:
#      x y z
#    x 1.783960 0.002450 0.010510 
#    y 0.002450 1.736500 0.016410 
#    z 0.010510 0.016410 1.796390 
# 
# From -- ./inp_files/243294.got.cif
#   From: 2010.05.17/outbox.cif.g08.bks.cpg/sg2_122_cif.got.tgz:243294.got - 2010.06.03 11:33:40.
