data_PCOD9090936
_publ_section_title
;
Structure prediction by ZEFSAII (Michael W. Deem and Ramdas Pophale) SiO2 
 PCOD9090936
Probable space group: P -1
;
_chemical_formula_sum "Si O2"
_cell_formula_units_Z 16
_cell_length_a 8.691824
_cell_length_b 16.115662
_cell_length_c 12.458527
_cell_angle_alpha 141.579926
_cell_angle_beta 47.110622
_cell_angle_gamma 115.311693
_cell_volume 772.848902
_symmetry_space_group_name_H-M "P -1"
_symmetry_group_IT_number 2
_symmetry_cell_setting 'triclinic'
loop_
_space_group_symop_operation_xyz
x,y,z
-x,-y,-z
loop_
_atom_site_type_symbol
_atom_site_label
_atom_site_fract_x
_atom_site_fract_y
_atom_site_fract_z
Si Si1 0.726123 0.945130 0.776810
Si Si2 0.136739 0.782774 0.060374
Si Si3 0.074829 0.691871 0.754272
Si Si4 0.149682 0.282235 0.682918
Si Si5 0.428467 0.433134 0.357671
Si Si6 0.720109 0.486756 0.027385
Si Si7 0.942837 0.743673 0.643182
Si Si8 0.732169 0.532173 0.828732
O O1 0.720185 0.833706 0.574365
O O2 0.889070 0.868223 0.712724
O O3 0.804185 0.070849 0.814602
O O4 0.500000 0.000000 0.000000
O O5 0.938750 0.774168 0.223504
O O6 0.102473 0.756684 0.922994
O O7 0.342920 0.665378 0.883842
O O8 0.286909 0.570042 0.506806
O O9 0.996814 0.782576 0.778243
O O10 0.885283 0.612542 0.779523
O O11 0.273504 0.399936 0.771385
O O12 0.933498 0.366481 0.812059
O O13 0.500000 0.500000 0.500000
O O14 0.258437 0.333694 0.348532
O O15 0.504436 0.433400 0.072219
O O16 0.721301 0.564178 0.992123
O O17 0.153543 0.628376 0.393799
#
# Coordination Sequence:
#
# PCOD9090936 Si02
#       8
#     2   2   2   2   2   2   2   2
#     4  12  26  45  65  90 132 180 224 260 309 388
#     4  11  23  42  65  91 131 180 215 262 315 383
#     4  10  22  38  64  99 131 162 214 271 323 387
#     4  11  24  43  66  98 128 167 223 263 326 385
#     4   9  19  35  64  97 124 164 209 268 323 374
#     4  10  22  37  69  96 129 163 202 281 333 379
#     4  11  22  40  61  97 132 166 217 265 318 385
#     4  10  19  39  61  99 132 158 203 271 342 374
#
# _framework density 20.702622000000002
#
# number of rings (size 3 to 8) (size 9 to 14) (size 15 to 20)
#    0.000    1.500    3.750    1.875    3.500    1.500 
#    0.000    0.000    0.000    2.250    0.000    0.000 
#    0.000    0.000    0.000    0.000    0.000    0.000 
#
# Total GULP energy -89332.261310 kJ/mol
# GULP energy per Si atom -5583.266332 kJ/mol
# Density = 2.065550 g / cm^3
# Si number density = 20.702622 Si / 1000 Ang^3
#
#
#
# Elastic Constant Matrix: (Units=GPa)
#
#
# Indices 1 2 3 4 5 6 
#
# 1 101.7922 13.1207 34.9014 -4.0733 1.8732 -12.3211
# 2 13.1207 40.8533 13.1282 1.8024 1.6223 -5.4986
# 3 34.9014 13.1282 107.8146 -1.1459 11.5832 1.3631
# 4 -4.0733 1.8024 -1.1459 28.4425 -0.4294 -2.1741
# 5 1.8732 1.6223 11.5832 -0.4294 25.5151 -7.7646
# 6 -12.3211 -5.4986 1.3631 -2.1741 -7.7646 33.4087
#
#
#
# Elastic Compliance Matrix: (Units=1/GPa)
#
#
# Indices 1 2 3 4 5 6 
#
# 1 0.012110 -0.002131 -0.003983 0.002133 0.002620 0.005025
# 2 -0.002131 0.026585 -0.002701 -0.001798 0.000810 0.003771
# 3 -0.003983 -0.002701 0.011577 -0.000312 -0.005950 -0.003789
# 4 0.002133 -0.001798 -0.000312 0.035837 0.001685 0.003227
# 5 0.002620 0.000810 -0.005950 0.001685 0.045326 0.011986
# 6 0.005025 0.003771 -0.003789 0.003227 0.011986 0.035557
#
#
# Mechanical properties :
#
#
# Convention : Reuss Voigt Hill
#
# Bulk Modulus (GPa) = 30.63560 41.41787 36.02674
# Shear Modulus (GPa) = 25.57510 30.09390 27.83450
#
# Velocity S-wave (km/s) = 3.51858 3.81678 3.67071
# Velocity P-wave (km/s) = 5.59797 6.28278 5.95023
#
# Compressibility (1/GPa) = 0.03264176
#
# Stress axis : x y z
#
# Youngs Moduli (GPa) = 82.57861 37.61525 86.37617
#
# Poissons Ratio (x) = 0.08016 0.34403
# Poissons Ratio (y) = 0.17598 0.23331
# Poissons Ratio (z) = 0.32891 0.10160
#
# Static dielectric constant tensor:
#      x y z
#    x 1.763080 -0.030910 0.030630 
#    y -0.030910 1.756750 -0.055000 
#    z 0.030630 -0.055000 1.746980 
# 
# From -- ./inp_files/399733.got.cif
#   From: 2010.05.17/outbox.cif.g08.bks.cpg/sg2_200_cif.got.tgz:399733.got - 2010.06.03 11:33:40.
