data_PCOD9090933
_publ_section_title
;
Structure prediction by ZEFSAII (Michael W. Deem and Ramdas Pophale) SiO2 
 PCOD9090933
Probable space group: P -1
;
_chemical_formula_sum "Si O2"
_cell_formula_units_Z 14
_cell_length_a 9.530911
_cell_length_b 8.774828
_cell_length_c 15.697641
_cell_angle_alpha 59.212413
_cell_angle_beta 83.168509
_cell_angle_gamma 130.572849
_cell_volume 618.024366
_symmetry_space_group_name_H-M "P -1"
_symmetry_group_IT_number 2
_symmetry_cell_setting 'triclinic'
loop_
_space_group_symop_operation_xyz
x,y,z
-x,-y,-z
loop_
_atom_site_type_symbol
_atom_site_label
_atom_site_fract_x
_atom_site_fract_y
_atom_site_fract_z
Si Si1 0.856821 0.271304 0.376679
Si Si2 0.742846 0.334337 0.084669
Si Si3 0.545430 0.462545 0.363752
Si Si4 0.627201 0.817243 0.923153
Si Si5 0.308710 0.602447 0.343774
Si Si6 0.893964 0.641063 0.153136
Si Si7 0.913476 0.643152 0.390121
O O1 0.846898 0.390468 0.262448
O O2 0.795703 0.346081 0.436838
O O3 0.141600 0.494376 0.307459
O O4 0.671897 0.910906 0.495633
O O5 0.600730 0.278712 0.031823
O O6 0.825915 0.568542 0.080461
O O7 0.535465 0.977717 0.236805
O O8 0.000000 0.500000 0.000000
O O9 0.427485 0.532566 0.345610
O O10 0.702056 0.568184 0.238537
O O11 0.752313 0.646546 0.371147
O O12 0.500000 0.500000 0.000000
O O13 0.818499 0.016899 0.932750
O O14 0.810792 0.056123 0.760319
O O15 0.112932 0.399052 0.495800
#
# Coordination Sequence:
#
# PCOD9090933 Si02
#       7
#     2   2   2   2   2   2   2
#     4  10  19  39  61  95 135 173 215 272 329 393
#     4  12  27  45  71  95 134 180 221 276 334 399
#     4  10  21  36  62  98 136 170 218 272 332 390
#     4  10  24  48  68 102 131 177 228 265 334 400
#     4  12  22  39  63 107 133 166 229 274 330 385
#     4  10  23  46  68  91 134 183 219 270 332 401
#     4  10  21  39  69  90 136 176 214 274 326 396
#
# _framework density 22.652829000000001
#
# number of rings (size 3 to 8) (size 9 to 14) (size 15 to 20)
#    0.000    1.714    2.857    4.714    6.000    1.143 
#    0.000    0.000    0.000    0.000    0.000    0.000 
#    0.000    0.000    0.000    0.000    0.000    0.000 
#
# Total GULP energy -78263.632546 kJ/mol
# GULP energy per Si atom -5590.259468 kJ/mol
# Density = 2.260127 g / cm^3
# Si number density = 22.652829 Si / 1000 Ang^3
#
#
#
# Elastic Constant Matrix: (Units=GPa)
#
#
# Indices 1 2 3 4 5 6 
#
# 1 139.2944 11.7074 8.8142 -19.7203 -7.9666 6.8206
# 2 11.7074 60.7662 18.6281 -23.4124 -0.9456 4.7227
# 3 8.8142 18.6281 50.0547 -25.2306 -8.7520 6.2715
# 4 -19.7203 -23.4124 -25.2306 33.7558 2.0878 2.4547
# 5 -7.9666 -0.9456 -8.7520 2.0878 27.6711 -15.6137
# 6 6.8206 4.7227 6.2715 2.4547 -15.6137 20.7020
#
#
#
# Elastic Compliance Matrix: (Units=1/GPa)
#
#
# Indices 1 2 3 4 5 6 
#
# 1 0.008275 0.000972 0.002766 0.007914 0.000048 -0.004688
# 2 0.000972 0.024770 0.001269 0.020340 -0.008624 -0.015272
# 3 0.002766 0.001269 0.036759 0.030910 0.001923 -0.014551
# 4 0.007914 0.020340 0.030910 0.074789 -0.012656 -0.035025
# 5 0.000048 -0.008624 0.001923 -0.012656 0.067964 0.054128
# 6 -0.004688 -0.015272 -0.014551 -0.035025 0.054128 0.102718
#
#
# Mechanical properties :
#
#
# Convention : Reuss Voigt Hill
#
# Bulk Modulus (GPa) = 12.52866 36.49052 24.50959
# Shear Modulus (GPa) = 15.06628 30.49017 22.77822
#
# Velocity S-wave (km/s) = 2.58174 3.67273 3.17446
# Velocity P-wave (km/s) = 3.79867 5.84199 4.92741
#
# Compressibility (1/GPa) = 0.07981697
#
# Stress axis : x y z
#
# Youngs Moduli (GPa) = 120.84594 40.37187 27.20417
#
# Poissons Ratio (x) = -0.03924 -0.07524
# Poissons Ratio (y) = -0.11746 -0.03451
# Poissons Ratio (z) = -0.33425 -0.05122
#
# Static dielectric constant tensor:
#      x y z
#    x 1.852770 0.019400 0.001100 
#    y 0.019400 1.886310 -0.036590 
#    z 0.001100 -0.036590 1.873910 
# 
# From -- ./inp_files/179802.got.cif
#   From: 2010.05.17/outbox.cif.g08.bks.cpg/sg2_90_cif.got.tgz:179802.got - 2010.06.03 11:33:40.
