data_PCOD9090437
_publ_section_title
;
Structure prediction by ZEFSAII (Michael W. Deem and Ramdas Pophale) SiO2 
 PCOD9090437
Probable space group: P -1
;
_chemical_formula_sum "Si O2"
_cell_formula_units_Z 14
_cell_length_a 13.440937
_cell_length_b 12.123904
_cell_length_c 6.501285
_cell_angle_alpha 122.942587
_cell_angle_beta 85.952473
_cell_angle_gamma 132.537647
_cell_volume 574.562037
_symmetry_space_group_name_H-M "P -1"
_symmetry_group_IT_number 2
_symmetry_cell_setting 'triclinic'
loop_
_space_group_symop_operation_xyz
x,y,z
-x,-y,-z
loop_
_atom_site_type_symbol
_atom_site_label
_atom_site_fract_x
_atom_site_fract_y
_atom_site_fract_z
Si Si1 0.917451 0.037418 0.932287
Si Si2 0.603293 0.345221 0.557387
Si Si3 0.884299 0.191991 0.447403
Si Si4 0.664772 0.603144 0.436403
Si Si5 0.877209 0.660604 0.147299
Si Si6 0.588209 0.050977 0.328081
Si Si7 0.584233 0.766260 0.141744
O O1 0.740181 0.815689 0.708630
O O2 0.932443 0.186526 0.212093
O O3 0.001395 0.141741 0.811144
O O4 0.000000 0.000000 0.000000
O O5 0.644818 0.488532 0.518982
O O6 0.567130 0.159508 0.305383
O O7 0.506818 0.441299 0.165207
O O8 0.749307 0.479642 0.826267
O O9 0.026816 0.344876 0.733903
O O10 0.771316 0.202935 0.474166
O O11 0.768011 0.956757 0.299569
O O12 0.470828 0.261122 0.647406
O O13 0.788538 0.664265 0.324533
O O14 0.500000 0.000000 0.500000
O O15 0.533996 0.845958 0.097663
#
# Coordination Sequence:
#
# PCOD9090437 Si02
#       7
#     2   2   2   2   2   2   2
#     4  12  23  40  63  89 124 162 202 248 304 358
#     4  10  19  38  66  89 117 161 205 245 302 360
#     4  10  22  40  61  95 122 156 206 244 305 359
#     4  11  22  38  64  90 119 165 205 243 302 361
#     4  11  22  39  62  90 123 159 204 250 300 358
#     4   8  18  42  63  87 125 158 197 250 303 356
#     4   8  21  39  58  91 121 153 202 246 301 355
#
# _framework density 24.366388000000001
#
# number of rings (size 3 to 8) (size 9 to 14) (size 15 to 20)
#    0.857    1.143    2.857    0.429    0.000    2.857 
#    0.000    7.143    0.000    0.000    0.000    0.000 
#    0.000    0.000    0.000    0.000    0.000    0.000 
#
# Total GULP energy -78181.420764 kJ/mol
# GULP energy per Si atom -5584.387197 kJ/mol
# Density = 2.431093 g / cm^3
# Si number density = 24.366388 Si / 1000 Ang^3
#
#
#
# Elastic Constant Matrix: (Units=GPa)
#
#
# Indices 1 2 3 4 5 6 
#
# 1 83.7004 17.4828 28.3131 -23.1626 -15.7601 -0.2434
# 2 17.4828 103.8711 22.1246 -29.4533 -8.8715 0.2484
# 3 28.3131 22.1246 101.0139 -5.9454 2.2499 -4.2989
# 4 -23.1626 -29.4533 -5.9454 41.6041 1.5150 -4.4827
# 5 -15.7601 -8.8715 2.2499 1.5150 24.7397 0.9336
# 6 -0.2434 0.2484 -4.2989 -4.4827 0.9336 46.2257
#
#
#
# Elastic Compliance Matrix: (Units=1/GPa)
#
#
# Indices 1 2 3 4 5 6 
#
# 1 0.018590 0.002079 -0.005299 0.010654 0.012404 0.000377
# 2 0.002079 0.013220 -0.002999 0.009935 0.005710 0.000509
# 3 -0.005299 -0.002999 0.012021 -0.003060 -0.005392 0.000918
# 4 0.010654 0.009935 -0.003060 0.036596 0.008269 0.003100
# 5 0.012404 0.005710 -0.005392 0.008269 0.050380 -0.000682
# 6 0.000377 0.000509 0.000918 0.003100 -0.000682 0.022032
#
#
# Mechanical properties :
#
#
# Convention : Reuss Voigt Hill
#
# Bulk Modulus (GPa) = 31.85458 47.15849 39.50654
# Shear Modulus (GPa) = 28.45087 37.22489 32.83788
#
# Velocity S-wave (km/s) = 3.42076 3.91284 3.67505
# Velocity P-wave (km/s) = 5.35758 6.30949 5.85292
#
# Compressibility (1/GPa) = 0.03139266
#
# Stress axis : x y z
#
# Youngs Moduli (GPa) = 53.79093 75.64480 83.18862
#
# Poissons Ratio (x) = -0.15728 0.44084
# Poissons Ratio (y) = -0.11184 0.24948
# Poissons Ratio (z) = 0.28506 0.22686
#
# Static dielectric constant tensor:
#      x y z
#    x 1.929320 -0.003740 0.023630 
#    y -0.003740 1.948680 0.030030 
#    z 0.023630 0.030030 1.971380 
# 
# From -- ./inp_files/95339.got.cif
#   From: 2010.05.17/outbox.cif.g08.bks.cpg/sg2_48_cif.got.tgz:95339.got - 2010.06.03 11:33:40.
