data_PCOD9090466
_publ_section_title
;
Structure prediction by ZEFSAII (Michael W. Deem and Ramdas Pophale) SiO2 
 PCOD9090466
Probable space group: P -1
;
_chemical_formula_sum "Si O2"
_cell_formula_units_Z 16
_cell_length_a 10.653628
_cell_length_b 7.211262
_cell_length_c 16.701836
_cell_angle_alpha 111.568757
_cell_angle_beta 53.975415
_cell_angle_gamma 70.119122
_cell_volume 649.555512
_symmetry_space_group_name_H-M "P -1"
_symmetry_group_IT_number 2
_symmetry_cell_setting 'triclinic'
loop_
_space_group_symop_operation_xyz
x,y,z
-x,-y,-z
loop_
_atom_site_type_symbol
_atom_site_label
_atom_site_fract_x
_atom_site_fract_y
_atom_site_fract_z
Si Si1 0.569189 0.269169 0.006993
Si Si2 0.821031 0.730374 0.536435
Si Si3 0.997743 0.183158 0.311386
Si Si4 0.313351 0.043892 0.622134
Si Si5 0.944755 0.248517 0.678237
Si Si6 0.679749 0.389244 0.328595
Si Si7 0.079922 0.112003 0.040016
Si Si8 0.353503 0.010577 0.784393
O O1 0.726137 0.144568 0.009181
O O2 0.323439 0.441357 0.162954
O O3 0.500000 0.500000 0.000000
O O4 0.755988 0.969204 0.836296
O O5 0.831912 0.526604 0.441967
O O6 0.000000 0.500000 0.500000
O O7 0.918850 0.823588 0.465189
O O8 0.566979 0.959481 0.704782
O O9 0.883092 0.157809 0.280841
O O10 0.030792 0.007448 0.346936
O O11 0.458458 0.700253 0.499085
O O12 0.270015 0.128062 0.744361
O O13 0.500000 0.000000 0.500000
O O14 0.078436 0.247999 0.694739
O O15 0.597699 0.276085 0.289788
O O16 0.835116 0.394741 0.218169
O O17 0.187739 0.170914 0.948469
O O18 0.000000 0.000000 0.000000
#
# Coordination Sequence:
#
# PCOD9090466 Si02
#       8
#     2   2   2   2   2   2   2   2
#     4   9  20  38  63  91 124 163 210 254 311 381
#     4  12  25  39  58  88 127 167 205 257 319 370
#     4  10  20  40  64  90 120 162 213 257 303 380
#     4  12  21  36  62  92 121 160 212 256 308 369
#     4  11  22  38  63  92 123 160 209 261 309 375
#     4  10  19  38  66  92 115 161 213 252 308 375
#     4   9  20  36  62  93 121 159 205 259 317 367
#     4  11  20  37  62  91 121 154 203 261 308 366
#
# _framework density 24.632225999999999
#
# number of rings (size 3 to 8) (size 9 to 14) (size 15 to 20)
#    0.000    1.500    3.750    1.875    1.750    1.000 
#    0.000    6.875    0.000    0.000    0.000    0.000 
#    0.000    0.000    0.000    0.000    0.000    0.000 
#
# Total GULP energy -89141.932330 kJ/mol
# GULP energy per Si atom -5571.370771 kJ/mol
# Density = 2.457616 g / cm^3
# Si number density = 24.632226 Si / 1000 Ang^3
#
#
#
# Elastic Constant Matrix: (Units=GPa)
#
#
# Indices 1 2 3 4 5 6 
#
# 1 57.9258 25.4863 26.2974 -3.6594 -21.8320 -25.2382
# 2 25.4863 109.2208 56.4816 -42.6435 -10.0212 -5.4672
# 3 26.2974 56.4816 183.7565 -28.3368 -41.1689 -9.2444
# 4 -3.6594 -42.6435 -28.3368 44.3993 -1.8453 -1.7621
# 5 -21.8320 -10.0212 -41.1689 -1.8453 34.6593 -0.5823
# 6 -25.2382 -5.4672 -9.2444 -1.7621 -0.5823 46.3587
#
#
#
# Elastic Compliance Matrix: (Units=1/GPa)
#
#
# Indices 1 2 3 4 5 6 
#
# 1 0.037908 -0.007045 0.003961 0.000837 0.026943 0.020966
# 2 -0.007045 0.017561 -0.002643 0.014455 -0.001760 -0.001764
# 3 0.003961 -0.002643 0.009637 0.004662 0.013495 0.004113
# 4 0.000837 0.014455 0.004662 0.040159 0.012463 0.004773
# 5 0.026943 -0.001760 0.013495 0.012463 0.062316 0.018408
# 6 0.020966 -0.001764 0.004113 0.004773 0.018408 0.034010
#
#
# Mechanical properties :
#
#
# Convention : Reuss Voigt Hill
#
# Bulk Modulus (GPa) = 18.63964 63.04820 40.84392
# Shear Modulus (GPa) = 21.65160 41.25932 31.45546
#
# Velocity S-wave (km/s) = 2.96800 4.09713 3.57740
# Velocity P-wave (km/s) = 4.39647 6.93061 5.80355
#
# Compressibility (1/GPa) = 0.05364911
#
# Stress axis : x y z
#
# Youngs Moduli (GPa) = 26.37988 56.94490 103.76771
#
# Poissons Ratio (x) = 0.40120 -0.41099
# Poissons Ratio (y) = 0.18586 0.27431
# Poissons Ratio (z) = -0.10448 0.15053
#
# Static dielectric constant tensor:
#      x y z
#    x 2.089380 0.024150 0.005760 
#    y 0.024150 2.157020 -0.057400 
#    z 0.005760 -0.057400 1.991470 
# 
# From -- ./inp_files/566763.got.cif
#   From: 2010.05.17/outbox.cif.g08.bks.cpg/sg2_284_cif.got.tgz:566763.got - 2010.06.03 11:33:40.
