data_PCOD9090696
_publ_section_title
;
Structure prediction by ZEFSAII (Michael W. Deem and Ramdas Pophale) SiO2 
 PCOD9090696
Probable space group: P -1
;
_chemical_formula_sum "Si O2"
_cell_formula_units_Z 16
_cell_length_a 9.040820
_cell_length_b 18.588198
_cell_length_c 5.773440
_cell_angle_alpha 89.030646
_cell_angle_beta 96.728315
_cell_angle_gamma 133.721039
_cell_volume 693.598017
_symmetry_space_group_name_H-M "P -1"
_symmetry_group_IT_number 2
_symmetry_cell_setting 'triclinic'
loop_
_space_group_symop_operation_xyz
x,y,z
-x,-y,-z
loop_
_atom_site_type_symbol
_atom_site_label
_atom_site_fract_x
_atom_site_fract_y
_atom_site_fract_z
Si Si1 0.674174 0.478803 0.316448
Si Si2 0.907161 0.998697 0.732383
Si Si3 0.756566 0.369251 0.616538
Si Si4 0.119126 0.709573 0.055957
Si Si5 0.987387 0.799303 0.297391
Si Si6 0.538023 0.673668 0.064576
Si Si7 0.199039 0.349375 0.376623
Si Si8 0.531720 0.207908 0.226092
O O1 0.792087 0.453792 0.473022
O O2 0.629714 0.440318 0.047688
O O3 0.433379 0.405880 0.358553
O O4 0.779204 0.587277 0.408979
O O5 0.937694 0.094845 0.728525
O O6 0.663835 0.899041 0.706212
O O7 0.000000 0.000000 0.500000
O O8 0.000000 0.000000 0.000000
O O9 0.702248 0.286261 0.440629
O O10 0.899254 0.376582 0.828746
O O11 0.548472 0.320120 0.719940
O O12 0.338068 0.783251 0.957149
O O13 0.928649 0.655959 0.848714
O O14 0.121110 0.779841 0.217629
O O15 0.935406 0.763091 0.555743
O O16 0.763168 0.718908 0.138684
O O17 0.547465 0.740874 0.878406
#
# Coordination Sequence:
#
# PCOD9090696 Si02
#       8
#     2   2   2   2   2   2   2   2
#     4  10  22  39  69  98 138 182 242 294 351 429
#     4  12  28  46  80 117 141 188 251 305 359 438
#     4  10  21  43  68  96 133 194 227 295 350 435
#     4  11  25  43  68  97 148 186 229 291 373 426
#     4  12  24  42  70 102 143 179 234 300 364 426
#     4  10  19  38  70  96 132 177 236 288 350 419
#     4  11  24  41  63 107 139 181 237 300 357 427
#     4  10  23  45  68 101 140 182 238 287 363 428
#
# _framework density 23.068116
#
# number of rings (size 3 to 8) (size 9 to 14) (size 15 to 20)
#    0.000    1.250    3.750    1.500    5.250    2.500 
#    0.000   11.250    0.000    0.000    0.000    0.000 
#    0.000    0.000    0.000    0.000    0.000    0.000 
#
# Total GULP energy -89395.651015 kJ/mol
# GULP energy per Si atom -5587.228188 kJ/mol
# Density = 2.301561 g / cm^3
# Si number density = 23.068116 Si / 1000 Ang^3
#
#
#
# Elastic Constant Matrix: (Units=GPa)
#
#
# Indices 1 2 3 4 5 6 
#
# 1 142.0685 31.1759 36.4673 -9.4567 2.9933 -4.2862
# 2 31.1759 109.5120 23.4592 -27.0188 3.8098 -16.5037
# 3 36.4673 23.4592 74.8873 -16.6650 13.4084 -9.4507
# 4 -9.4567 -27.0188 -16.6650 25.8177 -4.5604 -2.0247
# 5 2.9933 3.8098 13.4084 -4.5604 57.0726 -2.6114
# 6 -4.2862 -16.5037 -9.4507 -2.0247 -2.6114 31.2267
#
#
#
# Elastic Compliance Matrix: (Units=1/GPa)
#
#
# Indices 1 2 3 4 5 6 
#
# 1 0.008389 -0.002194 -0.004061 -0.001868 0.000451 -0.001321
# 2 -0.002194 0.014872 0.001054 0.016248 0.000584 0.008980
# 3 -0.004061 0.001054 0.018968 0.011805 -0.003085 0.006248
# 4 -0.001868 0.016248 0.011805 0.064322 0.002123 0.016251
# 5 0.000451 0.000584 -0.003085 0.002123 0.018404 0.001114
# 6 -0.001321 0.008980 0.006248 0.016251 0.001114 0.039626
#
#
# Mechanical properties :
#
#
# Convention : Reuss Voigt Hill
#
# Bulk Modulus (GPa) = 31.41931 56.51918 43.96925
# Shear Modulus (GPa) = 26.94071 38.51445 32.72758
#
# Velocity S-wave (km/s) = 3.42113 4.09050 3.77070
# Velocity P-wave (km/s) = 5.40882 6.84571 6.16924
#
# Compressibility (1/GPa) = 0.03182756
#
# Stress axis : x y z
#
# Youngs Moduli (GPa) = 119.20362 67.24093 52.71906
#
# Poissons Ratio (x) = 0.14752 0.21409
# Poissons Ratio (y) = 0.26152 -0.05557
# Poissons Ratio (z) = 0.48409 -0.07088
#
# Static dielectric constant tensor:
#      x y z
#    x 1.855850 0.013940 -0.018800 
#    y 0.013940 1.847730 -0.013680 
#    z -0.018800 -0.013680 2.007340 
# 
# From -- ./inp_files/37896.got.cif
#   From: 2010.05.17/outbox.cif.g08.bks.cpg/sg2_19_cif.got.tgz:37896.got - 2010.06.03 11:33:40.
