data_PCOD9090768
_publ_section_title
;
Structure prediction by ZEFSAII (Michael W. Deem and Ramdas Pophale) SiO2 
 PCOD9090768
Probable space group: P -1
;
_chemical_formula_sum "Si O2"
_cell_formula_units_Z 16
_cell_length_a 12.586604
_cell_length_b 10.433739
_cell_length_c 7.684025
_cell_angle_alpha 95.396511
_cell_angle_beta 120.492979
_cell_angle_gamma 66.277809
_cell_volume 788.278647
_symmetry_space_group_name_H-M "P -1"
_symmetry_group_IT_number 2
_symmetry_cell_setting 'triclinic'
loop_
_space_group_symop_operation_xyz
x,y,z
-x,-y,-z
loop_
_atom_site_type_symbol
_atom_site_label
_atom_site_fract_x
_atom_site_fract_y
_atom_site_fract_z
Si Si1 0.126888 0.779871 0.997863
Si Si2 0.628772 0.677922 0.544424
Si Si3 0.385826 0.873490 0.546292
Si Si4 0.281173 0.641880 0.450934
Si Si5 0.798262 0.686502 0.360986
Si Si6 0.905152 0.351102 0.392018
Si Si7 0.825724 0.944077 0.858764
Si Si8 0.649600 0.822007 0.909833
O O1 0.147896 0.710521 0.818812
O O2 0.972119 0.819093 0.932278
O O3 0.225360 0.683263 0.215279
O O4 0.147039 0.924662 0.029675
O O5 0.487213 0.904919 0.761776
O O6 0.628653 0.525914 0.489345
O O7 0.722254 0.705667 0.483851
O O8 0.680026 0.689665 0.783792
O O9 0.351687 0.746025 0.572194
O O10 0.479831 0.804216 0.445237
O O11 0.254199 0.001080 0.382953
O O12 0.156669 0.671613 0.481646
O O13 0.852480 0.519211 0.343598
O O14 0.932361 0.715610 0.479876
O O15 0.698750 0.772324 0.136400
O O16 0.732670 0.902608 0.904819
#
# Coordination Sequence:
#
# PCOD9090768 Si02
#       8
#     2   2   2   2   2   2   2   2
#     4  10  21  37  62  80 112 150 186 235 281 322
#     4   9  20  35  60  84 117 142 180 232 281 334
#     4   9  21  37  59  79 118 150 185 228 274 328
#     4  10  19  39  58  90 111 142 185 232 286 336
#     4  10  20  37  57  90 113 140 187 230 286 339
#     4  10  21  36  60  86 116 140 182 242 281 331
#     4  10  20  39  57  82 112 151 195 228 267 331
#     4  10  20  36  58  79 114 152 183 225 277 328
#
# _framework density 20.297391000000001
#
# number of rings (size 3 to 8) (size 9 to 14) (size 15 to 20)
#    0.750    1.500    0.000    3.000    0.000    0.000 
#    4.500   19.375    0.000    0.000    0.000    0.000 
#    0.000    0.000    0.000    0.000    0.000    0.000 
#
# Total GULP energy -89276.667389 kJ/mol
# GULP energy per Si atom -5579.791712 kJ/mol
# Density = 2.025119 g / cm^3
# Si number density = 20.297391 Si / 1000 Ang^3
#
#
#
# Elastic Constant Matrix: (Units=GPa)
#
#
# Indices 1 2 3 4 5 6 
#
# 1 67.0620 4.2883 3.3547 -2.1203 15.3877 8.9138
# 2 4.2883 37.5513 0.1557 4.8389 1.0235 1.8961
# 3 3.3547 0.1557 69.8388 3.8646 3.8885 0.4758
# 4 -2.1203 4.8389 3.8646 18.3438 -4.2569 1.8203
# 5 15.3877 1.0235 3.8885 -4.2569 28.2243 1.2215
# 6 8.9138 1.8961 0.4758 1.8203 1.2215 23.5886
#
#
#
# Elastic Compliance Matrix: (Units=1/GPa)
#
#
# Indices 1 2 3 4 5 6 
#
# 1 0.018033 -0.001624 -0.000361 0.001055 -0.009292 -0.006277
# 2 -0.001624 0.027914 0.000533 -0.007881 -0.001347 -0.000963
# 3 -0.000361 0.000533 0.014683 -0.003863 -0.002438 0.000222
# 4 0.001055 -0.007881 -0.003863 0.060221 0.009535 -0.004828
# 5 -0.009292 -0.001347 -0.002438 0.009535 0.042287 0.000743
# 6 -0.006277 -0.000963 0.000222 -0.004828 0.000743 0.045172
#
#
# Mechanical properties :
#
#
# Convention : Reuss Voigt Hill
#
# Bulk Modulus (GPa) = 17.32253 21.11662 19.21957
# Shear Modulus (GPa) = 21.69615 25.14158 23.41887
#
# Velocity S-wave (km/s) = 3.27297 3.52328 3.40043
# Velocity P-wave (km/s) = 4.77870 5.19399 4.99067
#
# Compressibility (1/GPa) = 0.05772828
#
# Stress axis : x y z
#
# Youngs Moduli (GPa) = 55.45297 35.82393 68.10673
#
# Poissons Ratio (x) = 0.05817 0.02458
# Poissons Ratio (y) = 0.09004 -0.03633
# Poissons Ratio (z) = 0.02001 -0.01911
#
# Static dielectric constant tensor:
#      x y z
#    x 1.726800 -0.007150 0.029930 
#    y -0.007150 1.728480 0.016210 
#    z 0.029930 0.016210 1.690940 
# 
# From -- ./inp_files/70779.got.cif
#   From: 2010.05.17/outbox.cif.g08.bks.cpg/sg2_36_cif.got.tgz:70779.got - 2010.06.03 11:33:40.
