data_PCOD9090043
_publ_section_title
;
Structure prediction by ZEFSAII (Michael W. Deem and Ramdas Pophale) SiO2 
 PCOD9090043
Probable space group: P -1
;
_chemical_formula_sum "Si O2"
_cell_formula_units_Z 14
_cell_length_a 14.242492
_cell_length_b 9.158905
_cell_length_c 9.158007
_cell_angle_alpha 88.473310
_cell_angle_beta 118.468462
_cell_angle_gamma 43.787501
_cell_volume 576.123759
_symmetry_space_group_name_H-M "P -1"
_symmetry_group_IT_number 2
_symmetry_cell_setting 'triclinic'
loop_
_space_group_symop_operation_xyz
x,y,z
-x,-y,-z
loop_
_atom_site_type_symbol
_atom_site_label
_atom_site_fract_x
_atom_site_fract_y
_atom_site_fract_z
Si Si1 0.389685 0.839062 0.771482
Si Si2 0.076657 0.698854 0.222056
Si Si3 0.155473 0.425514 0.035156
Si Si4 0.210754 0.543075 0.815248
Si Si5 0.340620 0.928298 0.077594
Si Si6 0.242773 0.698228 0.569662
Si Si7 0.193955 0.341426 0.573578
O O1 0.291632 0.808643 0.635581
O O2 0.325897 0.056085 0.633639
O O3 0.621476 0.568736 0.966410
O O4 0.324755 0.934073 0.889789
O O5 0.201565 0.499610 0.183527
O O6 0.126083 0.794513 0.333792
O O7 0.128278 0.521052 0.390515
O O8 0.848717 0.943813 0.009727
O O9 0.314085 0.125531 0.107573
O O10 0.084355 0.595981 0.834949
O O11 0.000000 0.500000 0.000000
O O12 0.144750 0.733359 0.639041
O O13 0.294944 0.320668 0.776391
O O14 0.544764 0.623116 0.280660
O O15 0.000000 0.500000 0.500000
#
# Coordination Sequence:
#
# PCOD9090043 Si02
#       7
#     2   2   2   2   2   2   2
#     4  11  21  39  61  92 124 155 204 254 306 359
#     4  10  22  38  62  90 124 161 205 249 309 354
#     4  10  20  37  63  92 122 157 206 258 296 363
#     4  10  20  37  64  88 115 161 203 250 305 352
#     4  10  19  38  63  89 121 153 208 251 305 350
#     4  10  24  39  63  92 125 161 201 253 306 367
#     4  11  19  36  61  93 117 153 209 260 294 356
#
# _framework density 24.300332000000001
#
# number of rings (size 3 to 8) (size 9 to 14) (size 15 to 20)
#    0.000    1.714    2.857    3.000    4.000    1.143 
#    2.571    0.714    3.143    6.857    0.000    0.000 
#    0.000    0.000    0.000    0.000    0.000    0.000 
#
# Total GULP energy -78240.655864 kJ/mol
# GULP energy per Si atom -5588.618276 kJ/mol
# Density = 2.424502 g / cm^3
# Si number density = 24.300332 Si / 1000 Ang^3
#
#
#
# Elastic Constant Matrix: (Units=GPa)
#
#
# Indices 1 2 3 4 5 6 
#
# 1 92.3564 52.5728 31.0055 18.7427 11.1429 13.9814
# 2 52.5728 81.4714 30.7864 17.5754 2.2316 4.7100
# 3 31.0055 30.7864 73.9329 15.8272 19.2882 0.0290
# 4 18.7427 17.5754 15.8272 50.2098 6.4341 3.6884
# 5 11.1429 2.2316 19.2882 6.4341 36.4350 10.5154
# 6 13.9814 4.7100 0.0290 3.6884 10.5154 32.8999
#
#
#
# Elastic Compliance Matrix: (Units=1/GPa)
#
#
# Indices 1 2 3 4 5 6 
#
# 1 0.019291 -0.010571 -0.002822 -0.001958 -0.001705 -0.005918
# 2 -0.010571 0.021519 -0.005326 -0.002574 0.005174 0.000051
# 3 -0.002822 -0.005326 0.020260 -0.002509 -0.010724 0.005653
# 4 -0.001958 -0.002574 -0.002509 0.022613 -0.001679 -0.000796
# 5 -0.001705 0.005174 -0.010724 -0.001679 0.036984 -0.011639
# 6 -0.005918 0.000051 0.005653 -0.000796 -0.011639 0.036707
#
#
# Mechanical properties :
#
#
# Convention : Reuss Voigt Hill
#
# Bulk Modulus (GPa) = 42.31649 52.94335 47.62992
# Shear Modulus (GPa) = 24.66812 32.80200 28.73506
#
# Velocity S-wave (km/s) = 3.18957 3.67803 3.44248
# Velocity P-wave (km/s) = 5.56923 6.31439 5.95348
#
# Compressibility (1/GPa) = 0.02363145
#
# Stress axis : x y z
#
# Youngs Moduli (GPa) = 51.83658 46.47068 49.35776
#
# Poissons Ratio (x) = 0.49123 0.13930
# Poissons Ratio (y) = 0.54796 0.26290
# Poissons Ratio (z) = 0.14630 0.24752
#
# Static dielectric constant tensor:
#      x y z
#    x 1.973670 -0.014050 0.049140 
#    y -0.014050 1.998730 -0.011950 
#    z 0.049140 -0.011950 1.952870 
# 
# From -- ./inp_files/157459.got.cif
#   From: 2010.05.17/outbox.cif.g08.bks.cpg/sg2_79_cif.got.tgz:157459.got - 2010.06.03 11:33:40.
