data_PCOD9090415
_publ_section_title
;
Structure prediction by ZEFSAII (Michael W. Deem and Ramdas Pophale) SiO2 
 PCOD9090415
Probable space group: P -1
;
_chemical_formula_sum "Si O2"
_cell_formula_units_Z 16
_cell_length_a 14.297585
_cell_length_b 10.688527
_cell_length_c 7.589989
_cell_angle_alpha 53.281315
_cell_angle_beta 133.186215
_cell_angle_gamma 109.545593
_cell_volume 672.368128
_symmetry_space_group_name_H-M "P -1"
_symmetry_group_IT_number 2
_symmetry_cell_setting 'triclinic'
loop_
_space_group_symop_operation_xyz
x,y,z
-x,-y,-z
loop_
_atom_site_type_symbol
_atom_site_label
_atom_site_fract_x
_atom_site_fract_y
_atom_site_fract_z
Si Si1 0.121967 0.592946 0.106111
Si Si2 0.811212 0.848210 0.082187
Si Si3 0.604039 0.426386 0.446379
Si Si4 0.433339 0.940434 0.282552
Si Si5 0.866861 0.484732 0.432478
Si Si6 0.924028 0.109442 0.452483
Si Si7 0.637423 0.376034 0.120264
Si Si8 0.687795 0.011715 0.440015
O O1 0.271710 0.517814 0.347853
O O2 0.114669 0.629045 0.277287
O O3 0.110741 0.732880 0.836739
O O4 0.000000 0.500000 0.000000
O O5 0.809378 0.662385 0.263770
O O6 0.961322 0.874106 0.273496
O O7 0.705216 0.948698 0.989349
O O8 0.760997 0.904237 0.777384
O O9 0.622012 0.441010 0.245513
O O10 0.594485 0.240613 0.611283
O O11 0.471672 0.537457 0.217340
O O12 0.549619 0.950066 0.284932
O O13 0.500000 0.000000 0.500000
O O14 0.778643 0.417987 0.227889
O O15 0.000000 0.500000 0.500000
O O16 0.798236 0.037856 0.419745
O O17 0.000000 0.000000 0.500000
O O18 0.642102 0.191057 0.290271
#
# Coordination Sequence:
#
# PCOD9090415 Si02
#       8
#     2   2   2   2   2   2   2   2
#     4  11  25  46  64  92 136 179 224 273 341 405
#     4  11  22  42  68  98 132 177 225 279 337 395
#     4  10  20  39  66  99 134 174 218 279 343 401
#     4  10  19  38  66 102 133 166 221 286 335 392
#     4  11  24  40  70  98 132 174 231 283 333 401
#     4  12  27  44  64  93 137 185 224 273 338 405
#     4  10  20  35  67 102 132 165 223 283 336 390
#     4  11  24  40  69 101 135 171 229 278 333 404
#
# _framework density 23.796486999999999
#
# number of rings (size 3 to 8) (size 9 to 14) (size 15 to 20)
#    0.000    1.250    3.750    3.375    7.000    0.000 
#    0.000    3.125    0.000    0.000    0.000    0.000 
#    0.000    0.000    0.000    0.000    0.000    0.000 
#
# Total GULP energy -89289.758728 kJ/mol
# GULP energy per Si atom -5580.609921 kJ/mol
# Density = 2.374232 g / cm^3
# Si number density = 23.796487 Si / 1000 Ang^3
#
#
#
# Elastic Constant Matrix: (Units=GPa)
#
#
# Indices 1 2 3 4 5 6 
#
# 1 133.7576 31.0653 58.7725 -0.1905 4.2061 49.1182
# 2 31.0653 78.7240 29.1588 4.1020 11.6706 35.5090
# 3 58.7725 29.1588 142.8515 14.3548 16.0714 19.4853
# 4 -0.1905 4.1020 14.3548 33.3258 4.4388 6.7844
# 5 4.2061 11.6706 16.0714 4.4388 32.9633 10.1002
# 6 49.1182 35.5090 19.4853 6.7844 10.1002 46.9230
#
#
#
# Elastic Compliance Matrix: (Units=1/GPa)
#
#
# Indices 1 2 3 4 5 6 
#
# 1 0.015869 0.003209 -0.005717 0.005300 0.004554 -0.018412
# 2 0.003209 0.020704 -0.003263 0.002644 -0.001042 -0.017830
# 3 -0.005717 -0.003263 0.010167 -0.004630 -0.004229 0.005812
# 4 0.005300 0.002644 -0.004630 0.033916 -0.000745 -0.010370
# 5 0.004554 -0.001042 -0.004229 -0.000745 0.035260 -0.009705
# 6 -0.018412 -0.017830 0.005812 -0.010370 -0.009705 0.055253
#
#
# Mechanical properties :
#
#
# Convention : Reuss Voigt Hill
#
# Bulk Modulus (GPa) = 28.41114 65.92514 47.16814
# Shear Modulus (GPa) = 25.71451 38.39819 32.05635
#
# Velocity S-wave (km/s) = 3.29082 4.02133 3.67427
# Velocity P-wave (km/s) = 5.13852 7.02320 6.15345
#
# Compressibility (1/GPa) = 0.03519747
#
# Stress axis : x y z
#
# Youngs Moduli (GPa) = 63.01768 48.30040 98.35861
#
# Poissons Ratio (x) = -0.15501 0.56235
# Poissons Ratio (y) = -0.20224 0.32093
# Poissons Ratio (z) = 0.36029 0.15760
#
# Static dielectric constant tensor:
#      x y z
#    x 2.023730 -0.141610 0.020940 
#    y -0.141610 2.429690 -0.072990 
#    z 0.020940 -0.072990 1.935910 
# 
# From -- ./inp_files/312453.got.cif
#   From: 2010.05.17/outbox.cif.g08.bks.cpg/sg2_157_cif.got.tgz:312453.got - 2010.06.03 11:33:40.
