data_PCOD9090999
_publ_section_title
;
Structure prediction by ZEFSAII (Michael W. Deem and Ramdas Pophale) SiO2 
 PCOD9090999
Probable space group: P -1
;
_chemical_formula_sum "Si O2"
_cell_formula_units_Z 16
_cell_length_a 7.953692
_cell_length_b 12.727747
_cell_length_c 14.896154
_cell_angle_alpha 49.503689
_cell_angle_beta 40.409761
_cell_angle_gamma 70.446986
_cell_volume 703.234716
_symmetry_space_group_name_H-M "P -1"
_symmetry_group_IT_number 2
_symmetry_cell_setting 'triclinic'
loop_
_space_group_symop_operation_xyz
x,y,z
-x,-y,-z
loop_
_atom_site_type_symbol
_atom_site_label
_atom_site_fract_x
_atom_site_fract_y
_atom_site_fract_z
Si Si1 0.757217 0.195637 0.197361
Si Si2 0.067399 0.828390 0.474093
Si Si3 0.663692 0.161944 0.814498
Si Si4 0.703633 0.497171 0.033014
Si Si5 0.234081 0.939380 0.542025
Si Si6 0.676149 0.624056 0.162131
Si Si7 0.139585 0.499027 0.220422
Si Si8 0.870898 0.596364 0.433779
O O1 0.618558 0.321731 0.173408
O O2 0.805679 0.167949 0.298004
O O3 0.547744 0.039250 0.342563
O O4 0.034270 0.258195 0.991613
O O5 0.319478 0.846087 0.295470
O O6 0.125925 0.861359 0.536433
O O7 0.914804 0.656675 0.624433
O O8 0.920925 0.943458 0.438371
O O9 0.500522 0.270717 0.848560
O O10 0.973662 0.239360 0.684716
O O11 0.500000 0.000000 0.000000
O O12 0.768658 0.558018 0.072195
O O13 0.468855 0.565519 0.058742
O O14 0.918888 0.526872 0.847000
O O15 0.456716 0.487012 0.378573
O O16 0.973804 0.581172 0.299618
O O17 0.000000 0.500000 0.500000
#
# Coordination Sequence:
#
# PCOD9090999 Si02
#       8
#     2   2   2   2   2   2   2   2
#     4  11  23  42  59  95 131 177 206 261 331 391
#     4  11  20  41  65  95 121 171 215 272 316 370
#     4  11  22  36  65  94 129 166 214 262 325 380
#     4  11  22  36  66  94 125 165 220 270 310 377
#     4  10  24  39  65  92 137 163 216 267 325 385
#     4  11  21  40  62  90 127 171 214 256 315 396
#     4  11  20  37  67  96 122 160 226 278 306 361
#     4  10  19  39  62  90 130 165 208 271 314 380
#
# _framework density 22.752003999999999
#
# number of rings (size 3 to 8) (size 9 to 14) (size 15 to 20)
#    0.000    1.250    6.250    1.875    0.000    2.000 
#    0.000    1.250    2.750    0.000    0.000    0.000 
#    0.000    0.000    0.000    0.000    0.000    0.000 
#
# Total GULP energy -89180.161988 kJ/mol
# GULP energy per Si atom -5573.760124 kJ/mol
# Density = 2.270022 g / cm^3
# Si number density = 22.752004 Si / 1000 Ang^3
#
#
#
# Elastic Constant Matrix: (Units=GPa)
#
#
# Indices 1 2 3 4 5 6 
#
# 1 33.8073 5.5701 14.0966 7.4463 0.7377 -8.2272
# 2 5.5701 83.6341 38.8441 8.2176 6.3464 11.7082
# 3 14.0966 38.8441 132.6387 -8.0721 -8.2730 -5.6520
# 4 7.4463 8.2176 -8.0721 38.7460 4.8050 5.1521
# 5 0.7377 6.3464 -8.2730 4.8050 42.2259 0.5474
# 6 -8.2272 11.7082 -5.6520 5.1521 0.5474 20.5184
#
#
#
# Elastic Compliance Matrix: (Units=1/GPa)
#
#
# Indices 1 2 3 4 5 6 
#
# 1 0.037927 -0.002726 -0.003044 -0.009793 0.000027 0.018383
# 2 -0.002726 0.016725 -0.005429 -0.002239 -0.003126 -0.011487
# 3 -0.003044 -0.005429 0.009949 0.003003 0.002427 0.003799
# 4 -0.009793 -0.002239 0.003003 0.030315 -0.002232 -0.009374
# 5 0.000027 -0.003126 0.002427 -0.002232 0.024850 0.002361
# 6 0.018383 -0.011487 0.003799 -0.009374 0.002361 0.065999
#
#
# Mechanical properties :
#
#
# Convention : Reuss Voigt Hill
#
# Bulk Modulus (GPa) = 23.69412 40.78907 32.24160
# Shear Modulus (GPa) = 22.49907 33.06933 27.78420
#
# Velocity S-wave (km/s) = 3.14806 3.81657 3.49832
# Velocity P-wave (km/s) = 4.86317 6.11459 5.52443
#
# Compressibility (1/GPa) = 0.04220457
#
# Stress axis : x y z
#
# Youngs Moduli (GPa) = 26.36613 59.78983 100.51518
#
# Poissons Ratio (x) = 0.16297 0.30592
# Poissons Ratio (y) = 0.07187 0.54571
# Poissons Ratio (z) = 0.08025 0.32461
#
# Static dielectric constant tensor:
#      x y z
#    x 1.951430 -0.020660 -0.042770 
#    y -0.020660 1.850160 -0.000580 
#    z -0.042770 -0.000580 1.891360 
# 
# From -- ./inp_files/499981.got.cif
#   From: 2010.05.17/outbox.cif.g08.bks.cpg/sg2_250_cif.got.tgz:499981.got - 2010.06.03 11:33:40.
