data_PCOD9090876
_publ_section_title
;
Structure prediction by ZEFSAII (Michael W. Deem and Ramdas Pophale) SiO2 
 PCOD9090876
Probable space group: P -1
;
_chemical_formula_sum "Si O2"
_cell_formula_units_Z 14
_cell_length_a 12.625611
_cell_length_b 22.273026
_cell_length_c 8.853427
_cell_angle_alpha 31.991528
_cell_angle_beta 141.316793
_cell_angle_gamma 153.030743
_cell_volume 595.015218
_symmetry_space_group_name_H-M "P -1"
_symmetry_group_IT_number 2
_symmetry_cell_setting 'triclinic'
loop_
_space_group_symop_operation_xyz
x,y,z
-x,-y,-z
loop_
_atom_site_type_symbol
_atom_site_label
_atom_site_fract_x
_atom_site_fract_y
_atom_site_fract_z
Si Si1 0.820648 0.276090 0.701824
Si Si2 0.891215 0.335993 0.299722
Si Si3 0.994832 0.863763 0.784890
Si Si4 0.429251 0.390979 0.352190
Si Si5 0.689751 0.444614 0.226115
Si Si6 0.946988 0.832556 0.141039
Si Si7 0.613010 0.819617 0.010481
O O1 0.903643 0.340406 0.486067
O O2 0.626337 0.283076 0.492134
O O3 0.029544 0.405941 0.773595
O O4 0.790361 0.127066 0.004200
O O5 0.015067 0.275642 0.515822
O O6 0.613048 0.212188 0.218638
O O7 0.000000 0.500000 0.000000
O O8 0.824040 0.755328 0.688756
O O9 0.000000 0.000000 0.500000
O O10 0.894465 0.792141 0.992450
O O11 0.601427 0.447028 0.284744
O O12 0.475738 0.325893 0.675153
O O13 0.411213 0.516721 0.094060
O O14 0.758795 0.825967 0.026119
O O15 0.197300 0.013777 0.048092
#
# Coordination Sequence:
#
# PCOD9090876 Si02
#       7
#     2   2   2   2   2   2   2
#     4   9  20  37  57  85 120 153 196 255 303 361
#     4  11  24  40  62  93 127 164 207 259 309 372
#     4  10  19  39  61  84 115 156 205 255 294 360
#     4  10  20  35  63  86 116 159 201 252 309 361
#     4   9  19  37  58  87 120 151 203 255 307 366
#     4  10  24  43  63  90 128 166 211 250 311 374
#     4  11  23  42  64  90 126 172 203 253 314 374
#
# _framework density 23.52881
#
# number of rings (size 3 to 8) (size 9 to 14) (size 15 to 20)
#    0.000    2.000    1.429    1.286    4.000    1.714 
#    2.571    2.143    0.000    0.000    0.000    0.000 
#    0.000    0.000    0.000    0.000    0.000    0.000 
#
# Total GULP energy -78091.204995 kJ/mol
# GULP energy per Si atom -5577.943214 kJ/mol
# Density = 2.347526 g / cm^3
# Si number density = 23.528810 Si / 1000 Ang^3
#
#
#
# Elastic Constant Matrix: (Units=GPa)
#
#
# Indices 1 2 3 4 5 6 
#
# 1 37.4850 -8.6643 19.9185 1.9129 25.4795 -0.8893
# 2 -8.6643 49.0947 17.4270 -3.6401 5.3591 -5.5159
# 3 19.9185 17.4270 170.4106 -3.4858 45.9477 -3.4102
# 4 1.9129 -3.6401 -3.4858 24.7176 -9.8262 0.3974
# 5 25.4795 5.3591 45.9477 -9.8262 48.7722 0.1267
# 6 -0.8893 -5.5159 -3.4102 0.3974 0.1267 21.9153
#
#
#
# Elastic Compliance Matrix: (Units=1/GPa)
#
#
# Indices 1 2 3 4 5 6 
#
# 1 0.051826 0.011751 0.001370 -0.015192 -0.032733 0.005739
# 2 0.011751 0.024560 -0.001811 -0.000536 -0.007256 0.006428
# 3 0.001370 -0.001811 0.008238 -0.002738 -0.008832 0.000982
# 4 -0.015192 -0.000536 -0.002738 0.049362 0.020525 -0.002191
# 5 -0.032733 -0.007256 -0.008832 0.020525 0.050870 -0.005195
# 6 0.005739 0.006428 0.000982 -0.002191 -0.005195 0.047704
#
#
# Mechanical properties :
#
#
# Convention : Reuss Voigt Hill
#
# Bulk Modulus (GPa) = 9.32439 34.92809 22.12624
# Shear Modulus (GPa) = 20.35099 34.30163 27.32631
#
# Velocity S-wave (km/s) = 2.94418 3.82233 3.41163
# Velocity P-wave (km/s) = 3.94070 5.86151 4.99432
#
# Compressibility (1/GPa) = 0.10724562
#
# Stress axis : x y z
#
# Youngs Moduli (GPa) = 19.29533 40.71645 121.38420
#
# Poissons Ratio (x) = -0.47847 -0.16634
# Poissons Ratio (y) = -0.22674 0.21983
# Poissons Ratio (z) = -0.02644 0.07374
#
# Static dielectric constant tensor:
#      x y z
#    x 1.900870 0.012060 0.070290 
#    y 0.012060 1.970940 -0.019680 
#    z 0.070290 -0.019680 1.946100 
# 
# From -- ./inp_files/207287.got.cif
#   From: 2010.05.17/outbox.cif.g08.bks.cpg/sg2_104_cif.got.tgz:207287.got - 2010.06.03 11:33:40.
