data_PCOD9090221
_publ_section_title
;
Structure prediction by ZEFSAII (Michael W. Deem and Ramdas Pophale) SiO2 
 PCOD9090221
Probable space group: P -1
;
_chemical_formula_sum "Si O2"
_cell_formula_units_Z 16
_cell_length_a 14.568540
_cell_length_b 5.778074
_cell_length_c 7.797379
_cell_angle_alpha 86.345524
_cell_angle_beta 95.673990
_cell_angle_gamma 86.811722
_cell_volume 650.556336
_symmetry_space_group_name_H-M "P -1"
_symmetry_group_IT_number 2
_symmetry_cell_setting 'triclinic'
loop_
_space_group_symop_operation_xyz
x,y,z
-x,-y,-z
loop_
_atom_site_type_symbol
_atom_site_label
_atom_site_fract_x
_atom_site_fract_y
_atom_site_fract_z
Si Si1 0.606592 0.731813 0.947475
Si Si2 0.687977 0.370926 0.182309
Si Si3 0.215036 0.025459 0.953006
Si Si4 0.883868 0.566891 0.143157
Si Si5 0.163185 0.860139 0.305784
Si Si6 0.630883 0.203969 0.511172
Si Si7 0.517666 0.902933 0.280061
Si Si8 0.080138 0.382861 0.262204
O O1 0.627043 0.460347 0.004434
O O2 0.709218 0.825185 0.942566
O O3 0.563169 0.813049 0.117972
O O4 0.540599 0.853455 0.790421
O O5 0.785612 0.486046 0.190308
O O6 0.636926 0.391557 0.351772
O O7 0.721191 0.108142 0.166299
O O8 0.130076 0.158918 0.833454
O O9 0.173445 0.870864 0.099488
O O10 0.969400 0.422641 0.245635
O O11 0.895266 0.585579 0.937668
O O12 0.266237 0.840464 0.399581
O O13 0.118591 0.613461 0.347849
O O14 0.115287 0.117739 0.330829
O O15 0.556602 0.258958 0.643231
O O16 0.592842 0.974647 0.427216
#
# Coordination Sequence:
#
# PCOD9090221 Si02
#       8
#     2   2   2   2   2   2   2   2
#     4  10  21  41  65  91 124 168 224 273 321 385
#     4  11  22  39  64  95 127 170 215 269 332 389
#     4  10  19  38  64  92 128 168 214 269 322 391
#     4   9  21  37  67  98 124 164 222 273 318 383
#     4  11  23  41  65  96 137 176 215 271 335 394
#     4  11  24  40  62  93 135 171 213 271 340 391
#     4  10  22  42  63  92 130 166 221 277 322 401
#     4  10  22  40  69 100 128 171 225 276 321 391
#
# _framework density 24.594335999999998
#
# number of rings (size 3 to 8) (size 9 to 14) (size 15 to 20)
#    0.000    1.750    3.750    0.000    1.750    3.500 
#    0.000    3.750    0.000    0.000    0.000    0.000 
#    0.000    0.000    0.000    0.000    0.000    0.000 
#
# Total GULP energy -89252.342650 kJ/mol
# GULP energy per Si atom -5578.271416 kJ/mol
# Density = 2.453836 g / cm^3
# Si number density = 24.594336 Si / 1000 Ang^3
#
#
#
# Elastic Constant Matrix: (Units=GPa)
#
#
# Indices 1 2 3 4 5 6 
#
# 1 79.6606 33.6114 15.7663 -1.3523 4.6084 -0.9372
# 2 33.6114 88.1421 12.1186 -8.7124 10.2935 -7.6821
# 3 15.7663 12.1186 48.5275 -3.3067 -12.0757 4.0298
# 4 -1.3523 -8.7124 -3.3067 19.0469 5.7823 3.3056
# 5 4.6084 10.2935 -12.0757 5.7823 35.5310 -5.2709
# 6 -0.9372 -7.6821 4.0298 3.3056 -5.2709 32.6984
#
#
#
# Elastic Compliance Matrix: (Units=1/GPa)
#
#
# Indices 1 2 3 4 5 6 
#
# 1 0.015747 -0.005397 -0.004270 -0.001487 -0.001751 -0.000422
# 2 -0.005397 0.015449 -0.003209 0.007497 -0.005762 0.002184
# 3 -0.004270 -0.003209 0.025432 0.000111 0.009745 -0.002451
# 4 -0.001487 0.007497 0.000111 0.060865 -0.012812 -0.006513
# 5 -0.001751 -0.005762 0.009745 -0.012812 0.036107 0.004511
# 6 -0.000422 0.002184 -0.002451 -0.006513 0.004511 0.032771
#
#
# Mechanical properties :
#
#
# Convention : Reuss Voigt Hill
#
# Bulk Modulus (GPa) = 32.38868 37.70255 35.04561
# Shear Modulus (GPa) = 22.48064 27.77753 25.12909
#
# Velocity S-wave (km/s) = 3.02662 3.36434 3.19994
# Velocity P-wave (km/s) = 5.04100 5.51858 5.28519
#
# Compressibility (1/GPa) = 0.03087499
#
# Stress axis : x y z
#
# Youngs Moduli (GPa) = 63.50574 64.73008 39.32112
#
# Poissons Ratio (x) = 0.34934 0.16791
# Poissons Ratio (y) = 0.34274 0.12618
# Poissons Ratio (z) = 0.27118 0.20771
#
# Static dielectric constant tensor:
#      x y z
#    x 1.944620 0.035960 -0.017390 
#    y 0.035960 2.186020 -0.029460 
#    z -0.017390 -0.029460 1.952220 
# 
# From -- ./inp_files/288695.got.cif
#   From: 2010.05.17/outbox.cif.g08.bks.cpg/sg2_145_cif.got.tgz:288695.got - 2010.06.03 11:33:40.
