data_PCOD9090909
_publ_section_title
;
Structure prediction by ZEFSAII (Michael W. Deem and Ramdas Pophale) SiO2 
 PCOD9090909
Probable space group: P -1
;
_chemical_formula_sum "Si O2"
_cell_formula_units_Z 16
_cell_length_a 11.486247
_cell_length_b 10.062912
_cell_length_c 9.218779
_cell_angle_alpha 108.735902
_cell_angle_beta 129.105680
_cell_angle_gamma 69.042137
_cell_volume 765.402150
_symmetry_space_group_name_H-M "P -1"
_symmetry_group_IT_number 2
_symmetry_cell_setting 'triclinic'
loop_
_space_group_symop_operation_xyz
x,y,z
-x,-y,-z
loop_
_atom_site_type_symbol
_atom_site_label
_atom_site_fract_x
_atom_site_fract_y
_atom_site_fract_z
Si Si1 0.446956 0.388370 0.787670
Si Si2 0.372601 0.124958 0.515114
Si Si3 0.271425 0.505041 0.966124
Si Si4 0.753720 0.212537 0.062880
Si Si5 0.120157 0.846432 0.551542
Si Si6 0.866875 0.919533 0.913177
Si Si7 0.896789 0.733031 0.149434
Si Si8 0.351552 0.028843 0.792556
O O1 0.408934 0.283148 0.598791
O O2 0.305740 0.454924 0.805692
O O3 0.553027 0.493628 0.844924
O O4 0.574644 0.289709 0.959602
O O5 0.216340 0.124986 0.307730
O O6 0.365496 0.089346 0.665755
O O7 0.500000 0.000000 0.500000
O O8 0.192285 0.674264 0.963171
O O9 0.171554 0.409150 0.934813
O O10 0.857801 0.203241 0.282873
O O11 0.756218 0.053750 0.953907
O O12 0.055259 0.737591 0.359754
O O13 0.283376 0.886566 0.662270
O O14 0.000000 0.000000 0.500000
O O15 0.907390 0.792660 0.017002
O O16 0.000000 0.000000 0.000000
O O17 0.771440 0.853426 0.176398
O O18 0.500000 0.000000 0.000000
#
# Coordination Sequence:
#
# PCOD9090909 Si02
#       8
#     2   2   2   2   2   2   2   2
#     4   9  19  37  61  94 124 156 209 258 312 357
#     4  12  21  36  59  93 126 162 201 252 321 373
#     4   9  20  37  66  88 126 160 205 266 302 362
#     4  10  19  39  61  90 125 162 203 256 316 359
#     4  10  20  34  58  89 124 149 209 268 292 353
#     4  12  25  39  61  91 130 167 196 259 322 371
#     4  11  22  40  59  92 122 161 215 255 302 363
#     4  11  21  34  63  90 121 153 212 265 298 352
#
# _framework density 20.904043999999999
#
# number of rings (size 3 to 8) (size 9 to 14) (size 15 to 20)
#    0.750    0.750    5.000    2.250    1.750    0.500 
#    0.000    1.250    0.000    1.500    0.000    0.000 
#    0.000    0.000    0.000    0.000    0.000    0.000 
#
# Total GULP energy -89099.114045 kJ/mol
# GULP energy per Si atom -5568.694628 kJ/mol
# Density = 2.085647 g / cm^3
# Si number density = 20.904044 Si / 1000 Ang^3
#
#
#
# Elastic Constant Matrix: (Units=GPa)
#
#
# Indices 1 2 3 4 5 6 
#
# 1 59.7831 15.2784 38.0703 0.3861 5.0622 31.2055
# 2 15.2784 75.0922 39.9824 16.6773 8.8614 38.1206
# 3 38.0703 39.9824 171.5429 6.9722 21.6507 30.7795
# 4 0.3861 16.6773 6.9722 39.2591 10.3492 7.9386
# 5 5.0622 8.8614 21.6507 10.3492 30.0987 8.6190
# 6 31.2055 38.1206 30.7795 7.9386 8.6190 43.5695
#
#
#
# Elastic Compliance Matrix: (Units=1/GPa)
#
#
# Indices 1 2 3 4 5 6 
#
# 1 0.032326 0.010368 -0.004678 0.001351 0.002929 -0.029745
# 2 0.010368 0.029671 -0.003976 -0.006808 0.003310 -0.029992
# 3 -0.004678 -0.003976 0.008005 0.001182 -0.004751 0.001899
# 4 0.001351 -0.006808 0.001182 0.030607 -0.009741 0.000504
# 5 0.002929 0.003310 -0.004751 -0.009741 0.040796 -0.007933
# 6 -0.029745 -0.029992 0.001899 0.000504 -0.007933 0.070632
#
#
# Mechanical properties :
#
#
# Convention : Reuss Voigt Hill
#
# Bulk Modulus (GPa) = 13.61852 54.78671 34.20261
# Shear Modulus (GPa) = 21.45125 36.79127 29.12126
#
# Velocity S-wave (km/s) = 3.20687 4.19980 3.73646
# Velocity P-wave (km/s) = 4.49900 7.05573 5.91710
#
# Compressibility (1/GPa) = 0.07342939
#
# Stress axis : x y z
#
# Youngs Moduli (GPa) = 30.93499 33.70259 124.91648
#
# Poissons Ratio (x) = -0.34943 0.58437
# Poissons Ratio (y) = -0.32073 0.49671
# Poissons Ratio (z) = 0.14472 0.13401
#
# Static dielectric constant tensor:
#      x y z
#    x 1.828730 0.001400 0.053190 
#    y 0.001400 1.855750 0.039550 
#    z 0.053190 0.039550 1.748830 
# 
# From -- ./inp_files/254723.got.cif
#   From: 2010.05.17/outbox.cif.g08.bks.cpg/sg2_128_cif.got.tgz:254723.got - 2010.06.03 11:33:40.
