data_PCOD9090806
_publ_section_title
;
Structure prediction by ZEFSAII (Michael W. Deem and Ramdas Pophale) SiO2 
 PCOD9090806
Probable space group: P -1
;
_chemical_formula_sum "Si O2"
_cell_formula_units_Z 15
_cell_length_a 10.052868
_cell_length_b 11.253385
_cell_length_c 16.351194
_cell_angle_alpha 128.787989
_cell_angle_beta 149.405056
_cell_angle_gamma 72.637859
_cell_volume 583.180378
_symmetry_space_group_name_H-M "P -1"
_symmetry_group_IT_number 2
_symmetry_cell_setting 'triclinic'
loop_
_space_group_symop_operation_xyz
x,y,z
-x,-y,-z
loop_
_atom_site_type_symbol
_atom_site_label
_atom_site_fract_x
_atom_site_fract_y
_atom_site_fract_z
Si Si1 0.702801 0.721876 0.721484
Si Si2 0.569203 0.629563 0.907982
Si Si3 0.169314 0.433355 0.751204
Si Si4 0.356587 0.832762 0.055862
Si Si5 0.838281 0.087634 0.543710
Si Si6 0.000000 0.500000 0.000000
Si Si7 0.402555 0.126519 0.432955
Si Si8 0.651163 0.880211 0.929712
O O1 0.500000 0.500000 0.500000
O O2 0.638389 0.800633 0.642965
O O3 0.621089 0.766491 0.783667
O O4 0.090971 0.824266 0.969062
O O5 0.260709 0.439783 0.708100
O O6 0.452760 0.721192 0.825292
O O7 0.809381 0.798376 0.175749
O O8 0.792941 0.578432 0.962695
O O9 0.897538 0.248195 0.579342
O O10 0.500000 0.500000 0.000000
O O11 0.162719 0.612909 0.833300
O O12 0.662293 0.906823 0.310776
O O13 0.420127 0.973068 0.075241
O O14 0.580879 0.034414 0.457626
O O15 0.341586 0.689981 0.298785
O O16 0.029514 0.994893 0.209346
#
# Coordination Sequence:
#
# PCOD9090806 Si02
#       8
#     2   2   2   2   2   1   2   2
#     4  11  20  36  68  97 133 174 220 270 328 393
#     4  10  24  43  60  98 135 165 225 276 333 394
#     4  10  24  44  65  93 131 176 231 270 321 404
#     4  11  22  41  71  95 130 179 223 270 335 393
#     4  10  20  43  68  94 128 177 226 267 323 399
#     4  10  22  40  66  90 134 170 216 272 334 384
#     4  10  19  39  60 100 128 168 219 267 325 393
#     4  11  22  40  65 101 140 166 218 283 335 391
#
# _framework density 25.721031
#
# number of rings (size 3 to 8) (size 9 to 14) (size 15 to 20)
#    0.000    1.600    2.667    2.400    0.000    6.933 
#   12.000    0.667    0.000    0.000    0.000    0.000 
#    0.000    0.000    0.000    0.000    0.000    0.000 
#
# Total GULP energy -83555.571845 kJ/mol
# GULP energy per Si atom -5570.371456 kJ/mol
# Density = 2.566249 g / cm^3
# Si number density = 25.721031 Si / 1000 Ang^3
#
#
#
# Elastic Constant Matrix: (Units=GPa)
#
#
# Indices 1 2 3 4 5 6 
#
# 1 63.8493 33.7859 9.8805 6.7322 -2.8744 7.0809
# 2 33.7859 90.0448 12.0446 3.2526 -16.4744 7.9532
# 3 9.8805 12.0446 137.0190 -1.8260 -15.7157 -4.5993
# 4 6.7322 3.2526 -1.8260 35.4646 -11.7480 -3.4993
# 5 -2.8744 -16.4744 -15.7157 -11.7480 33.7388 4.3569
# 6 7.0809 7.9532 -4.5993 -3.4993 4.3569 39.6171
#
#
#
# Elastic Compliance Matrix: (Units=1/GPa)
#
#
# Indices 1 2 3 4 5 6 
#
# 1 0.020664 -0.007959 -0.001411 -0.004874 -0.004192 -0.002229
# 2 -0.007959 0.015706 0.000092 0.002567 0.008237 -0.002399
# 3 -0.001411 0.000092 0.007939 0.002167 0.004264 0.000878
# 4 -0.004874 0.002567 0.002167 0.033605 0.013276 0.002116
# 5 -0.004192 0.008237 0.004264 0.013276 0.040388 -0.003678
# 6 -0.002229 -0.002399 0.000878 0.002116 -0.003678 0.026815
#
#
# Mechanical properties :
#
#
# Convention : Reuss Voigt Hill
#
# Bulk Modulus (GPa) = 38.83036 44.70392 41.76714
# Shear Modulus (GPa) = 29.02622 37.44424 33.23523
#
# Velocity S-wave (km/s) = 3.36296 3.81961 3.59854
# Velocity P-wave (km/s) = 5.49626 6.07212 5.79135
#
# Compressibility (1/GPa) = 0.02575305
#
# Stress axis : x y z
#
# Youngs Moduli (GPa) = 48.39340 63.67090 125.95443
#
# Poissons Ratio (x) = 0.50674 0.17773
# Poissons Ratio (y) = 0.38515 -0.01156
# Poissons Ratio (z) = 0.06829 -0.00584
#
# Static dielectric constant tensor:
#      x y z
#    x 2.104270 -0.016100 0.045650 
#    y -0.016100 2.068870 -0.010070 
#    z 0.045650 -0.010070 2.007940 
# 
# From -- ./inp_files/568211.got.cif
#   From: 2010.05.17/outbox.cif.g08.bks.cpg/sg2_285_cif.got.tgz:568211.got - 2010.06.03 11:33:40.
