data_PCOD9090748
_publ_section_title
;
Structure prediction by ZEFSAII (Michael W. Deem and Ramdas Pophale) SiO2 
 PCOD9090748
Probable space group: P -1
;
_chemical_formula_sum "Si O2"
_cell_formula_units_Z 16
_cell_length_a 9.175163
_cell_length_b 9.041291
_cell_length_c 23.519001
_cell_angle_alpha 149.435519
_cell_angle_beta 131.270126
_cell_angle_gamma 62.442472
_cell_volume 716.807143
_symmetry_space_group_name_H-M "P -1"
_symmetry_group_IT_number 2
_symmetry_cell_setting 'triclinic'
loop_
_space_group_symop_operation_xyz
x,y,z
-x,-y,-z
loop_
_atom_site_type_symbol
_atom_site_label
_atom_site_fract_x
_atom_site_fract_y
_atom_site_fract_z
Si Si1 0.202222 0.294509 0.700672
Si Si2 0.343263 0.957082 0.995342
Si Si3 0.385503 0.165465 0.883116
Si Si4 0.531667 0.037475 0.272490
Si Si5 0.461704 0.615940 0.401011
Si Si6 0.748423 0.888939 0.467010
Si Si7 0.865474 0.671349 0.876372
Si Si8 0.126878 0.500398 0.976250
O O1 0.212826 0.612695 0.838668
O O2 0.254183 0.337651 0.661192
O O3 0.362163 0.118412 0.704844
O O4 0.979436 0.087811 0.589192
O O5 0.454710 0.961253 0.084951
O O6 0.500000 0.000000 0.000000
O O7 0.247477 0.232443 0.066614
O O8 0.324096 0.965713 0.745922
O O9 0.500000 0.500000 0.000000
O O10 0.221384 0.217924 0.901714
O O11 0.494075 0.366093 0.370664
O O12 0.311794 0.805288 0.127683
O O13 0.662126 0.736319 0.453810
O O14 0.283762 0.482508 0.263748
O O15 0.394561 0.885747 0.503787
O O16 0.005609 0.491484 0.882846
O O17 0.000000 0.000000 0.000000
O O18 0.000000 0.500000 0.000000
#
# Coordination Sequence:
#
# PCOD9090748 Si02
#       8
#     2   2   2   2   2   2   2   2
#     4  11  24  44  64  91 127 167 211 258 307 366
#     4  12  22  36  65  96 127 159 196 256 319 372
#     4  10  19  39  57  93 127 163 193 244 324 385
#     4  11  23  40  66  89 127 164 204 262 309 374
#     4  11  23  45  66  92 124 164 215 259 305 369
#     4  10  26  45  66  87 121 173 219 256 299 360
#     4  12  22  36  65  98 125 158 198 257 316 378
#     4  11  23  37  56 100 134 161 194 244 333 380
#
# _framework density 22.321207000000001
#
# number of rings (size 3 to 8) (size 9 to 14) (size 15 to 20)
#    0.000    1.000    5.000    3.000    3.500    1.000 
#    0.000    0.000    0.000    0.000    0.000    0.000 
#    0.000    0.000    0.000    0.000    0.000    0.000 
#
# Total GULP energy -89289.166249 kJ/mol
# GULP energy per Si atom -5580.572891 kJ/mol
# Density = 2.227040 g / cm^3
# Si number density = 22.321207 Si / 1000 Ang^3
#
#
#
# Elastic Constant Matrix: (Units=GPa)
#
#
# Indices 1 2 3 4 5 6 
#
# 1 95.4727 -15.5450 8.9879 -8.7631 -0.7499 -4.5602
# 2 -15.5450 45.1533 -7.8116 5.1728 4.2997 -12.6290
# 3 8.9879 -7.8116 22.0093 6.0656 -0.4309 -0.0518
# 4 -8.7631 5.1728 6.0656 25.9818 -1.9031 -9.2233
# 5 -0.7499 4.2997 -0.4309 -1.9031 34.7243 4.3255
# 6 -4.5602 -12.6290 -0.0518 -9.2233 4.3255 26.7647
#
#
#
# Elastic Compliance Matrix: (Units=1/GPa)
#
#
# Indices 1 2 3 4 5 6 
#
# 1 0.012714 0.004632 -0.005487 0.007035 -0.000841 0.006902
# 2 0.004632 0.030387 0.009247 -0.001548 -0.005565 0.015511
# 3 -0.005487 0.009247 0.055789 -0.017638 -0.001246 -0.002340
# 4 0.007035 -0.001548 -0.017638 0.051788 0.000700 0.018168
# 5 -0.000841 -0.005565 -0.001246 0.000700 0.030420 -0.007447
# 6 0.006902 0.015511 -0.002340 0.018168 -0.007447 0.053317
#
#
# Mechanical properties :
#
#
# Convention : Reuss Voigt Hill
#
# Bulk Modulus (GPa) = 8.64490 14.87754 11.76122
# Shear Modulus (GPa) = 19.51699 29.29444 24.40572
#
# Velocity S-wave (km/s) = 2.96018 3.62664 3.31023
# Velocity P-wave (km/s) = 3.94524 4.92101 4.45989
#
# Compressibility (1/GPa) = 0.11567520
#
# Stress axis : x y z
#
# Youngs Moduli (GPa) = 78.65506 32.90890 17.92467
#
# Poissons Ratio (x) = -0.15244 0.09835
# Poissons Ratio (y) = -0.36435 -0.16576
# Poissons Ratio (z) = 0.43157 -0.30432
#
# Static dielectric constant tensor:
#      x y z
#    x 1.912390 -0.042890 0.001120 
#    y -0.042890 1.958920 0.008980 
#    z 0.001120 0.008980 1.857780 
# 
# From -- ./inp_files/199450.got.cif
#   From: 2010.05.17/outbox.cif.g08.bks.cpg/sg2_100_cif.got.tgz:199450.got - 2010.06.03 11:33:40.
