data_PCOD9090554
_publ_section_title
;
Structure prediction by ZEFSAII (Michael W. Deem and Ramdas Pophale) SiO2 
 PCOD9090554
Probable space group: P -1
;
_chemical_formula_sum "Si O2"
_cell_formula_units_Z 14
_cell_length_a 9.169095
_cell_length_b 7.177508
_cell_length_c 15.358193
_cell_angle_alpha 72.605997
_cell_angle_beta 48.815654
_cell_angle_gamma 108.104965
_cell_volume 513.510564
_symmetry_space_group_name_H-M "P -1"
_symmetry_group_IT_number 2
_symmetry_cell_setting 'triclinic'
loop_
_space_group_symop_operation_xyz
x,y,z
-x,-y,-z
loop_
_atom_site_type_symbol
_atom_site_label
_atom_site_fract_x
_atom_site_fract_y
_atom_site_fract_z
Si Si1 0.769283 0.092257 0.049490
Si Si2 0.967951 0.387607 0.343622
Si Si3 0.866885 0.741228 0.869492
Si Si4 0.669270 0.547106 0.157104
Si Si5 0.845154 0.682254 0.540161
Si Si6 0.444157 0.135618 0.656832
Si Si7 0.718669 0.023248 0.817371
O O1 0.721312 0.823046 0.095581
O O2 0.673710 0.075102 0.188033
O O3 0.556484 0.053521 0.079596
O O4 0.093807 0.361196 0.884510
O O5 0.076877 0.385765 0.395061
O O6 0.082559 0.687749 0.250313
O O7 0.074688 0.339622 0.228248
O O8 0.640482 0.161943 0.511051
O O9 0.172470 0.031577 0.736513
O O10 0.685498 0.799464 0.911890
O O11 0.734902 0.539138 0.032669
O O12 0.361182 0.297808 0.346936
O O13 0.648057 0.427858 0.585586
O O14 0.114734 0.911415 0.345752
#
# Coordination Sequence:
#
# PCOD9090554 Si02
#       7
#     2   2   2   2   2   2   2
#     4   9  16  36  65  83 116 171 209 225 306 380
#     4  11  20  38  63  90 124 160 201 253 305 358
#     4  11  25  35  61  98 128 148 202 261 314 345
#     4   9  19  36  62  89 120 168 196 242 313 372
#     4  10  19  38  67  87 116 166 213 236 297 371
#     4   9  17  38  61  86 118 167 197 244 300 366
#     4  11  21  40  67  91 116 162 212 253 289 364
#
# _framework density 27.263311000000002
#
# number of rings (size 3 to 8) (size 9 to 14) (size 15 to 20)
#    0.000    2.000    4.286    2.143    0.000    4.000 
#    0.000    0.000    3.143    0.857    0.000    3.000 
#    0.000    0.000    0.000    0.000    0.000    0.000 
#
# Total GULP energy -78482.270564 kJ/mol
# GULP energy per Si atom -5605.876469 kJ/mol
# Density = 2.720126 g / cm^3
# Si number density = 27.263311 Si / 1000 Ang^3
#
#
#
# Elastic Constant Matrix: (Units=GPa)
#
#
# Indices 1 2 3 4 5 6 
#
# 1 120.6714 38.1382 47.4603 5.4477 -25.2066 6.6454
# 2 38.1382 104.0047 21.8803 16.3279 9.3660 6.5681
# 3 47.4603 21.8803 176.8611 27.0275 -20.4746 11.6410
# 4 5.4477 16.3279 27.0275 37.1563 5.4829 6.8801
# 5 -25.2066 9.3660 -20.4746 5.4829 48.4691 2.2648
# 6 6.6454 6.5681 11.6410 6.8801 2.2648 32.8969
#
#
#
# Elastic Compliance Matrix: (Units=1/GPa)
#
#
# Indices 1 2 3 4 5 6 
#
# 1 0.011809 -0.004545 -0.001963 0.001052 0.006138 -0.001426
# 2 -0.004545 0.012353 -0.000194 -0.003909 -0.004374 -0.000361
# 3 -0.001963 -0.000194 0.007406 -0.005187 0.002792 -0.001293
# 4 0.001052 -0.003909 -0.005187 0.033717 -0.004500 -0.004339
# 5 0.006138 -0.004374 0.002792 -0.004500 0.026462 -0.002235
# 6 -0.001426 -0.000361 -0.001293 -0.004339 -0.002235 0.032277
#
#
# Mechanical properties :
#
#
# Convention : Reuss Voigt Hill
#
# Bulk Modulus (GPa) = 55.05508 68.49941 61.77724
# Shear Modulus (GPa) = 34.84791 43.30836 39.07814
#
# Velocity S-wave (km/s) = 3.57907 3.98995 3.79008
# Velocity P-wave (km/s) = 6.10879 6.81219 6.47006
#
# Compressibility (1/GPa) = 0.01816363
#
# Stress axis : x y z
#
# Youngs Moduli (GPa) = 84.68420 80.95420 135.02891
#
# Poissons Ratio (x) = 0.36794 0.26504
# Poissons Ratio (y) = 0.38490 0.02617
# Poissons Ratio (z) = 0.16622 0.01569
#
# Static dielectric constant tensor:
#      x y z
#    x 2.096720 0.004080 0.002880 
#    y 0.004080 2.229500 0.026840 
#    z 0.002880 0.026840 2.124080 
# 
# From -- ./inp_files/492694.got.cif
#   From: 2010.05.17/outbox.cif.g08.bks.cpg/sg2_247_cif.got.tgz:492694.got - 2010.06.03 11:33:40.
