data_PCOD9090614
_publ_section_title
;
Structure prediction by ZEFSAII (Michael W. Deem and Ramdas Pophale) SiO2 
 PCOD9090614
Probable space group: P -1
;
_chemical_formula_sum "Si O2"
_cell_formula_units_Z 16
_cell_length_a 11.874809
_cell_length_b 11.205314
_cell_length_c 9.488715
_cell_angle_alpha 70.479690
_cell_angle_beta 45.886011
_cell_angle_gamma 53.192207
_cell_volume 718.181068
_symmetry_space_group_name_H-M "P -1"
_symmetry_group_IT_number 2
_symmetry_cell_setting 'triclinic'
loop_
_space_group_symop_operation_xyz
x,y,z
-x,-y,-z
loop_
_atom_site_type_symbol
_atom_site_label
_atom_site_fract_x
_atom_site_fract_y
_atom_site_fract_z
Si Si1 0.560172 0.099184 0.825983
Si Si2 0.615616 0.291685 0.915746
Si Si3 0.075589 0.471364 0.708375
Si Si4 0.532637 0.775160 0.649675
Si Si5 0.149856 0.268769 0.001589
Si Si6 0.778717 0.411603 0.898805
Si Si7 0.019271 0.139600 0.958777
Si Si8 0.318612 0.014839 0.517766
O O1 0.708644 0.010132 0.608791
O O2 0.638796 0.170424 0.832669
O O3 0.359786 0.216073 0.881091
O O4 0.500000 0.000000 0.000000
O O5 0.567900 0.251285 0.125336
O O6 0.430651 0.445953 0.965129
O O7 0.776926 0.321791 0.798519
O O8 0.273947 0.380168 0.493728
O O9 0.985886 0.637338 0.787230
O O10 0.918517 0.468947 0.753508
O O11 0.103338 0.372919 0.863175
O O12 0.416942 0.855025 0.576888
O O13 0.563588 0.907078 0.620808
O O14 0.114904 0.142791 0.019405
O O15 0.832681 0.301161 0.029882
O O16 0.148286 0.126805 0.720987
O O17 0.000000 0.000000 0.000000
#
# Coordination Sequence:
#
# PCOD9090614 Si02
#       8
#     2   2   2   2   2   2   2   2
#     4  12  23  37  62  94 128 165 209 262 316 371
#     4  11  24  40  64  91 131 171 207 258 324 379
#     4  10  19  38  68  88 121 158 215 265 298 368
#     4  11  20  38  64  95 122 165 215 261 308 377
#     4  10  20  38  62  93 117 161 210 258 307 368
#     4  10  22  42  59  89 126 171 204 254 324 376
#     4  11  23  41  68  91 128 170 211 260 321 378
#     4  11  21  38  61  96 126 162 216 258 308 381
#
# _framework density 22.278506
#
# number of rings (size 3 to 8) (size 9 to 14) (size 15 to 20)
#    0.000    1.250    6.250    1.500    1.750    0.500 
#    2.250    3.125    0.000    6.750    0.000    0.000 
#    0.000    0.000    0.000    0.000    0.000    0.000 
#
# Total GULP energy -89288.275777 kJ/mol
# GULP energy per Si atom -5580.517236 kJ/mol
# Density = 2.222780 g / cm^3
# Si number density = 22.278506 Si / 1000 Ang^3
#
#
#
# Elastic Constant Matrix: (Units=GPa)
#
#
# Indices 1 2 3 4 5 6 
#
# 1 133.0923 22.0197 36.9291 13.9493 20.8913 27.4523
# 2 22.0197 59.4786 22.8193 3.6833 8.5279 10.2808
# 3 36.9291 22.8193 72.1734 15.5124 25.5004 14.0302
# 4 13.9493 3.6833 15.5124 30.0406 6.5524 5.1292
# 5 20.8913 8.5279 25.5004 6.5524 25.9743 13.5665
# 6 27.4523 10.2808 14.0302 5.1292 13.5665 45.1149
#
#
#
# Elastic Compliance Matrix: (Units=1/GPa)
#
#
# Indices 1 2 3 4 5 6 
#
# 1 0.009856 -0.001535 -0.002541 -0.001882 -0.002407 -0.003920
# 2 -0.001535 0.019717 -0.005739 0.001380 0.001253 -0.002308
# 3 -0.002541 -0.005739 0.025195 -0.007082 -0.019977 0.001831
# 4 -0.001882 0.001380 -0.007082 0.038051 -0.001080 -0.000968
# 5 -0.002407 0.001253 -0.019977 -0.001080 0.066415 -0.012457
# 6 -0.003920 -0.002308 0.001831 -0.000968 -0.012457 0.028363
#
#
# Mechanical properties :
#
#
# Convention : Reuss Voigt Hill
#
# Bulk Modulus (GPa) = 28.45953 47.58669 38.02311
# Shear Modulus (GPa) = 22.83740 32.42439 27.63089
#
# Velocity S-wave (km/s) = 3.20517 3.81912 3.52554
# Velocity P-wave (km/s) = 5.14778 6.39170 5.80317
#
# Compressibility (1/GPa) = 0.03513762
#
# Stress axis : x y z
#
# Youngs Moduli (GPa) = 101.45988 50.71850 39.69107
#
# Poissons Ratio (x) = 0.07785 0.10085
# Poissons Ratio (y) = 0.15573 0.22779
# Poissons Ratio (z) = 0.25780 0.29108
#
# Static dielectric constant tensor:
#      x y z
#    x 1.904400 -0.007120 -0.018100 
#    y -0.007120 1.929290 0.015080 
#    z -0.018100 0.015080 1.802550 
# 
# From -- ./inp_files/262264.got.cif
#   From: 2010.05.17/outbox.cif.g08.bks.cpg/sg2_132_cif.got.tgz:262264.got - 2010.06.03 11:33:40.
