data_PCOD9090006
_publ_section_title
;
Structure prediction by ZEFSAII (Michael W. Deem and Ramdas Pophale) SiO2 
 PCOD9090006
Probable space group: P -1
;
_chemical_formula_sum "Si O2"
_cell_formula_units_Z 16
_cell_length_a 14.817990
_cell_length_b 15.927960
_cell_length_c 6.540360
_cell_angle_alpha 120.751365
_cell_angle_beta 115.506170
_cell_angle_gamma 37.430603
_cell_volume 805.420964
_symmetry_space_group_name_H-M "P -1"
_symmetry_group_IT_number 2
_symmetry_cell_setting 'triclinic'
loop_
_space_group_symop_operation_xyz
x,y,z
-x,-y,-z
loop_
_atom_site_type_symbol
_atom_site_label
_atom_site_fract_x
_atom_site_fract_y
_atom_site_fract_z
Si Si1 0.786899 0.075570 0.865661
Si Si2 0.955337 0.421638 0.383819
Si Si3 0.563402 0.841704 0.166828
Si Si4 0.792191 0.410032 0.900921
Si Si5 0.677658 0.609126 0.658723
Si Si6 0.032897 0.909489 0.228589
Si Si7 0.734006 0.899085 0.590670
Si Si8 0.537110 0.672793 0.203256
O O1 0.868315 0.096017 0.832899
O O2 0.620883 0.232944 0.933352
O O3 0.760936 0.987034 0.631248
O O4 0.885426 0.988896 0.055686
O O5 0.822636 0.515373 0.538387
O O6 0.000000 0.500000 0.500000
O O7 0.103844 0.256262 0.384171
O O8 0.895339 0.419722 0.111711
O O9 0.655967 0.872758 0.342588
O O10 0.586815 0.742586 0.244530
O O11 0.387897 0.995226 0.213727
O O12 0.621674 0.744347 0.899913
O O13 0.726380 0.492331 0.724412
O O14 0.882522 0.246124 0.800439
O O15 0.652757 0.508184 0.039933
O O16 0.546011 0.674159 0.457015
O O17 0.000000 0.000000 0.500000
#
# Coordination Sequence:
#
# PCOD9090006 Si02
#       8
#     2   2   2   2   2   2   2   2
#     4  10  23  43  63  86 122 165 209 263 311 366
#     4  11  22  38  61  93 126 167 202 252 314 378
#     4   9  20  38  59  94 129 164 203 255 303 381
#     4  10  22  40  62  89 126 162 202 266 310 366
#     4  10  21  38  63  91 130 161 209 250 308 379
#     4  11  25  42  62  91 122 160 217 266 306 363
#     4  10  19  38  63  86 128 168 201 251 321 363
#     4   9  20  41  65  90 124 166 201 255 316 374
#
# _framework density 19.865390000000001
#
# number of rings (size 3 to 8) (size 9 to 14) (size 15 to 20)
#    0.000    2.000    1.250    2.250    1.750    6.500 
#    0.000   10.000    0.000    0.000    0.000    0.000 
#    0.000    0.000    0.000    0.000    0.000    0.000 
#
# Total GULP energy -89211.355545 kJ/mol
# GULP energy per Si atom -5575.709722 kJ/mol
# Density = 1.982018 g / cm^3
# Si number density = 19.865390 Si / 1000 Ang^3
#
#
#
# Elastic Constant Matrix: (Units=GPa)
#
#
# Indices 1 2 3 4 5 6 
#
# 1 44.7745 19.8346 29.5601 -2.9799 16.5788 -2.9842
# 2 19.8346 110.6848 41.3304 21.9674 7.6982 -16.7886
# 3 29.5601 41.3304 88.5871 13.0356 -2.8413 7.1645
# 4 -2.9799 21.9674 13.0356 22.1338 0.0951 1.2601
# 5 16.5788 7.6982 -2.8413 0.0951 21.8074 -2.7606
# 6 -2.9842 -16.7886 7.1645 1.2601 -2.7606 28.0640
#
#
#
# Elastic Compliance Matrix: (Units=1/GPa)
#
#
# Indices 1 2 3 4 5 6 
#
# 1 0.057757 -0.002313 -0.023590 0.023864 -0.045609 0.005222
# 2 -0.002313 0.016270 -0.005825 -0.013656 -0.003258 0.011267
# 3 -0.023590 -0.005825 0.025095 -0.011717 0.022083 -0.009701
# 4 0.023864 -0.013656 -0.011717 0.069333 -0.016079 -0.007336
# 5 -0.045609 -0.003258 0.022083 -0.016079 0.084193 -0.003433
# 6 0.005222 0.011267 -0.009701 -0.007336 -0.003433 0.045397
#
#
# Mechanical properties :
#
#
# Convention : Reuss Voigt Hill
#
# Bulk Modulus (GPa) = 28.03873 47.27739 37.65806
# Shear Modulus (GPa) = 13.39078 24.62246 19.00662
#
# Velocity S-wave (km/s) = 2.59911 3.52442 3.09653
# Velocity P-wave (km/s) = 4.81167 6.35709 5.63759
#
# Compressibility (1/GPa) = 0.03566495
#
# Stress axis : x y z
#
# Youngs Moduli (GPa) = 17.31382 61.46167 39.84895
#
# Poissons Ratio (x) = 0.14218 0.94005
# Poissons Ratio (y) = 0.04005 0.23213
# Poissons Ratio (z) = 0.40844 0.35803
#
# Static dielectric constant tensor:
#      x y z
#    x 1.742460 -0.030740 0.004100 
#    y -0.030740 1.749760 0.008450 
#    z 0.004100 0.008450 1.698040 
# 
# From -- ./inp_files/98632.got.cif
#   From: 2010.05.17/outbox.cif.g08.bks.cpg/sg2_50_cif.got.tgz:98632.got - 2010.06.03 11:33:40.
