data_PCOD9090970
_publ_section_title
;
Structure prediction by ZEFSAII (Michael W. Deem and Ramdas Pophale) SiO2 
 PCOD9090970
Probable space group: P -1
;
_chemical_formula_sum "Si O2"
_cell_formula_units_Z 16
_cell_length_a 13.930849
_cell_length_b 7.887888
_cell_length_c 10.314943
_cell_angle_alpha 98.673813
_cell_angle_beta 39.176695
_cell_angle_gamma 84.719777
_cell_volume 667.040406
_symmetry_space_group_name_H-M "P -1"
_symmetry_group_IT_number 2
_symmetry_cell_setting 'triclinic'
loop_
_space_group_symop_operation_xyz
x,y,z
-x,-y,-z
loop_
_atom_site_type_symbol
_atom_site_label
_atom_site_fract_x
_atom_site_fract_y
_atom_site_fract_z
Si Si1 0.104382 0.592409 0.732555
Si Si2 0.681101 0.973915 0.624358
Si Si3 0.002035 0.723683 0.146220
Si Si4 0.088946 0.030680 0.041154
Si Si5 0.744608 0.157758 0.833452
Si Si6 0.320676 0.138757 0.943128
Si Si7 0.387037 0.380904 0.265983
Si Si8 0.838106 0.476449 0.722397
O O1 0.020236 0.442882 0.769857
O O2 0.292824 0.498062 0.499526
O O3 0.034307 0.781371 0.751439
O O4 0.058077 0.642855 0.935740
O O5 0.825533 0.876996 0.363595
O O6 0.646855 0.809762 0.717390
O O7 0.729897 0.093585 0.693991
O O8 0.512451 0.080641 0.745180
O O9 0.116346 0.842881 0.066248
O O10 0.252080 0.080128 0.875490
O O11 0.000000 0.000000 0.000000
O O12 0.870486 0.268826 0.710938
O O13 0.741953 0.981576 0.900359
O O14 0.577705 0.319641 0.062062
O O15 0.246063 0.351556 0.076091
O O16 0.292969 0.487594 0.253202
O O17 0.000000 0.500000 0.500000
#
# Coordination Sequence:
#
# PCOD9090970 Si02
#       8
#     2   2   2   2   2   2   2   2
#     4   9  19  37  61  89 117 155 214 255 298 367
#     4  10  20  39  64  89 127 171 204 251 308 371
#     4   9  20  37  64  88 115 165 207 253 316 356
#     4  10  22  40  62  85 119 164 208 257 310 360
#     4  11  23  40  62  89 131 171 202 246 318 372
#     4  11  23  41  59  92 130 159 212 257 299 380
#     4  10  19  39  62  87 129 169 202 253 304 370
#     4  12  25  36  58  96 129 165 205 252 310 375
#
# _framework density 23.986553000000001
#
# number of rings (size 3 to 8) (size 9 to 14) (size 15 to 20)
#    0.000    1.750    2.500    1.875    3.500    3.500 
#    0.000    2.500    0.000   39.750    0.000    0.000 
#    0.000    0.000    0.000    0.000    0.000    0.000 
#
# Total GULP energy -89245.508777 kJ/mol
# GULP energy per Si atom -5577.844299 kJ/mol
# Density = 2.393196 g / cm^3
# Si number density = 23.986553 Si / 1000 Ang^3
#
#
#
# Elastic Constant Matrix: (Units=GPa)
#
#
# Indices 1 2 3 4 5 6 
#
# 1 58.9692 9.2831 22.9278 7.7859 12.3448 9.6129
# 2 9.2831 114.4151 24.7567 10.8155 8.4868 21.4783
# 3 22.9278 24.7567 122.1142 17.2515 5.4672 8.3365
# 4 7.7859 10.8155 17.2515 37.4959 -4.0637 0.4059
# 5 12.3448 8.4868 5.4672 -4.0637 15.7933 3.5112
# 6 9.6129 21.4783 8.3365 0.4059 3.5112 46.8508
#
#
#
# Elastic Compliance Matrix: (Units=1/GPa)
#
#
# Indices 1 2 3 4 5 6 
#
# 1 0.023002 0.001279 -0.002689 -0.005876 -0.018494 -0.003391
# 2 0.001279 0.010504 -0.001336 -0.003290 -0.006060 -0.004358
# 3 -0.002689 -0.001336 0.009559 -0.003594 -0.001324 -0.000406
# 4 -0.005876 -0.003290 -0.003594 0.032146 0.015450 0.001917
# 5 -0.018494 -0.006060 -0.001324 0.015450 0.085403 0.000274
# 6 -0.003391 -0.004358 -0.000406 0.001917 0.000274 0.024073
#
#
# Mechanical properties :
#
#
# Convention : Reuss Voigt Hill
#
# Bulk Modulus (GPa) = 26.61364 45.49263 36.05313
# Shear Modulus (GPa) = 24.66665 35.93007 30.29836
#
# Velocity S-wave (km/s) = 3.21027 3.87450 3.55792
# Velocity P-wave (km/s) = 4.98603 6.24682 5.65169
#
# Compressibility (1/GPa) = 0.03757472
#
# Stress axis : x y z
#
# Youngs Moduli (GPa) = 43.47418 95.20263 104.60874
#
# Poissons Ratio (x) = -0.12179 0.28124
# Poissons Ratio (y) = -0.05561 0.13977
# Poissons Ratio (z) = 0.11688 0.12720
#
# Static dielectric constant tensor:
#      x y z
#    x 2.111590 -0.062880 0.027750 
#    y -0.062880 1.987180 -0.040610 
#    z 0.027750 -0.040610 1.897260 
# 
# From -- ./inp_files/447759.got.cif
#   From: 2010.05.17/outbox.cif.g08.bks.cpg/sg2_224_cif.got.tgz:447759.got - 2010.06.03 11:33:40.
