data_PCOD9090435
_publ_section_title
;
Structure prediction by ZEFSAII (Michael W. Deem and Ramdas Pophale) SiO2 
 PCOD9090435
Probable space group: P -1
;
_chemical_formula_sum "Si O2"
_cell_formula_units_Z 14
_cell_length_a 7.231046
_cell_length_b 9.545898
_cell_length_c 11.447909
_cell_angle_alpha 115.033582
_cell_angle_beta 76.787456
_cell_angle_gamma 67.685345
_cell_volume 586.618577
_symmetry_space_group_name_H-M "P -1"
_symmetry_group_IT_number 2
_symmetry_cell_setting 'triclinic'
loop_
_space_group_symop_operation_xyz
x,y,z
-x,-y,-z
loop_
_atom_site_type_symbol
_atom_site_label
_atom_site_fract_x
_atom_site_fract_y
_atom_site_fract_z
Si Si1 0.810671 0.068472 0.154895
Si Si2 0.428636 0.526607 0.654050
Si Si3 0.880537 0.279837 0.615986
Si Si4 0.931249 0.610974 0.728907
Si Si5 0.277114 0.695809 0.099426
Si Si6 0.085505 0.304992 0.983644
Si Si7 0.142088 0.066387 0.292595
O O1 0.612752 0.277558 0.229805
O O2 0.928809 0.089684 0.259838
O O3 0.000000 0.000000 0.000000
O O4 0.749464 0.917504 0.140024
O O5 0.500000 0.500000 0.500000
O O6 0.625011 0.357197 0.639012
O O7 0.192379 0.540488 0.691653
O O8 0.880520 0.267518 0.751175
O O9 0.912143 0.444703 0.633895
O O10 0.068740 0.109013 0.452949
O O11 0.833733 0.675617 0.894937
O O12 0.828201 0.779450 0.713910
O O13 0.325948 0.856339 0.161445
O O14 0.500000 0.500000 0.000000
O O15 0.142213 0.696360 0.006613
O O16 0.000000 0.500000 0.000000
#
# Coordination Sequence:
#
# PCOD9090435 Si02
#       7
#     2   2   2   2   2   2   2
#     4  10  19  38  66  88 122 174 204 260 321 371
#     4  11  22  40  67  98 127 164 217 262 319 383
#     4  12  23  42  69  96 130 171 211 265 325 379
#     4  11  22  42  68  94 129 169 214 269 312 381
#     4  11  25  41  66  94 130 173 212 264 320 385
#     4  11  21  41  61  90 126 167 209 259 319 368
#     4  10  22  40  65  93 129 168 214 260 327 377
#
# _framework density 23.865593000000001
#
# number of rings (size 3 to 8) (size 9 to 14) (size 15 to 20)
#    0.000    1.143    7.143    1.714    2.000    0.000 
#    2.571    1.429    0.000    3.429    0.000    0.000 
#    0.000    0.000    0.000    0.000    0.000    0.000 
#
# Total GULP energy -78072.336704 kJ/mol
# GULP energy per Si atom -5576.595479 kJ/mol
# Density = 2.381127 g / cm^3
# Si number density = 23.865593 Si / 1000 Ang^3
#
#
#
# Elastic Constant Matrix: (Units=GPa)
#
#
# Indices 1 2 3 4 5 6 
#
# 1 40.9614 8.5219 1.2907 14.1957 -1.3090 6.3492
# 2 8.5219 112.3502 27.0136 1.7504 -8.6427 16.4270
# 3 1.2907 27.0136 120.3414 7.7077 -1.1334 4.1053
# 4 14.1957 1.7504 7.7077 44.0661 -4.1487 6.6466
# 5 -1.3090 -8.6427 -1.1334 -4.1487 18.7672 7.6799
# 6 6.3492 16.4270 4.1053 6.6466 7.6799 40.7813
#
#
#
# Elastic Compliance Matrix: (Units=1/GPa)
#
#
# Indices 1 2 3 4 5 6 
#
# 1 0.028175 -0.001825 0.000750 -0.008766 0.000187 -0.002333
# 2 -0.001825 0.010976 -0.002315 0.002127 0.007582 -0.005679
# 3 0.000750 -0.002315 0.008917 -0.001873 -0.001063 0.000424
# 4 -0.008766 0.002127 -0.001873 0.027370 0.008501 -0.005365
# 5 0.000187 0.007582 -0.001063 0.008501 0.065431 -0.016684
# 6 -0.002333 -0.005679 0.000424 -0.005365 -0.016684 0.031145
#
#
# Mechanical properties :
#
#
# Convention : Reuss Voigt Hill
#
# Bulk Modulus (GPa) = 24.22065 38.58949 31.40507
# Shear Modulus (GPa) = 25.96621 36.51135 31.23878
#
# Velocity S-wave (km/s) = 3.30209 3.91560 3.62186
# Velocity P-wave (km/s) = 4.97084 6.05369 5.53879
#
# Compressibility (1/GPa) = 0.04128709
#
# Stress axis : x y z
#
# Youngs Moduli (GPa) = 35.49266 91.10543 112.14621
#
# Poissons Ratio (x) = 0.16630 -0.08415
# Poissons Ratio (y) = 0.06479 0.25967
# Poissons Ratio (z) = -0.02663 0.21095
#
# Static dielectric constant tensor:
#      x y z
#    x 1.922730 -0.000730 -0.072760 
#    y -0.000730 2.069220 0.047200 
#    z -0.072760 0.047200 1.976130 
# 
# From -- ./inp_files/263507.got.cif
#   From: 2010.05.17/outbox.cif.g08.bks.cpg/sg2_132_cif.got.tgz:263507.got - 2010.06.03 11:33:40.
