data_PCOD9090942
_publ_section_title
;
Structure prediction by ZEFSAII (Michael W. Deem and Ramdas Pophale) SiO2 
 PCOD9090942
Probable space group: P -1
;
_chemical_formula_sum "Si O2"
_cell_formula_units_Z 16
_cell_length_a 8.552213
_cell_length_b 7.074815
_cell_length_c 17.390454
_cell_angle_alpha 102.466496
_cell_angle_beta 141.116227
_cell_angle_gamma 81.593577
_cell_volume 644.537121
_symmetry_space_group_name_H-M "P -1"
_symmetry_group_IT_number 2
_symmetry_cell_setting 'triclinic'
loop_
_space_group_symop_operation_xyz
x,y,z
-x,-y,-z
loop_
_atom_site_type_symbol
_atom_site_label
_atom_site_fract_x
_atom_site_fract_y
_atom_site_fract_z
Si Si1 0.287532 0.908157 0.356412
Si Si2 0.585017 0.831007 0.702362
Si Si3 0.282676 0.978582 0.074344
Si Si4 0.213263 0.528298 0.019592
Si Si5 0.943822 0.220440 0.472816
Si Si6 0.247246 0.406618 0.728029
Si Si7 0.215254 0.971654 0.755358
Si Si8 0.062049 0.505049 0.238853
O O1 0.261980 0.680968 0.339131
O O2 0.015445 0.993968 0.273494
O O3 0.500000 0.000000 0.500000
O O4 0.372078 0.971200 0.310353
O O5 0.312405 0.736717 0.577105
O O6 0.795381 0.683445 0.748927
O O7 0.586247 0.905997 0.795440
O O8 0.258707 0.750812 0.033399
O O9 0.503520 0.048293 0.104695
O O10 0.000000 0.000000 0.000000
O O11 0.479843 0.490848 0.155877
O O12 0.000000 0.500000 0.000000
O O13 0.119590 0.432718 0.895714
O O14 0.147893 0.369052 0.600229
O O15 0.894446 0.192689 0.360711
O O16 0.000000 0.000000 0.500000
O O17 0.241474 0.183422 0.739907
O O18 0.083095 0.513555 0.738206
#
# Coordination Sequence:
#
# PCOD9090942 Si02
#       8
#     2   2   2   2   2   2   2   2
#     4  11  23  40  63  92 126 160 201 255 311 365
#     4  11  22  39  66  94 121 162 208 250 307 365
#     4  10  19  39  62  82 120 162 200 251 304 356
#     4  11  22  38  62  88 120 160 209 253 302 363
#     4   9  17  35  62  87 115 162 204 245 303 366
#     4   9  19  36  59  83 120 165 196 244 313 362
#     4   8  18  34  59  84 114 157 202 244 301 361
#     4  11  23  40  61  91 126 160 201 255 306 365
#
# _framework density 24.824016
#
# number of rings (size 3 to 8) (size 9 to 14) (size 15 to 20)
#    0.000    2.000    1.250    4.125    0.000    3.000 
#    2.250    0.625    0.000    5.250    0.000    0.000 
#    0.000    0.000    0.000    0.000    0.000    0.000 
#
# Total GULP energy -89165.122591 kJ/mol
# GULP energy per Si atom -5572.820162 kJ/mol
# Density = 2.476752 g / cm^3
# Si number density = 24.824016 Si / 1000 Ang^3
#
#
#
# Elastic Constant Matrix: (Units=GPa)
#
#
# Indices 1 2 3 4 5 6 
#
# 1 93.5567 16.0980 34.8404 2.6949 11.2470 -4.5949
# 2 16.0980 56.2375 21.9075 19.3565 2.5925 -6.2513
# 3 34.8404 21.9075 111.6586 16.0553 16.3047 -0.5497
# 4 2.6949 19.3565 16.0553 29.8140 -5.5903 0.7973
# 5 11.2470 2.5925 16.3047 -5.5903 39.9545 2.7208
# 6 -4.5949 -6.2513 -0.5497 0.7973 2.7208 36.1445
#
#
#
# Elastic Compliance Matrix: (Units=1/GPa)
#
#
# Indices 1 2 3 4 5 6 
#
# 1 0.012663 -0.002826 -0.003451 0.002191 -0.001745 0.001152
# 2 -0.002826 0.025292 -0.001322 -0.016114 -0.002872 0.004567
# 3 -0.003451 -0.001322 0.011841 -0.006073 -0.004624 -0.000005
# 4 0.002191 -0.016114 -0.006073 0.049084 0.010077 -0.004442
# 5 -0.001745 -0.002872 -0.004624 0.010077 0.029222 -0.003211
# 6 0.001152 0.004567 -0.000005 -0.004442 -0.003211 0.028943
#
#
# Mechanical properties :
#
#
# Convention : Reuss Voigt Hill
#
# Bulk Modulus (GPa) = 28.90369 45.23828 37.07099
# Shear Modulus (GPa) = 27.20724 33.75639 30.48182
#
# Velocity S-wave (km/s) = 3.31419 3.69159 3.50797
# Velocity P-wave (km/s) = 5.12970 6.03602 5.60122
#
# Compressibility (1/GPa) = 0.03459766
#
# Stress axis : x y z
#
# Youngs Moduli (GPa) = 78.96722 39.53849 84.45555
#
# Poissons Ratio (x) = 0.11174 0.29149
# Poissons Ratio (y) = 0.22316 0.11162
# Poissons Ratio (z) = 0.27255 0.05226
#
# Static dielectric constant tensor:
#      x y z
#    x 2.920490 -0.202440 -0.057950 
#    y -0.202440 2.030920 -0.077660 
#    z -0.057950 -0.077660 2.037960 
# 
# From -- ./inp_files/329324.got.cif
#   From: 2010.05.17/outbox.cif.g08.bks.cpg/sg2_165_cif.got.tgz:329324.got - 2010.06.03 11:33:40.
