data_PCOD9090307
_publ_section_title
;
Structure prediction by ZEFSAII (Michael W. Deem and Ramdas Pophale) SiO2 
 PCOD9090307
Probable space group: P -1
;
_chemical_formula_sum "Si O2"
_cell_formula_units_Z 14
_cell_length_a 19.153559
_cell_length_b 5.094554
_cell_length_c 8.794495
_cell_angle_alpha 76.625069
_cell_angle_beta 126.849168
_cell_angle_gamma 83.802081
_cell_volume 633.658192
_symmetry_space_group_name_H-M "P -1"
_symmetry_group_IT_number 2
_symmetry_cell_setting 'triclinic'
loop_
_space_group_symop_operation_xyz
x,y,z
-x,-y,-z
loop_
_atom_site_type_symbol
_atom_site_label
_atom_site_fract_x
_atom_site_fract_y
_atom_site_fract_z
Si Si1 0.066359 0.064842 0.455514
Si Si2 0.563657 0.056563 0.205766
Si Si3 0.536600 0.251602 0.457300
Si Si4 0.987388 0.308607 0.802065
Si Si5 0.691255 0.468375 0.572922
Si Si6 0.248369 0.860579 0.591064
Si Si7 0.149229 0.382283 0.167339
O O1 0.175318 0.891933 0.625611
O O2 0.033264 0.947873 0.274196
O O3 0.000000 0.000000 0.500000
O O4 0.049302 0.400954 0.382713
O O5 0.512809 0.281670 0.240569
O O6 0.649737 0.136961 0.238140
O O7 0.610895 0.764519 0.400683
O O8 0.500000 0.000000 0.000000
O O9 0.500000 0.500000 0.500000
O O10 0.644735 0.231288 0.590516
O O11 0.500000 0.000000 0.500000
O O12 0.927419 0.383683 0.867057
O O13 0.093044 0.273215 0.983011
O O14 0.737117 0.395531 0.475037
O O15 0.768709 0.496706 0.784967
O O16 0.198593 0.130292 0.382252
#
# Coordination Sequence:
#
# PCOD9090307 Si02
#       7
#     2   2   2   2   2   2   2
#     4  11  22  39  58  85 126 168 199 243 309 365
#     4  10  22  41  67  95 123 169 220 262 314 387
#     4  11  22  41  63  91 123 163 202 257 327 374
#     4  10  21  35  60  86 118 153 202 250 294 358
#     4  10  19  38  65  87 127 160 207 260 312 374
#     4   9  20  35  61  88 121 159 208 256 302 368
#     4   9  19  34  59  91 113 149 203 256 298 350
#
# _framework density 22.09393
#
# number of rings (size 3 to 8) (size 9 to 14) (size 15 to 20)
#    0.000    2.000    2.857    0.429    2.000    4.000 
#    0.000    2.857    0.000    0.000    0.000    0.000 
#    0.000    0.000    0.000    0.000    0.000    0.000 
#
# Total GULP energy -78066.603340 kJ/mol
# GULP energy per Si atom -5576.185953 kJ/mol
# Density = 2.204364 g / cm^3
# Si number density = 22.093930 Si / 1000 Ang^3
#
#
#
# Elastic Constant Matrix: (Units=GPa)
#
#
# Indices 1 2 3 4 5 6 
#
# 1 139.2729 28.8508 35.1502 10.2182 14.5148 5.7004
# 2 28.8508 92.5446 22.8036 15.0638 4.7132 -0.3868
# 3 35.1502 22.8036 84.7549 32.9622 32.7687 -1.7001
# 4 10.2182 15.0638 32.9622 37.9397 11.6556 4.9018
# 5 14.5148 4.7132 32.7687 11.6556 26.0567 14.0942
# 6 5.7004 -0.3868 -1.7001 4.9018 14.0942 42.9160
#
#
#
# Elastic Compliance Matrix: (Units=1/GPa)
#
#
# Indices 1 2 3 4 5 6 
#
# 1 0.008480 -0.002003 -0.004262 0.002129 0.001079 -0.001911
# 2 -0.002003 0.012462 -0.003273 -0.002917 0.004826 -0.001003
# 3 -0.004262 -0.003273 0.046322 -0.023097 -0.057962 0.024045
# 4 0.002129 -0.002917 -0.023097 0.043913 0.014738 -0.011080
# 5 0.001079 0.004826 -0.057962 0.014738 0.128181 -0.046176
# 6 -0.001911 -0.001003 0.024045 -0.011080 -0.046176 0.040929
#
#
# Mechanical properties :
#
#
# Convention : Reuss Voigt Hill
#
# Bulk Modulus (GPa) = 20.75248 54.46462 37.60855
# Shear Modulus (GPa) = 15.85166 36.70034 26.27600
#
# Velocity S-wave (km/s) = 2.68146 4.08009 3.45234
# Velocity P-wave (km/s) = 4.35892 6.84843 5.74026
#
# Compressibility (1/GPa) = 0.04818700
#
# Stress axis : x y z
#
# Youngs Moduli (GPa) = 117.92167 80.24675 21.58823
#
# Poissons Ratio (x) = 0.16075 0.09200
# Poissons Ratio (y) = 0.23621 0.07067
# Poissons Ratio (z) = 0.50253 0.26268
#
# Static dielectric constant tensor:
#      x y z
#    x 1.912630 -0.006280 0.018720 
#    y -0.006280 1.900280 -0.006460 
#    z 0.018720 -0.006460 1.817040 
# 
# From -- ./inp_files/35088.got.cif
#   From: 2010.05.17/outbox.cif.g08.bks.cpg/sg2_18_cif.got.tgz:35088.got - 2010.06.03 11:33:40.
