data_PCOD9090318
_publ_section_title
;
Structure prediction by ZEFSAII (Michael W. Deem and Ramdas Pophale) SiO2 
 PCOD9090318
Probable space group: P -1
;
_chemical_formula_sum "Si O2"
_cell_formula_units_Z 16
_cell_length_a 33.365083
_cell_length_b 11.742567
_cell_length_c 15.047375
_cell_angle_alpha 141.624977
_cell_angle_beta 161.540955
_cell_angle_gamma 26.871951
_cell_volume 759.982664
_symmetry_space_group_name_H-M "P -1"
_symmetry_group_IT_number 2
_symmetry_cell_setting 'triclinic'
loop_
_space_group_symop_operation_xyz
x,y,z
-x,-y,-z
loop_
_atom_site_type_symbol
_atom_site_label
_atom_site_fract_x
_atom_site_fract_y
_atom_site_fract_z
Si Si1 0.656879 0.610633 0.547139
Si Si2 0.579230 0.653782 0.022137
Si Si3 0.458458 0.504075 0.516450
Si Si4 0.113350 0.273040 0.678090
Si Si5 0.467878 0.116428 0.364678
Si Si6 0.956665 0.951911 0.973498
Si Si7 0.192736 0.266104 0.540780
Si Si8 0.346380 0.697706 0.876866
O O1 0.661484 0.663947 0.691522
O O2 0.643534 0.808440 0.583735
O O3 0.452826 0.733651 0.183691
O O4 0.831546 0.293381 0.689574
O O5 0.718088 0.663781 0.285050
O O6 0.658862 0.466717 0.164630
O O7 0.538192 0.554302 0.792408
O O8 0.369856 0.980728 0.795039
O O9 0.500000 0.500000 0.500000
O O10 0.538960 0.213672 0.522741
O O11 0.225107 0.749545 0.184016
O O12 0.000000 0.500000 0.500000
O O13 0.982388 0.470941 0.607647
O O14 0.161999 0.003683 0.633028
O O15 0.324087 0.134920 0.026281
O O16 0.887923 0.816838 0.735649
O O17 0.000000 0.000000 0.000000
O O18 0.500000 0.500000 0.000000
#
# Coordination Sequence:
#
# PCOD9090318 Si02
#       8
#     2   2   2   2   2   2   2   2
#     4  10  19  38  65  89 114 156 212 260 308 360
#     4  10  22  41  61  85 131 170 204 254 322 378
#     4  11  23  38  61  95 128 165 206 255 316 377
#     4  11  23  37  63  94 122 158 218 268 308 372
#     4  10  20  38  64  88 119 157 206 263 311 367
#     4  11  19  38  67  91 117 160 215 256 302 375
#     4  10  21  38  60  90 121 166 204 254 317 373
#     4  11  23  41  63  92 124 166 210 264 314 374
#
# _framework density 21.053111999999999
#
# number of rings (size 3 to 8) (size 9 to 14) (size 15 to 20)
#    0.000    1.500    3.750    1.500    1.750    1.500 
#    6.750    0.625    0.000    0.000    0.000    0.000 
#    0.000    0.000    0.000    0.000    0.000    0.000 
#
# Total GULP energy -89123.869715 kJ/mol
# GULP energy per Si atom -5570.241857 kJ/mol
# Density = 2.100519 g / cm^3
# Si number density = 21.053112 Si / 1000 Ang^3
#
#
#
# Elastic Constant Matrix: (Units=GPa)
#
#
# Indices 1 2 3 4 5 6 
#
# 1 90.6662 46.7386 6.9427 -5.5358 4.0954 26.8719
# 2 46.7386 137.5442 11.2843 -7.5425 -0.4907 41.4904
# 3 6.9427 11.2843 41.5156 0.0667 2.6416 17.7216
# 4 -5.5358 -7.5425 0.0667 33.2138 4.0126 7.3644
# 5 4.0954 -0.4907 2.6416 4.0126 17.4692 -1.1510
# 6 26.8719 41.4904 17.7216 7.3644 -1.1510 42.4912
#
#
#
# Elastic Compliance Matrix: (Units=1/GPa)
#
#
# Indices 1 2 3 4 5 6 
#
# 1 0.015414 -0.002330 0.002471 0.004841 -0.005790 -0.009499
# 2 -0.002330 0.011724 0.002355 0.005075 -0.001428 -0.011875
# 3 0.002471 0.002355 0.031254 0.005841 -0.007775 -0.018120
# 4 0.004841 0.005075 0.005841 0.037273 -0.011572 -0.017226
# 5 -0.005790 -0.001428 -0.007775 -0.011572 0.063186 0.012017
# 6 -0.009499 -0.011875 -0.018120 -0.017226 0.012017 0.052005
#
#
# Mechanical properties :
#
#
# Convention : Reuss Voigt Hill
#
# Bulk Modulus (GPa) = 15.77709 44.40634 30.09172
# Shear Modulus (GPa) = 22.02709 32.28554 27.15631
#
# Velocity S-wave (km/s) = 3.23811 3.92028 3.59541
# Velocity P-wave (km/s) = 4.63580 6.45211 5.61785
#
# Compressibility (1/GPa) = 0.06338303
#
# Stress axis : x y z
#
# Youngs Moduli (GPa) = 64.87617 85.29305 31.99584
#
# Poissons Ratio (x) = 0.19876 -0.07907
# Poissons Ratio (y) = 0.15119 -0.07534
# Poissons Ratio (z) = -0.16032 -0.20083
#
# Static dielectric constant tensor:
#      x y z
#    x 1.719100 -0.045360 -0.066560 
#    y -0.045360 1.745820 -0.009890 
#    z -0.066560 -0.009890 1.822250 
# 
# From -- ./inp_files/544849.got.cif
#   From: 2010.05.17/outbox.cif.g08.bks.cpg/sg2_273_cif.got.tgz:544849.got - 2010.06.03 11:33:40.
