data_PCOD9090819
_publ_section_title
;
Structure prediction by ZEFSAII (Michael W. Deem and Ramdas Pophale) SiO2 
 PCOD9090819
Probable space group: P -1
;
_chemical_formula_sum "Si O2"
_cell_formula_units_Z 16
_cell_length_a 12.396034
_cell_length_b 9.152480
_cell_length_c 10.886533
_cell_angle_alpha 41.012399
_cell_angle_beta 77.982135
_cell_angle_gamma 85.533600
_cell_volume 786.688174
_symmetry_space_group_name_H-M "P -1"
_symmetry_group_IT_number 2
_symmetry_cell_setting 'triclinic'
loop_
_space_group_symop_operation_xyz
x,y,z
-x,-y,-z
loop_
_atom_site_type_symbol
_atom_site_label
_atom_site_fract_x
_atom_site_fract_y
_atom_site_fract_z
Si Si1 0.863188 0.711719 0.741335
Si Si2 0.384114 0.109794 0.959581
Si Si3 0.501909 0.696762 0.972907
Si Si4 0.170876 0.745775 0.237884
Si Si5 0.313462 0.413023 0.324800
Si Si6 0.979600 0.084788 0.639057
Si Si7 0.852337 0.193929 0.078959
Si Si8 0.387046 0.089231 0.694189
O O1 0.748425 0.719338 0.689707
O O2 0.959180 0.775228 0.576056
O O3 0.887916 0.896434 0.722245
O O4 0.862671 0.455775 0.948417
O O5 0.401999 0.279820 0.962267
O O6 0.376804 0.190963 0.769018
O O7 0.500000 0.000000 0.000000
O O8 0.276511 0.931610 0.121194
O O9 0.386780 0.629727 0.116094
O O10 0.500000 0.500000 0.000000
O O11 0.487033 0.936617 0.765412
O O12 0.218529 0.506973 0.369286
O O13 0.078425 0.762802 0.350059
O O14 0.128281 0.796868 0.078778
O O15 0.392097 0.277904 0.470900
O O16 0.065680 0.946856 0.778051
O O17 0.727952 0.069775 0.205281
#
# Coordination Sequence:
#
# PCOD9090819 Si02
#       8
#     2   2   2   2   2   2   2   2
#     4  10  22  38  57  85 121 157 189 235 295 340
#     4   9  18  40  59  85 114 149 192 236 289 337
#     4  11  23  40  63  87 116 152 190 242 293 342
#     4  10  21  37  61  88 115 153 196 243 282 333
#     4  11  21  40  61  83 119 158 187 239 294 339
#     4  11  22  37  59  88 118 155 195 239 282 347
#     4  10  19  39  60  84 116 159 191 237 291 338
#     4  10  20  39  64  82 116 153 193 238 288 346
#
# _framework density 20.338428
#
# number of rings (size 3 to 8) (size 9 to 14) (size 15 to 20)
#    0.000    1.750    6.250    0.750    1.750    3.000 
#    4.500    1.250    0.000    0.000    0.000    0.000 
#    0.000    0.000    0.000    0.000    0.000    0.000 
#
# Total GULP energy -89268.415651 kJ/mol
# GULP energy per Si atom -5579.275978 kJ/mol
# Density = 2.029214 g / cm^3
# Si number density = 20.338428 Si / 1000 Ang^3
#
#
#
# Elastic Constant Matrix: (Units=GPa)
#
#
# Indices 1 2 3 4 5 6 
#
# 1 50.7126 7.4534 6.2125 -4.2903 12.6191 24.9900
# 2 7.4534 80.8340 -2.2812 -13.2619 7.2863 16.5588
# 3 6.2125 -2.2812 44.4265 -5.4922 21.1516 -2.6608
# 4 -4.2903 -13.2619 -5.4922 11.2647 -1.4625 -7.1113
# 5 12.6191 7.2863 21.1516 -1.4625 29.3165 -3.8105
# 6 24.9900 16.5588 -2.6608 -7.1113 -3.8105 39.2152
#
#
#
# Elastic Compliance Matrix: (Units=1/GPa)
#
#
# Indices 1 2 3 4 5 6 
#
# 1 0.039060 0.005126 0.005608 0.002123 -0.025770 -0.028794
# 2 0.005126 0.018368 0.008485 0.021072 -0.012866 -0.007876
# 3 0.005608 0.008485 0.040998 0.025983 -0.033181 -0.002887
# 4 0.002123 0.021072 0.025983 0.133898 -0.016372 0.014203
# 5 -0.025770 -0.012866 -0.033181 -0.016372 0.074629 0.023886
# 6 -0.028794 -0.007876 -0.002887 0.014203 0.023886 0.051876
#
#
# Mechanical properties :
#
#
# Convention : Reuss Voigt Hill
#
# Bulk Modulus (GPa) = 7.30647 22.08249 14.69448
# Shear Modulus (GPa) = 13.66084 26.93184 20.29634
#
# Velocity S-wave (km/s) = 2.59448 3.64288 3.16243
# Velocity P-wave (km/s) = 3.54618 5.34558 4.53600
#
# Compressibility (1/GPa) = 0.13686501
#
# Stress axis : x y z
#
# Youngs Moduli (GPa) = 25.60187 54.44242 24.39171
#
# Poissons Ratio (x) = -0.27909 -0.13680
# Poissons Ratio (y) = -0.13124 -0.20697
# Poissons Ratio (z) = -0.14358 -0.46196
#
# Static dielectric constant tensor:
#      x y z
#    x 1.740220 0.008300 -0.010620 
#    y 0.008300 1.772680 0.004310 
#    z -0.010620 0.004310 1.706660 
# 
# From -- ./inp_files/276779.got.cif
#   From: 2010.05.17/outbox.cif.g08.bks.cpg/sg2_139_cif.got.tgz:276779.got - 2010.06.03 11:33:40.
