data_PCOD9090378
_publ_section_title
;
Structure prediction by ZEFSAII (Michael W. Deem and Ramdas Pophale) SiO2 
 PCOD9090378
Probable space group: P -1
;
_chemical_formula_sum "Si O2"
_cell_formula_units_Z 16
_cell_length_a 7.147335
_cell_length_b 13.790010
_cell_length_c 14.747697
_cell_angle_alpha 37.027510
_cell_angle_beta 128.124721
_cell_angle_gamma 117.495145
_cell_volume 687.100257
_symmetry_space_group_name_H-M "P -1"
_symmetry_group_IT_number 2
_symmetry_cell_setting 'triclinic'
loop_
_space_group_symop_operation_xyz
x,y,z
-x,-y,-z
loop_
_atom_site_type_symbol
_atom_site_label
_atom_site_fract_x
_atom_site_fract_y
_atom_site_fract_z
Si Si1 0.363213 0.016972 0.097796
Si Si2 0.900733 0.414958 0.853674
Si Si3 0.568629 0.851340 0.446997
Si Si4 0.954104 0.281830 0.778702
Si Si5 0.455692 0.554241 0.548137
Si Si6 0.693988 0.132219 0.473720
Si Si7 0.918876 0.252303 0.277150
Si Si8 0.133672 0.891751 0.823634
O O1 0.623269 0.040582 0.118709
O O2 0.418280 0.990228 0.243320
O O3 0.226652 0.859760 0.144828
O O4 0.194230 0.175789 0.909204
O O5 0.980810 0.399502 0.784284
O O6 0.608868 0.434484 0.749232
O O7 0.001858 0.564512 0.825794
O O8 0.973399 0.242985 0.046210
O O9 0.600666 0.713407 0.484518
O O10 0.416883 0.780044 0.536219
O O11 0.836796 0.865036 0.550418
O O12 0.820508 0.381828 0.582550
O O13 0.500000 0.500000 0.500000
O O14 0.738375 0.226185 0.324922
O O15 0.500000 0.000000 0.500000
O O16 0.942641 0.039875 0.642659
O O17 0.821248 0.203053 0.187635
#
# Coordination Sequence:
#
# PCOD9090378 Si02
#       8
#     2   2   2   2   2   2   2   2
#     4  10  20  37  66  93 132 164 214 277 323 374
#     4  10  22  40  64  92 129 172 214 263 327 392
#     4  10  19  38  65  94 126 168 211 264 318 384
#     4   9  19  40  64  90 124 171 216 270 327 379
#     4   8  17  37  66  84 121 170 206 257 322 377
#     4  12  23  39  67  96 127 172 223 262 317 389
#     4  11  23  43  63  93 138 173 210 269 327 384
#     4  12  23  40  63  97 131 173 218 267 325 382
#
# _framework density 23.286266999999999
#
# number of rings (size 3 to 8) (size 9 to 14) (size 15 to 20)
#    0.000    1.750    2.500    2.250    0.000    0.500 
#    4.500    1.875    0.000    0.000    0.000    0.000 
#    0.000    0.000    0.000    0.000    0.000    0.000 
#
# Total GULP energy -89213.682593 kJ/mol
# GULP energy per Si atom -5575.855162 kJ/mol
# Density = 2.323327 g / cm^3
# Si number density = 23.286267 Si / 1000 Ang^3
#
#
#
# Elastic Constant Matrix: (Units=GPa)
#
#
# Indices 1 2 3 4 5 6 
#
# 1 68.0221 18.9931 -11.8221 -5.6051 -0.9988 12.7116
# 2 18.9931 96.4330 -14.3833 2.7643 9.1360 1.3702
# 3 -11.8221 -14.3833 14.5311 -2.7379 7.7805 2.7858
# 4 -5.6051 2.7643 -2.7379 20.1851 -2.3599 2.9089
# 5 -0.9988 9.1360 7.7805 -2.3599 38.2082 2.2880
# 6 12.7116 1.3702 2.7858 2.9089 2.2880 27.8704
#
#
#
# Elastic Compliance Matrix: (Units=1/GPa)
#
#
# Indices 1 2 3 4 5 6 
#
# 1 0.022407 -0.000805 0.023461 0.011165 -0.002502 -0.013485
# 2 -0.000805 0.013661 0.016590 -0.000418 -0.006609 -0.001376
# 3 0.023461 0.016590 0.127296 0.021925 -0.026463 -0.024356
# 4 0.011165 -0.000418 0.021925 0.057623 0.000283 -0.013301
# 5 -0.002502 -0.006609 -0.026463 0.000283 0.033011 0.001372
# 6 -0.013485 -0.001376 -0.024356 -0.013301 0.001372 0.045809
#
#
# Mechanical properties :
#
#
# Convention : Reuss Voigt Hill
#
# Bulk Modulus (GPa) = 4.13469 18.28466 11.20967
# Shear Modulus (GPa) = 16.55993 29.66597 23.11295
#
# Velocity S-wave (km/s) = 2.66962 3.57314 3.15391
# Velocity P-wave (km/s) = 3.35886 4.98922 4.25290
#
# Compressibility (1/GPa) = 0.24185634
#
# Stress axis : x y z
#
# Youngs Moduli (GPa) = 44.62943 73.20250 7.85568
#
# Poissons Ratio (x) = 0.05895 -0.18430
# Poissons Ratio (y) = 0.03594 -0.13033
# Poissons Ratio (z) = -1.04705 -1.21447
#
# Static dielectric constant tensor:
#      x y z
#    x 1.935950 -0.042730 0.001840 
#    y -0.042730 1.918850 0.036280 
#    z 0.001840 0.036280 1.955240 
# 
# From -- ./inp_files/348585.got.cif
#   From: 2010.05.17/outbox.cif.g08.bks.cpg/sg2_175_cif.got.tgz:348585.got - 2010.06.03 11:33:40.
