data_PCOD9090125
_publ_section_title
;
Structure prediction by ZEFSAII (Michael W. Deem and Ramdas Pophale) SiO2 
 PCOD9090125
Probable space group: P -1
;
_chemical_formula_sum "Si O2"
_cell_formula_units_Z 16
_cell_length_a 9.225341
_cell_length_b 21.570680
_cell_length_c 11.937799
_cell_angle_alpha 41.958713
_cell_angle_beta 155.177590
_cell_angle_gamma 134.961701
_cell_volume 662.512848
_symmetry_space_group_name_H-M "P -1"
_symmetry_group_IT_number 2
_symmetry_cell_setting 'triclinic'
loop_
_space_group_symop_operation_xyz
x,y,z
-x,-y,-z
loop_
_atom_site_type_symbol
_atom_site_label
_atom_site_fract_x
_atom_site_fract_y
_atom_site_fract_z
Si Si1 0.860796 0.782920 0.342077
Si Si2 0.429343 0.461169 0.626294
Si Si3 0.383246 0.597322 0.826741
Si Si4 0.789296 0.731463 0.780873
Si Si5 0.757454 0.945225 0.499682
Si Si6 0.743106 0.978785 0.091596
Si Si7 0.515062 0.708074 0.983775
Si Si8 0.513040 0.664567 0.448896
O O1 0.708521 0.873643 0.163382
O O2 0.682364 0.696398 0.406337
O O3 0.260156 0.777460 0.660583
O O4 0.774624 0.766730 0.172820
O O5 0.500000 0.500000 0.500000
O O6 0.509695 0.556471 0.625049
O O7 0.023737 0.422746 0.404098
O O8 0.642909 0.378810 0.929868
O O9 0.453229 0.672359 0.676766
O O10 0.596973 0.646151 0.016564
O O11 0.500000 0.500000 0.000000
O O12 0.825220 0.838968 0.694441
O O13 0.730315 0.724806 0.615248
O O14 0.118496 0.686625 0.122020
O O15 0.000000 0.000000 0.500000
O O16 0.871855 0.994562 0.628837
O O17 0.372254 0.956330 0.174650
O O18 0.500000 0.000000 0.000000
#
# Coordination Sequence:
#
# PCOD9090125 Si02
#       8
#     2   2   2   2   2   2   2   2
#     4  12  24  43  72 106 146 185 241 306 369 434
#     4  12  26  47  70 104 146 191 248 298 354 430
#     4  12  27  49  72 106 152 199 247 298 359 432
#     4  12  26  41  70 106 144 190 235 302 368 432
#     4  10  19  38  63  99 139 172 230 295 360 420
#     4  10  20  38  65 101 139 175 225 303 368 423
#     4  12  26  46  69 102 141 200 243 294 363 438
#     4  12  24  40  67 102 144 187 238 292 367 420
#
# _framework density 24.150475
#
# number of rings (size 3 to 8) (size 9 to 14) (size 15 to 20)
#    0.000    0.500    3.750    6.000    1.750    2.000 
#    0.000    0.000    0.000    4.500    0.000    0.000 
#    0.000    0.000    0.000    0.000    0.000    0.000 
#
# Total GULP energy -89432.821905 kJ/mol
# GULP energy per Si atom -5589.551369 kJ/mol
# Density = 2.409551 g / cm^3
# Si number density = 24.150475 Si / 1000 Ang^3
#
#
#
# Elastic Constant Matrix: (Units=GPa)
#
#
# Indices 1 2 3 4 5 6 
#
# 1 73.7192 17.2335 19.3321 4.6640 -0.5928 -19.9656
# 2 17.2335 100.8816 16.5469 -10.0320 3.9590 -31.1334
# 3 19.3321 16.5469 117.7896 10.4642 -17.0335 -29.8037
# 4 4.6640 -10.0320 10.4642 38.2983 -11.2069 -1.9949
# 5 -0.5928 3.9590 -17.0335 -11.2069 34.5952 9.1864
# 6 -19.9656 -31.1334 -29.8037 -1.9949 9.1864 47.6383
#
#
#
# Elastic Compliance Matrix: (Units=1/GPa)
#
#
# Indices 1 2 3 4 5 6 
#
# 1 0.015735 -0.000874 -0.001181 -0.002242 -0.002441 0.005661
# 2 -0.000874 0.013275 -0.000183 0.003237 -0.002938 0.008897
# 3 -0.001181 -0.000183 0.010687 -0.001570 0.003330 0.005364
# 4 -0.002242 0.003237 -0.001570 0.030181 0.008651 -0.000211
# 5 -0.002441 -0.002938 0.003330 0.008651 0.035597 -0.007362
# 6 0.005661 0.008897 0.005364 -0.000211 -0.007362 0.033946
#
#
# Mechanical properties :
#
#
# Convention : Reuss Voigt Hill
#
# Bulk Modulus (GPa) = 28.39208 44.29059 36.34133
# Shear Modulus (GPa) = 32.12605 40.05822 36.09214
#
# Velocity S-wave (km/s) = 3.65121 4.07712 3.87003
# Velocity P-wave (km/s) = 5.43663 6.36735 5.92031
#
# Compressibility (1/GPa) = 0.03522109
#
# Stress axis : x y z
#
# Youngs Moduli (GPa) = 63.55454 75.33016 93.56728
#
# Poissons Ratio (x) = 0.06586 0.11051
# Poissons Ratio (y) = 0.05556 0.01709
# Poissons Ratio (z) = 0.07506 0.01376
#
# Static dielectric constant tensor:
#      x y z
#    x 2.012460 -0.079850 0.024380 
#    y -0.079850 1.913940 0.018260 
#    z 0.024380 0.018260 1.976630 
# 
# From -- ./inp_files/404806.got.cif
#   From: 2010.05.17/outbox.cif.g08.bks.cpg/sg2_203_cif.got.tgz:404806.got - 2010.06.03 11:33:40.
