data_PCOD9090803
_publ_section_title
;
Structure prediction by ZEFSAII (Michael W. Deem and Ramdas Pophale) SiO2 
 PCOD9090803
Probable space group: P -1
;
_chemical_formula_sum "Si O2"
_cell_formula_units_Z 16
_cell_length_a 8.941408
_cell_length_b 8.681555
_cell_length_c 14.608842
_cell_angle_alpha 93.154988
_cell_angle_beta 146.109772
_cell_angle_gamma 80.768787
_cell_volume 617.821738
_symmetry_space_group_name_H-M "P -1"
_symmetry_group_IT_number 2
_symmetry_cell_setting 'triclinic'
loop_
_space_group_symop_operation_xyz
x,y,z
-x,-y,-z
loop_
_atom_site_type_symbol
_atom_site_label
_atom_site_fract_x
_atom_site_fract_y
_atom_site_fract_z
Si Si1 0.960613 0.377787 0.398302
Si Si2 0.951747 0.070514 0.123522
Si Si3 0.886467 0.865684 0.240914
Si Si4 0.731849 0.926623 0.365464
Si Si5 0.339905 0.431457 0.131327
Si Si6 0.505342 0.883336 0.584526
Si Si7 0.801102 0.529991 0.135349
Si Si8 0.119317 0.754292 0.085703
O O1 0.649292 0.355121 0.257809
O O2 0.976430 0.445765 0.306962
O O3 0.000000 0.500000 0.500000
O O4 0.182726 0.224552 0.530870
O O5 0.826143 0.024195 0.153351
O O6 0.083870 0.891026 0.148876
O O7 0.168647 0.182405 0.258293
O O8 0.799890 0.157761 0.960821
O O9 0.219811 0.822987 0.427727
O O10 0.714774 0.890697 0.248578
O O11 0.811440 0.713716 0.151771
O O12 0.520201 0.042056 0.324421
O O13 0.000000 0.000000 0.500000
O O14 0.326886 0.583827 0.195477
O O15 0.171067 0.507768 0.958574
O O16 0.169189 0.302923 0.069721
O O17 0.500000 0.000000 0.500000
O O18 0.500000 0.500000 0.000000
#
# Coordination Sequence:
#
# PCOD9090803 Si02
#       8
#     2   2   2   2   2   2   2   2
#     4  11  23  39  65  92 126 169 216 269 321 387
#     4  10  21  38  66  93 128 169 219 268 332 380
#     4  10  19  39  59  94 129 165 213 274 320 386
#     4  10  22  38  64  93 125 170 210 267 328 383
#     4  10  23  41  62  91 132 171 220 270 327 387
#     4   9  21  37  63  93 130 160 207 274 319 382
#     4  10  21  38  62  86 129 170 210 266 324 381
#     4  10  22  39  65  90 123 179 219 265 324 402
#
# _framework density 25.89744
#
# number of rings (size 3 to 8) (size 9 to 14) (size 15 to 20)
#    0.000    2.000    2.500    0.000    5.250    3.000 
#    0.000    0.000    0.000   13.500    0.000    0.000 
#    0.000    0.000    0.000    0.000    0.000    0.000 
#
# Total GULP energy -89245.065891 kJ/mol
# GULP energy per Si atom -5577.816618 kJ/mol
# Density = 2.583850 g / cm^3
# Si number density = 25.897440 Si / 1000 Ang^3
#
#
#
# Elastic Constant Matrix: (Units=GPa)
#
#
# Indices 1 2 3 4 5 6 
#
# 1 134.8066 31.2073 39.7012 2.9640 -6.8251 26.7872
# 2 31.2073 93.2979 29.4166 11.2205 7.1236 8.0368
# 3 39.7012 29.4166 75.5978 2.8618 -17.0996 15.6361
# 4 2.9640 11.2205 2.8618 50.4506 19.7804 -1.6540
# 5 -6.8251 7.1236 -17.0996 19.7804 46.8020 8.1516
# 6 26.7872 8.0368 15.6361 -1.6540 8.1516 45.8021
#
#
#
# Elastic Compliance Matrix: (Units=1/GPa)
#
#
# Indices 1 2 3 4 5 6 
#
# 1 0.009796 -0.001978 -0.002950 -0.000841 0.001831 -0.004731
# 2 -0.001978 0.013372 -0.005342 -0.000891 -0.004132 0.001337
# 3 -0.002950 -0.005342 0.020865 -0.004346 0.010988 -0.006573
# 4 -0.000841 -0.000891 -0.004346 0.025751 -0.013407 0.005448
# 5 0.001831 -0.004132 0.010988 -0.013407 0.033788 -0.010595
# 6 -0.004731 0.001337 -0.006573 0.005448 -0.010595 0.028692
#
#
# Mechanical properties :
#
#
# Convention : Reuss Voigt Hill
#
# Bulk Modulus (GPa) = 42.56574 56.03917 49.30245
# Shear Modulus (GPa) = 31.12657 42.16943 36.64800
#
# Velocity S-wave (km/s) = 3.47063 4.03963 3.76589
# Velocity P-wave (km/s) = 5.70371 6.59120 6.16345
#
# Compressibility (1/GPa) = 0.02349307
#
# Stress axis : x y z
#
# Youngs Moduli (GPa) = 102.08143 74.78553 47.92663
#
# Poissons Ratio (x) = 0.14789 0.14140
# Poissons Ratio (y) = 0.20187 0.25602
# Poissons Ratio (z) = 0.30118 0.39950
#
# Static dielectric constant tensor:
#      x y z
#    x 2.021590 -0.103450 0.050880 
#    y -0.103450 1.905180 0.053940 
#    z 0.050880 0.053940 2.119020 
# 
# From -- ./inp_files/495090.got.cif
#   From: 2010.05.17/outbox.cif.g08.bks.cpg/sg2_248_cif.got.tgz:495090.got - 2010.06.03 11:33:40.
