data_PCOD9090292
_publ_section_title
;
Structure prediction by ZEFSAII (Michael W. Deem and Ramdas Pophale) SiO2 
 PCOD9090292
Probable space group: P -1
;
_chemical_formula_sum "Si O2"
_cell_formula_units_Z 14
_cell_length_a 8.635236
_cell_length_b 12.108048
_cell_length_c 13.444214
_cell_angle_alpha 101.690469
_cell_angle_beta 32.275537
_cell_angle_gamma 93.094185
_cell_volume 716.301039
_symmetry_space_group_name_H-M "P -1"
_symmetry_group_IT_number 2
_symmetry_cell_setting 'triclinic'
loop_
_space_group_symop_operation_xyz
x,y,z
-x,-y,-z
loop_
_atom_site_type_symbol
_atom_site_label
_atom_site_fract_x
_atom_site_fract_y
_atom_site_fract_z
Si Si1 0.080764 0.192868 0.245020
Si Si2 0.164593 0.550036 0.157941
Si Si3 0.828302 0.907106 0.611463
Si Si4 0.229495 0.608911 0.683207
Si Si5 0.653132 0.251073 0.020971
Si Si6 0.323155 0.313293 0.411576
Si Si7 0.860345 0.016465 0.969056
O O1 0.024961 0.156024 0.380178
O O2 0.425984 0.206252 0.061195
O O3 0.880154 0.313272 0.338854
O O4 0.026395 0.092637 0.183224
O O5 0.039548 0.450374 0.151238
O O6 0.943849 0.589995 0.379206
O O7 0.500000 0.500000 0.000000
O O8 0.172342 0.661886 0.107669
O O9 0.787164 0.806026 0.540567
O O10 0.493068 0.972344 0.829587
O O11 0.000000 0.000000 0.500000
O O12 0.500000 0.500000 0.500000
O O13 0.372062 0.685714 0.695497
O O14 0.425087 0.317222 0.242259
O O15 0.866510 0.139287 0.935902
O O16 0.000000 0.000000 0.000000
#
# Coordination Sequence:
#
# PCOD9090292 Si02
#       7
#     2   2   2   2   2   2   2
#     4  10  19  38  65  84 123 160 198 252 310 358
#     4  11  22  38  65  91 115 167 213 246 295 371
#     4  10  22  38  60  94 117 160 204 245 306 370
#     4  10  21  41  60  86 126 162 200 253 311 351
#     4  10  21  39  62  94 117 162 206 245 314 363
#     4   9  22  40  59  85 132 150 201 262 302 353
#     4  10  21  39  62  88 124 154 195 260 313 359
#
# _framework density 19.544855999999999
#
# number of rings (size 3 to 8) (size 9 to 14) (size 15 to 20)
#    0.000    2.286    1.429    3.429    4.000    1.143 
#    7.714    1.429    0.000    0.000    0.000    0.000 
#    0.000    0.000    0.000    0.000    0.000    0.000 
#
# Total GULP energy -77988.942074 kJ/mol
# GULP energy per Si atom -5570.638720 kJ/mol
# Density = 1.950037 g / cm^3
# Si number density = 19.544856 Si / 1000 Ang^3
#
#
#
# Elastic Constant Matrix: (Units=GPa)
#
#
# Indices 1 2 3 4 5 6 
#
# 1 125.9862 77.8442 20.3131 -3.1762 -13.7271 4.5852
# 2 77.8442 162.4827 34.2532 -12.3797 -8.9881 -7.0886
# 3 20.3131 34.2532 51.3899 3.4233 -5.5487 -1.6676
# 4 -3.1762 -12.3797 3.4233 31.6596 2.2479 -8.9831
# 5 -13.7271 -8.9881 -5.5487 2.2479 24.9794 4.2701
# 6 4.5852 -7.0886 -1.6676 -8.9831 4.2701 41.5930
#
#
#
# Elastic Compliance Matrix: (Units=1/GPa)
#
#
# Indices 1 2 3 4 5 6 
#
# 1 0.012239 -0.005827 -0.000329 -0.002364 0.005353 -0.003416
# 2 -0.005827 0.010475 -0.005085 0.005172 -0.001628 0.003508
# 3 -0.000329 -0.005085 0.023713 -0.005273 0.003975 -0.001427
# 4 -0.002364 0.005172 -0.005273 0.037032 -0.005566 0.009500
# 5 0.005353 -0.001628 0.003975 -0.005566 0.044887 -0.006518
# 6 -0.003416 0.003508 -0.001427 0.009500 -0.006518 0.027681
#
#
# Mechanical properties :
#
#
# Convention : Reuss Voigt Hill
#
# Bulk Modulus (GPa) = 41.76440 67.18667 54.47554
# Shear Modulus (GPa) = 26.81084 33.47626 30.14355
#
# Velocity S-wave (km/s) = 3.70775 4.14308 3.93144
# Velocity P-wave (km/s) = 6.30434 7.57212 6.96713
#
# Compressibility (1/GPa) = 0.02394384
#
# Stress axis : x y z
#
# Youngs Moduli (GPa) = 81.70696 95.46150 42.17119
#
# Poissons Ratio (x) = 0.55628 0.01388
# Poissons Ratio (y) = 0.47613 0.21446
# Poissons Ratio (z) = 0.02689 0.48546
#
# Static dielectric constant tensor:
#      x y z
#    x 1.729500 0.036870 0.023030 
#    y 0.036870 1.738710 0.020210 
#    z 0.023030 0.020210 1.706360 
# 
# From -- ./inp_files/342931.got.cif
#   From: 2010.05.17/outbox.cif.g08.bks.cpg/sg2_172_cif.got.tgz:342931.got - 2010.06.03 11:33:40.
