data_PCOD9090138
_publ_section_title
;
Structure prediction by ZEFSAII (Michael W. Deem and Ramdas Pophale) SiO2 
 PCOD9090138
Probable space group: P -1
;
_chemical_formula_sum "Si O2"
_cell_formula_units_Z 16
_cell_length_a 9.088967
_cell_length_b 19.746338
_cell_length_c 8.148764
_cell_angle_alpha 137.505089
_cell_angle_beta 106.475881
_cell_angle_gamma 98.870299
_cell_volume 784.349858
_symmetry_space_group_name_H-M "P -1"
_symmetry_group_IT_number 2
_symmetry_cell_setting 'triclinic'
loop_
_space_group_symop_operation_xyz
x,y,z
-x,-y,-z
loop_
_atom_site_type_symbol
_atom_site_label
_atom_site_fract_x
_atom_site_fract_y
_atom_site_fract_z
Si Si1 0.074578 0.759214 0.662922
Si Si2 0.341694 0.700497 0.769269
Si Si3 0.339355 0.012067 0.044307
Si Si4 0.295458 0.462145 0.422100
Si Si5 0.408769 0.885746 0.391091
Si Si6 0.315380 0.401431 0.676939
Si Si7 0.719890 0.824832 0.918907
Si Si8 0.018724 0.806359 0.110890
O O1 0.213628 0.716970 0.635010
O O2 0.058803 0.787121 0.899747
O O3 0.864755 0.656274 0.368524
O O4 0.165216 0.880831 0.806334
O O5 0.266635 0.561623 0.520550
O O6 0.548859 0.773278 0.895592
O O7 0.351146 0.765786 0.058447
O O8 0.440620 0.086281 0.375056
O O9 0.279019 0.079364 0.027260
O O10 0.500000 0.000000 0.000000
O O11 0.500000 0.500000 0.500000
O O12 0.293578 0.463693 0.622037
O O13 0.130226 0.323273 0.084850
O O14 0.500000 0.000000 0.500000
O O15 0.220127 0.869768 0.369254
O O16 0.320565 0.290114 0.407614
O O17 0.500000 0.500000 0.000000
O O18 0.906776 0.868010 0.156110
#
# Coordination Sequence:
#
# PCOD9090138 Si02
#       8
#     2   2   2   2   2   2   2   2
#     4   9  20  39  62  82 123 155 198 241 304 348
#     4  11  19  39  65  88 115 160 201 246 300 353
#     4  12  22  41  63  88 123 163 194 249 308 351
#     4  10  19  38  64  84 119 159 193 247 300 346
#     4  11  22  40  62  88 123 153 208 252 284 365
#     4  10  23  41  59  89 126 154 197 247 295 364
#     4  10  21  39  64  87 125 160 194 248 308 348
#     4   9  20  39  62  88 122 156 204 243 298 353
#
# _framework density 20.399058
#
# number of rings (size 3 to 8) (size 9 to 14) (size 15 to 20)
#    0.000    2.000    6.250    0.000    1.750    6.500 
#    2.250    3.125    0.000    0.000    0.000    0.000 
#    0.000    0.000    0.000    0.000    0.000    0.000 
#
# Total GULP energy -89276.480605 kJ/mol
# GULP energy per Si atom -5579.780038 kJ/mol
# Density = 2.035263 g / cm^3
# Si number density = 20.399058 Si / 1000 Ang^3
#
#
#
# Elastic Constant Matrix: (Units=GPa)
#
#
# Indices 1 2 3 4 5 6 
#
# 1 114.0700 36.8762 26.4907 16.0842 25.2116 -13.1152
# 2 36.8762 125.4125 27.6526 36.5528 9.1360 -22.8685
# 3 26.4907 27.6526 72.9442 14.6768 22.6416 -9.8162
# 4 16.0842 36.5528 14.6768 25.2445 3.5797 1.4642
# 5 25.2116 9.1360 22.6416 3.5797 40.4559 6.4132
# 6 -13.1152 -22.8685 -9.8162 1.4642 6.4132 38.7662
#
#
#
# Elastic Compliance Matrix: (Units=1/GPa)
#
#
# Indices 1 2 3 4 5 6 
#
# 1 0.012136 0.000169 0.000300 -0.007351 -0.008052 0.005891
# 2 0.000169 0.018455 0.001913 -0.028008 -0.004975 0.013309
# 3 0.000300 0.001913 0.020724 -0.013772 -0.012434 0.009055
# 4 -0.007351 -0.028008 -0.013772 0.092387 0.014950 -0.028458
# 5 -0.008052 -0.004975 -0.012434 0.014950 0.039004 -0.015825
# 6 0.005891 0.013309 0.009055 -0.028458 -0.015825 0.041625
#
#
# Mechanical properties :
#
#
# Convention : Reuss Voigt Hill
#
# Bulk Modulus (GPa) = 17.83238 54.94062 36.38650
# Shear Modulus (GPa) = 20.98548 35.65381 28.31964
#
# Velocity S-wave (km/s) = 3.21089 4.18522 3.73001
# Velocity P-wave (km/s) = 4.74417 7.09551 6.03545
#
# Compressibility (1/GPa) = 0.05607777
#
# Stress axis : x y z
#
# Youngs Moduli (GPa) = 82.40055 54.18707 48.25338
#
# Poissons Ratio (x) = -0.00914 -0.01447
# Poissons Ratio (y) = -0.01389 -0.09232
# Poissons Ratio (z) = -0.02471 -0.10367
#
# Static dielectric constant tensor:
#      x y z
#    x 1.779400 0.006660 0.002820 
#    y 0.006660 1.712710 -0.028600 
#    z 0.002820 -0.028600 1.769340 
# 
# From -- ./inp_files/218720.got.cif
#   From: 2010.05.17/outbox.cif.g08.bks.cpg/sg2_110_cif.got.tgz:218720.got - 2010.06.03 11:33:40.
