data_PCOD9090718
_publ_section_title
;
Structure prediction by ZEFSAII (Michael W. Deem and Ramdas Pophale) SiO2 
 PCOD9090718
Probable space group: P -1
;
_chemical_formula_sum "Si O2"
_cell_formula_units_Z 14
_cell_length_a 9.001138
_cell_length_b 15.115046
_cell_length_c 7.630958
_cell_angle_alpha 87.375568
_cell_angle_beta 128.753556
_cell_angle_gamma 128.361983
_cell_volume 525.771524
_symmetry_space_group_name_H-M "P -1"
_symmetry_group_IT_number 2
_symmetry_cell_setting 'triclinic'
loop_
_space_group_symop_operation_xyz
x,y,z
-x,-y,-z
loop_
_atom_site_type_symbol
_atom_site_label
_atom_site_fract_x
_atom_site_fract_y
_atom_site_fract_z
Si Si1 0.378075 0.987903 0.621553
Si Si2 0.257336 0.211942 0.427312
Si Si3 0.313012 0.260990 0.874039
Si Si4 0.156788 0.368293 0.289232
Si Si5 0.650552 0.922960 0.037013
Si Si6 0.134084 0.449965 0.631780
Si Si7 0.242024 0.733038 0.302953
O O1 0.571991 0.111287 0.613160
O O2 0.397370 0.059136 0.802458
O O3 0.500107 0.938803 0.794249
O O4 0.033879 0.856565 0.333623
O O5 0.342634 0.267560 0.683839
O O6 0.110193 0.247519 0.237692
O O7 0.528759 0.266930 0.522047
O O8 0.999932 0.049910 0.257021
O O9 0.430249 0.207248 0.030988
O O10 0.521479 0.409971 0.090857
O O11 0.500000 0.500000 0.500000
O O12 0.088602 0.374672 0.433737
O O13 0.962527 0.352093 0.010345
O O14 0.000000 0.500000 0.500000
O O15 0.971951 0.348179 0.684129
#
# Coordination Sequence:
#
# PCOD9090718 Si02
#       7
#     2   2   2   2   2   2   2
#     4  10  20  39  78 115 149 208 267 319 387 467
#     4  11  21  41  79 116 148 204 264 318 386 465
#     4  11  22  42  72 114 161 202 257 322 394 464
#     4  12  28  50  78 113 159 211 260 316 390 475
#     4  10  19  38  73 118 149 202 266 315 391 466
#     4  12  30  50  79 120 162 206 258 326 394 474
#     4  12  24  50  82 119 153 204 266 327 394 454
#
# _framework density 26.627538000000001
#
# number of rings (size 3 to 8) (size 9 to 14) (size 15 to 20)
#    0.000    0.857    4.286    3.429    0.000    4.000 
#    0.000    3.571    0.000    8.571    0.000    0.000 
#    0.000    0.000    0.000    0.000    0.000    0.000 
#
# Total GULP energy -78675.173802 kJ/mol
# GULP energy per Si atom -5619.655272 kJ/mol
# Density = 2.656693 g / cm^3
# Si number density = 26.627538 Si / 1000 Ang^3
#
#
#
# Elastic Constant Matrix: (Units=GPa)
#
#
# Indices 1 2 3 4 5 6 
#
# 1 149.9126 65.1218 69.7603 -27.0579 6.7253 23.8241
# 2 65.1218 153.9144 56.2797 -2.2184 2.4500 -0.2373
# 3 69.7603 56.2797 144.9978 2.5520 3.8818 12.4181
# 4 -27.0579 -2.2184 2.5520 32.1644 -4.5612 8.9939
# 5 6.7253 2.4500 3.8818 -4.5612 37.8779 -11.5769
# 6 23.8241 -0.2373 12.4181 8.9939 -11.5769 57.2339
#
#
#
# Elastic Compliance Matrix: (Units=1/GPa)
#
#
# Indices 1 2 3 4 5 6 
#
# 1 0.014764 -0.004186 -0.004992 0.014366 -0.002507 -0.007844
# 2 -0.004186 0.008796 -0.001602 -0.003468 0.000786 0.002831
# 3 -0.004992 -0.001602 0.009972 -0.005351 -0.000477 0.000652
# 4 0.014366 -0.003468 -0.005351 0.046779 0.000140 -0.012156
# 5 -0.002507 0.000786 -0.000477 0.000140 0.028998 0.006994
# 6 -0.007844 0.002831 0.000652 -0.012156 0.006994 0.023932
#
#
# Mechanical properties :
#
#
# Convention : Reuss Voigt Hill
#
# Bulk Modulus (GPa) = 83.54464 92.34983 87.94723
# Shear Modulus (GPa) = 31.48731 42.63278 37.06004
#
# Velocity S-wave (km/s) = 3.44249 4.00569 3.73472
# Velocity P-wave (km/s) = 6.87346 7.49343 7.19013
#
# Compressibility (1/GPa) = 0.01196965
#
# Stress axis : x y z
#
# Youngs Moduli (GPa) = 67.73160 113.68479 100.28548
#
# Poissons Ratio (x) = 0.47594 0.50064
# Poissons Ratio (y) = 0.28356 0.16070
# Poissons Ratio (z) = 0.33813 0.18218
#
# Static dielectric constant tensor:
#      x y z
#    x 2.049790 -0.011760 -0.010600 
#    y -0.011760 2.131040 0.010420 
#    z -0.010600 0.010420 2.047310 
# 
# From -- ./inp_files/202752.got.cif
#   From: 2010.05.17/outbox.cif.g08.bks.cpg/sg2_102_cif.got.tgz:202752.got - 2010.06.03 11:33:40.
