data_PCOD9090121
_publ_section_title
;
Structure prediction by ZEFSAII (Michael W. Deem and Ramdas Pophale) SiO2 
 PCOD9090121
Probable space group: P -1
;
_chemical_formula_sum "Si O2"
_cell_formula_units_Z 16
_cell_length_a 12.927083
_cell_length_b 5.105046
_cell_length_c 13.611311
_cell_angle_alpha 73.290094
_cell_angle_beta 44.819866
_cell_angle_gamma 82.094355
_cell_volume 603.485282
_symmetry_space_group_name_H-M "P -1"
_symmetry_group_IT_number 2
_symmetry_cell_setting 'triclinic'
loop_
_space_group_symop_operation_xyz
x,y,z
-x,-y,-z
loop_
_atom_site_type_symbol
_atom_site_label
_atom_site_fract_x
_atom_site_fract_y
_atom_site_fract_z
Si Si1 0.290518 0.459727 0.269013
Si Si2 0.749556 0.079312 0.034590
Si Si3 0.635855 0.835114 0.451312
Si Si4 0.983235 0.541501 0.785715
Si Si5 0.889272 0.879394 0.406986
Si Si6 0.551720 0.397358 0.240223
Si Si7 0.328139 0.047863 0.114563
Si Si8 0.181600 0.348002 0.835468
O O1 0.450404 0.499380 0.210862
O O2 0.245908 0.762864 0.244234
O O3 0.174552 0.272901 0.435895
O O4 0.309570 0.293907 0.174471
O O5 0.716839 0.926689 0.971161
O O6 0.823825 0.379566 0.925780
O O7 0.598941 0.112676 0.191335
O O8 0.862156 0.925410 0.041330
O O9 0.562357 0.591489 0.594111
O O10 0.720274 0.746864 0.310012
O O11 0.500000 0.000000 0.500000
O O12 0.750425 0.994068 0.431714
O O13 0.997059 0.848044 0.699555
O O14 0.062799 0.514067 0.842030
O O15 0.057992 0.350816 0.676662
O O16 0.705326 0.493823 0.181208
O O17 0.500000 0.000000 0.000000
#
# Coordination Sequence:
#
# PCOD9090121 Si02
#       8
#     2   2   2   2   2   2   2   2
#     4  11  25  46  74 100 137 175 227 289 345 395
#     4  12  27  42  67 100 136 182 226 276 339 413
#     4  10  19  38  63  98 130 169 224 274 330 401
#     4  11  26  46  67  99 140 181 230 274 330 410
#     4  10  24  46  70  95 134 183 230 281 335 391
#     4  11  23  38  69 100 132 173 225 272 350 401
#     4  12  25  45  70 106 141 172 224 283 351 402
#     4  11  24  41  66  98 142 182 220 275 340 405
#
# _framework density 26.512663
#
# number of rings (size 3 to 8) (size 9 to 14) (size 15 to 20)
#    0.000    1.000    2.500    3.375    5.250    2.500 
#    0.000    3.750    0.000    0.000    0.000    0.000 
#    0.000    0.000    0.000    0.000    0.000    0.000 
#
# Total GULP energy -89538.824866 kJ/mol
# GULP energy per Si atom -5596.176554 kJ/mol
# Density = 2.645232 g / cm^3
# Si number density = 26.512663 Si / 1000 Ang^3
#
#
#
# Elastic Constant Matrix: (Units=GPa)
#
#
# Indices 1 2 3 4 5 6 
#
# 1 120.0616 34.4262 40.2449 0.6734 33.5315 5.2743
# 2 34.4262 119.4081 54.2781 -16.6400 22.5033 -3.7618
# 3 40.2449 54.2781 135.4065 -0.6768 24.4381 6.1215
# 4 0.6734 -16.6400 -0.6768 42.5245 4.2061 -3.8656
# 5 33.5315 22.5033 24.4381 4.2061 45.6595 -1.1869
# 6 5.2743 -3.7618 6.1215 -3.8656 -1.1869 41.8822
#
#
#
# Elastic Compliance Matrix: (Units=1/GPa)
#
#
# Indices 1 2 3 4 5 6 
#
# 1 0.011172 -0.001342 -0.001494 -0.000195 -0.006765 -0.001519
# 2 -0.001342 0.011914 -0.003866 0.005140 -0.003233 0.002187
# 3 -0.001494 -0.003866 0.009850 -0.001277 -0.002198 -0.001779
# 4 -0.000195 0.005140 -0.001277 0.026180 -0.004041 0.002975
# 5 -0.006765 -0.003233 -0.002198 -0.004041 0.030047 0.001361
# 6 -0.001519 0.002187 -0.001779 0.002975 0.001361 0.024837
#
#
# Mechanical properties :
#
#
# Convention : Reuss Voigt Hill
#
# Bulk Modulus (GPa) = 51.20139 70.30827 60.75483
# Shear Modulus (GPa) = 37.33739 42.40835 39.87287
#
# Velocity S-wave (km/s) = 3.75678 4.00378 3.88225
# Velocity P-wave (km/s) = 6.17834 6.92459 6.56208
#
# Compressibility (1/GPa) = 0.01953072
#
# Stress axis : x y z
#
# Youngs Moduli (GPa) = 89.51151 83.93778 101.52565
#
# Poissons Ratio (x) = 0.11264 0.15167
# Poissons Ratio (y) = 0.12012 0.39254
# Poissons Ratio (z) = 0.13372 0.32454
#
# Static dielectric constant tensor:
#      x y z
#    x 2.124970 -0.022460 -0.045040 
#    y -0.022460 2.146020 -0.109200 
#    z -0.045040 -0.109200 2.128370 
# 
# From -- ./inp_files/441815.got.cif
#   From: 2010.05.17/outbox.cif.g08.bks.cpg/sg2_221_cif.got.tgz:441815.got - 2010.06.03 11:33:40.
