data_PCOD9090831
_publ_section_title
;
Structure prediction by ZEFSAII (Michael W. Deem and Ramdas Pophale) SiO2 
 PCOD9090831
Probable space group: P -1
;
_chemical_formula_sum "Si O2"
_cell_formula_units_Z 14
_cell_length_a 9.101299
_cell_length_b 22.803905
_cell_length_c 9.551006
_cell_angle_alpha 39.622625
_cell_angle_beta 135.197626
_cell_angle_gamma 144.218611
_cell_volume 719.833833
_symmetry_space_group_name_H-M "P -1"
_symmetry_group_IT_number 2
_symmetry_cell_setting 'triclinic'
loop_
_space_group_symop_operation_xyz
x,y,z
-x,-y,-z
loop_
_atom_site_type_symbol
_atom_site_label
_atom_site_fract_x
_atom_site_fract_y
_atom_site_fract_z
Si Si1 0.651713 0.618409 0.468482
Si Si2 0.823101 0.183799 0.692969
Si Si3 0.889699 0.984161 0.111354
Si Si4 0.140140 0.662246 0.327397
Si Si5 0.432988 0.080206 0.375018
Si Si6 0.569828 0.239789 0.912582
Si Si7 0.578498 0.457142 0.263443
O O1 0.500000 0.500000 0.500000
O O2 0.497089 0.673701 0.254440
O O3 0.644986 0.597180 0.669788
O O4 0.929263 0.713493 0.414598
O O5 0.797473 0.236583 0.717525
O O6 0.579566 0.131335 0.524011
O O7 0.849196 0.081687 0.928394
O O8 0.126076 0.010258 0.315816
O O9 0.633989 0.856870 0.159947
O O10 0.000000 0.000000 0.000000
O O11 0.172932 0.693788 0.126863
O O12 0.326481 0.622964 0.559884
O O13 0.838632 0.560483 0.326541
O O14 0.500000 0.000000 0.500000
O O15 0.539670 0.177360 0.150471
O O16 0.500000 0.500000 0.000000
#
# Coordination Sequence:
#
# PCOD9090831 Si02
#       7
#     2   2   2   2   2   2   2
#     4  11  21  39  64  89 120 162 199 250 304 352
#     4  12  22  38  64  93 121 154 207 255 291 363
#     4  10  19  39  60  86 123 153 196 252 302 345
#     4  10  24  41  58  90 126 157 200 252 305 352
#     4  11  20  37  65  90 117 160 208 242 296 365
#     4  10  21  41  62  86 125 160 196 248 309 358
#     4  10  23  43  61  82 127 167 200 244 302 359
#
# _framework density 19.448934000000001
#
# number of rings (size 3 to 8) (size 9 to 14) (size 15 to 20)
#    0.000    1.429    7.143    0.000    2.000    2.857 
#    0.000    2.143    0.000    0.000    0.000    0.000 
#    0.000    0.000    0.000    0.000    0.000    0.000 
#
# Total GULP energy -78056.305532 kJ/mol
# GULP energy per Si atom -5575.450395 kJ/mol
# Density = 1.940467 g / cm^3
# Si number density = 19.448934 Si / 1000 Ang^3
#
#
#
# Elastic Constant Matrix: (Units=GPa)
#
#
# Indices 1 2 3 4 5 6 
#
# 1 65.9003 16.1658 18.7844 -3.3002 12.3960 -18.0704
# 2 16.1658 89.4335 19.5857 -8.7128 34.3280 -20.4778
# 3 18.7844 19.5857 94.3310 -8.4780 17.8547 -22.8115
# 4 -3.3002 -8.7128 -8.4780 32.3578 -0.8805 5.1634
# 5 12.3960 34.3280 17.8547 -0.8805 23.5956 -11.5883
# 6 -18.0704 -20.4778 -22.8115 5.1634 -11.5883 39.9051
#
#
#
# Elastic Compliance Matrix: (Units=1/GPa)
#
#
# Indices 1 2 3 4 5 6 
#
# 1 0.018290 0.001438 -0.000877 0.000834 -0.008018 0.006082
# 2 0.001438 0.027542 0.003328 0.006698 -0.041200 0.003856
# 3 -0.000877 0.003328 0.013982 0.003287 -0.012221 0.005329
# 4 0.000834 0.006698 0.003287 0.033681 -0.012547 -0.002308
# 5 -0.008018 -0.041200 -0.012221 -0.012547 0.117231 0.003908
# 6 0.006082 0.003856 0.005329 -0.002308 0.003908 0.034272
#
#
# Mechanical properties :
#
#
# Convention : Reuss Voigt Hill
#
# Bulk Modulus (GPa) = 14.79499 39.85962 27.32731
# Shear Modulus (GPa) = 19.24916 32.18030 25.71473
#
# Velocity S-wave (km/s) = 3.14941 4.07210 3.64011
# Velocity P-wave (km/s) = 4.56603 6.53057 5.63458
#
# Compressibility (1/GPa) = 0.06759044
#
# Stress axis : x y z
#
# Youngs Moduli (GPa) = 54.67605 36.30778 71.52096
#
# Poissons Ratio (x) = -0.05220 0.06273
# Poissons Ratio (y) = -0.07861 -0.23801
# Poissons Ratio (z) = 0.04796 -0.12082
#
# Static dielectric constant tensor:
#      x y z
#    x 1.615790 0.010190 0.042380 
#    y 0.010190 1.600700 -0.017180 
#    z 0.042380 -0.017180 1.638300 
# 
# From -- ./inp_files/49067.got.cif
#   From: 2010.05.17/outbox.cif.g08.bks.cpg/sg2_25_cif.got.tgz:49067.got - 2010.06.03 11:33:40.
