data_PCOD9090165
_publ_section_title
;
Structure prediction by ZEFSAII (Michael W. Deem and Ramdas Pophale) SiO2 
 PCOD9090165
Probable space group: P -1
;
_chemical_formula_sum "Si O2"
_cell_formula_units_Z 16
_cell_length_a 6.551600
_cell_length_b 25.256612
_cell_length_c 8.809638
_cell_angle_alpha 145.999760
_cell_angle_beta 77.710750
_cell_angle_gamma 81.944899
_cell_volume 649.160293
_symmetry_space_group_name_H-M "P -1"
_symmetry_group_IT_number 2
_symmetry_cell_setting 'triclinic'
loop_
_space_group_symop_operation_xyz
x,y,z
-x,-y,-z
loop_
_atom_site_type_symbol
_atom_site_label
_atom_site_fract_x
_atom_site_fract_y
_atom_site_fract_z
Si Si1 0.304013 0.399641 0.743687
Si Si2 0.939894 0.213903 0.621712
Si Si3 0.451056 0.160610 0.301966
Si Si4 0.262523 0.917331 0.605348
Si Si5 0.362773 0.082077 0.861483
Si Si6 0.358087 0.273503 0.157402
Si Si7 0.023426 0.622196 0.800108
Si Si8 0.625929 0.587351 0.924261
O O1 0.422104 0.273933 0.510813
O O2 0.413016 0.348482 0.436219
O O3 0.367485 0.453041 0.000705
O O4 0.000000 0.500000 0.000000
O O5 0.963115 0.096039 0.357367
O O6 0.161829 0.197139 0.443993
O O7 0.962251 0.272556 0.907154
O O8 0.658890 0.304499 0.813260
O O9 0.569627 0.120925 0.356970
O O10 0.555811 0.064114 0.922953
O O11 0.192839 0.039733 0.849294
O O12 0.420249 0.823281 0.220498
O O13 0.500000 0.000000 0.500000
O O14 0.262048 0.209123 0.119775
O O15 0.129984 0.355450 0.276064
O O16 0.295523 0.506970 0.443297
O O17 0.848905 0.609762 0.918617
#
# Coordination Sequence:
#
# PCOD9090165 Si02
#       8
#     2   2   2   2   2   2   2   2
#     4  11  20  37  63  86 125 167 196 247 311 360
#     4  12  21  37  65  94 124 150 221 252 300 355
#     4  11  22  41  67  90 122 164 204 258 298 369
#     4  11  21  42  65  90 116 165 211 256 306 358
#     4   9  22  40  69  89 119 163 207 250 318 370
#     4  10  19  38  64  88 124 163 202 252 313 359
#     4  11  21  39  64  87 126 169 210 250 290 368
#     4  11  22  39  62  89 124 173 210 241 299 366
#
# _framework density 24.647226
#
# number of rings (size 3 to 8) (size 9 to 14) (size 15 to 20)
#    0.000    1.250    6.250    0.750    0.000    0.500 
#    2.250    3.750    0.000    0.000    0.000    0.000 
#    0.000    0.000    0.000    0.000    0.000    0.000 
#
# Total GULP energy -89173.046032 kJ/mol
# GULP energy per Si atom -5573.315377 kJ/mol
# Density = 2.459113 g / cm^3
# Si number density = 24.647226 Si / 1000 Ang^3
#
#
#
# Elastic Constant Matrix: (Units=GPa)
#
#
# Indices 1 2 3 4 5 6 
#
# 1 60.8123 25.7664 16.3396 -5.2330 2.4056 -3.2330
# 2 25.7664 93.6361 8.4534 -23.0050 0.5293 -5.2836
# 3 16.3396 8.4534 123.4458 -35.4721 7.1918 -14.0488
# 4 -5.2330 -23.0050 -35.4721 46.1797 -9.3153 10.8720
# 5 2.4056 0.5293 7.1918 -9.3153 31.4362 5.4442
# 6 -3.2330 -5.2836 -14.0488 10.8720 5.4442 28.8936
#
#
#
# Elastic Compliance Matrix: (Units=1/GPa)
#
#
# Indices 1 2 3 4 5 6 
#
# 1 0.019611 -0.005971 -0.002995 -0.003827 -0.002106 0.001483
# 2 -0.005971 0.014209 0.002079 0.008677 0.002450 -0.000786
# 3 -0.002995 0.002079 0.011109 0.008676 -0.000159 0.002212
# 4 -0.003827 0.008677 0.008676 0.036900 0.010926 -0.010566
# 5 -0.002106 0.002450 -0.000159 0.010926 0.037104 -0.010967
# 6 0.001483 -0.000786 0.002212 -0.010566 -0.010967 0.041750
#
#
# Mechanical properties :
#
#
# Convention : Reuss Voigt Hill
#
# Bulk Modulus (GPa) = 32.09782 42.11256 37.10519
# Shear Modulus (GPa) = 27.05017 36.45755 31.75386
#
# Velocity S-wave (km/s) = 3.31644 3.85018 3.59323
# Velocity P-wave (km/s) = 5.26462 6.07358 5.68351
#
# Compressibility (1/GPa) = 0.03115477
#
# Stress axis : x y z
#
# Youngs Moduli (GPa) = 50.99052 70.37929 90.01729
#
# Poissons Ratio (x) = 0.42022 0.26961
# Poissons Ratio (y) = 0.30445 -0.18711
# Poissons Ratio (z) = 0.15272 -0.14629
#
# Static dielectric constant tensor:
#      x y z
#    x 1.942880 0.043160 0.000340 
#    y 0.043160 2.029990 -0.021190 
#    z 0.000340 -0.021190 2.156680 
# 
# From -- ./inp_files/143440.got.cif
#   From: 2010.05.17/outbox.cif.g08.bks.cpg/sg2_72_cif.got.tgz:143440.got - 2010.06.03 11:33:40.
