data_PCOD9090338
_publ_section_title
;
Structure prediction by ZEFSAII (Michael W. Deem and Ramdas Pophale) SiO2 
 PCOD9090338
Probable space group: P -1
;
_chemical_formula_sum "Si O2"
_cell_formula_units_Z 12
_cell_length_a 6.915822
_cell_length_b 9.017743
_cell_length_c 14.064413
_cell_angle_alpha 50.050214
_cell_angle_beta 112.226258
_cell_angle_gamma 137.980946
_cell_volume 441.681018
_symmetry_space_group_name_H-M "P -1"
_symmetry_group_IT_number 2
_symmetry_cell_setting 'triclinic'
loop_
_space_group_symop_operation_xyz
x,y,z
-x,-y,-z
loop_
_atom_site_type_symbol
_atom_site_label
_atom_site_fract_x
_atom_site_fract_y
_atom_site_fract_z
Si Si1 0.487785 0.711789 0.377273
Si Si2 0.835644 0.281077 0.220619
Si Si3 0.016035 0.738674 0.321509
Si Si4 0.512493 0.807284 0.635840
Si Si5 0.504255 0.783141 0.127174
Si Si6 0.597446 0.767050 0.951256
O O1 0.500000 0.500000 0.500000
O O2 0.193105 0.646159 0.377722
O O3 0.568211 0.793911 0.246077
O O4 0.736529 0.005493 0.349969
O O5 0.712346 0.336945 0.257617
O O6 0.677181 0.267241 0.105231
O O7 0.173856 0.493568 0.180499
O O8 0.667918 0.462079 0.355304
O O9 0.161655 0.952443 0.351418
O O10 0.149511 0.959823 0.172401
O O11 0.500000 0.000000 0.500000
O O12 0.661686 0.787274 0.065527
O O13 0.500000 0.000000 0.000000
O O14 0.500000 0.500000 0.000000
#
# Coordination Sequence:
#
# PCOD9090338 Si02
#       6
#     2   2   2   2   2   2
#     4  10  22  40  63  97 132 173 234 286 329 413
#     4  10  22  41  67  93 133 174 230 285 334 418
#     4  10  21  42  63  95 136 176 231 287 340 414
#     4  10  19  38  65  90 129 181 223 274 348 408
#     4  12  20  42  75  91 131 185 227 277 355 407
#     4  10  22  41  66 102 136 169 232 291 348 410
#
# _framework density 27.168928999999999
#
# number of rings (size 3 to 8) (size 9 to 14) (size 15 to 20)
#    0.000    2.000    5.000    1.000    0.000    0.667 
#   12.000   10.833    0.000    0.000    0.000    0.000 
#    0.000    0.000    0.000    0.000    0.000    0.000 
#
# Total GULP energy -66958.903228 kJ/mol
# GULP energy per Si atom -5579.908602 kJ/mol
# Density = 2.710709 g / cm^3
# Si number density = 27.168929 Si / 1000 Ang^3
#
#
#
# Elastic Constant Matrix: (Units=GPa)
#
#
# Indices 1 2 3 4 5 6 
#
# 1 63.1912 53.0017 45.2388 -4.4253 22.4269 -13.5344
# 2 53.0017 177.7266 61.4025 -19.6899 12.5076 2.5902
# 3 45.2388 61.4025 159.6891 -17.6136 17.5999 -10.4091
# 4 -4.4253 -19.6899 -17.6136 73.8644 -13.1260 -3.6087
# 5 22.4269 12.5076 17.5999 -13.1260 45.6990 -5.3244
# 6 -13.5344 2.5902 -10.4091 -3.6087 -5.3244 59.6942
#
#
#
# Elastic Compliance Matrix: (Units=1/GPa)
#
#
# Indices 1 2 3 4 5 6 
#
# 1 0.029701 -0.006904 -0.004513 -0.002877 -0.011183 0.005075
# 2 -0.006904 0.008236 -0.001358 0.001709 0.001928 -0.001884
# 3 -0.004513 -0.001358 0.008262 0.001338 -0.000148 0.000544
# 4 -0.002877 0.001709 0.001338 0.015044 0.004848 0.000849
# 5 -0.011183 0.001928 -0.000148 0.004848 0.028312 0.000173
# 6 0.005075 -0.001884 0.000544 0.000849 0.000173 0.018146
#
#
# Mechanical properties :
#
#
# Convention : Reuss Voigt Hill
#
# Bulk Modulus (GPa) = 48.42842 79.98810 64.20826
# Shear Modulus (GPa) = 35.67997 51.91577 43.79787
#
# Velocity S-wave (km/s) = 3.62783 4.37607 4.01940
# Velocity P-wave (km/s) = 5.95078 7.41878 6.72496
#
# Compressibility (1/GPa) = 0.02064903
#
# Stress axis : x y z
#
# Youngs Moduli (GPa) = 33.66850 121.42368 121.03286
#
# Poissons Ratio (x) = 0.83829 0.54628
# Poissons Ratio (y) = 0.23244 0.16433
# Poissons Ratio (z) = 0.15196 0.16487
#
# Static dielectric constant tensor:
#      x y z
#    x 2.245900 -0.063670 0.004280 
#    y -0.063670 2.244080 0.068810 
#    z 0.004280 0.068810 2.128330 
# 
# From -- ./inp_files/492116.got.cif
#   From: 2010.05.17/outbox.cif.g08.bks.cpg/sg2_247_cif.got.tgz:492116.got - 2010.06.03 11:33:40.
