data_PCOD9090231
_publ_section_title
;
Structure prediction by ZEFSAII (Michael W. Deem and Ramdas Pophale) SiO2 
 PCOD9090231
Probable space group: P -1
;
_chemical_formula_sum "Si O2"
_cell_formula_units_Z 16
_cell_length_a 9.066854
_cell_length_b 14.543586
_cell_length_c 5.886499
_cell_angle_alpha 87.567550
_cell_angle_beta 70.564337
_cell_angle_gamma 76.915917
_cell_volume 712.527950
_symmetry_space_group_name_H-M "P -1"
_symmetry_group_IT_number 2
_symmetry_cell_setting 'triclinic'
loop_
_space_group_symop_operation_xyz
x,y,z
-x,-y,-z
loop_
_atom_site_type_symbol
_atom_site_label
_atom_site_fract_x
_atom_site_fract_y
_atom_site_fract_z
Si Si1 0.104513 0.574072 0.501856
Si Si2 0.161908 0.297522 0.132195
Si Si3 0.618996 0.371031 0.845695
Si Si4 0.870890 0.044855 0.749274
Si Si5 0.694265 0.184476 0.514343
Si Si6 0.986502 0.858191 0.956533
Si Si7 0.445251 0.284413 0.315508
Si Si8 0.299122 0.437976 0.753082
O O1 0.228262 0.583589 0.240271
O O2 0.210585 0.534574 0.672466
O O3 0.000000 0.500000 0.500000
O O4 0.980864 0.669780 0.618892
O O5 0.111508 0.222642 0.999940
O O6 0.324809 0.259713 0.192831
O O7 0.188427 0.389552 0.975330
O O8 0.664488 0.281838 0.660075
O O9 0.461173 0.438714 0.808767
O O10 0.570694 0.331610 0.110087
O O11 0.714021 0.099158 0.692142
O O12 0.871570 0.957946 0.926395
O O13 0.000000 0.000000 0.500000
O O14 0.940236 0.122871 0.842526
O O15 0.545504 0.198049 0.417606
O O16 0.859040 0.167583 0.287601
O O17 0.349198 0.363641 0.527370
#
# Coordination Sequence:
#
# PCOD9090231 Si02
#       8
#     2   2   2   2   2   2   2   2
#     4  12  23  41  62  94 126 166 220 273 314 363
#     4  11  23  42  63  94 132 167 211 266 325 373
#     4  10  22  40  63  87 126 172 217 258 316 383
#     4   9  20  36  63  98 129 158 208 262 314 385
#     4  10  19  38  64  93 124 167 213 255 316 382
#     4  10  20  38  66  97 127 163 209 263 319 377
#     4  10  22  41  61  91 128 177 210 259 316 384
#     4  10  23  41  59  86 131 172 213 265 315 378
#
# _framework density 22.455258000000001
#
# number of rings (size 3 to 8) (size 9 to 14) (size 15 to 20)
#    0.000    1.750    2.500    1.500    0.000    4.500 
#    4.500    0.625    0.000   19.500    0.000    0.000 
#    0.000    0.000    0.000    0.000    0.000    0.000 
#
# Total GULP energy -89514.944641 kJ/mol
# GULP energy per Si atom -5594.684040 kJ/mol
# Density = 2.240415 g / cm^3
# Si number density = 22.455258 Si / 1000 Ang^3
#
#
#
# Elastic Constant Matrix: (Units=GPa)
#
#
# Indices 1 2 3 4 5 6 
#
# 1 70.4461 41.2192 29.0082 -8.5940 -8.9612 -15.5019
# 2 41.2192 61.0846 4.1852 3.2965 4.6678 -13.5731
# 3 29.0082 4.1852 77.1139 5.1310 0.8061 0.0083
# 4 -8.5940 3.2965 5.1310 26.1009 -1.8208 16.1645
# 5 -8.9612 4.6678 0.8061 -1.8208 31.5123 -8.6014
# 6 -15.5019 -13.5731 0.0083 16.1645 -8.6014 43.4044
#
#
#
# Elastic Compliance Matrix: (Units=1/GPa)
#
#
# Indices 1 2 3 4 5 6 
#
# 1 0.045745 -0.032046 -0.017193 0.022767 0.020003 0.001805
# 2 -0.032046 0.041230 0.011540 -0.023570 -0.014892 0.007273
# 3 -0.017193 0.011540 0.019668 -0.011707 -0.007696 0.000299
# 4 0.022767 -0.023570 -0.011707 0.065235 0.008047 -0.021937
# 5 0.020003 -0.014892 -0.007696 0.008047 0.042447 0.007904
# 6 0.001805 0.007273 0.000299 -0.021937 0.007904 0.035694
#
#
# Mechanical properties :
#
#
# Convention : Reuss Voigt Hill
#
# Bulk Modulus (GPa) = 32.00372 39.71886 35.86129
# Shear Modulus (GPa) = 14.88837 29.15232 22.02035
#
# Velocity S-wave (km/s) = 2.57772 3.60702 3.13490
# Velocity P-wave (km/s) = 4.81068 5.92232 5.39521
#
# Compressibility (1/GPa) = 0.03124636
#
# Stress axis : x y z
#
# Youngs Moduli (GPa) = 21.86037 24.25392 50.84308
#
# Poissons Ratio (x) = 0.77725 0.87414
# Poissons Ratio (y) = 0.70054 -0.58675
# Poissons Ratio (z) = 0.37584 -0.27990
#
# Static dielectric constant tensor:
#      x y z
#    x 1.828290 -0.015580 0.013980 
#    y -0.015580 1.835800 -0.005800 
#    z 0.013980 -0.005800 1.832220 
# 
# From -- ./inp_files/38468.got.cif
#   From: 2010.05.17/outbox.cif.g08.bks.cpg/sg2_20_cif.got.tgz:38468.got - 2010.06.03 11:33:40.
