data_PCOD9090509
_publ_section_title
;
Structure prediction by ZEFSAII (Michael W. Deem and Ramdas Pophale) SiO2 
 PCOD9090509
Probable space group: P -1
;
_chemical_formula_sum "Si O2"
_cell_formula_units_Z 16
_cell_length_a 5.027573
_cell_length_b 7.920563
_cell_length_c 26.881789
_cell_angle_alpha 41.516732
_cell_angle_beta 119.327001
_cell_angle_gamma 109.476681
_cell_volume 617.580602
_symmetry_space_group_name_H-M "P -1"
_symmetry_group_IT_number 2
_symmetry_cell_setting 'triclinic'
loop_
_space_group_symop_operation_xyz
x,y,z
-x,-y,-z
loop_
_atom_site_type_symbol
_atom_site_label
_atom_site_fract_x
_atom_site_fract_y
_atom_site_fract_z
Si Si1 0.845864 0.984620 0.055750
Si Si2 0.175558 0.582649 0.797673
Si Si3 0.068833 0.407996 0.405619
Si Si4 0.334762 0.033905 0.583837
Si Si5 0.435401 0.182083 0.750651
Si Si6 0.259262 0.347056 0.337512
Si Si7 0.507171 0.806379 0.932865
Si Si8 0.675250 0.888913 0.746036
O O1 0.771770 0.096837 0.078847
O O2 0.906685 0.683342 0.129448
O O3 0.150276 0.115819 0.036074
O O4 0.500000 0.000000 0.000000
O O5 0.526885 0.643524 0.812385
O O6 0.072952 0.595268 0.727926
O O7 0.980206 0.792922 0.765958
O O8 0.878467 0.182656 0.411447
O O9 0.885818 0.681392 0.328370
O O10 0.330010 0.405145 0.388068
O O11 0.190407 0.301775 0.492356
O O12 0.642245 0.943032 0.601896
O O13 0.442890 0.009362 0.655855
O O14 0.575461 0.441080 0.726305
O O15 0.444082 0.964796 0.841163
O O16 0.653147 0.077065 0.749229
O O17 0.500000 0.500000 0.000000
#
# Coordination Sequence:
#
# PCOD9090509 Si02
#       8
#     2   2   2   2   2   2   2   2
#     4  12  27  51  79 111 142 188 246 310 365 436
#     4  11  23  45  72  95 141 181 245 290 345 432
#     4  10  19  38  66  95 137 183 237 294 355 422
#     4   9  20  36  62 101 134 179 242 294 346 417
#     4  11  26  42  68  98 140 188 234 289 368 435
#     4  10  19  39  67  95 129 190 234 289 351 431
#     4  12  28  51  75 110 152 192 238 302 376 444
#     4  11  25  42  68 103 138 191 233 295 352 424
#
# _framework density 25.907551000000002
#
# number of rings (size 3 to 8) (size 9 to 14) (size 15 to 20)
#    0.000    1.250    2.500    2.625    5.250    0.500 
#    0.000    0.625    0.000    0.000    0.000    0.000 
#    0.000    0.000    0.000    0.000    0.000    0.000 
#
# Total GULP energy -89229.695469 kJ/mol
# GULP energy per Si atom -5576.855967 kJ/mol
# Density = 2.584858 g / cm^3
# Si number density = 25.907551 Si / 1000 Ang^3
#
#
#
# Elastic Constant Matrix: (Units=GPa)
#
#
# Indices 1 2 3 4 5 6 
#
# 1 94.2956 14.5879 21.2406 -6.1631 -2.0509 -13.1256
# 2 14.5879 49.7623 39.0307 -15.5000 3.2537 -11.6114
# 3 21.2406 39.0307 163.5731 -20.9727 0.2400 3.6016
# 4 -6.1631 -15.5000 -20.9727 33.7647 1.1664 -0.7999
# 5 -2.0509 3.2537 0.2400 1.1664 23.3111 -0.3765
# 6 -13.1256 -11.6114 3.6016 -0.7999 -0.3765 48.5829
#
#
#
# Elastic Compliance Matrix: (Units=1/GPa)
#
#
# Indices 1 2 3 4 5 6 
#
# 1 0.011581 -0.001794 -0.001055 0.000656 0.001293 0.002799
# 2 -0.001794 0.030480 -0.005867 0.010359 -0.004751 0.007369
# 3 -0.001055 -0.005867 0.007953 0.001984 0.000509 -0.002240
# 4 0.000656 0.010359 0.001984 0.035906 -0.003156 0.003073
# 5 0.001293 -0.004751 0.000509 -0.003156 0.043819 -0.000536
# 6 0.002799 0.007369 -0.002240 0.003073 -0.000536 0.023313
#
#
# Mechanical properties :
#
#
# Convention : Reuss Voigt Hill
#
# Bulk Modulus (GPa) = 30.69246 50.81662 40.75454
# Shear Modulus (GPa) = 27.57174 36.64986 32.11080
#
# Velocity S-wave (km/s) = 3.26580 3.76525 3.52438
# Velocity P-wave (km/s) = 5.10816 6.20967 5.68565
#
# Compressibility (1/GPa) = 0.03258130
#
# Stress axis : x y z
#
# Youngs Moduli (GPa) = 86.34972 32.80849 125.73356
#
# Poissons Ratio (x) = 0.05887 0.13265
# Poissons Ratio (y) = 0.15494 0.73768
# Poissons Ratio (z) = 0.09110 0.19249
#
# Static dielectric constant tensor:
#      x y z
#    x 2.350150 0.053070 0.030220 
#    y 0.053070 2.100370 0.046450 
#    z 0.030220 0.046450 2.060090 
# 
# From -- ./inp_files/621740.got.cif
#   From: 2010.05.17/outbox.cif.g08.bks.cpg/sg2_311_cif.got.tgz:621740.got - 2010.06.03 11:33:40.
