data_PCOD9090498
_publ_section_title
;
Structure prediction by ZEFSAII (Michael W. Deem and Ramdas Pophale) SiO2 
 PCOD9090498
Probable space group: P -1
;
_chemical_formula_sum "Si O2"
_cell_formula_units_Z 15
_cell_length_a 21.071876
_cell_length_b 5.533118
_cell_length_c 8.260828
_cell_angle_alpha 57.258185
_cell_angle_beta 54.422014
_cell_angle_gamma 57.421414
_cell_volume 622.645499
_symmetry_space_group_name_H-M "P -1"
_symmetry_group_IT_number 2
_symmetry_cell_setting 'triclinic'
loop_
_space_group_symop_operation_xyz
x,y,z
-x,-y,-z
loop_
_atom_site_type_symbol
_atom_site_label
_atom_site_fract_x
_atom_site_fract_y
_atom_site_fract_z
Si Si1 0.458904 0.737739 0.617055
Si Si2 0.787412 0.216248 0.378842
Si Si3 0.734745 0.427623 0.826964
Si Si4 0.966109 0.836341 0.245329
Si Si5 0.072560 0.711655 0.435796
Si Si6 0.500000 0.500000 0.000000
Si Si7 0.719165 0.850427 0.386321
Si Si8 0.675471 0.008058 0.880521
O O1 0.500000 0.500000 0.500000
O O2 0.500000 0.000000 0.500000
O O3 0.368513 0.927269 0.618987
O O4 0.468998 0.556932 0.835707
O O5 0.760398 0.578890 0.297256
O O6 0.728953 0.108474 0.626887
O O7 0.881671 0.077961 0.350200
O O8 0.774521 0.053530 0.290712
O O9 0.833472 0.310263 0.710693
O O10 0.703869 0.655991 0.635509
O O11 0.706685 0.136753 0.946864
O O12 0.698903 0.647606 0.952194
O O13 0.933885 0.561833 0.344484
O O14 0.041325 0.686144 0.309502
O O15 0.000000 0.000000 0.000000
O O16 0.000000 0.000000 0.500000
O O17 0.420376 0.802878 0.061754
#
# Coordination Sequence:
#
# PCOD9090498 Si02
#       8
#     2   2   2   2   2   1   2   2
#     4  12  26  47  74 108 153 196 247 324 389 445
#     4  10  20  43  67  96 148 189 234 304 373 433
#     4  10  20  40  68  98 143 192 240 299 379 441
#     4  11  25  44  69 108 143 191 249 306 367 456
#     4  11  23  43  73 102 148 199 241 308 384 447
#     4  12  28  48  78 116 148 198 270 308 384 476
#     4  10  19  38  66  94 131 195 230 285 375 435
#     4  10  21  40  66  98 141 189 235 309 363 440
#
# _framework density 24.090755999999999
#
# number of rings (size 3 to 8) (size 9 to 14) (size 15 to 20)
#    0.000    1.333    2.667    5.600    1.867    2.667 
#    4.800    0.000    0.000    0.000    0.000    0.000 
#    0.000    0.000    0.000    0.000    0.000    0.000 
#
# Total GULP energy -83555.929915 kJ/mol
# GULP energy per Si atom -5570.395328 kJ/mol
# Density = 2.403592 g / cm^3
# Si number density = 24.090756 Si / 1000 Ang^3
#
#
#
# Elastic Constant Matrix: (Units=GPa)
#
#
# Indices 1 2 3 4 5 6 
#
# 1 133.6061 67.5814 12.5783 0.2808 10.6005 -5.3874
# 2 67.5814 202.5502 33.5985 20.5844 -0.5880 3.2326
# 3 12.5783 33.5985 58.7462 -0.9923 13.4537 -9.8031
# 4 0.2808 20.5844 -0.9923 35.0271 -7.0490 -0.8688
# 5 10.6005 -0.5880 13.4537 -7.0490 21.9197 0.2402
# 6 -5.3874 3.2326 -9.8031 -0.8688 0.2402 60.9763
#
#
#
# Elastic Compliance Matrix: (Units=1/GPa)
#
#
# Indices 1 2 3 4 5 6 
#
# 1 0.009643 -0.003600 0.001452 0.001039 -0.005331 0.001312
# 2 -0.003600 0.007301 -0.004528 -0.003715 0.003538 -0.001500
# 3 0.001452 -0.004528 0.023483 0.000367 -0.015165 0.004209
# 4 0.001039 -0.003715 0.000367 0.032702 0.009680 0.000776
# 5 -0.005331 0.003538 -0.015165 0.009680 0.060750 -0.003198
# 6 0.001312 -0.001500 0.004209 0.000776 -0.003198 0.017296
#
#
# Mechanical properties :
#
#
# Convention : Reuss Voigt Hill
#
# Bulk Modulus (GPa) = 36.93641 69.15765 53.04703
# Shear Modulus (GPa) = 28.80986 42.32758 35.56872
#
# Velocity S-wave (km/s) = 3.46191 4.19621 3.84662
# Velocity P-wave (km/s) = 5.59869 7.22821 6.46499
#
# Compressibility (1/GPa) = 0.02707356
#
# Stress axis : x y z
#
# Youngs Moduli (GPa) = 103.70455 136.96453 42.58457
#
# Poissons Ratio (x) = 0.49310 -0.06182
# Poissons Ratio (y) = 0.37336 0.19283
# Poissons Ratio (z) = -0.15056 0.62020
#
# Static dielectric constant tensor:
#      x y z
#    x 2.029310 0.090840 0.012040 
#    y 0.090840 2.027490 0.090180 
#    z 0.012040 0.090180 1.983830 
# 
# From -- ./inp_files/350939.got.cif
#   From: 2010.05.17/outbox.cif.g08.bks.cpg/sg2_176_cif.got.tgz:350939.got - 2010.06.03 11:33:40.
