data_PCOD9090754
_publ_section_title
;
Structure prediction by ZEFSAII (Michael W. Deem and Ramdas Pophale) SiO2 
 PCOD9090754
Probable space group: P -1
;
_chemical_formula_sum "Si O2"
_cell_formula_units_Z 16
_cell_length_a 11.402839
_cell_length_b 19.269727
_cell_length_c 8.946665
_cell_angle_alpha 57.469910
_cell_angle_beta 110.920327
_cell_angle_gamma 156.537717
_cell_volume 603.123778
_symmetry_space_group_name_H-M "P -1"
_symmetry_group_IT_number 2
_symmetry_cell_setting 'triclinic'
loop_
_space_group_symop_operation_xyz
x,y,z
-x,-y,-z
loop_
_atom_site_type_symbol
_atom_site_label
_atom_site_fract_x
_atom_site_fract_y
_atom_site_fract_z
Si Si1 0.581979 0.951381 0.443194
Si Si2 0.480872 0.678648 0.076928
Si Si3 0.909557 0.907485 0.300913
Si Si4 0.196866 0.880361 0.317721
Si Si5 0.758885 0.310379 0.902842
Si Si6 0.545873 0.262396 0.564906
Si Si7 0.606113 0.485984 0.324553
Si Si8 0.150289 0.380091 0.042501
O O1 0.710054 0.036342 0.570187
O O2 0.299933 0.847205 0.409420
O O3 0.461468 0.788890 0.533650
O O4 0.853877 0.143706 0.226095
O O5 0.220015 0.589673 0.113720
O O6 0.358766 0.522570 0.121304
O O7 0.678993 0.775212 0.203784
O O8 0.733808 0.872779 0.853014
O O9 0.821057 0.935641 0.323122
O O10 0.762972 0.745006 0.521530
O O11 0.838772 0.672049 0.330926
O O12 0.427782 0.069549 0.091765
O O13 0.706351 0.303201 0.715888
O O14 0.011743 0.389704 0.945949
O O15 0.698741 0.444508 0.423394
O O16 0.677026 0.546501 0.113883
#
# Coordination Sequence:
#
# PCOD9090754 Si02
#       8
#     2   2   2   2   2   2   2   2
#     4  10  21  36  54  83 120 152 186 235 282 339
#     4  10  19  39  58  83 114 152 190 239 278 336
#     4   8  20  38  60  79 112 154 193 232 280 330
#     4  10  21  36  55  82 120 153 186 232 287 338
#     4  10  21  35  57  86 117 150 185 234 289 337
#     4   9  20  38  57  83 115 150 191 228 281 338
#     4  10  21  37  57  85 116 151 189 230 282 340
#     4  11  22  33  57  88 119 147 187 233 287 341
#
# _framework density 26.528549000000002
#
# number of rings (size 3 to 8) (size 9 to 14) (size 15 to 20)
#    0.750    1.500    0.000    2.625    1.750    4.500 
#    0.000    1.250    0.000    0.000    0.000    0.000 
#    0.000    0.000    0.000    0.000    0.000    0.000 
#
# Total GULP energy -89580.239053 kJ/mol
# GULP energy per Si atom -5598.764941 kJ/mol
# Density = 2.646817 g / cm^3
# Si number density = 26.528549 Si / 1000 Ang^3
#
#
#
# Elastic Constant Matrix: (Units=GPa)
#
#
# Indices 1 2 3 4 5 6 
#
# 1 94.1489 24.4390 8.4850 16.1763 0.9011 0.4759
# 2 24.4390 92.9602 27.5000 17.8115 -3.3382 -18.7779
# 3 8.4850 27.5000 92.9684 5.3488 3.5352 10.0542
# 4 16.1763 17.8115 5.3488 36.4680 1.7702 -2.3422
# 5 0.9011 -3.3382 3.5352 1.7702 37.9780 4.9888
# 6 0.4759 -18.7779 10.0542 -2.3422 4.9888 29.7115
#
#
#
# Elastic Compliance Matrix: (Units=1/GPa)
#
#
# Indices 1 2 3 4 5 6 
#
# 1 0.012088 -0.002981 0.000286 -0.004105 -0.000057 -0.002488
# 2 -0.002981 0.016672 -0.005680 -0.005255 0.000738 0.011968
# 3 0.000286 -0.005680 0.013285 0.000222 -0.000708 -0.007953
# 4 -0.004105 -0.005255 0.000222 0.031830 -0.001801 -0.000519
# 5 -0.000057 0.000738 -0.000708 -0.001801 0.027070 -0.003980
# 6 -0.002488 0.011968 -0.007953 -0.000519 -0.003980 0.044580
#
#
# Mechanical properties :
#
#
# Convention : Reuss Voigt Hill
#
# Bulk Modulus (GPa) = 39.53230 44.54729 42.03979
# Shear Modulus (GPa) = 29.29038 35.47509 32.38274
#
# Velocity S-wave (km/s) = 3.32642 3.66080 3.49761
# Velocity P-wave (km/s) = 5.44863 5.89044 5.67384
#
# Compressibility (1/GPa) = 0.02529577
#
# Stress axis : x y z
#
# Youngs Moduli (GPa) = 82.72782 59.98095 75.27563
#
# Poissons Ratio (x) = 0.17877 -0.02152
# Poissons Ratio (y) = 0.24657 0.42754
# Poissons Ratio (z) = -0.02365 0.34067
#
# Static dielectric constant tensor:
#      x y z
#    x 2.135940 0.029070 -0.020060 
#    y 0.029070 2.017280 -0.002060 
#    z -0.020060 -0.002060 2.044970 
# 
# From -- ./inp_files/224206.got.cif
#   From: 2010.05.17/outbox.cif.g08.bks.cpg/sg2_113_cif.got.tgz:224206.got - 2010.06.03 11:33:40.
