data_PCOD9090891
_publ_section_title
;
Structure prediction by ZEFSAII (Michael W. Deem and Ramdas Pophale) SiO2 
 PCOD9090891
Probable space group: P -1
;
_chemical_formula_sum "Si O2"
_cell_formula_units_Z 16
_cell_length_a 7.701520
_cell_length_b 14.129304
_cell_length_c 17.733174
_cell_angle_alpha 32.773854
_cell_angle_beta 40.358867
_cell_angle_gamma 43.504703
_cell_volume 656.439549
_symmetry_space_group_name_H-M "P -1"
_symmetry_group_IT_number 2
_symmetry_cell_setting 'triclinic'
loop_
_space_group_symop_operation_xyz
x,y,z
-x,-y,-z
loop_
_atom_site_type_symbol
_atom_site_label
_atom_site_fract_x
_atom_site_fract_y
_atom_site_fract_z
Si Si1 0.973222 0.216807 0.591879
Si Si2 0.719670 0.309228 0.243869
Si Si3 0.418364 0.444162 0.481958
Si Si4 0.517019 0.888037 0.410424
Si Si5 0.102332 0.396026 0.843351
Si Si6 0.298540 0.246548 0.311343
Si Si7 0.438889 0.064997 0.890459
Si Si8 0.704688 0.709687 0.985895
O O1 0.183095 0.114775 0.653303
O O2 0.105831 0.210380 0.469108
O O3 0.884683 0.424235 0.511290
O O4 0.703989 0.139278 0.730712
O O5 0.608880 0.221685 0.410777
O O6 0.588431 0.235037 0.264756
O O7 0.614719 0.525332 0.127576
O O8 0.050087 0.270728 0.163502
O O9 0.500000 0.500000 0.500000
O O10 0.449064 0.236170 0.591584
O O11 0.634499 0.515110 0.311052
O O12 0.338015 0.091561 0.339251
O O13 0.169123 0.229507 0.874116
O O14 0.127784 0.320689 0.969512
O O15 0.837710 0.555215 0.807485
O O16 0.500000 0.000000 0.000000
O O17 0.458385 0.886466 0.955018
#
# Coordination Sequence:
#
# PCOD9090891 Si02
#       8
#     2   2   2   2   2   2   2   2
#     4  10  20  38  63  86 123 155 197 250 298 349
#     4  10  21  37  62  89 121 154 202 248 297 353
#     4  11  21  39  56  88 122 157 191 246 302 350
#     4  11  22  38  61  92 119 158 201 245 299 359
#     4  10  21  38  57  85 122 158 193 250 299 349
#     4  11  22  38  59  92 125 154 194 251 304 355
#     4   9  19  35  60  84 113 162 207 235 288 358
#     4  10  19  39  61  86 117 160 204 244 292 359
#
# _framework density 24.373913999999999
#
# number of rings (size 3 to 8) (size 9 to 14) (size 15 to 20)
#    0.000    1.750    2.500    3.375    0.000    1.000 
#    0.000    1.875    0.000    0.000    0.000    0.000 
#    0.000    0.000    0.000    0.000    0.000    0.000 
#
# Total GULP energy -89426.129642 kJ/mol
# GULP energy per Si atom -5589.133103 kJ/mol
# Density = 2.431844 g / cm^3
# Si number density = 24.373914 Si / 1000 Ang^3
#
#
#
# Elastic Constant Matrix: (Units=GPa)
#
#
# Indices 1 2 3 4 5 6 
#
# 1 62.9372 47.1617 19.4387 -11.5869 10.3970 9.6851
# 2 47.1617 166.7371 29.4740 -64.3673 -8.9757 16.5351
# 3 19.4387 29.4740 57.6866 -14.3907 -3.4569 2.8462
# 4 -11.5869 -64.3673 -14.3907 49.9875 4.3524 -5.8012
# 5 10.3970 -8.9757 -3.4569 4.3524 15.7990 -10.9984
# 6 9.6851 16.5351 2.8462 -5.8012 -10.9984 29.5322
#
#
#
# Elastic Compliance Matrix: (Units=1/GPa)
#
#
# Indices 1 2 3 4 5 6 
#
# 1 0.039773 -0.013180 -0.010815 -0.009369 -0.051227 -0.025540
# 2 -0.013180 0.017040 0.001069 0.018262 0.016672 0.004475
# 3 -0.010815 0.001069 0.022229 0.004731 0.016866 0.008017
# 4 -0.009369 0.018262 0.004731 0.042417 0.008632 0.003939
# 5 -0.051227 0.016672 0.016866 0.008632 0.152599 0.064367
# 6 -0.025540 0.004475 0.008017 0.003939 0.064367 0.063704
#
#
# Mechanical properties :
#
#
# Convention : Reuss Voigt Hill
#
# Bulk Modulus (GPa) = 30.12985 53.27884 41.70435
# Shear Modulus (GPa) = 12.66857 31.81620 22.24238
#
# Velocity S-wave (km/s) = 2.28230 3.61687 3.02412
# Velocity P-wave (km/s) = 4.39699 6.27285 5.41674
#
# Compressibility (1/GPa) = 0.03318968
#
# Stress axis : x y z
#
# Youngs Moduli (GPa) = 25.14253 58.68490 44.98700
#
# Poissons Ratio (x) = 0.77345 0.48655
# Poissons Ratio (y) = 0.33137 -0.04809
# Poissons Ratio (z) = 0.27193 -0.06273
#
# Static dielectric constant tensor:
#      x y z
#    x 1.984190 -0.058590 0.038430 
#    y -0.058590 2.112140 -0.023270 
#    z 0.038430 -0.023270 1.956620 
# 
# From -- ./inp_files/590223.got.cif
#   From: 2010.05.17/outbox.cif.g08.bks.cpg/sg2_296_cif.got.tgz:590223.got - 2010.06.03 11:33:40.
