data_PCOD9090112
_publ_section_title
;
Structure prediction by ZEFSAII (Michael W. Deem and Ramdas Pophale) SiO2 
 PCOD9090112
Probable space group: P -1
;
_chemical_formula_sum "Si O2"
_cell_formula_units_Z 16
_cell_length_a 18.061156
_cell_length_b 5.223360
_cell_length_c 14.114641
_cell_angle_alpha 63.473615
_cell_angle_beta 35.847944
_cell_angle_gamma 53.737865
_cell_volume 627.260913
_symmetry_space_group_name_H-M "P -1"
_symmetry_group_IT_number 2
_symmetry_cell_setting 'triclinic'
loop_
_space_group_symop_operation_xyz
x,y,z
-x,-y,-z
loop_
_atom_site_type_symbol
_atom_site_label
_atom_site_fract_x
_atom_site_fract_y
_atom_site_fract_z
Si Si1 0.792972 0.780676 0.761821
Si Si2 0.822546 0.135980 0.391253
Si Si3 0.443976 0.806398 0.715849
Si Si4 0.791836 0.365558 0.002657
Si Si5 0.629073 0.556436 0.391853
Si Si6 0.093017 0.522550 0.509703
Si Si7 0.353570 0.627589 0.292503
Si Si8 0.035642 0.375524 0.091219
O O1 0.754834 0.606539 0.913587
O O2 0.854235 0.568533 0.638484
O O3 0.936517 0.808602 0.637424
O O4 0.663073 0.109619 0.811604
O O5 0.760227 0.223112 0.335534
O O6 0.694129 0.193251 0.586657
O O7 0.898036 0.369368 0.283836
O O8 0.922107 0.775710 0.376215
O O9 0.576515 0.724136 0.522029
O O10 0.504707 0.680259 0.778307
O O11 0.352927 0.181471 0.733363
O O12 0.352579 0.624909 0.809024
O O13 0.893039 0.437278 0.956753
O O14 0.866554 0.002039 0.950378
O O15 0.500000 0.500000 0.500000
O O16 0.222218 0.555320 0.417794
O O17 0.000000 0.500000 0.000000
#
# Coordination Sequence:
#
# PCOD9090112 Si02
#       8
#     2   2   2   2   2   2   2   2
#     4  10  22  37  64  96 131 174 219 277 339 389
#     4  10  21  37  64  96 126 169 225 277 335 395
#     4  10  24  41  61  95 129 177 227 273 335 399
#     4  12  27  46  68  99 141 178 223 278 340 405
#     4  10  21  40  66  90 126 173 222 279 328 393
#     4  10  19  38  63  96 129 166 226 277 337 394
#     4  10  21  39  64  94 129 173 227 280 332 395
#     4  12  27  46  68 100 136 180 223 276 342 405
#
# _framework density 25.507729000000001
#
# number of rings (size 3 to 8) (size 9 to 14) (size 15 to 20)
#    0.000    1.500    1.250    3.000    5.250    0.500 
#    0.000    0.625    0.000    0.000    0.000    0.000 
#    0.000    0.000    0.000    0.000    0.000    0.000 
#
# Total GULP energy -89379.851773 kJ/mol
# GULP energy per Si atom -5586.240736 kJ/mol
# Density = 2.544967 g / cm^3
# Si number density = 25.507729 Si / 1000 Ang^3
#
#
#
# Elastic Constant Matrix: (Units=GPa)
#
#
# Indices 1 2 3 4 5 6 
#
# 1 119.4350 41.4043 34.4074 -31.7901 -11.5469 -26.1121
# 2 41.4043 80.1367 32.3214 -41.6985 14.0562 -31.2664
# 3 34.4074 32.3214 118.8767 -37.0351 1.6973 -7.8728
# 4 -31.7901 -41.6985 -37.0351 48.3695 -3.1018 11.5944
# 5 -11.5469 14.0562 1.6973 -3.1018 37.2767 -11.2307
# 6 -26.1121 -31.2664 -7.8728 11.5944 -11.2307 43.2115
#
#
#
# Elastic Compliance Matrix: (Units=1/GPa)
#
#
# Indices 1 2 3 4 5 6 
#
# 1 0.012918 -0.002946 -0.001438 0.003810 0.007397 0.006312
# 2 -0.002946 0.031935 -0.000015 0.021865 -0.007028 0.013631
# 3 -0.001438 -0.000015 0.011215 0.007854 -0.000631 -0.001108
# 4 0.003810 0.021865 0.007854 0.046330 -0.001542 0.006722
# 5 0.007397 -0.007028 -0.000631 -0.001542 0.034255 0.008586
# 6 0.006312 0.013631 -0.001108 0.006722 0.008586 0.037046
#
#
# Mechanical properties :
#
#
# Convention : Reuss Voigt Hill
#
# Bulk Modulus (GPa) = 21.15589 59.41275 40.28432
# Shear Modulus (GPa) = 25.22013 39.79256 32.50635
#
# Velocity S-wave (km/s) = 3.14781 3.95399 3.57371
# Velocity P-wave (km/s) = 4.63935 6.64741 5.73200
#
# Compressibility (1/GPa) = 0.04726817
#
# Stress axis : x y z
#
# Youngs Moduli (GPa) = 77.41281 31.31350 89.16714
#
# Poissons Ratio (x) = 0.09225 0.12826
# Poissons Ratio (y) = 0.22806 0.00136
# Poissons Ratio (z) = 0.11135 0.00048
#
# Static dielectric constant tensor:
#      x y z
#    x 2.094700 -0.041480 0.023510 
#    y -0.041480 2.139390 0.057300 
#    z 0.023510 0.057300 2.046500 
# 
# From -- ./inp_files/71983.got.cif
#   From: 2010.05.17/outbox.cif.g08.bks.cpg/sg2_36_cif.got.tgz:71983.got - 2010.06.03 11:33:40.
