data_PCOD9090109
_publ_section_title
;
Structure prediction by ZEFSAII (Michael W. Deem and Ramdas Pophale) SiO2 
 PCOD9090109
Probable space group: P -1
;
_chemical_formula_sum "Si O2"
_cell_formula_units_Z 16
_cell_length_a 9.161236
_cell_length_b 16.165100
_cell_length_c 8.312014
_cell_angle_alpha 67.886986
_cell_angle_beta 73.851160
_cell_angle_gamma 30.964353
_cell_volume 584.161139
_symmetry_space_group_name_H-M "P -1"
_symmetry_group_IT_number 2
_symmetry_cell_setting 'triclinic'
loop_
_space_group_symop_operation_xyz
x,y,z
-x,-y,-z
loop_
_atom_site_type_symbol
_atom_site_label
_atom_site_fract_x
_atom_site_fract_y
_atom_site_fract_z
Si Si1 0.742343 0.998997 0.308133
Si Si2 0.637157 0.941015 0.825228
Si Si3 0.532926 0.793645 0.229067
Si Si4 0.082950 0.549701 0.104241
Si Si5 0.803747 0.681689 0.560378
Si Si6 0.362218 0.767623 0.030632
Si Si7 0.671867 0.406663 0.848867
Si Si8 0.123974 0.681554 0.610820
O O1 0.013981 0.823929 0.446673
O O2 0.614919 0.979779 0.258007
O O3 0.496070 0.131460 0.420290
O O4 0.742586 0.094610 0.142482
O O5 0.927217 0.767553 0.771318
O O6 0.678263 0.027814 0.767676
O O7 0.500000 0.000000 0.000000
O O8 0.734544 0.680059 0.404865
O O9 0.382257 0.787008 0.194856
O O10 0.740306 0.721537 0.067413
O O11 0.136605 0.428643 0.258587
O O12 0.130747 0.606336 0.174588
O O13 0.322038 0.423558 0.984525
O O14 0.040899 0.638881 0.554742
O O15 0.188387 0.761089 0.074856
O O16 0.447389 0.526924 0.684965
O O17 0.500000 0.500000 0.000000
#
# Coordination Sequence:
#
# PCOD9090109 Si02
#       8
#     2   2   2   2   2   2   2   2
#     4  10  19  38  63  95 127 155 203 258 310 367
#     4  11  21  33  63 101 124 155 203 264 316 359
#     4  12  20  36  65  96 127 153 207 265 309 363
#     4  10  23  39  61  89 124 168 209 254 309 366
#     4  10  20  38  63  99 123 157 207 262 310 362
#     4  10  22  39  63  91 124 162 210 256 307 362
#     4  10  24  44  62  86 124 174 210 248 305 377
#     4  11  21  41  67  92 129 161 205 255 314 370
#
# _framework density 27.389700999999999
#
# number of rings (size 3 to 8) (size 9 to 14) (size 15 to 20)
#    0.000    1.500    3.750    2.250    3.500    0.000 
#    0.000    8.125    0.000    5.250    0.000    0.000 
#    0.000    0.000    0.000    0.000    0.000    0.000 
#
# Total GULP energy -89407.392959 kJ/mol
# GULP energy per Si atom -5587.962060 kJ/mol
# Density = 2.732736 g / cm^3
# Si number density = 27.389701 Si / 1000 Ang^3
#
#
#
# Elastic Constant Matrix: (Units=GPa)
#
#
# Indices 1 2 3 4 5 6 
#
# 1 165.5336 48.9176 43.3136 -14.7607 12.5065 30.8857
# 2 48.9176 117.2025 34.3180 -5.8206 10.6208 24.5272
# 3 43.3136 34.3180 117.0504 0.4660 20.0549 8.5831
# 4 -14.7607 -5.8206 0.4660 57.1657 5.4751 5.1008
# 5 12.5065 10.6208 20.0549 5.4751 45.1725 5.1068
# 6 30.8857 24.5272 8.5831 5.1008 5.1068 55.5590
#
#
#
# Elastic Compliance Matrix: (Units=1/GPa)
#
#
# Indices 1 2 3 4 5 6 
#
# 1 0.008033 -0.001841 -0.002057 0.002287 -0.000763 -0.003475
# 2 -0.001841 0.010752 -0.002082 0.001021 -0.000831 -0.003419
# 3 -0.002057 -0.002082 0.010476 -0.000556 -0.003618 0.000828
# 4 0.002287 0.001021 -0.000556 0.018714 -0.002542 -0.003121
# 5 -0.000763 -0.000831 -0.003618 -0.002542 0.024534 -0.000672
# 6 -0.003475 -0.003419 0.000828 -0.003121 -0.000672 0.021660
#
#
# Mechanical properties :
#
#
# Convention : Reuss Voigt Hill
#
# Bulk Modulus (GPa) = 57.79571 72.54277 65.16924
# Shear Modulus (GPa) = 44.68444 49.79527 47.23986
#
# Velocity S-wave (km/s) = 4.04348 4.26846 4.15749
# Velocity P-wave (km/s) = 6.55337 7.12993 6.84772
#
# Compressibility (1/GPa) = 0.01730232
#
# Stress axis : x y z
#
# Youngs Moduli (GPa) = 124.48558 93.00869 95.45393
#
# Poissons Ratio (x) = 0.17120 0.19630
# Poissons Ratio (y) = 0.22914 0.19874
# Poissons Ratio (z) = 0.25601 0.19365
#
# Static dielectric constant tensor:
#      x y z
#    x 2.157070 0.027580 -0.115100 
#    y 0.027580 2.225900 -0.088800 
#    z -0.115100 -0.088800 2.220180 
# 
# From -- ./inp_files/206913.got.cif
#   From: 2010.05.17/outbox.cif.g08.bks.cpg/sg2_104_cif.got.tgz:206913.got - 2010.06.03 11:33:40.
