data_PCOD9090465
_publ_section_title
;
Structure prediction by ZEFSAII (Michael W. Deem and Ramdas Pophale) SiO2 
 PCOD9090465
Probable space group: P -1
;
_chemical_formula_sum "Si O2"
_cell_formula_units_Z 16
_cell_length_a 9.551513
_cell_length_b 7.627292
_cell_length_c 16.487842
_cell_angle_alpha 129.699223
_cell_angle_beta 62.698282
_cell_angle_gamma 86.004834
_cell_volume 696.189941
_symmetry_space_group_name_H-M "P -1"
_symmetry_group_IT_number 2
_symmetry_cell_setting 'triclinic'
loop_
_space_group_symop_operation_xyz
x,y,z
-x,-y,-z
loop_
_atom_site_type_symbol
_atom_site_label
_atom_site_fract_x
_atom_site_fract_y
_atom_site_fract_z
Si Si1 0.880577 0.209738 0.996186
Si Si2 0.474836 0.018490 0.758801
Si Si3 0.121174 0.599739 0.782497
Si Si4 0.703670 0.229392 0.685853
Si Si5 0.323116 0.476513 0.544428
Si Si6 0.135515 0.069195 0.759551
Si Si7 0.530197 0.160017 0.110105
Si Si8 0.051730 0.200183 0.642440
O O1 0.934156 0.269280 0.912398
O O2 0.866298 0.413658 0.128295
O O3 0.711568 0.168351 0.040989
O O4 0.057718 0.909605 0.878386
O O5 0.539164 0.221876 0.774405
O O6 0.293839 0.064312 0.772041
O O7 0.645416 0.739456 0.593604
O O8 0.453737 0.976742 0.847053
O O9 0.304175 0.419081 0.626536
O O10 0.989758 0.513680 0.749162
O O11 0.626142 0.520919 0.752192
O O12 0.871330 0.180354 0.684949
O O13 0.808154 0.993801 0.521236
O O14 0.500000 0.500000 0.500000
O O15 0.156418 0.777068 0.660692
O O16 0.154907 0.123225 0.677728
O O17 0.500000 0.000000 0.000000
#
# Coordination Sequence:
#
# PCOD9090465 Si02
#       8
#     2   2   2   2   2   2   2   2
#     4  10  22  41  62  99 132 180 232 267 334 416
#     4  11  23  45  71 104 134 179 232 289 340 406
#     4  10  19  38  66  91 136 174 218 284 334 393
#     4  11  27  47  69 104 140 180 233 279 349 420
#     4   9  17  36  63  97 130 168 221 280 340 391
#     4  10  23  40  70 101 136 182 228 283 344 397
#     4  12  27  47  70  98 143 186 225 283 347 414
#     4  11  24  45  67 103 139 175 227 292 343 405
#
# _framework density 22.982233000000001
#
# number of rings (size 3 to 8) (size 9 to 14) (size 15 to 20)
#    0.000    1.500    1.250    4.500    3.500    2.500 
#    2.250    1.875    0.000    0.000    0.000    0.000 
#    0.000    0.000    0.000    0.000    0.000    0.000 
#
# Total GULP energy -89207.514741 kJ/mol
# GULP energy per Si atom -5575.469671 kJ/mol
# Density = 2.292992 g / cm^3
# Si number density = 22.982233 Si / 1000 Ang^3
#
#
#
# Elastic Constant Matrix: (Units=GPa)
#
#
# Indices 1 2 3 4 5 6 
#
# 1 122.1333 40.9181 59.2479 -21.7462 18.2007 17.4898
# 2 40.9181 95.3279 31.4934 -15.0410 14.4997 8.5305
# 3 59.2479 31.4934 113.1560 -23.9620 21.1294 12.0348
# 4 -21.7462 -15.0410 -23.9620 38.7322 8.0970 -0.6637
# 5 18.2007 14.4997 21.1294 8.0970 39.8629 -0.6751
# 6 17.4898 8.5305 12.0348 -0.6637 -0.6751 33.2771
#
#
#
# Elastic Compliance Matrix: (Units=1/GPa)
#
#
# Indices 1 2 3 4 5 6 
#
# 1 0.013033 -0.002537 -0.003864 0.004699 -0.004016 -0.004790
# 2 -0.002537 0.013233 -0.000425 0.004326 -0.004341 -0.001907
# 3 -0.003864 -0.000425 0.014393 0.008065 -0.007400 -0.003055
# 4 0.004699 0.004326 0.008065 0.038343 -0.015885 -0.006053
# 5 -0.004016 -0.004341 -0.007400 -0.015885 0.035754 0.006308
# 6 -0.004790 -0.001907 -0.003055 -0.006053 0.006308 0.034169
#
#
# Mechanical properties :
#
#
# Convention : Reuss Voigt Hill
#
# Bulk Modulus (GPa) = 37.02614 65.99289 51.50951
# Shear Modulus (GPa) = 29.14089 35.63828 32.38958
#
# Velocity S-wave (km/s) = 3.56473 3.94215 3.75818
# Velocity P-wave (km/s) = 5.75228 7.03547 6.42599
#
# Compressibility (1/GPa) = 0.02700795
#
# Stress axis : x y z
#
# Youngs Moduli (GPa) = 76.72775 75.56872 69.47709
#
# Poissons Ratio (x) = 0.19171 0.26843
# Poissons Ratio (y) = 0.19465 0.02954
# Poissons Ratio (z) = 0.29644 0.03213
#
# Static dielectric constant tensor:
#      x y z
#    x 1.863700 0.063380 -0.042200 
#    y 0.063380 2.238730 0.022440 
#    z -0.042200 0.022440 1.922710 
# 
# From -- ./inp_files/495678.got.cif
#   From: 2010.05.17/outbox.cif.g08.bks.cpg/sg2_248_cif.got.tgz:495678.got - 2010.06.03 11:33:40.
