data_PCOD9090538
_publ_section_title
;
Structure prediction by ZEFSAII (Michael W. Deem and Ramdas Pophale) SiO2 
 PCOD9090538
Probable space group: P -1
;
_chemical_formula_sum "Si O2"
_cell_formula_units_Z 16
_cell_length_a 16.432657
_cell_length_b 8.523933
_cell_length_c 13.736571
_cell_angle_alpha 144.918111
_cell_angle_beta 142.366998
_cell_angle_gamma 37.964873
_cell_volume 618.918023
_symmetry_space_group_name_H-M "P -1"
_symmetry_group_IT_number 2
_symmetry_cell_setting 'triclinic'
loop_
_space_group_symop_operation_xyz
x,y,z
-x,-y,-z
loop_
_atom_site_type_symbol
_atom_site_label
_atom_site_fract_x
_atom_site_fract_y
_atom_site_fract_z
Si Si1 0.142801 0.978401 0.352264
Si Si2 0.859346 0.530035 0.031593
Si Si3 0.592210 0.089280 0.711640
Si Si4 0.062278 0.944152 0.639637
Si Si5 0.637724 0.550057 0.576903
Si Si6 0.291168 0.421979 0.681510
Si Si7 0.479553 0.186461 0.202286
Si Si8 0.723121 0.530914 0.083239
O O1 0.091177 0.796618 0.132864
O O2 0.249284 0.720562 0.393853
O O3 0.226163 0.167769 0.481891
O O4 0.022730 0.154300 0.407567
O O5 0.686231 0.706000 0.932557
O O6 0.857552 0.533460 0.149219
O O7 0.933764 0.739280 0.167122
O O8 0.464377 0.293568 0.766597
O O9 0.500000 0.000000 0.500000
O O10 0.696263 0.770945 0.693099
O O11 0.682444 0.278739 0.867070
O O12 0.220601 0.680695 0.666631
O O13 0.000000 0.000000 0.500000
O O14 0.553358 0.412120 0.356019
O O15 0.529881 0.760936 0.663445
O O16 0.252922 0.535939 0.813997
O O17 0.587544 0.852721 0.111810
#
# Coordination Sequence:
#
# PCOD9090538 Si02
#       8
#     2   2   2   2   2   2   2   2
#     4  11  24  48  71  98 142 184 229 287 343 408
#     4  11  25  44  69 103 137 186 229 281 349 411
#     4  12  25  39  66 110 148 179 221 283 354 419
#     4  12  29  49  71  97 133 186 246 289 338 409
#     4  10  20  38  68 102 141 175 216 275 355 406
#     4  12  25  46  72 102 136 181 234 288 349 407
#     4  10  19  38  67 100 139 176 215 277 344 419
#     4  12  23  41  68 105 144 179 227 283 348 418
#
# _framework density 25.851564
#
# number of rings (size 3 to 8) (size 9 to 14) (size 15 to 20)
#    0.000    0.750    2.500    6.000    5.250    0.000 
#    0.000    1.250    0.000    0.000    0.000    0.000 
#    0.000    0.000    0.000    0.000    0.000    0.000 
#
# Total GULP energy -89533.684286 kJ/mol
# GULP energy per Si atom -5595.855268 kJ/mol
# Density = 2.579272 g / cm^3
# Si number density = 25.851564 Si / 1000 Ang^3
#
#
#
# Elastic Constant Matrix: (Units=GPa)
#
#
# Indices 1 2 3 4 5 6 
#
# 1 71.6922 -7.6437 8.2220 -2.8019 2.0900 5.7690
# 2 -7.6437 83.2233 2.7485 4.9320 -4.7449 16.4835
# 3 8.2220 2.7485 119.7052 18.9098 1.7505 15.6160
# 4 -2.8019 4.9320 18.9098 32.2345 15.0772 1.6793
# 5 2.0900 -4.7449 1.7505 15.0772 43.6933 4.7298
# 6 5.7690 16.4835 15.6160 1.6793 4.7298 27.9801
#
#
#
# Elastic Compliance Matrix: (Units=1/GPa)
#
#
# Indices 1 2 3 4 5 6 
#
# 1 0.014653 0.001935 -0.000885 0.002045 -0.000765 -0.003661
# 2 0.001935 0.014670 0.001495 -0.004308 0.004042 -0.010301
# 3 -0.000885 0.001495 0.010375 -0.007493 0.003085 -0.006560
# 4 0.002045 -0.004308 -0.007493 0.043370 -0.015922 0.006386
# 5 -0.000765 0.004042 0.003085 -0.015922 0.029598 -0.007993
# 6 -0.003661 -0.010301 -0.006560 0.006386 -0.007993 0.047192
#
#
# Mechanical properties :
#
#
# Convention : Reuss Voigt Hill
#
# Bulk Modulus (GPa) = 22.32694 31.25269 26.78982
# Shear Modulus (GPa) = 29.46427 38.86785 34.16606
#
# Velocity S-wave (km/s) = 3.37968 3.88171 3.63936
# Velocity P-wave (km/s) = 4.88723 5.67501 5.29579
#
# Compressibility (1/GPa) = 0.04478894
#
# Stress axis : x y z
#
# Youngs Moduli (GPa) = 68.24456 68.16552 96.38819
#
# Poissons Ratio (x) = -0.13192 0.08533
# Poissons Ratio (y) = -0.13207 -0.14414
# Poissons Ratio (z) = 0.06041 -0.10193
#
# Static dielectric constant tensor:
#      x y z
#    x 2.089890 -0.029780 -0.047040 
#    y -0.029780 2.094210 -0.028800 
#    z -0.047040 -0.028800 2.045480 
# 
# From -- ./inp_files/447826.got.cif
#   From: 2010.05.17/outbox.cif.g08.bks.cpg/sg2_224_cif.got.tgz:447826.got - 2010.06.03 11:33:40.
