data_PCOD9090728
_publ_section_title
;
Structure prediction by ZEFSAII (Michael W. Deem and Ramdas Pophale) SiO2 
 PCOD9090728
Probable space group: P -1
;
_chemical_formula_sum "Si O2"
_cell_formula_units_Z 14
_cell_length_a 11.079562
_cell_length_b 5.390548
_cell_length_c 12.727175
_cell_angle_alpha 97.512952
_cell_angle_beta 92.578750
_cell_angle_gamma 135.091664
_cell_volume 521.643406
_symmetry_space_group_name_H-M "P -1"
_symmetry_group_IT_number 2
_symmetry_cell_setting 'triclinic'
loop_
_space_group_symop_operation_xyz
x,y,z
-x,-y,-z
loop_
_atom_site_type_symbol
_atom_site_label
_atom_site_fract_x
_atom_site_fract_y
_atom_site_fract_z
Si Si1 0.339203 0.831670 0.266183
Si Si2 0.010662 0.006008 0.273023
Si Si3 0.233704 0.103892 0.434151
Si Si4 0.555483 0.775157 0.377746
Si Si5 0.071920 0.868529 0.061946
Si Si6 0.405702 0.648114 0.062992
Si Si7 0.647754 0.656409 0.171634
O O1 0.185156 0.409331 0.268566
O O2 0.518072 0.978437 0.327956
O O3 0.351936 0.806416 0.139907
O O4 0.272201 0.967192 0.334618
O O5 0.052749 0.964299 0.388065
O O6 0.005674 0.782631 0.173588
O O7 0.843004 0.919631 0.236439
O O8 0.400888 0.535140 0.445775
O O9 0.267826 0.013771 0.539497
O O10 0.546438 0.549726 0.272443
O O11 0.276676 0.232759 0.077483
O O12 0.000000 0.500000 0.000000
O O13 0.000000 0.000000 0.000000
O O14 0.593948 0.824733 0.114586
O O15 0.380823 0.599862 0.933820
#
# Coordination Sequence:
#
# PCOD9090728 Si02
#       7
#     2   2   2   2   2   2   2
#     4   9  19  37  60  84 112 154 207 252 314 371
#     4  10  22  34  58  87 119 160 200 262 310 380
#     4  10  20  37  61  84 113 155 214 258 310 373
#     4   9  20  38  59  84 114 159 203 262 312 377
#     4  11  23  41  67  95 127 172 218 263 314 381
#     4   9  20  38  62  85 122 163 200 261 310 388
#     4  10  19  39  56  83 130 156 204 253 326 379
#
# _framework density 26.838258
#
# number of rings (size 3 to 8) (size 9 to 14) (size 15 to 20)
#    0.000    2.286    1.429    1.286    4.000    0.571 
#    0.000    9.286    0.000    0.000    0.000    0.000 
#    0.000    0.000    0.000    0.000    0.000    0.000 
#
# Total GULP energy -78104.642418 kJ/mol
# GULP energy per Si atom -5578.903030 kJ/mol
# Density = 2.677717 g / cm^3
# Si number density = 26.838258 Si / 1000 Ang^3
#
#
#
# Elastic Constant Matrix: (Units=GPa)
#
#
# Indices 1 2 3 4 5 6 
#
# 1 101.1330 12.0889 92.3334 0.1387 35.5689 -0.3492
# 2 12.0889 43.7878 25.5308 -2.7163 -0.1647 -11.6697
# 3 92.3334 25.5308 163.0208 1.3579 21.1960 2.1130
# 4 0.1387 -2.7163 1.3579 24.9512 -4.4752 -3.0471
# 5 35.5689 -0.1647 21.1960 -4.4752 83.7597 5.5107
# 6 -0.3492 -11.6697 2.1130 -3.0471 5.5107 30.0134
#
#
#
# Elastic Compliance Matrix: (Units=1/GPa)
#
#
# Indices 1 2 3 4 5 6 
#
# 1 0.024112 0.001762 -0.013043 -0.000126 -0.007151 0.003184
# 2 0.001762 0.029342 -0.005827 0.005048 0.000244 0.012307
# 3 -0.013043 -0.005827 0.014223 -0.001440 0.002111 -0.003952
# 4 -0.000126 0.005048 -0.001440 0.041835 0.002275 0.005892
# 5 -0.007151 0.000244 0.002111 0.002275 0.014735 -0.002612
# 6 0.003184 0.012307 -0.003952 0.005892 -0.002612 0.039497
#
#
# Mechanical properties :
#
#
# Convention : Reuss Voigt Hill
#
# Bulk Modulus (GPa) = 29.88502 63.09421 46.48961
# Shear Modulus (GPa) = 23.91052 39.61075 31.76064
#
# Velocity S-wave (km/s) = 2.98805 3.84592 3.44380
# Velocity P-wave (km/s) = 4.80250 6.57887 5.75958
#
# Compressibility (1/GPa) = 0.03346158
#
# Stress axis : x y z
#
# Youngs Moduli (GPa) = 41.47331 34.08060 70.30925
#
# Poissons Ratio (x) = -0.06005 0.91705
# Poissons Ratio (y) = -0.07307 0.40966
# Poissons Ratio (z) = 0.54094 0.19857
#
# Static dielectric constant tensor:
#      x y z
#    x 2.162300 -0.009970 0.030210 
#    y -0.009970 2.211120 0.048630 
#    z 0.030210 0.048630 2.136660 
# 
# From -- ./inp_files/511095.got.cif
#   From: 2010.05.17/outbox.cif.g08.bks.cpg/sg2_256_cif.got.tgz:511095.got - 2010.06.03 11:33:40.
