data_PCOD9090037
_publ_section_title
;
Structure prediction by ZEFSAII (Michael W. Deem and Ramdas Pophale) SiO2 
 PCOD9090037
Probable space group: P -1
;
_chemical_formula_sum "Si O2"
_cell_formula_units_Z 12
_cell_length_a 7.647628
_cell_length_b 16.170840
_cell_length_c 5.068957
_cell_angle_alpha 59.408680
_cell_angle_beta 107.729775
_cell_angle_gamma 115.758699
_cell_volume 483.183406
_symmetry_space_group_name_H-M "P -1"
_symmetry_group_IT_number 2
_symmetry_cell_setting 'triclinic'
loop_
_space_group_symop_operation_xyz
x,y,z
-x,-y,-z
loop_
_atom_site_type_symbol
_atom_site_label
_atom_site_fract_x
_atom_site_fract_y
_atom_site_fract_z
Si Si1 0.127357 0.054636 0.724299
Si Si2 0.461553 0.574628 0.083489
Si Si3 0.377820 0.231970 0.864423
Si Si4 0.922054 0.544446 0.640064
Si Si5 0.525754 0.916963 0.457532
Si Si6 0.270785 0.720169 0.443923
O O1 0.218393 0.175815 0.657627
O O2 0.331832 0.036365 0.796478
O O3 0.000000 0.000000 0.500000
O O4 0.000000 0.000000 0.000000
O O5 0.627703 0.665677 0.164316
O O6 0.308543 0.504921 0.339724
O O7 0.500000 0.500000 0.000000
O O8 0.358625 0.644908 0.765748
O O9 0.597790 0.261434 0.791381
O O10 0.366453 0.148354 0.218828
O O11 0.000000 0.500000 0.500000
O O12 0.039940 0.663760 0.453714
O O13 0.000000 0.500000 0.000000
O O14 0.328349 0.831237 0.416558
O O15 0.500000 0.000000 0.500000
#
# Coordination Sequence:
#
# PCOD9090037 Si02
#       6
#     2   2   2   2   2   2
#     4  11  22  42  67  91 129 174 212 267 330 381
#     4  10  21  38  64  95 129 169 213 263 317 380
#     4  10  20  40  67  91 135 168 217 263 330 379
#     4  10  19  38  63  88 125 165 207 254 313 377
#     4  10  22  41  68  95 126 168 217 269 322 383
#     4   9  20  37  62  89 125 171 208 257 321 379
#
# _framework density 24.835290000000001
#
# number of rings (size 3 to 8) (size 9 to 14) (size 15 to 20)
#    0.000    2.000    3.333    0.000    0.000    3.333 
#    3.000    0.000    0.000    0.000    0.000    0.000 
#    0.000    0.000    0.000    0.000    0.000    0.000 
#
# Total GULP energy -66950.624183 kJ/mol
# GULP energy per Si atom -5579.218682 kJ/mol
# Density = 2.477876 g / cm^3
# Si number density = 24.835290 Si / 1000 Ang^3
#
#
#
# Elastic Constant Matrix: (Units=GPa)
#
#
# Indices 1 2 3 4 5 6 
#
# 1 113.5919 95.8248 38.5596 -9.6381 -40.7304 17.2211
# 2 95.8248 291.8730 56.1430 7.5499 -32.5899 -0.1936
# 3 38.5596 56.1430 109.2064 7.1519 -38.8328 -4.6292
# 4 -9.6381 7.5499 7.1519 47.9393 -1.4035 -4.6869
# 5 -40.7304 -32.5899 -38.8328 -1.4035 55.6155 -4.7792
# 6 17.2211 -0.1936 -4.6292 -4.6869 -4.7792 54.7592
#
#
#
# Elastic Compliance Matrix: (Units=1/GPa)
#
#
# Indices 1 2 3 4 5 6 
#
# 1 0.017240 -0.004576 -0.001003 0.004171 0.008972 -0.004383
# 2 -0.004576 0.005078 -0.001283 -0.001454 -0.001212 0.001118
# 3 -0.001003 -0.001283 0.013134 -0.001537 0.007815 0.001972
# 4 0.004171 -0.001454 -0.001537 0.022267 0.001743 0.000611
# 5 0.008972 -0.001212 0.007815 0.001743 0.029389 0.000549
# 6 -0.004383 0.001118 0.001972 0.000611 0.000549 0.019911
#
#
# Mechanical properties :
#
#
# Convention : Reuss Voigt Hill
#
# Bulk Modulus (GPa) = 46.02524 99.52512 72.77518
# Shear Modulus (GPa) = 39.06659 53.27239 46.16949
#
# Velocity S-wave (km/s) = 3.97044 4.63647 4.31632
# Velocity P-wave (km/s) = 6.29219 8.29599 7.36258
#
# Compressibility (1/GPa) = 0.02172721
#
# Stress axis : x y z
#
# Youngs Moduli (GPa) = 58.00573 196.91330 76.13809
#
# Poissons Ratio (x) = 0.90107 0.07637
# Poissons Ratio (y) = 0.26543 0.09772
# Poissons Ratio (z) = 0.05818 0.25273
#
# Static dielectric constant tensor:
#      x y z
#    x 2.170230 0.128690 0.110090 
#    y 0.128690 2.161870 0.076020 
#    z 0.110090 0.076020 2.077610 
# 
# From -- ./inp_files/31731.got.cif
#   From: 2010.05.17/outbox.cif.g08.bks.cpg/sg2_16_cif.got.tgz:31731.got - 2010.06.03 11:33:40.
