data_PCOD9090675
_publ_section_title
;
Structure prediction by ZEFSAII (Michael W. Deem and Ramdas Pophale) SiO2 
 PCOD9090675
Probable space group: P -1
;
_chemical_formula_sum "Si O2"
_cell_formula_units_Z 16
_cell_length_a 8.163776
_cell_length_b 9.791139
_cell_length_c 11.846165
_cell_angle_alpha 79.538959
_cell_angle_beta 128.888048
_cell_angle_gamma 101.332123
_cell_volume 720.565351
_symmetry_space_group_name_H-M "P -1"
_symmetry_group_IT_number 2
_symmetry_cell_setting 'triclinic'
loop_
_space_group_symop_operation_xyz
x,y,z
-x,-y,-z
loop_
_atom_site_type_symbol
_atom_site_label
_atom_site_fract_x
_atom_site_fract_y
_atom_site_fract_z
Si Si1 0.915208 0.292662 0.323191
Si Si2 0.230249 0.231805 0.655927
Si Si3 0.071786 0.354144 0.012385
Si Si4 0.383406 0.696117 0.363034
Si Si5 0.281786 0.432390 0.859370
Si Si6 0.696494 0.628949 0.680504
Si Si7 0.399817 0.965264 0.838787
Si Si8 0.188365 0.905827 0.118653
O O1 0.838691 0.444821 0.263363
O O2 0.720793 0.185524 0.212938
O O3 0.018246 0.259917 0.493222
O O4 0.105700 0.295501 0.314323
O O5 0.420967 0.264841 0.643741
O O6 0.294346 0.325037 0.779200
O O7 0.231172 0.073256 0.719973
O O8 0.268391 0.333354 0.180508
O O9 0.148525 0.361090 0.916578
O O10 0.000000 0.500000 0.000000
O O11 0.881389 0.232333 0.966378
O O12 0.481892 0.676062 0.530941
O O13 0.298199 0.537577 0.313833
O O14 0.238163 0.822621 0.267796
O O15 0.500000 0.500000 0.000000
O O16 0.599399 0.001851 0.838031
O O17 0.500000 0.000000 0.000000
O O18 0.000000 0.000000 0.000000
#
# Coordination Sequence:
#
# PCOD9090675 Si02
#       8
#     2   2   2   2   2   2   2   2
#     4  11  22  41  66  96 130 174 220 268 331 388
#     4  10  23  41  65  97 132 173 219 270 328 391
#     4  12  23  42  67  94 126 168 221 266 328 386
#     4   9  19  40  67  95 130 167 212 265 332 385
#     4  12  25  38  67  99 134 165 218 281 319 386
#     4  10  19  38  69  96 122 168 218 268 316 392
#     4  11  24  42  68  92 131 178 217 264 327 401
#     4  11  25  42  65  94 133 167 214 272 325 389
#
# _framework density 22.204788000000001
#
# number of rings (size 3 to 8) (size 9 to 14) (size 15 to 20)
#    0.000    1.250    2.500    3.000    5.250    0.000 
#    0.000    1.875    0.000    0.000    0.000    0.000 
#    0.000    0.000    0.000    0.000    0.000    0.000 
#
# Total GULP energy -89372.026071 kJ/mol
# GULP energy per Si atom -5585.751629 kJ/mol
# Density = 2.215425 g / cm^3
# Si number density = 22.204788 Si / 1000 Ang^3
#
#
#
# Elastic Constant Matrix: (Units=GPa)
#
#
# Indices 1 2 3 4 5 6 
#
# 1 32.4834 12.7997 0.7482 -4.5546 7.7628 7.5517
# 2 12.7997 81.9958 8.3980 -7.3559 4.6019 9.7490
# 3 0.7482 8.3980 113.4822 -26.6861 6.1640 -9.4875
# 4 -4.5546 -7.3559 -26.6861 44.0191 -1.7966 11.0724
# 5 7.7628 4.6019 6.1640 -1.7966 32.3336 2.6170
# 6 7.5517 9.7490 -9.4875 11.0724 2.6170 33.5735
#
#
#
# Elastic Compliance Matrix: (Units=1/GPa)
#
#
# Indices 1 2 3 4 5 6 
#
# 1 0.036764 -0.003978 0.001084 0.005512 -0.007510 -0.008041
# 2 -0.003978 0.013609 -0.000728 0.002419 -0.000382 -0.004031
# 3 0.001084 -0.000728 0.010460 0.005977 -0.001908 0.001101
# 4 0.005512 0.002419 0.005977 0.029834 -0.000335 -0.010066
# 5 -0.007510 -0.000382 -0.001908 -0.000335 0.033229 -0.001219
# 6 -0.008041 -0.004031 0.001101 -0.010066 -0.001219 0.036490
#
#
# Mechanical properties :
#
#
# Convention : Reuss Voigt Hill
#
# Bulk Modulus (GPa) = 18.66057 30.20588 24.43322
# Shear Modulus (GPa) = 26.95512 35.71963 31.33738
#
# Velocity S-wave (km/s) = 3.48793 4.01514 3.76079
# Velocity P-wave (km/s) = 4.96417 5.92689 5.46676
#
# Compressibility (1/GPa) = 0.05358892
#
# Stress axis : x y z
#
# Youngs Moduli (GPa) = 27.20027 73.48043 95.60356
#
# Poissons Ratio (x) = 0.29230 -0.10363
# Poissons Ratio (y) = 0.10820 0.06961
# Poissons Ratio (z) = -0.02948 0.05351
#
# Static dielectric constant tensor:
#      x y z
#    x 1.825290 0.005260 0.034300 
#    y 0.005260 1.794780 -0.047420 
#    z 0.034300 -0.047420 1.903110 
# 
# From -- ./inp_files/382128.got.cif
#   From: 2010.05.17/outbox.cif.g08.bks.cpg/sg2_192_cif.got.tgz:382128.got - 2010.06.03 11:33:40.
