data_PCOD9090853
_publ_section_title
;
Structure prediction by ZEFSAII (Michael W. Deem and Ramdas Pophale) SiO2 
 PCOD9090853
Probable space group: P -1
;
_chemical_formula_sum "Si O2"
_cell_formula_units_Z 16
_cell_length_a 13.321504
_cell_length_b 16.267168
_cell_length_c 8.026359
_cell_angle_alpha 108.536494
_cell_angle_beta 96.630254
_cell_angle_gamma 24.560861
_cell_volume 615.307066
_symmetry_space_group_name_H-M "P -1"
_symmetry_group_IT_number 2
_symmetry_cell_setting 'triclinic'
loop_
_space_group_symop_operation_xyz
x,y,z
-x,-y,-z
loop_
_atom_site_type_symbol
_atom_site_label
_atom_site_fract_x
_atom_site_fract_y
_atom_site_fract_z
Si Si1 0.495545 0.724550 0.866285
Si Si2 0.313912 0.174175 0.425011
Si Si3 0.137478 0.404275 0.138888
Si Si4 0.521844 0.193721 0.438802
Si Si5 0.097340 0.004285 0.411370
Si Si6 0.663466 0.486084 0.035672
Si Si7 0.044140 0.302951 0.179055
Si Si8 0.083448 0.836292 0.867866
O O1 0.478476 0.739163 0.673150
O O2 0.667212 0.672286 0.902847
O O3 0.616411 0.544453 0.867710
O O4 0.201729 0.982938 0.042737
O O5 0.047951 0.420204 0.627596
O O6 0.468320 0.134980 0.347414
O O7 0.219305 0.165313 0.294826
O O8 0.500000 0.000000 0.500000
O O9 0.208210 0.249585 0.091276
O O10 0.000000 0.500000 0.000000
O O11 0.796991 0.997576 0.462773
O O12 0.254770 0.429465 0.644293
O O13 0.380113 0.747692 0.219456
O O14 0.882245 0.195907 0.346216
O O15 0.000000 0.000000 0.500000
O O16 0.936989 0.320321 0.033305
O O17 0.713686 0.360297 0.078889
O O18 0.000000 0.000000 0.000000
#
# Coordination Sequence:
#
# PCOD9090853 Si02
#       8
#     2   2   2   2   2   2   2   2
#     4  11  21  40  65  93 128 172 215 262 326 384
#     4  11  23  35  59  95 134 176 218 269 319 384
#     4  11  20  38  61  88 130 176 210 260 319 378
#     4  10  20  40  62  89 130 174 213 261 326 379
#     4  10  23  44  69  95 123 164 216 273 326 387
#     4  10  24  41  68  97 126 171 215 266 332 394
#     4  10  19  39  60  89 130 169 217 260 318 382
#     4  11  26  46  65  93 130 165 214 276 334 392
#
# _framework density 26.003277000000001
#
# number of rings (size 3 to 8) (size 9 to 14) (size 15 to 20)
#    0.000    1.500    3.750    1.500    3.500    3.500 
#    0.000    5.000    0.000    0.000    0.000    0.000 
#    0.000    0.000    0.000    0.000    0.000    0.000 
#
# Total GULP energy -89173.131370 kJ/mol
# GULP energy per Si atom -5573.320711 kJ/mol
# Density = 2.594409 g / cm^3
# Si number density = 26.003277 Si / 1000 Ang^3
#
#
#
# Elastic Constant Matrix: (Units=GPa)
#
#
# Indices 1 2 3 4 5 6 
#
# 1 74.1518 8.1716 31.7206 -17.9144 -18.8713 -11.8589
# 2 8.1716 128.4505 38.7649 -42.4481 -9.5853 12.1677
# 3 31.7206 38.7649 71.9388 -21.5723 -11.6032 7.1472
# 4 -17.9144 -42.4481 -21.5723 47.4479 -3.7973 -6.4605
# 5 -18.8713 -9.5853 -11.6032 -3.7973 43.1459 -8.4190
# 6 -11.8589 12.1677 7.1472 -6.4605 -8.4190 44.7423
#
#
#
# Elastic Compliance Matrix: (Units=1/GPa)
#
#
# Indices 1 2 3 4 5 6 
#
# 1 0.024691 0.005141 -0.008982 0.012319 0.012708 0.010751
# 2 0.005141 0.013239 -0.005084 0.012059 0.005134 0.001281
# 3 -0.008982 -0.005084 0.021377 0.001199 -0.000032 -0.004246
# 4 0.012319 0.012059 0.001199 0.039219 0.013398 0.007978
# 5 0.012708 0.005134 -0.000032 0.013398 0.033022 0.010126
# 6 0.010751 0.001281 -0.004246 0.007978 0.010126 0.028587
#
#
# Mechanical properties :
#
#
# Convention : Reuss Voigt Hill
#
# Bulk Modulus (GPa) = 24.12145 47.98394 36.05269
# Shear Modulus (GPa) = 26.06831 40.12615 33.09723
#
# Velocity S-wave (km/s) = 3.16966 3.93252 3.57152
# Velocity P-wave (km/s) = 4.76363 6.25401 5.55899
#
# Compressibility (1/GPa) = 0.04145688
#
# Stress axis : x y z
#
# Youngs Moduli (GPa) = 40.50025 75.53438 46.77969
#
# Poissons Ratio (x) = -0.38829 0.42016
# Poissons Ratio (y) = -0.20819 0.23782
# Poissons Ratio (z) = 0.36376 0.38401
#
# Static dielectric constant tensor:
#      x y z
#    x 2.177590 0.064020 0.164360 
#    y 0.064020 2.128510 -0.103670 
#    z 0.164360 -0.103670 1.911810 
# 
# From -- ./inp_files/273122.got.cif
#   From: 2010.05.17/outbox.cif.g08.bks.cpg/sg2_137_cif.got.tgz:273122.got - 2010.06.03 11:33:40.
