data_PCOD9090123
_publ_section_title
;
Structure prediction by ZEFSAII (Michael W. Deem and Ramdas Pophale) SiO2 
 PCOD9090123
Probable space group: P -1
;
_chemical_formula_sum "Si O2"
_cell_formula_units_Z 14
_cell_length_a 13.004928
_cell_length_b 15.018511
_cell_length_c 13.073171
_cell_angle_alpha 30.024993
_cell_angle_beta 147.839638
_cell_angle_gamma 130.040310
_cell_volume 640.417434
_symmetry_space_group_name_H-M "P -1"
_symmetry_group_IT_number 2
_symmetry_cell_setting 'triclinic'
loop_
_space_group_symop_operation_xyz
x,y,z
-x,-y,-z
loop_
_atom_site_type_symbol
_atom_site_label
_atom_site_fract_x
_atom_site_fract_y
_atom_site_fract_z
Si Si1 0.341478 0.317941 0.266400
Si Si2 0.004581 0.874009 0.869411
Si Si3 0.262622 0.373817 0.696010
Si Si4 0.580566 0.394399 0.568393
Si Si5 0.616012 0.963410 0.740019
Si Si6 0.908659 0.248301 0.704934
Si Si7 0.147360 0.715345 0.606461
O O1 0.151380 0.241342 0.167135
O O2 0.407607 0.336763 0.419345
O O3 0.534309 0.162817 0.529599
O O4 0.295077 0.519232 0.971696
O O5 0.888953 0.097122 0.544196
O O6 0.210218 0.784681 0.065439
O O7 0.083882 0.841546 0.086196
O O8 0.355009 0.466135 0.593146
O O9 0.166126 0.532467 0.543265
O O10 0.074582 0.314733 0.554203
O O11 0.423994 0.192732 0.065357
O O12 0.500000 0.500000 0.500000
O O13 0.500000 0.000000 0.500000
O O14 0.855709 0.864608 0.016268
O O15 0.797697 0.251878 0.498016
#
# Coordination Sequence:
#
# PCOD9090123 Si02
#       7
#     2   2   2   2   2   2   2
#     4  12  25  42  69 101 135 174 230 273 330 411
#     4  11  24  45  66  98 140 176 219 281 335 400
#     4  10  21  41  67  94 141 179 221 276 333 391
#     4  11  26  49  72  94 127 178 236 295 340 380
#     4  11  19  35  64 106 139 174 216 256 324 421
#     4  10  19  38  63  98 143 186 211 262 337 403
#     4  11  21  41  68  96 141 181 210 265 344 407
#
# _framework density 21.860741999999998
#
# number of rings (size 3 to 8) (size 9 to 14) (size 15 to 20)
#    0.000    1.143    4.286    4.714    2.000    1.714 
#    0.000    7.857    0.000    0.000    0.000    0.000 
#    0.000    0.000    0.000    0.000    0.000    0.000 
#
# Total GULP energy -78209.888768 kJ/mol
# GULP energy per Si atom -5586.420626 kJ/mol
# Density = 2.181099 g / cm^3
# Si number density = 21.860742 Si / 1000 Ang^3
#
#
#
# Elastic Constant Matrix: (Units=GPa)
#
#
# Indices 1 2 3 4 5 6 
#
# 1 83.5039 50.7914 46.1169 -13.4451 20.6523 -25.1459
# 2 50.7914 139.3367 65.1233 -7.4826 10.6071 -15.5179
# 3 46.1169 65.1233 178.8587 -30.4365 9.3726 -15.9463
# 4 -13.4451 -7.4826 -30.4365 49.5970 3.0768 4.0152
# 5 20.6523 10.6071 9.3726 3.0768 30.4591 -10.8855
# 6 -25.1459 -15.5179 -15.9463 4.0152 -10.8855 38.2120
#
#
#
# Elastic Compliance Matrix: (Units=1/GPa)
#
#
# Indices 1 2 3 4 5 6 
#
# 1 0.021630 -0.005186 -0.001776 0.003935 -0.009785 0.008185
# 2 -0.005186 0.010166 -0.002681 -0.001581 0.000976 0.000041
# 3 -0.001776 -0.002681 0.007746 0.003862 -0.000481 0.000432
# 4 0.003935 -0.001581 0.003862 0.023780 -0.005933 -0.000630
# 5 -0.009785 0.000976 -0.000481 -0.005933 0.042157 0.006389
# 6 0.008185 0.000041 0.000432 -0.000630 0.006389 0.033639
#
#
# Mechanical properties :
#
#
# Convention : Reuss Voigt Hill
#
# Bulk Modulus (GPa) = 49.37176 80.64028 65.00602
# Shear Modulus (GPa) = 30.27442 39.63146 34.95294
#
# Velocity S-wave (km/s) = 3.72543 4.26244 4.00295
# Velocity P-wave (km/s) = 6.41395 7.82258 7.15303
#
# Compressibility (1/GPa) = 0.02025449
#
# Stress axis : x y z
#
# Youngs Moduli (GPa) = 46.23253 98.37012 129.09734
#
# Poissons Ratio (x) = 0.51019 0.22933
# Poissons Ratio (y) = 0.23978 0.34607
# Poissons Ratio (z) = 0.08213 0.26370
#
# Static dielectric constant tensor:
#      x y z
#    x 1.831530 0.134240 -0.004430 
#    y 0.134240 1.914390 0.000700 
#    z -0.004430 0.000700 1.831170 
# 
# From -- ./inp_files/534156.got.cif
#   From: 2010.05.17/outbox.cif.g08.bks.cpg/sg2_268_cif.got.tgz:534156.got - 2010.06.03 11:33:40.
