data_PCOD9090526
_publ_section_title
;
Structure prediction by ZEFSAII (Michael W. Deem and Ramdas Pophale) SiO2 
 PCOD9090526
Probable space group: P -1
;
_chemical_formula_sum "Si O2"
_cell_formula_units_Z 16
_cell_length_a 5.235286
_cell_length_b 8.462477
_cell_length_c 19.921234
_cell_angle_alpha 69.981283
_cell_angle_beta 92.333395
_cell_angle_gamma 62.921136
_cell_volume 717.686499
_symmetry_space_group_name_H-M "P -1"
_symmetry_group_IT_number 2
_symmetry_cell_setting 'triclinic'
loop_
_space_group_symop_operation_xyz
x,y,z
-x,-y,-z
loop_
_atom_site_type_symbol
_atom_site_label
_atom_site_fract_x
_atom_site_fract_y
_atom_site_fract_z
Si Si1 0.841083 0.445274 0.947673
Si Si2 0.300483 0.296485 0.579728
Si Si3 0.763099 0.202849 0.092087
Si Si4 0.674877 0.074003 0.800492
Si Si5 0.664370 0.869124 0.085820
Si Si6 0.107669 0.129602 0.706702
Si Si7 0.081894 0.018480 0.388966
Si Si8 0.913475 0.297846 0.463193
O O1 0.534524 0.635645 0.899694
O O2 0.067220 0.331962 0.907630
O O3 0.772069 0.293384 0.007451
O O4 0.000000 0.500000 0.000000
O O5 0.071162 0.301078 0.631796
O O6 0.587908 0.086742 0.620411
O O7 0.182187 0.306266 0.501905
O O8 0.341883 0.479285 0.568187
O O9 0.761207 0.006239 0.105377
O O10 0.054091 0.140744 0.147882
O O11 0.544750 0.160836 0.860114
O O12 0.403888 0.077091 0.758014
O O13 0.832781 0.170294 0.745669
O O14 0.500000 0.000000 0.000000
O O15 0.122325 0.970932 0.676368
O O16 0.115253 0.855260 0.467287
O O17 0.980901 0.210839 0.402413
#
# Coordination Sequence:
#
# PCOD9090526 Si02
#       8
#     2   2   2   2   2   2   2   2
#     4  11  23  40  66 109 131 161 215 289 351 408
#     4  10  19  38  66  97 142 173 224 281 337 390
#     4  11  23  40  71  97 138 167 218 281 345 419
#     4  12  24  44  72  94 132 190 232 272 350 416
#     4  12  23  41  73 101 130 173 222 285 352 403
#     4  11  24  42  70  92 134 194 229 270 337 415
#     4  10  19  38  67  98 139 173 227 280 335 392
#     4   9  20  34  66 111 126 176 223 284 336 391
#
# _framework density 22.293856999999999
#
# number of rings (size 3 to 8) (size 9 to 14) (size 15 to 20)
#    0.000    1.250    5.000    1.125    0.000    0.000 
#    0.000    0.000   13.750    0.000    0.000    0.000 
#    0.000    0.000    0.000    0.000    0.000    0.000 
#
# Total GULP energy -89277.343303 kJ/mol
# GULP energy per Si atom -5579.833956 kJ/mol
# Density = 2.224312 g / cm^3
# Si number density = 22.293857 Si / 1000 Ang^3
#
#
#
# Elastic Constant Matrix: (Units=GPa)
#
#
# Indices 1 2 3 4 5 6 
#
# 1 123.6657 46.1211 51.7460 10.1283 -4.2360 -19.8066
# 2 46.1211 104.9244 29.6975 20.5861 -19.2157 -14.4252
# 3 51.7460 29.6975 107.2508 20.3416 -7.8550 -8.6492
# 4 10.1283 20.5861 20.3416 15.6259 -10.9140 -2.7325
# 5 -4.2360 -19.2157 -7.8550 -10.9140 42.5965 -1.3667
# 6 -19.8066 -14.4252 -8.6492 -2.7325 -1.3667 36.8495
#
#
#
# Elastic Compliance Matrix: (Units=1/GPa)
#
#
# Indices 1 2 3 4 5 6 
#
# 1 0.012151 -0.004385 -0.005376 0.005417 -0.000247 0.003945
# 2 -0.004385 0.015181 0.001532 -0.016964 0.002437 0.002778
# 3 -0.005376 0.001532 0.015040 -0.019639 -0.002111 -0.000294
# 4 0.005417 -0.016964 -0.019639 0.123274 0.020900 0.001577
# 5 -0.000247 0.002437 -0.002111 0.020900 0.029612 0.002974
# 6 0.003945 0.002778 -0.000294 0.001577 0.002974 0.030504
#
#
# Mechanical properties :
#
#
# Convention : Reuss Voigt Hill
#
# Bulk Modulus (GPa) = 38.58804 65.66336 52.12570
# Shear Modulus (GPa) = 19.93165 32.89946 26.41555
#
# Velocity S-wave (km/s) = 2.99330 3.84568 3.44594
# Velocity P-wave (km/s) = 5.41229 7.01687 6.26615
#
# Compressibility (1/GPa) = 0.02591476
#
# Stress axis : x y z
#
# Youngs Moduli (GPa) = 82.29860 65.87054 66.49076
#
# Poissons Ratio (x) = 0.28885 0.35742
# Poissons Ratio (y) = 0.36089 -0.10187
# Poissons Ratio (z) = 0.44240 -0.10092
#
# Static dielectric constant tensor:
#      x y z
#    x 1.914740 -0.026050 -0.013970 
#    y -0.026050 1.788370 -0.012990 
#    z -0.013970 -0.012990 1.901200 
# 
# From -- ./inp_files/581950.got.cif
#   From: 2010.05.17/outbox.cif.g08.bks.cpg/sg2_291_cif.got.tgz:581950.got - 2010.06.03 11:33:40.
