data_PCOD9090779
_publ_section_title
;
Structure prediction by ZEFSAII (Michael W. Deem and Ramdas Pophale) SiO2 
 PCOD9090779
Probable space group: P -1
;
_chemical_formula_sum "Si O2"
_cell_formula_units_Z 16
_cell_length_a 9.084626
_cell_length_b 5.349660
_cell_length_c 19.385057
_cell_angle_alpha 94.163011
_cell_angle_beta 82.602874
_cell_angle_gamma 124.644896
_cell_volume 768.612681
_symmetry_space_group_name_H-M "P -1"
_symmetry_group_IT_number 2
_symmetry_cell_setting 'triclinic'
loop_
_space_group_symop_operation_xyz
x,y,z
-x,-y,-z
loop_
_atom_site_type_symbol
_atom_site_label
_atom_site_fract_x
_atom_site_fract_y
_atom_site_fract_z
Si Si1 0.795769 0.761729 0.300726
Si Si2 0.890388 0.007243 0.097132
Si Si3 0.572558 0.806439 0.209422
Si Si4 0.506713 0.526368 0.418386
Si Si5 0.242194 0.618366 0.137860
Si Si6 0.023785 0.484161 0.282898
Si Si7 0.621937 0.121205 0.649980
Si Si8 0.892660 0.192912 0.956482
O O1 0.637676 0.637677 0.250225
O O2 0.707766 0.727875 0.379457
O O3 0.881282 0.570924 0.293221
O O4 0.934050 0.122212 0.283740
O O5 0.749319 0.007366 0.155245
O O6 0.946022 0.770806 0.099115
O O7 0.089608 0.304314 0.105568
O O8 0.827639 0.962949 0.020361
O O9 0.411795 0.636914 0.160056
O O10 0.499553 0.928179 0.275248
O O11 0.500000 0.500000 0.500000
O O12 0.418769 0.697445 0.398517
O O13 0.422004 0.194355 0.383100
O O14 0.140723 0.631439 0.210153
O O15 0.265141 0.854694 0.083504
O O16 0.169908 0.657142 0.337426
O O17 0.000000 0.500000 0.000000
#
# Coordination Sequence:
#
# PCOD9090779 Si02
#       8
#     2   2   2   2   2   2   2   2
#     4  11  22  40  64  93 125 170 215 259 330 376
#     4  10  19  39  59  82 120 160 213 262 322 381
#     4  10  21  38  60  92 121 162 214 267 323 382
#     4  11  23  43  66  93 135 176 213 260 322 388
#     4  10  21  36  58  89 120 163 210 265 328 374
#     4  11  22  40  66  94 131 166 216 279 314 380
#     4  10  23  42  64  99 131 167 221 266 321 382
#     4   9  20  38  58  81 120 165 207 262 320 387
#
# _framework density 20.816725000000002
#
# number of rings (size 3 to 8) (size 9 to 14) (size 15 to 20)
#    0.000    1.750    1.250    3.375    0.000    0.500 
#    9.000    9.375    0.000    0.000    0.000    0.000 
#    0.000    0.000    0.000    0.000    0.000    0.000 
#
# Total GULP energy -89076.851144 kJ/mol
# GULP energy per Si atom -5567.303197 kJ/mol
# Density = 2.076934 g / cm^3
# Si number density = 20.816725 Si / 1000 Ang^3
#
#
#
# Elastic Constant Matrix: (Units=GPa)
#
#
# Indices 1 2 3 4 5 6 
#
# 1 90.4794 28.7035 22.2250 -2.0037 14.1085 10.5490
# 2 28.7035 57.4017 21.2770 -0.0902 22.1010 -3.5462
# 3 22.2250 21.2770 106.7496 -8.4186 14.1723 12.1940
# 4 -2.0037 -0.0902 -8.4186 21.9014 0.8573 3.6685
# 5 14.1085 22.1010 14.1723 0.8573 17.9748 0.0247
# 6 10.5490 -3.5462 12.1940 3.6685 0.0247 25.3898
#
#
#
# Elastic Compliance Matrix: (Units=1/GPa)
#
#
# Indices 1 2 3 4 5 6 
#
# 1 0.014548 -0.006176 -0.000292 0.002533 -0.003706 -0.007130
# 2 -0.006176 0.036661 -0.001997 -0.001153 -0.038612 0.008850
# 3 -0.000292 -0.001997 0.012012 0.005996 -0.007063 -0.006786
# 4 0.002533 -0.001153 0.005996 0.050396 -0.007686 -0.011367
# 5 -0.003706 -0.038612 -0.007063 -0.007686 0.111953 0.000541
# 6 -0.007130 0.008850 -0.006786 -0.011367 0.000541 0.048485
#
#
# Mechanical properties :
#
#
# Convention : Reuss Voigt Hill
#
# Bulk Modulus (GPa) = 21.60206 44.33798 32.97002
# Shear Modulus (GPa) = 16.31766 25.21486 20.76626
#
# Velocity S-wave (km/s) = 2.80281 3.48412 3.16187
# Velocity P-wave (km/s) = 4.56882 6.12625 5.40393
#
# Compressibility (1/GPa) = 0.04629188
#
# Stress axis : x y z
#
# Youngs Moduli (GPa) = 68.73571 27.27683 83.24821
#
# Poissons Ratio (x) = 0.16847 0.02429
# Poissons Ratio (y) = 0.42454 0.16624
# Poissons Ratio (z) = 0.02005 0.05447
#
# Static dielectric constant tensor:
#      x y z
#    x 1.816740 -0.074860 0.003650 
#    y -0.074860 1.895220 -0.034250 
#    z 0.003650 -0.034250 1.778650 
# 
# From -- ./inp_files/106288.got.cif
#   From: 2010.05.17/outbox.cif.g08.bks.cpg/sg2_54_cif.got.tgz:106288.got - 2010.06.03 11:33:40.
