data_PCOD9090023
_publ_section_title
;
Structure prediction by ZEFSAII (Michael W. Deem and Ramdas Pophale) SiO2 
 PCOD9090023
Probable space group: P -1
;
_chemical_formula_sum "Si O2"
_cell_formula_units_Z 12
_cell_length_a 13.673778
_cell_length_b 8.708618
_cell_length_c 9.202377
_cell_angle_alpha 108.619362
_cell_angle_beta 44.805892
_cell_angle_gamma 75.201219
_cell_volume 506.580944
_symmetry_space_group_name_H-M "P -1"
_symmetry_group_IT_number 2
_symmetry_cell_setting 'triclinic'
loop_
_space_group_symop_operation_xyz
x,y,z
-x,-y,-z
loop_
_atom_site_type_symbol
_atom_site_label
_atom_site_fract_x
_atom_site_fract_y
_atom_site_fract_z
Si Si1 0.904735 0.832779 0.155026
Si Si2 0.230260 0.871186 0.075091
Si Si3 0.572002 0.669836 0.823740
Si Si4 0.292512 0.726192 0.656654
Si Si5 0.164063 0.634547 0.290914
Si Si6 0.924168 0.603796 0.343708
O O1 0.880861 0.777592 0.321745
O O2 0.728623 0.091524 0.357907
O O3 0.091311 0.799418 0.940590
O O4 0.952994 0.642338 0.941244
O O5 0.201220 0.727283 0.147872
O O6 0.345381 0.888608 0.075582
O O7 0.353211 0.741233 0.757339
O O8 0.011405 0.133718 0.356783
O O9 0.620569 0.475504 0.609891
O O10 0.638212 0.563612 0.883097
O O11 0.719855 0.691433 0.635915
O O12 0.064487 0.558614 0.306717
#
# Coordination Sequence:
#
# PCOD9090023 Si02
#       6
#     2   2   2   2   2   2
#     4   9  18  35  64  90 117 161 202 241 303 358
#     4  11  23  40  63  92 120 161 204 246 296 362
#     4  11  24  39  64  93 121 156 205 250 298 354
#     4  10  19  38  63  88 118 160 206 245 290 362
#     4  11  23  40  63  88 125 162 197 246 306 357
#     4  10  20  37  61  91 124 157 197 252 303 352
#
# _framework density 23.688217000000002
#
# number of rings (size 3 to 8) (size 9 to 14) (size 15 to 20)
#    0.000    1.667    1.667    4.500    2.333    0.667 
#    0.000    0.833    0.000    0.000    0.000    0.000 
#    0.000    0.000    0.000    0.000    0.000    0.000 
#
# Total GULP energy -67039.973175 kJ/mol
# GULP energy per Si atom -5586.664431 kJ/mol
# Density = 2.363430 g / cm^3
# Si number density = 23.688217 Si / 1000 Ang^3
#
#
#
# Elastic Constant Matrix: (Units=GPa)
#
#
# Indices 1 2 3 4 5 6 
#
# 1 150.2051 43.2188 9.3688 2.1540 3.9367 2.0605
# 2 43.2188 116.0766 12.3244 -18.3853 15.8320 1.4434
# 3 9.3688 12.3244 43.3920 -3.6499 10.5959 6.1467
# 4 2.1540 -18.3853 -3.6499 14.8368 4.4181 1.4260
# 5 3.9367 15.8320 10.5959 4.4181 34.7986 -1.2854
# 6 2.0605 1.4434 6.1467 1.4260 -1.2854 34.3478
#
#
#
# Elastic Compliance Matrix: (Units=1/GPa)
#
#
# Indices 1 2 3 4 5 6 
#
# 1 0.008097 -0.004464 -0.001889 -0.008029 0.002727 0.000475
# 2 -0.004464 0.015089 0.001221 0.022712 -0.009685 -0.001890
# 3 -0.001889 0.001221 0.027512 0.012231 -0.010485 -0.005762
# 4 -0.008029 0.022712 0.012231 0.108618 -0.027242 -0.008190
# 5 0.002727 -0.009685 -0.010485 -0.027242 0.039661 0.004735
# 6 0.000475 -0.001890 -0.005762 -0.008190 0.004735 0.030713
#
#
# Mechanical properties :
#
#
# Convention : Reuss Voigt Hill
#
# Bulk Modulus (GPa) = 24.73095 48.83308 36.78202
# Shear Modulus (GPa) = 19.72921 33.11411 26.42166
#
# Velocity S-wave (km/s) = 2.88908 3.74293 3.34337
# Velocity P-wave (km/s) = 4.64671 6.27208 5.51955
#
# Compressibility (1/GPa) = 0.04043516
#
# Stress axis : x y z
#
# Youngs Moduli (GPa) = 123.50399 66.27257 36.34781
#
# Poissons Ratio (x) = 0.29582 0.06866
# Poissons Ratio (y) = 0.55129 -0.04439
# Poissons Ratio (z) = 0.23330 -0.08094
#
# Static dielectric constant tensor:
#      x y z
#    x 1.942290 -0.056250 -0.032970 
#    y -0.056250 1.905660 0.086560 
#    z -0.032970 0.086560 1.981390 
# 
# From -- ./inp_files/147786.got.cif
#   From: 2010.05.17/outbox.cif.g08.bks.cpg/sg2_74_cif.got.tgz:147786.got - 2010.06.03 11:33:40.
