data_PCOD9090511
_publ_section_title
;
Structure prediction by ZEFSAII (Michael W. Deem and Ramdas Pophale) SiO2 
 PCOD9090511
Probable space group: P -1
;
_chemical_formula_sum "Si O2"
_cell_formula_units_Z 14
_cell_length_a 9.179386
_cell_length_b 5.874091
_cell_length_c 23.188904
_cell_angle_alpha 66.482611
_cell_angle_beta 131.769578
_cell_angle_gamma 80.440137
_cell_volume 663.006080
_symmetry_space_group_name_H-M "P -1"
_symmetry_group_IT_number 2
_symmetry_cell_setting 'triclinic'
loop_
_space_group_symop_operation_xyz
x,y,z
-x,-y,-z
loop_
_atom_site_type_symbol
_atom_site_label
_atom_site_fract_x
_atom_site_fract_y
_atom_site_fract_z
Si Si1 0.616049 0.417068 0.185225
Si Si2 0.979723 0.883528 0.246755
Si Si3 0.398853 0.932982 0.363108
Si Si4 0.620998 0.176153 0.023824
Si Si5 0.137674 0.244007 0.378592
Si Si6 0.191914 0.722742 0.518278
Si Si7 0.619873 0.209601 0.329551
O O1 0.398608 0.701863 0.058531
O O2 0.528419 0.376518 0.226777
O O3 0.759109 0.109837 0.211865
O O4 0.850185 0.412098 0.264096
O O5 0.151451 0.985198 0.272687
O O6 0.138810 0.537476 0.352501
O O7 0.871594 0.912979 0.152201
O O8 0.639437 0.569943 0.450417
O O9 0.338933 0.019932 0.405183
O O10 0.442180 0.151739 0.318121
O O11 0.500000 0.500000 0.000000
O O12 0.500000 0.000000 0.000000
O O13 0.181622 0.019819 0.465107
O O14 0.322408 0.620829 0.625627
O O15 0.902048 0.871915 0.428131
#
# Coordination Sequence:
#
# PCOD9090511 Si02
#       7
#     2   2   2   2   2   2   2
#     4   9  20  37  60  88 112 154 195 248 300 358
#     4  10  21  36  60  89 115 148 197 252 304 355
#     4  11  22  36  54  82 121 155 194 247 303 355
#     4  10  19  38  66  96 121 155 204 257 306 362
#     4  10  20  36  58  83 114 151 201 249 291 355
#     4  10  22  38  57  81 111 161 204 241 294 355
#     4  10  22  38  56  81 119 154 201 238 301 363
#
# _framework density 21.115943000000001
#
# number of rings (size 3 to 8) (size 9 to 14) (size 15 to 20)
#    0.000    2.000    1.429    1.714    0.000    9.143 
#    0.000    0.714    0.000    3.429    0.000    0.000 
#    0.000    0.000    0.000    0.000    0.000    0.000 
#
# Total GULP energy -78070.272083 kJ/mol
# GULP energy per Si atom -5576.448006 kJ/mol
# Density = 2.106788 g / cm^3
# Si number density = 21.115943 Si / 1000 Ang^3
#
#
#
# Elastic Constant Matrix: (Units=GPa)
#
#
# Indices 1 2 3 4 5 6 
#
# 1 108.2027 18.8620 31.4445 9.5554 -26.0198 2.7616
# 2 18.8620 52.9520 19.5095 7.8738 -9.1904 3.0580
# 3 31.4445 19.5095 93.7383 24.1889 -41.5775 0.3656
# 4 9.5554 7.8738 24.1889 32.7148 -5.7672 1.5293
# 5 -26.0198 -9.1904 -41.5775 -5.7672 34.8358 0.1322
# 6 2.7616 3.0580 0.3656 1.5293 0.1322 25.4685
#
#
#
# Elastic Compliance Matrix: (Units=1/GPa)
#
#
# Indices 1 2 3 4 5 6 
#
# 1 0.011773 -0.002692 0.001224 -0.002030 0.009212 -0.000897
# 2 -0.002692 0.021364 -0.003340 -0.001905 -0.000668 -0.002107
# 3 0.001224 -0.003340 0.029413 -0.015591 0.032555 0.000613
# 4 -0.002030 -0.001905 -0.015591 0.040781 -0.013869 -0.001704
# 5 0.009212 -0.000668 0.032555 -0.013869 0.071973 -0.000927
# 6 -0.000897 -0.002107 0.000613 -0.001704 -0.000927 0.039713
#
#
# Mechanical properties :
#
#
# Convention : Reuss Voigt Hill
#
# Bulk Modulus (GPa) = 18.89141 43.83611 31.36376
# Shear Modulus (GPa) = 20.63762 30.94231 25.78997
#
# Velocity S-wave (km/s) = 3.12965 3.83215 3.49857
# Velocity P-wave (km/s) = 4.69314 6.35494 5.58618
#
# Compressibility (1/GPa) = 0.05293411
#
# Stress axis : x y z
#
# Youngs Moduli (GPa) = 84.94191 46.80876 33.99862
#
# Poissons Ratio (x) = 0.12602 -0.04163
# Poissons Ratio (y) = 0.22868 0.11355
# Poissons Ratio (z) = -0.10400 0.15633
#
# Static dielectric constant tensor:
#      x y z
#    x 1.742100 0.012500 0.008060 
#    y 0.012500 1.850730 0.017300 
#    z 0.008060 0.017300 1.797920 
# 
# From -- ./inp_files/605826.got.cif
#   From: 2010.05.17/outbox.cif.g08.bks.cpg/sg2_303_cif.got.tgz:605826.got - 2010.06.03 11:33:40.
