data_PCOD9090113
_publ_section_title
;
Structure prediction by ZEFSAII (Michael W. Deem and Ramdas Pophale) SiO2 
 PCOD9090113
Probable space group: P -1
;
_chemical_formula_sum "Si O2"
_cell_formula_units_Z 16
_cell_length_a 20.367093
_cell_length_b 13.335463
_cell_length_c 7.185334
_cell_angle_alpha 116.669494
_cell_angle_beta 61.913148
_cell_angle_gamma 157.469121
_cell_volume 659.176247
_symmetry_space_group_name_H-M "P -1"
_symmetry_group_IT_number 2
_symmetry_cell_setting 'triclinic'
loop_
_space_group_symop_operation_xyz
x,y,z
-x,-y,-z
loop_
_atom_site_type_symbol
_atom_site_label
_atom_site_fract_x
_atom_site_fract_y
_atom_site_fract_z
Si Si1 0.906631 0.653107 0.507966
Si Si2 0.339782 0.614310 0.044224
Si Si3 0.479349 0.562211 0.336085
Si Si4 0.277231 0.084981 0.395320
Si Si5 0.367362 0.893570 0.707857
Si Si6 0.711214 0.679237 0.973669
Si Si7 0.854685 0.216668 0.036470
Si Si8 0.038581 0.234816 0.867451
O O1 0.784932 0.531960 0.731521
O O2 0.800616 0.414034 0.335826
O O3 0.961929 0.801824 0.379720
O O4 0.081638 0.842613 0.522757
O O5 0.345787 0.488107 0.937459
O O6 0.520764 0.922407 0.104608
O O7 0.230641 0.501108 0.917152
O O8 0.354001 0.308064 0.406821
O O9 0.593459 0.787159 0.516631
O O10 0.369653 0.467881 0.239835
O O11 0.619373 0.670817 0.141546
O O12 0.250643 0.972973 0.157824
O O13 0.284790 0.900435 0.758296
O O14 0.500000 0.000000 0.500000
O O15 0.914900 0.979363 0.929204
O O16 0.945472 0.229921 0.008900
O O17 0.000000 0.500000 0.000000
#
# Coordination Sequence:
#
# PCOD9090113 Si02
#       8
#     2   2   2   2   2   2   2   2
#     4  10  21  44  62  93 137 173 227 283 330 411
#     4  11  25  41  65  99 136 185 224 278 346 409
#     4  10  21  37  64  95 134 170 220 286 331 404
#     4  10  19  38  63  96 129 168 227 274 331 406
#     4  10  22  43  68  95 142 172 221 293 337 398
#     4  11  22  42  63  94 141 176 221 282 346 401
#     4  11  20  42  72  98 131 181 226 281 340 405
#     4  11  23  42  69  96 133 182 226 277 344 406
#
# _framework density 24.272722000000002
#
# number of rings (size 3 to 8) (size 9 to 14) (size 15 to 20)
#    0.000    1.500    5.000    1.875    1.750    1.000 
#    6.750    5.000    0.000    0.000    0.000    0.000 
#    0.000    0.000    0.000    0.000    0.000    0.000 
#
# Total GULP energy -89344.471297 kJ/mol
# GULP energy per Si atom -5584.029456 kJ/mol
# Density = 2.421748 g / cm^3
# Si number density = 24.272722 Si / 1000 Ang^3
#
#
#
# Elastic Constant Matrix: (Units=GPa)
#
#
# Indices 1 2 3 4 5 6 
#
# 1 79.1367 12.9909 24.2588 17.2653 7.2102 18.0037
# 2 12.9909 132.0283 2.2568 26.2859 8.5468 8.0135
# 3 24.2588 2.2568 40.7032 6.9458 3.7991 8.4628
# 4 17.2653 26.2859 6.9458 49.4306 13.3416 4.1280
# 5 7.2102 8.5468 3.7991 13.3416 26.7209 4.7794
# 6 18.0037 8.0135 8.4628 4.1280 4.7794 34.9601
#
#
#
# Elastic Compliance Matrix: (Units=1/GPa)
#
#
# Indices 1 2 3 4 5 6 
#
# 1 0.017689 -0.000353 -0.008442 -0.004211 -0.000202 -0.006460
# 2 -0.000353 0.008566 0.000801 -0.004334 -0.000341 -0.001417
# 3 -0.008442 0.000801 0.030475 -0.001194 -0.001195 -0.002909
# 4 -0.004211 -0.004334 -0.001194 0.027027 -0.011120 0.001780
# 5 -0.000202 -0.000341 -0.001195 -0.011120 0.044068 -0.004240
# 6 -0.006460 -0.001417 -0.002909 0.001780 -0.004240 0.033329
#
#
# Mechanical properties :
#
#
# Convention : Reuss Voigt Hill
#
# Bulk Modulus (GPa) = 24.54399 36.76456 30.65428
# Shear Modulus (GPa) = 26.21603 36.37977 31.29790
#
# Velocity S-wave (km/s) = 3.28999 3.87562 3.59475
# Velocity P-wave (km/s) = 4.95639 5.93352 5.46683
#
# Compressibility (1/GPa) = 0.04074317
#
# Stress axis : x y z
#
# Youngs Moduli (GPa) = 56.53249 116.73825 32.81335
#
# Poissons Ratio (x) = 0.04117 0.27702
# Poissons Ratio (y) = 0.01994 -0.02630
# Poissons Ratio (z) = 0.47727 -0.09356
#
# Static dielectric constant tensor:
#      x y z
#    x 1.970150 0.020830 -0.014810 
#    y 0.020830 2.032490 -0.028800 
#    z -0.014810 -0.028800 1.985190 
# 
# From -- ./inp_files/347635.got.cif
#   From: 2010.05.17/outbox.cif.g08.bks.cpg/sg2_174_cif.got.tgz:347635.got - 2010.06.03 11:33:40.
