data_PCOD9090872
_publ_section_title
;
Structure prediction by ZEFSAII (Michael W. Deem and Ramdas Pophale) SiO2 
 PCOD9090872
Probable space group: P -1
;
_chemical_formula_sum "Si O2"
_cell_formula_units_Z 12
_cell_length_a 15.240917
_cell_length_b 8.619711
_cell_length_c 9.223692
_cell_angle_alpha 125.226832
_cell_angle_beta 48.531174
_cell_angle_gamma 142.064461
_cell_volume 554.275579
_symmetry_space_group_name_H-M "P -1"
_symmetry_group_IT_number 2
_symmetry_cell_setting 'triclinic'
loop_
_space_group_symop_operation_xyz
x,y,z
-x,-y,-z
loop_
_atom_site_type_symbol
_atom_site_label
_atom_site_fract_x
_atom_site_fract_y
_atom_site_fract_z
Si Si1 0.815766 0.583782 0.481594
Si Si2 0.347218 0.726117 0.969051
Si Si3 0.443986 0.607278 0.520605
Si Si4 0.650524 0.003924 0.255902
Si Si5 0.387145 0.561139 0.124204
Si Si6 0.889701 0.244585 0.888526
O O1 0.705024 0.610106 0.530302
O O2 0.775588 0.594219 0.694646
O O3 0.992771 0.764834 0.331648
O O4 0.733504 0.288772 0.372609
O O5 0.374170 0.674658 0.752374
O O6 0.343041 0.556172 0.003692
O O7 0.207650 0.728253 0.102512
O O8 0.500000 0.000000 0.000000
O O9 0.500000 0.500000 0.500000
O O10 0.579742 0.826299 0.380816
O O11 0.497252 0.842026 0.231238
O O12 0.775109 0.040007 0.029160
O O13 0.500000 0.500000 0.000000
O O14 0.000000 0.500000 0.000000
#
# Coordination Sequence:
#
# PCOD9090872 Si02
#       6
#     2   2   2   2   2   2
#     4  10  20  40  62  81 117 160 197 241 290 350
#     4  12  20  35  63  90 112 151 209 247 279 347
#     4  11  21  35  60  87 117 156 202 234 292 363
#     4  10  19  39  61  83 111 161 198 236 285 352
#     4  11  22  36  58  89 123 151 190 249 302 342
#     4  10  20  37  64  87 117 153 205 246 289 336
#
# _framework density 21.649881000000001
#
# number of rings (size 3 to 8) (size 9 to 14) (size 15 to 20)
#    0.000    1.333    5.000    5.000    0.000    0.667 
#    0.000    1.667    3.667    0.000    0.000    0.000 
#    0.000    0.000    0.000    0.000    0.000    0.000 
#
# Total GULP energy -66806.975985 kJ/mol
# GULP energy per Si atom -5567.247999 kJ/mol
# Density = 2.160061 g / cm^3
# Si number density = 21.649881 Si / 1000 Ang^3
#
#
#
# Elastic Constant Matrix: (Units=GPa)
#
#
# Indices 1 2 3 4 5 6 
#
# 1 148.9658 29.3755 46.5214 -31.9923 7.0746 -18.7229
# 2 29.3755 38.7659 36.6296 -26.1097 -1.5029 4.8808
# 3 46.5214 36.6296 170.3429 -56.0564 0.7770 -18.1917
# 4 -31.9923 -26.1097 -56.0564 48.7674 1.9774 2.5522
# 5 7.0746 -1.5029 0.7770 1.9774 49.5691 -6.2421
# 6 -18.7229 4.8808 -18.1917 2.5522 -6.2421 31.7190
#
#
#
# Elastic Compliance Matrix: (Units=1/GPa)
#
#
# Indices 1 2 3 4 5 6 
#
# 1 0.009279 -0.006319 0.000475 0.002954 -0.000846 0.006318
# 2 -0.006319 0.048560 -0.004651 0.017314 -0.000170 -0.015297
# 3 0.000475 -0.004651 0.010596 0.009670 0.000033 0.006302
# 4 0.002954 0.017314 0.009670 0.042851 -0.001650 0.000853
# 5 -0.000846 -0.000170 0.000033 -0.001650 0.020830 0.003778
# 6 0.006318 -0.015297 0.006302 0.000853 0.003778 0.041899
#
#
# Mechanical properties :
#
#
# Convention : Reuss Voigt Hill
#
# Bulk Modulus (GPa) = 21.07715 64.79196 42.93456
# Shear Modulus (GPa) = 23.71665 42.38096 33.04881
#
# Velocity S-wave (km/s) = 3.31337 4.42923 3.91130
# Velocity P-wave (km/s) = 4.93908 7.49330 6.34603
#
# Compressibility (1/GPa) = 0.04744474
#
# Stress axis : x y z
#
# Youngs Moduli (GPa) = 107.76577 20.59297 94.37524
#
# Poissons Ratio (x) = 0.13014 -0.04487
# Poissons Ratio (y) = 0.68102 0.43898
# Poissons Ratio (z) = -0.05124 0.09579
#
# Static dielectric constant tensor:
#      x y z
#    x 1.841940 -0.123150 -0.048180 
#    y -0.123150 1.923940 0.020140 
#    z -0.048180 0.020140 1.885910 
# 
# From -- ./inp_files/145943.got.cif
#   From: 2010.05.17/outbox.cif.g08.bks.cpg/sg2_73_cif.got.tgz:145943.got - 2010.06.03 11:33:40.
