data_PCOD9090541
_publ_section_title
;
Structure prediction by ZEFSAII (Michael W. Deem and Ramdas Pophale) SiO2 
 PCOD9090541
Probable space group: P -1
;
_chemical_formula_sum "Si O2"
_cell_formula_units_Z 16
_cell_length_a 8.276545
_cell_length_b 25.130257
_cell_length_c 25.200874
_cell_angle_alpha 11.079367
_cell_angle_beta 44.319646
_cell_angle_gamma 44.442365
_cell_volume 700.996606
_symmetry_space_group_name_H-M "P -1"
_symmetry_group_IT_number 2
_symmetry_cell_setting 'triclinic'
loop_
_space_group_symop_operation_xyz
x,y,z
-x,-y,-z
loop_
_atom_site_type_symbol
_atom_site_label
_atom_site_fract_x
_atom_site_fract_y
_atom_site_fract_z
Si Si1 0.101821 0.349057 0.176476
Si Si2 0.801495 0.945780 0.288935
Si Si3 0.261902 0.213540 0.033056
Si Si4 0.695795 0.282295 0.805817
Si Si5 0.403820 0.825889 0.644899
Si Si6 0.049442 0.220383 0.697234
Si Si7 0.175121 0.494480 0.204010
Si Si8 0.672650 0.267380 0.430850
O O1 0.896934 0.253753 0.354214
O O2 0.270251 0.068546 0.402983
O O3 0.238327 0.594618 0.929888
O O4 0.000000 0.500000 0.000000
O O5 0.945571 0.887317 0.258369
O O6 0.915964 0.752309 0.498136
O O7 0.549274 0.841404 0.438521
O O8 0.771875 0.260613 0.007786
O O9 0.272077 0.915825 0.349862
O O10 0.426049 0.240024 0.917430
O O11 0.369990 0.411863 0.856783
O O12 0.010128 0.355661 0.939257
O O13 0.785982 0.533243 0.573085
O O14 0.800248 0.304445 0.700625
O O15 0.825359 0.018799 0.062028
O O16 0.604817 0.650444 0.736947
O O17 0.500000 0.000000 0.500000
#
# Coordination Sequence:
#
# PCOD9090541 Si02
#       8
#     2   2   2   2   2   2   2   2
#     4  12  27  48  73 104 135 173 228 295 351 402
#     4  12  23  45  65 103 138 182 221 284 353 404
#     4  12  23  45  66 103 134 183 230 283 330 403
#     4  10  19  38  67 103 134 175 232 283 324 396
#     4  12  27  51  72  97 136 188 231 275 352 422
#     4  10  20  37  68 102 135 176 227 281 335 399
#     4  12  28  43  68  97 143 179 223 284 351 414
#     4  12  25  43  73  97 131 177 238 281 336 409
#
# _framework density 22.824646999999999
#
# number of rings (size 3 to 8) (size 9 to 14) (size 15 to 20)
#    0.000    0.500    2.500    6.000    0.000    4.000 
#    0.000    3.750    0.000    0.000    0.000    0.000 
#    0.000    0.000    0.000    0.000    0.000    0.000 
#
# Total GULP energy -89575.236796 kJ/mol
# GULP energy per Si atom -5598.452300 kJ/mol
# Density = 2.277270 g / cm^3
# Si number density = 22.824647 Si / 1000 Ang^3
#
#
#
# Elastic Constant Matrix: (Units=GPa)
#
#
# Indices 1 2 3 4 5 6 
#
# 1 61.6647 32.7158 20.5700 0.5509 3.3091 5.2907
# 2 32.7158 140.6186 16.0959 5.8689 -9.3850 12.2749
# 3 20.5700 16.0959 121.8777 -10.1645 -4.4088 8.3292
# 4 0.5509 5.8689 -10.1645 39.4844 6.7189 -1.4170
# 5 3.3091 -9.3850 -4.4088 6.7189 37.4132 -9.2043
# 6 5.2907 12.2749 8.3292 -1.4170 -9.2043 35.0827
#
#
#
# Elastic Compliance Matrix: (Units=1/GPa)
#
#
# Indices 1 2 3 4 5 6 
#
# 1 0.019811 -0.004394 -0.002757 0.000225 -0.003649 -0.001744
# 2 -0.004394 0.008553 -0.000333 -0.001764 0.002395 -0.001694
# 3 -0.002757 -0.000333 0.009017 0.002279 0.000471 -0.001393
# 4 0.000225 -0.001764 0.002279 0.027033 -0.005099 -0.000204
# 5 -0.003649 0.002395 0.000471 -0.005099 0.030439 0.007380
# 6 -0.001744 -0.001694 -0.001393 -0.000204 0.007380 0.031619
#
#
# Mechanical properties :
#
#
# Convention : Reuss Voigt Hill
#
# Bulk Modulus (GPa) = 44.61821 51.43605 48.02713
# Shear Modulus (GPa) = 33.57722 39.38134 36.47928
#
# Velocity S-wave (km/s) = 3.83965 4.15828 4.00214
# Velocity P-wave (km/s) = 6.26481 6.75569 6.51488
#
# Compressibility (1/GPa) = 0.02241238
#
# Stress axis : x y z
#
# Youngs Moduli (GPa) = 50.47621 116.91519 110.90728
#
# Poissons Ratio (x) = 0.51376 0.30581
# Poissons Ratio (y) = 0.22181 0.03689
# Poissons Ratio (z) = 0.13918 0.03889
#
# Static dielectric constant tensor:
#      x y z
#    x 1.884120 0.001610 -0.011640 
#    y 0.001610 1.928140 0.011850 
#    z -0.011640 0.011850 1.785800 
# 
# From -- ./inp_files/617670.got.cif
#   From: 2010.05.17/outbox.cif.g08.bks.cpg/sg2_309_cif.got.tgz:617670.got - 2010.06.03 11:33:40.
