data_PCOD9090275
_publ_section_title
;
Structure prediction by ZEFSAII (Michael W. Deem and Ramdas Pophale) SiO2 
 PCOD9090275
Probable space group: P -1
;
_chemical_formula_sum "Si O2"
_cell_formula_units_Z 16
_cell_length_a 9.473831
_cell_length_b 11.792548
_cell_length_c 11.914341
_cell_angle_alpha 49.368680
_cell_angle_beta 40.879032
_cell_angle_gamma 64.432764
_cell_volume 656.153106
_symmetry_space_group_name_H-M "P -1"
_symmetry_group_IT_number 2
_symmetry_cell_setting 'triclinic'
loop_
_space_group_symop_operation_xyz
x,y,z
-x,-y,-z
loop_
_atom_site_type_symbol
_atom_site_label
_atom_site_fract_x
_atom_site_fract_y
_atom_site_fract_z
Si Si1 0.932268 0.186956 0.630772
Si Si2 0.917579 0.864939 0.788278
Si Si3 0.445647 0.501968 0.899617
Si Si4 0.794815 0.080159 0.121786
Si Si5 0.053545 0.620823 0.724884
Si Si6 0.165740 0.306469 0.832245
Si Si7 0.468096 0.817384 0.992159
Si Si8 0.298480 0.234379 0.552234
O O1 0.685279 0.135347 0.848173
O O2 0.937222 0.302883 0.451914
O O3 0.070058 0.250949 0.614688
O O4 0.022576 0.032907 0.640366
O O5 0.081021 0.753379 0.714765
O O6 0.792612 0.790737 0.021173
O O7 0.722450 0.871323 0.813254
O O8 0.560397 0.364155 0.869823
O O9 0.529343 0.657344 0.690512
O O10 0.500000 0.500000 0.000000
O O11 0.192507 0.455481 0.061154
O O12 0.677965 0.942013 0.351931
O O13 0.632848 0.124697 0.096955
O O14 0.916564 0.231632 0.004936
O O15 0.000000 0.000000 0.000000
O O16 0.191805 0.481878 0.734580
O O17 0.290281 0.282001 0.657332
#
# Coordination Sequence:
#
# PCOD9090275 Si02
#       8
#     2   2   2   2   2   2   2   2
#     4  12  21  41  67  96 127 171 221 264 313 396
#     4  11  25  44  64  96 137 171 211 265 326 386
#     4  11  23  40  61  97 137 165 210 273 321 381
#     4  10  19  38  64  98 126 157 214 270 315 370
#     4  11  25  41  64  93 132 177 214 259 328 385
#     4  11  21  43  69  95 129 168 219 269 316 386
#     4  11  23  41  67  98 128 171 217 263 323 379
#     4  11  22  39  68 102 125 165 221 269 325 367
#
# _framework density 24.384550999999998
#
# number of rings (size 3 to 8) (size 9 to 14) (size 15 to 20)
#    0.000    1.000    5.000    3.375    0.000    1.000 
#    0.000   15.625    0.000    0.000    0.000    0.000 
#    0.000    0.000    0.000    0.000    0.000    0.000 
#
# Total GULP energy -89526.348448 kJ/mol
# GULP energy per Si atom -5595.396778 kJ/mol
# Density = 2.432905 g / cm^3
# Si number density = 24.384551 Si / 1000 Ang^3
#
#
#
# Elastic Constant Matrix: (Units=GPa)
#
#
# Indices 1 2 3 4 5 6 
#
# 1 70.1828 0.4037 6.7846 0.9155 12.9187 -1.9625
# 2 0.4037 88.1895 19.1506 -7.0304 1.1282 3.4439
# 3 6.7846 19.1506 92.4712 -19.9585 34.1907 -12.3213
# 4 0.9155 -7.0304 -19.9585 36.6642 -3.1500 7.3180
# 5 12.9187 1.1282 34.1907 -3.1500 30.9926 -3.0534
# 6 -1.9625 3.4439 -12.3213 7.3180 -3.0534 22.1274
#
#
#
# Elastic Compliance Matrix: (Units=1/GPa)
#
#
# Indices 1 2 3 4 5 6 
#
# 1 0.015753 -0.000595 0.002548 -0.000256 -0.009211 0.001722
# 2 -0.000595 0.012530 -0.004521 0.001199 0.004478 -0.004299
# 3 0.002548 -0.004521 0.023884 0.008282 -0.025620 0.007954
# 4 -0.000256 0.001199 0.008282 0.032938 -0.006453 -0.007382
# 5 -0.009211 0.004478 -0.025620 -0.006453 0.063063 -0.004944
# 6 0.001722 -0.004299 0.007954 -0.007382 -0.004944 0.052203
#
#
# Mechanical properties :
#
#
# Convention : Reuss Voigt Hill
#
# Bulk Modulus (GPa) = 21.26311 33.72459 27.49385
# Shear Modulus (GPa) = 22.60560 32.92383 27.76471
#
# Velocity S-wave (km/s) = 3.04805 3.67848 3.37800
# Velocity P-wave (km/s) = 4.59633 5.64818 5.14919
#
# Compressibility (1/GPa) = 0.04702980
#
# Stress axis : x y z
#
# Youngs Moduli (GPa) = 63.48114 79.80945 41.86926
#
# Poissons Ratio (x) = 0.04749 -0.10666
# Poissons Ratio (y) = 0.03778 0.18928
# Poissons Ratio (z) = -0.16172 0.36080
#
# Static dielectric constant tensor:
#      x y z
#    x 1.914360 0.038610 -0.000120 
#    y 0.038610 2.034900 0.024710 
#    z -0.000120 0.024710 1.919740 
# 
# From -- ./inp_files/391966.got.cif
#   From: 2010.05.17/outbox.cif.g08.bks.cpg/sg2_196_cif.got.tgz:391966.got - 2010.06.03 11:33:40.
