data_PCOD9090730
_publ_section_title
;
Structure prediction by ZEFSAII (Michael W. Deem and Ramdas Pophale) SiO2 
 PCOD9090730
Probable space group: P -1
;
_chemical_formula_sum "Si O2"
_cell_formula_units_Z 14
_cell_length_a 17.341650
_cell_length_b 9.133597
_cell_length_c 9.985339
_cell_angle_alpha 40.924951
_cell_angle_beta 50.658533
_cell_angle_gamma 32.893865
_cell_volume 562.664806
_symmetry_space_group_name_H-M "P -1"
_symmetry_group_IT_number 2
_symmetry_cell_setting 'triclinic'
loop_
_space_group_symop_operation_xyz
x,y,z
-x,-y,-z
loop_
_atom_site_type_symbol
_atom_site_label
_atom_site_fract_x
_atom_site_fract_y
_atom_site_fract_z
Si Si1 0.706050 0.263963 0.831986
Si Si2 0.389279 0.573313 0.748430
Si Si3 0.937847 0.335585 0.801204
Si Si4 0.041908 0.373557 0.893005
Si Si5 0.498104 0.841229 0.848891
Si Si6 0.348584 0.560455 0.515436
Si Si7 0.807978 0.747781 0.425388
O O1 0.595491 0.618530 0.769220
O O2 0.745242 0.265065 0.635516
O O3 0.844426 0.007435 0.947595
O O4 0.622934 0.158385 0.005294
O O5 0.298984 0.660493 0.654864
O O6 0.544223 0.401316 0.647426
O O7 0.334919 0.882923 0.670923
O O8 0.406943 0.348012 0.990940
O O9 0.079661 0.239494 0.665277
O O10 0.823129 0.547562 0.665515
O O11 0.909766 0.507313 0.854348
O O12 0.000000 0.000000 0.000000
O O13 0.129830 0.411745 0.678603
O O14 0.000000 0.500000 0.000000
O O15 0.430329 0.192932 0.672673
#
# Coordination Sequence:
#
# PCOD9090730 Si02
#       7
#     2   2   2   2   2   2   2
#     4  10  21  36  57  82 119 149 186 240 289 342
#     4  10  20  37  57  83 118 149 190 233 287 346
#     4   9  20  40  60  84 107 153 204 234 283 348
#     4  10  21  40  60  83 118 153 191 246 294 335
#     4  10  19  39  56  84 116 151 193 228 292 344
#     4  10  22  34  57  89 115 148 191 236 282 350
#     4   9  20  38  60  78 117 155 185 244 292 334
#
# _framework density 24.881598
#
# number of rings (size 3 to 8) (size 9 to 14) (size 15 to 20)
#    0.857    1.429    1.429    0.857    2.000    2.286 
#    5.143    0.714    0.000    0.000    0.000    0.000 
#    0.000    0.000    0.000    0.000    0.000    0.000 
#
# Total GULP energy -78068.034183 kJ/mol
# GULP energy per Si atom -5576.288156 kJ/mol
# Density = 2.482497 g / cm^3
# Si number density = 24.881598 Si / 1000 Ang^3
#
#
#
# Elastic Constant Matrix: (Units=GPa)
#
#
# Indices 1 2 3 4 5 6 
#
# 1 60.9384 7.4204 49.5456 9.2811 14.6870 10.3198
# 2 7.4204 73.1675 28.5398 16.0443 9.3404 23.1869
# 3 49.5456 28.5398 149.0677 3.7437 40.2866 16.0246
# 4 9.2811 16.0443 3.7437 32.5183 13.0931 8.8023
# 5 14.6870 9.3404 40.2866 13.0931 47.2862 0.1889
# 6 10.3198 23.1869 16.0246 8.8023 0.1889 25.2449
#
#
#
# Elastic Compliance Matrix: (Units=1/GPa)
#
#
# Indices 1 2 3 4 5 6 
#
# 1 0.024555 0.004095 -0.008208 -0.006532 0.000392 -0.006313
# 2 0.004095 0.021441 -0.003215 -0.006373 -0.000935 -0.017097
# 3 -0.008208 -0.003215 0.013078 0.007731 -0.010080 -0.004613
# 4 -0.006532 -0.006373 0.007731 0.044287 -0.015514 -0.011709
# 5 0.000392 -0.000935 -0.010080 -0.015514 0.034045 0.012251
# 6 -0.006313 -0.017097 -0.004613 -0.011709 0.012251 0.064815
#
#
# Mechanical properties :
#
#
# Convention : Reuss Voigt Hill
#
# Bulk Modulus (GPa) = 22.51465 50.46502 36.48983
# Shear Modulus (GPa) = 21.58112 34.18775 27.88444
#
# Velocity S-wave (km/s) = 2.94828 3.71080 3.35130
# Velocity P-wave (km/s) = 4.54513 6.21981 5.44721
#
# Compressibility (1/GPa) = 0.04441552
#
# Stress axis : x y z
#
# Youngs Moduli (GPa) = 40.72530 46.63952 76.46443
#
# Poissons Ratio (x) = -0.19097 0.62764
# Poissons Ratio (y) = -0.16675 0.24586
# Poissons Ratio (z) = 0.33429 0.14996
#
# Static dielectric constant tensor:
#      x y z
#    x 2.082960 0.033270 0.080230 
#    y 0.033270 1.990330 0.028080 
#    z 0.080230 0.028080 2.050760 
# 
# From -- ./inp_files/341505.got.cif
#   From: 2010.05.17/outbox.cif.g08.bks.cpg/sg2_171_cif.got.tgz:341505.got - 2010.06.03 11:33:40.
