data_PCOD9090841
_publ_section_title
;
Structure prediction by ZEFSAII (Michael W. Deem and Ramdas Pophale) SiO2 
 PCOD9090841
Probable space group: P -1
;
_chemical_formula_sum "Si O2"
_cell_formula_units_Z 16
_cell_length_a 5.417914
_cell_length_b 12.329578
_cell_length_c 11.687275
_cell_angle_alpha 87.412488
_cell_angle_beta 105.863573
_cell_angle_gamma 102.676075
_cell_volume 732.587668
_symmetry_space_group_name_H-M "P -1"
_symmetry_group_IT_number 2
_symmetry_cell_setting 'triclinic'
loop_
_space_group_symop_operation_xyz
x,y,z
-x,-y,-z
loop_
_atom_site_type_symbol
_atom_site_label
_atom_site_fract_x
_atom_site_fract_y
_atom_site_fract_z
Si Si1 0.332834 0.966559 0.640684
Si Si2 0.967857 0.309414 0.075814
Si Si3 0.154173 0.929196 0.234798
Si Si4 0.444420 0.567111 0.872860
Si Si5 0.767587 0.049051 0.099061
Si Si6 0.795318 0.634712 0.296447
Si Si7 0.897618 0.828962 0.439225
Si Si8 0.271388 0.709733 0.191041
O O1 0.268514 0.955564 0.767325
O O2 0.137609 0.870694 0.553136
O O3 0.641911 0.971607 0.682843
O O4 0.297273 0.085031 0.575125
O O5 0.274250 0.358456 0.130953
O O6 0.769843 0.361961 0.124499
O O7 0.888762 0.176560 0.080568
O O8 0.904147 0.338095 0.936402
O O9 0.298553 0.841624 0.198305
O O10 0.996254 0.862953 0.321805
O O11 0.975073 0.970620 0.118115
O O12 0.327171 0.490324 0.753519
O O13 0.500000 0.500000 0.000000
O O14 0.500000 0.000000 0.000000
O O15 0.808444 0.695488 0.420164
O O16 0.560502 0.688814 0.211546
O O17 0.089329 0.659219 0.278162
#
# Coordination Sequence:
#
# PCOD9090841 Si02
#       8
#     2   2   2   2   2   2   2   2
#     4  10  19  39  60  87 128 158 209 249 312 377
#     4  12  25  39  60  89 126 167 210 254 309 381
#     4  10  21  36  60  90 124 165 201 252 310 378
#     4  12  23  40  62  86 123 163 213 267 316 359
#     4  11  27  39  59  90 131 173 205 245 311 388
#     4  11  21  37  59  93 119 155 201 265 319 357
#     4   9  20  35  61  94 118 158 205 265 311 364
#     4  11  20  34  60  89 125 156 200 251 307 374
#
# _framework density 21.840387
#
# number of rings (size 3 to 8) (size 9 to 14) (size 15 to 20)
#    0.000    1.250    3.750    2.250    7.000    1.000 
#    0.000    0.000    0.000    1.500    0.000    0.000 
#    0.000    0.000    0.000    0.000    0.000    0.000 
#
# Total GULP energy -89165.090101 kJ/mol
# GULP energy per Si atom -5572.818131 kJ/mol
# Density = 2.179068 g / cm^3
# Si number density = 21.840387 Si / 1000 Ang^3
#
#
#
# Elastic Constant Matrix: (Units=GPa)
#
#
# Indices 1 2 3 4 5 6 
#
# 1 88.6051 37.2823 20.0719 5.0059 19.6085 9.7533
# 2 37.2823 103.3495 29.8389 37.3762 14.1983 6.8930
# 3 20.0719 29.8389 77.5311 35.8765 18.0284 8.4569
# 4 5.0059 37.3762 35.8765 42.7798 9.8953 7.3278
# 5 19.6085 14.1983 18.0284 9.8953 31.4850 10.7250
# 6 9.7533 6.8930 8.4569 7.3278 10.7250 41.0209
#
#
#
# Elastic Compliance Matrix: (Units=1/GPa)
#
#
# Indices 1 2 3 4 5 6 
#
# 1 0.016470 -0.007186 -0.004197 0.009812 -0.007105 -0.001738
# 2 -0.007186 0.017557 0.002934 -0.017137 -0.000165 0.001258
# 3 -0.004197 0.002934 0.023784 -0.020760 -0.006113 0.000908
# 4 0.009812 -0.017137 -0.020760 0.055972 -0.002552 -0.004505
# 5 -0.007105 -0.000165 -0.006113 -0.002552 0.043245 -0.007873
# 6 -0.001738 0.001258 0.000908 -0.004505 -0.007873 0.027256
#
#
# Mechanical properties :
#
#
# Convention : Reuss Voigt Hill
#
# Bulk Modulus (GPa) = 24.44147 49.31907 36.88027
# Shear Modulus (GPa) = 23.27543 35.20999 29.24271
#
# Velocity S-wave (km/s) = 3.26806 4.01952 3.66311
# Velocity P-wave (km/s) = 5.04534 6.64625 5.90034
#
# Compressibility (1/GPa) = 0.04091407
#
# Stress axis : x y z
#
# Youngs Moduli (GPa) = 60.71724 56.95639 42.04466
#
# Poissons Ratio (x) = 0.40929 0.17645
# Poissons Ratio (y) = 0.43632 -0.12337
# Poissons Ratio (z) = 0.25481 -0.16712
#
# Static dielectric constant tensor:
#      x y z
#    x 1.905700 -0.005620 -0.010450 
#    y -0.005620 1.882780 0.027810 
#    z -0.010450 0.027810 1.810150 
# 
# From -- ./inp_files/113245.got.cif
#   From: 2010.05.17/outbox.cif.g08.bks.cpg/sg2_57_cif.got.tgz:113245.got - 2010.06.03 11:33:40.
