data_PCOD9090148
_publ_section_title
;
Structure prediction by ZEFSAII (Michael W. Deem and Ramdas Pophale) SiO2 
 PCOD9090148
Probable space group: P -1
;
_chemical_formula_sum "Si O2"
_cell_formula_units_Z 12
_cell_length_a 8.164458
_cell_length_b 9.209423
_cell_length_c 7.446099
_cell_angle_alpha 80.504489
_cell_angle_beta 54.914315
_cell_angle_gamma 98.102509
_cell_volume 432.151854
_symmetry_space_group_name_H-M "P -1"
_symmetry_group_IT_number 2
_symmetry_cell_setting 'triclinic'
loop_
_space_group_symop_operation_xyz
x,y,z
-x,-y,-z
loop_
_atom_site_type_symbol
_atom_site_label
_atom_site_fract_x
_atom_site_fract_y
_atom_site_fract_z
Si Si1 0.354237 0.316351 0.900498
Si Si2 0.464200 0.113181 0.351101
Si Si3 0.809320 0.416747 0.489941
Si Si4 0.881526 0.761756 0.257038
Si Si5 0.324173 0.623455 0.020144
Si Si6 0.857735 0.107737 0.615494
O O1 0.557317 0.345481 0.638460
O O2 0.165130 0.208105 0.927158
O O3 0.315562 0.478139 0.935009
O O4 0.450867 0.292564 0.038800
O O5 0.297441 0.196210 0.518632
O O6 0.676805 0.245048 0.145775
O O7 0.500000 0.000000 0.500000
O O8 0.371201 0.995102 0.270804
O O9 0.863224 0.579034 0.320013
O O10 0.898896 0.269494 0.447792
O O11 0.809430 0.442052 0.704093
O O12 0.088124 0.847354 0.221854
O O13 0.000000 0.000000 0.500000
#
# Coordination Sequence:
#
# PCOD9090148 Si02
#       6
#     2   2   2   2   2   2
#     4   9  18  35  64  93 108 144 205 246 279 332
#     4  11  22  39  61  86 119 157 194 239 288 358
#     4  10  19  38  64  86 113 157 196 249 275 342
#     4  11  20  37  63  88 116 153 200 235 290 352
#     4   9  20  35  62  90 116 144 201 249 286 323
#     4  10  24  38  56  89 124 155 188 239 298 349
#
# _framework density 27.768015999999999
#
# number of rings (size 3 to 8) (size 9 to 14) (size 15 to 20)
#    1.000    1.000    1.667    2.000    2.333    0.667 
#    0.000    1.667    7.333    0.000    0.000    0.000 
#    0.000    0.000    0.000    0.000    0.000    0.000 
#
# Total GULP energy -66940.883571 kJ/mol
# GULP energy per Si atom -5578.406964 kJ/mol
# Density = 2.770481 g / cm^3
# Si number density = 27.768016 Si / 1000 Ang^3
#
#
#
# Elastic Constant Matrix: (Units=GPa)
#
#
# Indices 1 2 3 4 5 6 
#
# 1 76.9108 16.2307 19.9965 20.1161 31.1247 24.7487
# 2 16.2307 160.9423 48.4943 -17.8334 -0.1637 -4.9314
# 3 19.9965 48.4943 91.0237 0.8242 11.3272 -4.0519
# 4 20.1161 -17.8334 0.8242 47.8222 6.9573 7.6590
# 5 31.1247 -0.1637 11.3272 6.9573 29.4286 23.1845
# 6 24.7487 -4.9314 -4.0519 7.6590 23.1845 51.8680
#
#
#
# Elastic Compliance Matrix: (Units=1/GPa)
#
#
# Indices 1 2 3 4 5 6 
#
# 1 0.026696 -0.003463 -0.000777 -0.008722 -0.025569 -0.000411
# 2 -0.003463 0.008303 -0.004355 0.004016 0.005013 -0.000732
# 3 -0.000777 -0.004355 0.014801 -0.001113 -0.008710 0.005170
# 4 -0.008722 0.004016 -0.001113 0.025637 0.004763 -0.001458
# 5 -0.025569 0.005013 -0.008710 0.004763 0.083940 -0.026227
# 6 -0.000411 -0.000732 0.005170 -0.001458 -0.026227 0.031749
#
#
# Mechanical properties :
#
#
# Convention : Reuss Voigt Hill
#
# Bulk Modulus (GPa) = 30.66669 55.36887 43.01778
# Shear Modulus (GPa) = 22.81177 42.10080 32.45628
#
# Velocity S-wave (km/s) = 2.86931 3.89802 3.42253
# Velocity P-wave (km/s) = 4.69523 6.34369 5.58066
#
# Compressibility (1/GPa) = 0.03260867
#
# Stress axis : x y z
#
# Youngs Moduli (GPa) = 37.45933 120.44388 67.56165
#
# Poissons Ratio (x) = 0.41711 0.05250
# Poissons Ratio (y) = 0.12972 0.29425
# Poissons Ratio (z) = 0.02911 0.52457
#
# Static dielectric constant tensor:
#      x y z
#    x 2.523590 -0.157800 -0.189470 
#    y -0.157800 2.237760 0.119180 
#    z -0.189470 0.119180 2.192140 
# 
# From -- ./inp_files/149909.got.cif
#   From: 2010.05.17/outbox.cif.g08.bks.cpg/sg2_75_cif.got.tgz:149909.got - 2010.06.03 11:33:40.
