data_PCOD9090537
_publ_section_title
;
Structure prediction by ZEFSAII (Michael W. Deem and Ramdas Pophale) SiO2 
 PCOD9090537
Probable space group: P -1
;
_chemical_formula_sum "Si O2"
_cell_formula_units_Z 16
_cell_length_a 12.737524
_cell_length_b 9.139489
_cell_length_c 13.992052
_cell_angle_alpha 140.960500
_cell_angle_beta 141.964993
_cell_angle_gamma 61.492577
_cell_volume 592.962411
_symmetry_space_group_name_H-M "P -1"
_symmetry_group_IT_number 2
_symmetry_cell_setting 'triclinic'
loop_
_space_group_symop_operation_xyz
x,y,z
-x,-y,-z
loop_
_atom_site_type_symbol
_atom_site_label
_atom_site_fract_x
_atom_site_fract_y
_atom_site_fract_z
Si Si1 0.250441 0.363130 0.516211
Si Si2 0.901064 0.847251 0.204094
Si Si3 0.320840 0.862824 0.741756
Si Si4 0.346478 0.758207 0.086774
Si Si5 0.367525 0.676832 0.273614
Si Si6 0.333621 0.600740 0.425428
Si Si7 0.730785 0.753793 0.307577
Si Si8 0.888690 0.944270 0.023567
O O1 0.208064 0.608504 0.585608
O O2 0.451271 0.397460 0.638510
O O3 0.258777 0.336879 0.622000
O O4 0.095549 0.119315 0.241249
O O5 0.784174 0.947583 0.241979
O O6 0.818155 0.554982 0.992298
O O7 0.866838 0.936511 0.118902
O O8 0.108076 0.983856 0.447215
O O9 0.355459 0.772203 0.618332
O O10 0.500000 0.000000 0.000000
O O11 0.381522 0.825635 0.259445
O O12 0.531210 0.773090 0.171082
O O13 0.242251 0.461606 0.848186
O O14 0.344570 0.731229 0.396194
O O15 0.500000 0.500000 0.500000
O O16 0.757785 0.074848 0.949280
O O17 0.161830 0.345101 0.184672
#
# Coordination Sequence:
#
# PCOD9090537 Si02
#       8
#     2   2   2   2   2   2   2   2
#     4  10  19  38  67 100 135 171 235 271 335 392
#     4  10  20  39  66 104 132 175 232 281 337 392
#     4  12  21  36  69 103 130 167 227 290 331 385
#     4  10  20  39  63  99 142 179 224 273 351 396
#     4  10  21  41  66  95 140 179 221 278 336 411
#     4  11  23  44  65  98 133 183 226 276 336 400
#     4   9  20  36  63  98 142 181 219 287 336 410
#     4  10  22  41  71 102 136 177 223 285 330 409
#
# _framework density 26.983158
#
# number of rings (size 3 to 8) (size 9 to 14) (size 15 to 20)
#    0.000    1.750    2.500    2.250    0.000    3.000 
#    2.250    3.125    0.000    4.500    0.000    4.375 
#    0.000    0.000    0.000    0.000    0.000    0.000 
#
# Total GULP energy -89748.765436 kJ/mol
# GULP energy per Si atom -5609.297840 kJ/mol
# Density = 2.692174 g / cm^3
# Si number density = 26.983158 Si / 1000 Ang^3
#
#
#
# Elastic Constant Matrix: (Units=GPa)
#
#
# Indices 1 2 3 4 5 6 
#
# 1 124.7590 34.6856 48.8825 -23.1718 -34.6593 8.0489
# 2 34.6856 144.3280 43.2999 -11.7342 -4.6268 13.9385
# 3 48.8825 43.2999 167.4659 2.7402 -9.7918 13.6330
# 4 -23.1718 -11.7342 2.7402 50.1750 7.3303 -0.8928
# 5 -34.6593 -4.6268 -9.7918 7.3303 46.1039 -5.2565
# 6 8.0489 13.9385 13.6330 -0.8928 -5.2565 40.1600
#
#
#
# Elastic Compliance Matrix: (Units=1/GPa)
#
#
# Indices 1 2 3 4 5 6 
#
# 1 0.012636 -0.001561 -0.002900 0.004458 0.008035 0.000144
# 2 -0.001561 0.008042 -0.001545 0.001375 -0.001149 -0.002074
# 3 -0.002900 -0.001545 0.007336 -0.002037 -0.000624 -0.001500
# 4 0.004458 0.001375 -0.002037 0.022498 -0.000549 -0.000251
# 5 0.008035 -0.001149 -0.000624 -0.000549 0.027870 0.002636
# 6 0.000144 -0.002074 -0.001500 -0.000251 0.002636 0.026440
#
#
# Mechanical properties :
#
#
# Convention : Reuss Voigt Hill
#
# Bulk Modulus (GPa) = 62.48329 76.69877 69.59103
# Shear Modulus (GPa) = 40.92711 47.93343 44.43027
#
# Velocity S-wave (km/s) = 3.89879 4.21933 4.06223
# Velocity P-wave (km/s) = 6.59349 7.22658 6.91728
#
# Compressibility (1/GPa) = 0.01600428
#
# Stress axis : x y z
#
# Youngs Moduli (GPa) = 79.13663 124.33986 136.31090
#
# Poissons Ratio (x) = 0.19407 0.39528
# Poissons Ratio (y) = 0.12352 0.21057
# Poissons Ratio (z) = 0.22948 0.19207
#
# Static dielectric constant tensor:
#      x y z
#    x 2.085780 0.021520 0.004070 
#    y 0.021520 2.098760 0.052900 
#    z 0.004070 0.052900 2.147730 
# 
# From -- ./inp_files/530170.got.cif
#   From: 2010.05.17/outbox.cif.g08.bks.cpg/sg2_266_cif.got.tgz:530170.got - 2010.06.03 11:33:40.
