data_PCOD9090884
_publ_section_title
;
Structure prediction by ZEFSAII (Michael W. Deem and Ramdas Pophale) SiO2 
 PCOD9090884
Probable space group: P -1
;
_chemical_formula_sum "Si O2"
_cell_formula_units_Z 14
_cell_length_a 7.937942
_cell_length_b 18.148551
_cell_length_c 13.010195
_cell_angle_alpha 23.695389
_cell_angle_beta 117.359608
_cell_angle_gamma 103.598883
_cell_volume 571.286425
_symmetry_space_group_name_H-M "P -1"
_symmetry_group_IT_number 2
_symmetry_cell_setting 'triclinic'
loop_
_space_group_symop_operation_xyz
x,y,z
-x,-y,-z
loop_
_atom_site_type_symbol
_atom_site_label
_atom_site_fract_x
_atom_site_fract_y
_atom_site_fract_z
Si Si1 0.735014 0.043073 0.283905
Si Si2 0.571982 0.475512 0.377262
Si Si3 0.570539 0.803591 0.200385
Si Si4 0.921255 0.463966 0.630709
Si Si5 0.247547 0.706879 0.553698
Si Si6 0.142421 0.994183 0.341374
Si Si7 0.379989 0.287942 0.232557
O O1 0.981415 0.981068 0.396262
O O2 0.721222 0.853599 0.578689
O O3 0.593856 0.271215 0.012337
O O4 0.594049 0.104161 0.060495
O O5 0.432528 0.372379 0.503900
O O6 0.711357 0.449021 0.553640
O O7 0.736569 0.341368 0.501287
O O8 0.821473 0.682514 0.385460
O O9 0.500000 0.000000 0.000000
O O10 0.000000 0.500000 0.500000
O O11 0.087900 0.237317 0.015523
O O12 0.493924 0.671736 0.689234
O O13 0.229214 0.520230 0.843935
O O14 0.100613 0.922620 0.306376
O O15 0.407736 0.844713 0.614043
#
# Coordination Sequence:
#
# PCOD9090884 Si02
#       7
#     2   2   2   2   2   2   2
#     4  11  20  38  63  84 119 158 193 252 294 349
#     4  11  21  38  59  88 123 153 194 240 309 351
#     4  11  22  37  57  90 120 154 192 239 306 358
#     4  11  22  37  59  87 124 156 190 249 297 355
#     4   9  22  40  60  84 121 157 198 252 283 358
#     4  10  19  39  61  85 117 154 201 240 291 349
#     4   9  21  42  61  83 119 160 203 240 303 336
#
# _framework density 24.506094000000001
#
# number of rings (size 3 to 8) (size 9 to 14) (size 15 to 20)
#    0.857    0.857    2.857    3.429    2.000    2.857 
#    0.000    0.714    0.000    0.000    0.000    0.000 
#    0.000    0.000    0.000    0.000    0.000    0.000 
#
# Total GULP energy -78147.737670 kJ/mol
# GULP energy per Si atom -5581.981262 kJ/mol
# Density = 2.445032 g / cm^3
# Si number density = 24.506094 Si / 1000 Ang^3
#
#
#
# Elastic Constant Matrix: (Units=GPa)
#
#
# Indices 1 2 3 4 5 6 
#
# 1 121.1605 18.6591 33.6624 -8.5200 -18.4797 -26.8458
# 2 18.6591 102.5123 32.6657 -14.4656 6.4704 -31.3726
# 3 33.6624 32.6657 96.3188 -17.3417 -18.2046 -15.1072
# 4 -8.5200 -14.4656 -17.3417 38.8568 -6.3745 11.0010
# 5 -18.4797 6.4704 -18.2046 -6.3745 47.4498 3.1855
# 6 -26.8458 -31.3726 -15.1072 11.0010 3.1855 34.9906
#
#
#
# Elastic Compliance Matrix: (Units=1/GPa)
#
#
# Indices 1 2 3 4 5 6 
#
# 1 0.010958 0.001093 -0.002461 -0.000166 0.002606 0.008140
# 2 0.001093 0.015147 -0.004356 -0.000463 -0.004251 0.013072
# 3 -0.002461 -0.004356 0.014659 0.005931 0.006183 -0.001892
# 4 -0.000166 -0.000463 0.005931 0.031784 0.007123 -0.008623
# 5 0.002606 -0.004251 0.006183 0.007123 0.026252 -0.003772
# 6 0.008140 0.013072 -0.001892 -0.008623 -0.003772 0.048781
#
#
# Mechanical properties :
#
#
# Convention : Reuss Voigt Hill
#
# Bulk Modulus (GPa) = 34.10983 54.44069 44.27526
# Shear Modulus (GPa) = 29.62050 39.92642 34.77346
#
# Velocity S-wave (km/s) = 3.48041 4.04077 3.77101
# Velocity P-wave (km/s) = 5.48636 6.63580 6.08826
#
# Compressibility (1/GPa) = 0.02931706
#
# Stress axis : x y z
#
# Youngs Moduli (GPa) = 91.25505 66.01861 68.21595
#
# Poissons Ratio (x) = -0.07214 0.16788
# Poissons Ratio (y) = -0.09972 0.29712
# Poissons Ratio (z) = 0.22459 0.28755
#
# Static dielectric constant tensor:
#      x y z
#    x 4.670050 -0.593330 1.126670 
#    y -0.593330 2.170020 -0.252080 
#    z 1.126670 -0.252080 2.333630 
# 
# From -- ./inp_files/171082.got.cif
#   From: 2010.05.17/outbox.cif.g08.bks.cpg/sg2_86_cif.got.tgz:171082.got - 2010.06.03 11:33:40.
