data_PCOD9090441
_publ_section_title
;
Structure prediction by ZEFSAII (Michael W. Deem and Ramdas Pophale) SiO2 
 PCOD9090441
Probable space group: P -1
;
_chemical_formula_sum "Si O2"
_cell_formula_units_Z 16
_cell_length_a 14.692404
_cell_length_b 17.013165
_cell_length_c 5.296300
_cell_angle_alpha 98.681724
_cell_angle_beta 81.927402
_cell_angle_gamma 38.157981
_cell_volume 732.190332
_symmetry_space_group_name_H-M "P -1"
_symmetry_group_IT_number 2
_symmetry_cell_setting 'triclinic'
loop_
_space_group_symop_operation_xyz
x,y,z
-x,-y,-z
loop_
_atom_site_type_symbol
_atom_site_label
_atom_site_fract_x
_atom_site_fract_y
_atom_site_fract_z
Si Si1 0.902950 0.838552 0.043698
Si Si2 0.606395 0.160950 0.331906
Si Si3 0.253844 0.626097 0.642667
Si Si4 0.182508 0.436130 0.114540
Si Si5 0.138643 0.234831 0.480267
Si Si6 0.692914 0.734203 0.495930
Si Si7 0.408188 0.400728 0.127645
Si Si8 0.411508 0.655290 0.341148
O O1 0.876102 0.795729 0.802295
O O2 0.088189 0.737257 0.911977
O O3 0.867147 0.824646 0.320995
O O4 0.778875 0.999339 0.131552
O O5 0.483679 0.176636 0.458689
O O6 0.517582 0.263395 0.177453
O O7 0.624427 0.226009 0.533317
O O8 0.263850 0.546255 0.404496
O O9 0.277353 0.691499 0.513392
O O10 0.417520 0.491998 0.670302
O O11 0.243797 0.350693 0.307755
O O12 0.307978 0.418089 0.981390
O O13 0.012516 0.597869 0.327505
O O14 0.194227 0.370644 0.837599
O O15 0.295358 0.180097 0.421275
O O16 0.533007 0.380862 0.987713
#
# Coordination Sequence:
#
# PCOD9090441 Si02
#       8
#     2   2   2   2   2   2   2   2
#     4  12  27  43  62  94 135 170 209 259 316 374
#     4  10  25  40  61  92 128 172 211 254 312 384
#     4  10  22  39  65  99 122 162 209 271 315 375
#     4  11  20  38  67  95 128 159 212 269 321 358
#     4  12  25  41  65  93 131 168 213 263 319 369
#     4  11  23  40  66  95 126 168 213 264 313 376
#     4  10  19  38  66  89 127 162 212 259 318 371
#     4  10  20  41  69  92 124 161 217 257 324 370
#
# _framework density 21.852242
#
# number of rings (size 3 to 8) (size 9 to 14) (size 15 to 20)
#    0.000    1.250    2.500    3.375    3.500    1.500 
#    0.000    0.625    0.000    0.000    0.000    0.000 
#    0.000    0.000    0.000    0.000    0.000    0.000 
#
# Total GULP energy -89292.711176 kJ/mol
# GULP energy per Si atom -5580.794448 kJ/mol
# Density = 2.180251 g / cm^3
# Si number density = 21.852242 Si / 1000 Ang^3
#
#
#
# Elastic Constant Matrix: (Units=GPa)
#
#
# Indices 1 2 3 4 5 6 
#
# 1 72.2619 36.8268 -2.4880 8.7097 -4.4460 -2.6895
# 2 36.8268 -10.2955 40.9603 14.7562 -13.7468 22.4246
# 3 -2.4880 40.9603 42.8615 -0.4154 4.5895 -8.6053
# 4 8.7097 14.7562 -0.4154 31.9351 -0.7848 3.0688
# 5 -4.4460 -13.7468 4.5895 -0.7848 33.8847 -5.0578
# 6 -2.6895 22.4246 -8.6053 3.0688 -5.0578 2.7520
#
#
#
# Elastic Compliance Matrix: (Units=1/GPa)
#
#
# Indices 1 2 3 4 5 6 
#
# 1 0.012730 0.002203 -0.003589 -0.003528 0.001458 -0.010123
# 2 0.002203 0.000048 0.006469 -0.003733 0.004478 0.034383
# 3 -0.003589 0.006469 0.013689 -0.000216 -0.002304 -0.017411
# 4 -0.003528 -0.003733 -0.000216 0.035994 -0.004383 -0.021898
# 5 0.001458 0.004478 -0.002304 -0.004383 0.036036 0.028847
# 6 -0.010123 0.034383 -0.017411 -0.021898 0.028847 0.096306
#
#
# Mechanical properties :
#
#
# Convention : Reuss Voigt Hill
#
# Bulk Modulus (GPa) = 27.29693 28.38070 27.83881
# Shear Modulus (GPa) = 25.40012 15.68295 20.54153
#
# Velocity S-wave (km/s) = 3.41304 2.68186 3.06930
# Velocity P-wave (km/s) = 5.29627 4.75453 5.03270
#
# Compressibility (1/GPa) = 0.03663416
#
# Stress axis : x y z
#
# Youngs Moduli (GPa) = 78.55314 20800.14823 73.04905
#
# Poissons Ratio (x) = -45.82994 0.26220
# Poissons Ratio (y) = -0.17308 -0.47257
# Poissons Ratio (z) = 0.28196 -134.56091
#
# Static dielectric constant tensor:
#      x y z
#    x 1.866160 0.010250 0.000910 
#    y 0.010250 1.771090 -0.059700 
#    z 0.000910 -0.059700 1.884580 
# 
# From -- ./inp_files/47481.got.cif
#   From: 2010.05.17/outbox.cif.g08.bks.cpg/sg2_24_cif.got.tgz:47481.got - 2010.06.03 11:33:40.
