data_PCOD9090277
_publ_section_title
;
Structure prediction by ZEFSAII (Michael W. Deem and Ramdas Pophale) SiO2 
 PCOD9090277
Probable space group: P -1
;
_chemical_formula_sum "Si O2"
_cell_formula_units_Z 16
_cell_length_a 12.839510
_cell_length_b 9.490240
_cell_length_c 10.202744
_cell_angle_alpha 71.984137
_cell_angle_beta 146.074467
_cell_angle_gamma 100.794424
_cell_volume 654.176308
_symmetry_space_group_name_H-M "P -1"
_symmetry_group_IT_number 2
_symmetry_cell_setting 'triclinic'
loop_
_space_group_symop_operation_xyz
x,y,z
-x,-y,-z
loop_
_atom_site_type_symbol
_atom_site_label
_atom_site_fract_x
_atom_site_fract_y
_atom_site_fract_z
Si Si1 0.289261 0.584440 0.530410
Si Si2 0.647511 0.539933 0.751805
Si Si3 0.018885 0.344806 0.284878
Si Si4 0.411129 0.881574 0.028418
Si Si5 0.186088 0.714736 0.657934
Si Si6 0.765153 0.100231 0.738148
Si Si7 0.624664 0.838564 0.526587
Si Si8 0.971475 0.024848 0.239610
O O1 0.509843 0.566645 0.726255
O O2 0.178967 0.450862 0.405154
O O3 0.254355 0.606889 0.641823
O O4 0.196037 0.740236 0.321355
O O5 0.500000 0.500000 0.500000
O O6 0.823722 0.415522 0.992370
O O7 0.728058 0.688381 0.742613
O O8 0.964734 0.338469 0.383977
O O9 0.059502 0.176738 0.320694
O O10 0.358758 0.751713 0.917087
O O11 0.217388 0.955456 0.872700
O O12 0.548795 0.824991 0.305655
O O13 0.500000 0.000000 0.000000
O O14 0.094331 0.873875 0.456949
O O15 0.566728 0.137244 0.595081
O O16 0.724209 0.983835 0.616467
O O17 0.901061 0.026615 0.015368
#
# Coordination Sequence:
#
# PCOD9090277 Si02
#       8
#     2   2   2   2   2   2   2   2
#     4  11  25  45  70 104 140 184 236 284 360 421
#     4  11  24  45  70 100 142 185 233 290 351 422
#     4  11  24  47  68 100 144 190 228 286 357 419
#     4  10  19  38  64  98 133 176 227 282 346 412
#     4  11  24  46  66 101 142 178 235 294 339 416
#     4   9  19  39  66  99 131 170 231 288 339 404
#     4   9  19  38  65  98 136 172 223 295 340 395
#     4  10  23  44  69  96 142 177 232 296 340 409
#
# _framework density 24.458237
#
# number of rings (size 3 to 8) (size 9 to 14) (size 15 to 20)
#    0.000    1.750    0.000    5.625    1.750    4.000 
#   18.000    0.000    0.000    0.000    0.000    0.000 
#    0.000    0.000    0.000    0.000    0.000    0.000 
#
# Total GULP energy -89688.351607 kJ/mol
# GULP energy per Si atom -5605.521975 kJ/mol
# Density = 2.440257 g / cm^3
# Si number density = 24.458237 Si / 1000 Ang^3
#
#
#
# Elastic Constant Matrix: (Units=GPa)
#
#
# Indices 1 2 3 4 5 6 
#
# 1 88.2833 52.5391 36.1784 8.4451 -6.6736 12.5738
# 2 52.5391 120.5542 37.3553 6.9151 -5.4527 8.5897
# 3 36.1784 37.3553 81.3394 6.8710 -10.8579 -12.3139
# 4 8.4451 6.9151 6.8710 42.2673 -2.2037 -6.4572
# 5 -6.6736 -5.4527 -10.8579 -2.2037 40.7231 -0.7106
# 6 12.5738 8.5897 -12.3139 -6.4572 -0.7106 55.3755
#
#
#
# Elastic Compliance Matrix: (Units=1/GPa)
#
#
# Indices 1 2 3 4 5 6 
#
# 1 0.017987 -0.005492 -0.005949 -0.002446 0.000409 -0.004835
# 2 -0.005492 0.011784 -0.003156 -0.000535 -0.000216 -0.001348
# 3 -0.005949 -0.003156 0.017737 -0.000111 0.003427 0.005816
# 4 -0.002446 -0.000535 -0.000111 0.024838 0.000904 0.003521
# 5 0.000409 -0.000216 0.003427 0.000904 0.025577 0.001136
# 6 -0.004835 -0.001348 0.005816 0.003521 0.001136 0.021084
#
#
# Mechanical properties :
#
#
# Convention : Reuss Voigt Hill
#
# Bulk Modulus (GPa) = 54.60741 60.25804 57.43273
# Shear Modulus (GPa) = 32.40315 38.61343 35.50829
#
# Velocity S-wave (km/s) = 3.64378 3.97766 3.81437
# Velocity P-wave (km/s) = 6.33073 6.76656 6.55227
#
# Compressibility (1/GPa) = 0.01831253
#
# Stress axis : x y z
#
# Youngs Moduli (GPa) = 55.59532 84.86306 56.37946
#
# Poissons Ratio (x) = 0.46611 0.33538
# Poissons Ratio (y) = 0.30535 0.17796
# Poissons Ratio (z) = 0.33072 0.26787
#
# Static dielectric constant tensor:
#      x y z
#    x 2.016910 -0.028300 -0.010390 
#    y -0.028300 1.924040 -0.016150 
#    z -0.010390 -0.016150 1.900230 
# 
# From -- ./inp_files/303129.got.cif
#   From: 2010.05.17/outbox.cif.g08.bks.cpg/sg2_152_cif.got.tgz:303129.got - 2010.06.03 11:33:40.
