data_PCOD9090241
_publ_section_title
;
Structure prediction by ZEFSAII (Michael W. Deem and Ramdas Pophale) SiO2 
 PCOD9090241
Probable space group: P -1
;
_chemical_formula_sum "Si O2"
_cell_formula_units_Z 14
_cell_length_a 8.727388
_cell_length_b 8.442027
_cell_length_c 12.736244
_cell_angle_alpha 74.736074
_cell_angle_beta 49.367718
_cell_angle_gamma 98.027760
_cell_volume 621.904249
_symmetry_space_group_name_H-M "P -1"
_symmetry_group_IT_number 2
_symmetry_cell_setting 'triclinic'
loop_
_space_group_symop_operation_xyz
x,y,z
-x,-y,-z
loop_
_atom_site_type_symbol
_atom_site_label
_atom_site_fract_x
_atom_site_fract_y
_atom_site_fract_z
Si Si1 0.238125 0.360834 0.154705
Si Si2 0.103339 0.266092 0.465782
Si Si3 0.681208 0.328264 0.681761
Si Si4 0.965380 0.416394 0.913561
Si Si5 0.207204 0.164410 0.824962
Si Si6 0.698800 0.185438 0.912150
Si Si7 0.963394 0.967814 0.280203
O O1 0.198625 0.288232 0.303399
O O2 0.063623 0.440542 0.178272
O O3 0.149048 0.173628 0.160057
O O4 0.500000 0.500000 0.000000
O O5 0.850084 0.247291 0.579801
O O6 0.234298 0.463642 0.427301
O O7 0.120299 0.107258 0.553752
O O8 0.432767 0.212580 0.777502
O O9 0.692952 0.327474 0.803741
O O10 0.733744 0.246124 0.007402
O O11 0.152110 0.341275 0.825182
O O12 0.000000 0.500000 0.000000
O O13 0.223795 0.087585 0.715595
O O14 0.000000 0.000000 0.000000
O O15 0.914049 0.154916 0.791119
O O16 0.500000 0.000000 0.000000
#
# Coordination Sequence:
#
# PCOD9090241 Si02
#       7
#     2   2   2   2   2   2   2
#     4  12  25  43  70  99 136 179 228 290 335 401
#     4  10  23  43  68  99 132 177 236 273 334 413
#     4  10  21  41  69  95 131 181 226 278 333 405
#     4  11  24  38  60  99 135 167 218 280 342 391
#     4  11  24  42  68 101 141 177 226 283 341 404
#     4  10  19  38  64  94 126 174 227 275 323 399
#     4  10  23  41  64  98 134 175 227 275 343 402
#
# _framework density 22.511503000000001
#
# number of rings (size 3 to 8) (size 9 to 14) (size 15 to 20)
#    0.000    1.429    1.429    3.857    6.000    1.714 
#    0.000    0.714    0.000    0.000    0.000    0.000 
#    0.000    0.000    0.000    0.000    0.000    0.000 
#
# Total GULP energy -78040.828393 kJ/mol
# GULP energy per Si atom -5574.344885 kJ/mol
# Density = 2.246027 g / cm^3
# Si number density = 22.511503 Si / 1000 Ang^3
#
#
#
# Elastic Constant Matrix: (Units=GPa)
#
#
# Indices 1 2 3 4 5 6 
#
# 1 114.1729 44.2294 39.9692 3.1277 0.4307 36.4926
# 2 44.2294 102.0049 31.0354 -2.1829 7.7380 27.3156
# 3 39.9692 31.0354 90.4230 3.4660 9.9760 13.7781
# 4 3.1277 -2.1829 3.4660 38.6787 0.7112 8.4016
# 5 0.4307 7.7380 9.9760 0.7112 30.8815 0.7074
# 6 36.4926 27.3156 13.7781 8.4016 0.7074 48.2857
#
#
#
# Elastic Compliance Matrix: (Units=1/GPa)
#
#
# Indices 1 2 3 4 5 6 
#
# 1 0.013758 -0.002729 -0.004205 0.000772 0.002012 -0.007818
# 2 -0.002729 0.013340 -0.002403 0.002358 -0.002464 -0.005173
# 3 -0.004205 -0.002403 0.014098 -0.001155 -0.003884 0.000773
# 4 0.000772 0.002358 -0.001155 0.027420 -0.000714 -0.006348
# 5 0.002012 -0.002464 -0.003884 -0.000714 0.034229 0.000605
# 6 -0.007818 -0.005173 0.000773 -0.006348 0.000605 0.030420
#
#
# Mechanical properties :
#
#
# Convention : Reuss Voigt Hill
#
# Bulk Modulus (GPa) = 44.39930 59.67430 52.03680
# Shear Modulus (GPa) = 31.35865 36.32696 33.84280
#
# Velocity S-wave (km/s) = 3.73635 4.02145 3.88152
# Velocity P-wave (km/s) = 6.19512 6.93749 6.57678
#
# Compressibility (1/GPa) = 0.02252288
#
# Stress axis : x y z
#
# Youngs Moduli (GPa) = 72.68584 74.96073 70.93341
#
# Poissons Ratio (x) = 0.20453 0.29828
# Poissons Ratio (y) = 0.19833 0.17045
# Poissons Ratio (z) = 0.30565 0.18012
#
# Static dielectric constant tensor:
#      x y z
#    x 1.889270 -0.018390 0.045350 
#    y -0.018390 1.996040 -0.026610 
#    z 0.045350 -0.026610 1.893510 
# 
# From -- ./inp_files/381661.got.cif
#   From: 2010.05.17/outbox.cif.g08.bks.cpg/sg2_191_cif.got.tgz:381661.got - 2010.06.03 11:33:40.
