data_PCOD9090823
_publ_section_title
;
Structure prediction by ZEFSAII (Michael W. Deem and Ramdas Pophale) SiO2 
 PCOD9090823
Probable space group: P -1
;
_chemical_formula_sum "Si O2"
_cell_formula_units_Z 14
_cell_length_a 8.737422
_cell_length_b 9.445337
_cell_length_c 14.983396
_cell_angle_alpha 40.637634
_cell_angle_beta 114.946166
_cell_angle_gamma 88.945075
_cell_volume 598.347883
_symmetry_space_group_name_H-M "P -1"
_symmetry_group_IT_number 2
_symmetry_cell_setting 'triclinic'
loop_
_space_group_symop_operation_xyz
x,y,z
-x,-y,-z
loop_
_atom_site_type_symbol
_atom_site_label
_atom_site_fract_x
_atom_site_fract_y
_atom_site_fract_z
Si Si1 0.771927 0.081908 0.766500
Si Si2 0.114365 0.687940 0.915479
Si Si3 0.287667 0.411356 0.444322
Si Si4 0.577015 0.695373 0.669465
Si Si5 0.229593 0.325156 0.947495
Si Si6 0.224307 0.736820 0.656249
Si Si7 0.687198 0.067832 0.247625
O O1 0.528467 0.249690 0.609061
O O2 0.827527 0.292404 0.689074
O O3 0.891632 0.879774 0.812105
O O4 0.819855 0.891929 0.954137
O O5 0.118123 0.537364 0.899753
O O6 0.181643 0.880283 0.810626
O O7 0.269721 0.478675 0.128505
O O8 0.298223 0.424893 0.333845
O O9 0.220055 0.225965 0.552281
O O10 0.351665 0.744676 0.767299
O O11 0.500000 0.000000 0.500000
O O12 0.200310 0.496032 0.772496
O O13 0.471261 0.169651 0.102031
O O14 0.365437 0.710113 0.621679
O O15 0.000000 0.000000 0.500000
#
# Coordination Sequence:
#
# PCOD9090823 Si02
#       7
#     2   2   2   2   2   2   2
#     4  10  23  39  60  86 114 160 194 237 275 358
#     4  11  21  36  64  88 113 152 200 230 296 338
#     4  10  23  41  60  82 123 152 196 233 294 333
#     4  12  22  38  61  90 116 151 191 247 288 338
#     4  10  19  39  60  84 121 150 188 235 293 346
#     4  11  22  34  58  93 119 143 190 246 293 332
#     4  10  19  41  59  84 118 157 181 241 291 348
#
# _framework density 23.397758
#
# number of rings (size 3 to 8) (size 9 to 14) (size 15 to 20)
#    0.000    1.429    4.286    2.143    6.000    1.143 
#    0.000    0.714    0.000    0.000    0.000    0.000 
#    0.000    0.000    0.000    0.000    0.000    0.000 
#
# Total GULP energy -78204.819922 kJ/mol
# GULP energy per Si atom -5586.058566 kJ/mol
# Density = 2.334450 g / cm^3
# Si number density = 23.397758 Si / 1000 Ang^3
#
#
#
# Elastic Constant Matrix: (Units=GPa)
#
#
# Indices 1 2 3 4 5 6 
#
# 1 88.0719 20.7733 66.5681 -24.1735 -37.4665 -2.4874
# 2 20.7733 35.2063 24.3552 -13.1001 -15.5213 0.5360
# 3 66.5681 24.3552 124.3877 -10.5408 -34.3273 4.2635
# 4 -24.1735 -13.1001 -10.5408 27.0410 6.3348 -3.4354
# 5 -37.4665 -15.5213 -34.3273 6.3348 58.3298 -7.0895
# 6 -2.4874 0.5360 4.2635 -3.4354 -7.0895 22.4085
#
#
#
# Elastic Compliance Matrix: (Units=1/GPa)
#
#
# Indices 1 2 3 4 5 6 
#
# 1 0.034065 0.005067 -0.013599 0.026158 0.014177 0.014743
# 2 0.005067 0.041764 -0.006908 0.020865 0.008873 0.006884
# 3 -0.013599 -0.006908 0.015775 -0.009912 -0.000962 -0.006170
# 4 0.026158 0.020865 -0.009912 0.066206 0.011529 0.018088
# 5 0.014177 0.008873 -0.000962 0.011529 0.028283 0.012260
# 6 0.014743 0.006884 -0.006170 0.018088 0.012260 0.053923
#
#
# Mechanical properties :
#
#
# Convention : Reuss Voigt Hill
#
# Bulk Modulus (GPa) = 16.46791 52.33989 34.40390
# Shear Modulus (GPa) = 17.17396 30.62047 23.89722
#
# Velocity S-wave (km/s) = 2.71218 3.62151 3.19932
# Velocity P-wave (km/s) = 4.10627 6.31706 5.32760
#
# Compressibility (1/GPa) = 0.06072416
#
# Stress axis : x y z
#
# Youngs Moduli (GPa) = 29.35595 23.94390 63.38995
#
# Poissons Ratio (x) = -0.12131 0.86201
# Poissons Ratio (y) = -0.14873 0.43790
# Poissons Ratio (z) = 0.39920 0.16541
#
# Static dielectric constant tensor:
#      x y z
#    x 1.946690 0.017000 -0.004870 
#    y 0.017000 1.887160 0.041780 
#    z -0.004870 0.041780 1.988440 
# 
# From -- ./inp_files/462892.got.cif
#   From: 2010.05.17/outbox.cif.g08.bks.cpg/sg2_232_cif.got.tgz:462892.got - 2010.06.03 11:33:40.
