data_PCOD9090404
_publ_section_title
;
Structure prediction by ZEFSAII (Michael W. Deem and Ramdas Pophale) SiO2 
 PCOD9090404
Probable space group: P -1
;
_chemical_formula_sum "Si O2"
_cell_formula_units_Z 16
_cell_length_a 11.568085
_cell_length_b 11.835094
_cell_length_c 14.524588
_cell_angle_alpha 150.283467
_cell_angle_beta 59.763804
_cell_angle_gamma 98.555009
_cell_volume 629.265114
_symmetry_space_group_name_H-M "P -1"
_symmetry_group_IT_number 2
_symmetry_cell_setting 'triclinic'
loop_
_space_group_symop_operation_xyz
x,y,z
-x,-y,-z
loop_
_atom_site_type_symbol
_atom_site_label
_atom_site_fract_x
_atom_site_fract_y
_atom_site_fract_z
Si Si1 0.937663 0.339740 0.457945
Si Si2 0.571200 0.216681 0.338364
Si Si3 0.510266 0.872102 0.004599
Si Si4 0.081218 0.157148 0.694886
Si Si5 0.952987 0.240343 0.985121
Si Si6 0.884919 0.584370 0.830616
Si Si7 0.600158 0.496386 0.202342
Si Si8 0.265771 0.610070 0.114426
O O1 0.721742 0.563518 0.705288
O O2 0.000000 0.500000 0.500000
O O3 0.991519 0.306005 0.519575
O O4 0.029691 0.013402 0.145440
O O5 0.500000 0.500000 0.500000
O O6 0.545903 0.295804 0.512219
O O7 0.778460 0.892274 0.028964
O O8 0.469015 0.110295 0.265909
O O9 0.389253 0.789361 0.005233
O O10 0.500000 0.000000 0.000000
O O11 0.112323 0.035773 0.700177
O O12 0.913851 0.227161 0.760205
O O13 0.244261 0.877165 0.365848
O O14 0.000000 0.500000 0.000000
O O15 0.985504 0.429310 0.162500
O O16 0.768120 0.432745 0.138776
O O17 0.748221 0.577539 0.937954
O O18 0.583461 0.583134 0.163000
#
# Coordination Sequence:
#
# PCOD9090404 Si02
#       8
#     2   2   2   2   2   2   2   2
#     4  11  25  43  67  99 130 176 237 289 344 404
#     4  11  25  46  68  93 137 186 233 279 351 412
#     4  11  23  45  69  91 138 184 226 292 348 409
#     4  10  19  38  65  98 139 177 214 282 347 404
#     4  11  23  39  70 100 133 174 231 285 345 402
#     4  11  24  45  69  99 139 180 229 294 341 405
#     4  11  25  42  68 104 135 185 229 278 353 419
#     4  10  22  40  67 100 140 178 231 280 345 418
#
# _framework density 25.426487000000002
#
# number of rings (size 3 to 8) (size 9 to 14) (size 15 to 20)
#    0.000    1.250    3.750    1.500    1.750    5.000 
#    0.000    2.500    0.000    0.000    0.000    0.000 
#    0.000    0.000    0.000    0.000    0.000    0.000 
#
# Total GULP energy -89219.462310 kJ/mol
# GULP energy per Si atom -5576.216394 kJ/mol
# Density = 2.536862 g / cm^3
# Si number density = 25.426487 Si / 1000 Ang^3
#
#
#
# Elastic Constant Matrix: (Units=GPa)
#
#
# Indices 1 2 3 4 5 6 
#
# 1 136.4417 26.7785 41.2936 -1.7867 41.4596 0.1519
# 2 26.7785 134.8418 32.6735 0.3936 16.1314 3.0149
# 3 41.2936 32.6735 83.9396 0.8698 25.9912 0.4494
# 4 -1.7867 0.3936 0.8698 41.1110 -2.8584 7.0002
# 5 41.4596 16.1314 25.9912 -2.8584 54.1387 4.8231
# 6 0.1519 3.0149 0.4494 7.0002 4.8231 34.2491
#
#
#
# Elastic Compliance Matrix: (Units=1/GPa)
#
#
# Indices 1 2 3 4 5 6 
#
# 1 0.010246 -0.000605 -0.002827 -0.000099 -0.006400 0.000966
# 2 -0.000605 0.008287 -0.002726 0.000010 -0.000643 -0.000603
# 3 -0.002827 -0.002726 0.015843 -0.000916 -0.004757 0.000902
# 4 -0.000099 0.000010 -0.000916 0.025442 0.002347 -0.005519
# 5 -0.006400 -0.000643 -0.004757 0.002347 0.026332 -0.004041
# 6 0.000966 -0.000603 0.000902 -0.005519 -0.004041 0.030932
#
#
# Mechanical properties :
#
#
# Convention : Reuss Voigt Hill
#
# Bulk Modulus (GPa) = 45.33245 61.85715 53.59480
# Shear Modulus (GPa) = 36.56257 42.86493 39.71375
#
# Velocity S-wave (km/s) = 3.79617 4.11035 3.95638
# Velocity P-wave (km/s) = 6.08951 6.84889 6.48033
#
# Compressibility (1/GPa) = 0.02205925
#
# Stress axis : x y z
#
# Youngs Moduli (GPa) = 97.59934 120.66867 63.11955
#
# Poissons Ratio (x) = 0.07305 0.17845
# Poissons Ratio (y) = 0.05908 0.17205
# Poissons Ratio (z) = 0.27594 0.32892
#
# Static dielectric constant tensor:
#      x y z
#    x 2.018310 0.033490 -0.025050 
#    y 0.033490 2.165150 -0.093640 
#    z -0.025050 -0.093640 2.231400 
# 
# From -- ./inp_files/519940.got.cif
#   From: 2010.05.17/outbox.cif.g08.bks.cpg/sg2_260_cif.got.tgz:519940.got - 2010.06.03 11:33:40.
