data_PCOD9090363
_publ_section_title
;
Structure prediction by ZEFSAII (Michael W. Deem and Ramdas Pophale) SiO2 
 PCOD9090363
Probable space group: P -1
;
_chemical_formula_sum "Si O2"
_cell_formula_units_Z 14
_cell_length_a 19.192774
_cell_length_b 8.112432
_cell_length_c 12.485542
_cell_angle_alpha 125.761349
_cell_angle_beta 35.922299
_cell_angle_gamma 98.095154
_cell_volume 662.458374
_symmetry_space_group_name_H-M "P -1"
_symmetry_group_IT_number 2
_symmetry_cell_setting 'triclinic'
loop_
_space_group_symop_operation_xyz
x,y,z
-x,-y,-z
loop_
_atom_site_type_symbol
_atom_site_label
_atom_site_fract_x
_atom_site_fract_y
_atom_site_fract_z
Si Si1 0.809270 0.986015 0.705634
Si Si2 0.015088 0.897353 0.611853
Si Si3 0.791129 0.291932 0.222362
Si Si4 0.501669 0.359368 0.677797
Si Si5 0.352704 0.303447 0.025374
Si Si6 0.541246 0.690093 0.511525
Si Si7 0.682661 0.706483 0.700809
O O1 0.926118 0.967468 0.469731
O O2 0.793262 0.769481 0.617699
O O3 0.626192 0.299471 0.035080
O O4 0.878596 0.960164 0.727239
O O5 0.175354 0.562326 0.292597
O O6 0.951143 0.020039 0.857590
O O7 0.680296 0.231989 0.375242
O O8 0.696812 0.525549 0.332716
O O9 0.781416 0.453759 0.396165
O O10 0.436262 0.298678 0.638041
O O11 0.485718 0.264568 0.773173
O O12 0.350271 0.372570 0.177626
O O13 0.401793 0.008971 0.847296
O O14 0.500000 0.500000 0.500000
O O15 0.500000 0.000000 0.000000
#
# Coordination Sequence:
#
# PCOD9090363 Si02
#       7
#     2   2   2   2   2   2   2
#     4  10  21  44  68  94 131 177 213 266 331 391
#     4  10  24  43  67  97 132 169 218 273 329 376
#     4  11  22  40  68  93 131 176 211 266 326 391
#     4  10  20  38  66  98 126 168 227 268 312 376
#     4  11  24  40  64  99 130 168 221 271 323 385
#     4  10  19  38  65  93 125 169 222 266 317 376
#     4  12  23  41  66  96 129 178 224 259 325 391
#
# _framework density 21.133402
#
# number of rings (size 3 to 8) (size 9 to 14) (size 15 to 20)
#    0.000    1.429    4.286    1.286    2.000    2.286 
#    0.000    0.000    0.000    0.000    0.000    0.000 
#    0.000    0.000    0.000    0.000    0.000    0.000 
#
# Total GULP energy -78172.915208 kJ/mol
# GULP energy per Si atom -5583.779658 kJ/mol
# Density = 2.108530 g / cm^3
# Si number density = 21.133402 Si / 1000 Ang^3
#
#
#
# Elastic Constant Matrix: (Units=GPa)
#
#
# Indices 1 2 3 4 5 6 
#
# 1 65.7527 18.9079 6.4228 -8.1702 30.4011 0.2947
# 2 18.9079 58.4132 20.2623 -4.7315 5.6316 -5.7579
# 3 6.4228 20.2623 89.9142 -7.5206 22.2444 9.8197
# 4 -8.1702 -4.7315 -7.5206 33.7788 -3.6368 5.4938
# 5 30.4011 5.6316 22.2444 -3.6368 40.3735 1.4968
# 6 0.2947 -5.7579 9.8197 5.4938 1.4968 25.5285
#
#
#
# Elastic Compliance Matrix: (Units=1/GPa)
#
#
# Indices 1 2 3 4 5 6 
#
# 1 0.028838 -0.009502 0.006891 0.005447 -0.023514 -0.004921
# 2 -0.009502 0.022656 -0.007261 -0.001196 0.007598 0.007825
# 3 0.006891 -0.007261 0.016671 0.004352 -0.012661 -0.008324
# 4 0.005447 -0.001196 0.004352 0.032842 -0.003045 -0.008896
# 5 -0.023514 0.007598 -0.012661 -0.003045 0.047942 0.004700
# 6 -0.004921 0.007825 -0.008324 -0.008896 0.004700 0.045834
#
#
# Mechanical properties :
#
#
# Convention : Reuss Voigt Hill
#
# Bulk Modulus (GPa) = 20.65173 33.91848 27.28511
# Shear Modulus (GPa) = 21.67621 31.16864 26.42242
#
# Velocity S-wave (km/s) = 3.20611 3.84455 3.53975
# Velocity P-wave (km/s) = 4.84755 5.98264 5.44475
#
# Compressibility (1/GPa) = 0.04842209
#
# Stress axis : x y z
#
# Youngs Moduli (GPa) = 34.67608 44.13889 59.98407
#
# Poissons Ratio (x) = 0.41941 -0.41338
# Poissons Ratio (y) = 0.32950 0.43554
# Poissons Ratio (z) = -0.23897 0.32049
#
# Static dielectric constant tensor:
#      x y z
#    x 1.791270 -0.014800 0.014510 
#    y -0.014800 1.785990 -0.023910 
#    z 0.014510 -0.023910 1.799200 
# 
# From -- ./inp_files/352336.got.cif
#   From: 2010.05.17/outbox.cif.g08.bks.cpg/sg2_177_cif.got.tgz:352336.got - 2010.06.03 11:33:40.
