data_PCOD9090922
_publ_section_title
;
Structure prediction by ZEFSAII (Michael W. Deem and Ramdas Pophale) SiO2 
 PCOD9090922
Probable space group: P -1
;
_chemical_formula_sum "Si O2"
_cell_formula_units_Z 14
_cell_length_a 7.679583
_cell_length_b 8.977135
_cell_length_c 14.344256
_cell_angle_alpha 138.159100
_cell_angle_beta 101.284995
_cell_angle_gamma 79.603472
_cell_volume 645.998459
_symmetry_space_group_name_H-M "P -1"
_symmetry_group_IT_number 2
_symmetry_cell_setting 'triclinic'
loop_
_space_group_symop_operation_xyz
x,y,z
-x,-y,-z
loop_
_atom_site_type_symbol
_atom_site_label
_atom_site_fract_x
_atom_site_fract_y
_atom_site_fract_z
Si Si1 0.716678 0.872593 0.641309
Si Si2 0.218061 0.328151 0.260268
Si Si3 0.429145 0.734081 0.061533
Si Si4 0.343648 0.784836 0.544198
Si Si5 0.153503 0.663119 0.840550
Si Si6 0.173322 0.131511 0.557274
Si Si7 0.620974 0.118705 0.195413
O O1 0.629115 0.097779 0.782729
O O2 0.832691 0.762230 0.684598
O O3 0.552963 0.713447 0.532724
O O4 0.799309 0.907373 0.567387
O O5 0.235777 0.591636 0.397220
O O6 0.417195 0.226158 0.212711
O O7 0.057334 0.273042 0.150768
O O8 0.580652 0.856279 0.075636
O O9 0.500000 0.500000 0.000000
O O10 0.258537 0.710300 0.967479
O O11 0.302977 0.824325 0.667381
O O12 0.318331 0.004810 0.580290
O O13 0.168858 0.395985 0.698529
O O14 0.254371 0.793069 0.830221
O O15 0.000000 0.000000 0.500000
#
# Coordination Sequence:
#
# PCOD9090922 Si02
#       7
#     2   2   2   2   2   2   2
#     4  10  23  41  65  91 131 173 210 274 322 383
#     4  10  21  38  63  98 133 162 222 263 327 384
#     4  10  23  47  68  95 129 171 220 261 330 394
#     4  10  19  39  61  92 130 169 211 266 320 378
#     4  12  23  41  70  95 131 175 213 271 321 386
#     4  12  24  38  62  99 132 166 220 264 323 379
#     4  10  23  40  68  95 129 173 215 267 325 385
#
# _framework density 21.671880000000002
#
# number of rings (size 3 to 8) (size 9 to 14) (size 15 to 20)
#    0.000    1.714    1.429    6.000    2.000    4.571 
#    0.000    0.714    0.000    0.000    0.000    0.000 
#    0.000    0.000    0.000    0.000    0.000    0.000 
#
# Total GULP energy -78217.980286 kJ/mol
# GULP energy per Si atom -5586.998592 kJ/mol
# Density = 2.162255 g / cm^3
# Si number density = 21.671880 Si / 1000 Ang^3
#
#
#
# Elastic Constant Matrix: (Units=GPa)
#
#
# Indices 1 2 3 4 5 6 
#
# 1 63.8617 23.7797 30.3343 -1.1681 21.9599 15.0330
# 2 23.7797 99.8601 27.1750 22.9502 5.4732 8.0338
# 3 30.3343 27.1750 83.3235 14.9394 24.0493 18.4100
# 4 -1.1681 22.9502 14.9394 40.8472 -2.8806 -0.8246
# 5 21.9599 5.4732 24.0493 -2.8806 34.8310 -6.9598
# 6 15.0330 8.0338 18.4100 -0.8246 -6.9598 31.1673
#
#
#
# Elastic Compliance Matrix: (Units=1/GPa)
#
#
# Indices 1 2 3 4 5 6 
#
# 1 0.028553 -0.004754 0.001132 0.001191 -0.021533 -0.017992
# 2 -0.004754 0.013077 -0.001909 -0.006655 0.001763 0.000267
# 3 0.001132 -0.001909 0.024911 -0.009993 -0.022445 -0.020045
# 4 0.001191 -0.006655 -0.009993 0.032973 0.012041 0.010605
# 5 -0.021533 0.001763 -0.022445 0.012041 0.066151 0.038280
# 6 -0.017992 0.000267 -0.020045 0.010605 0.038280 0.061363
#
#
# Mechanical properties :
#
#
# Convention : Reuss Voigt Hill
#
# Bulk Modulus (GPa) = 18.02465 45.51372 31.76918
# Shear Modulus (GPa) = 19.48697 32.41951 25.95324
#
# Velocity S-wave (km/s) = 3.00189 3.87192 3.46432
# Velocity P-wave (km/s) = 4.51112 6.40592 5.54013
#
# Compressibility (1/GPa) = 0.05547959
#
# Stress axis : x y z
#
# Youngs Moduli (GPa) = 35.02297 76.47086 40.14324
#
# Poissons Ratio (x) = 0.36351 -0.04545
# Poissons Ratio (y) = 0.16648 0.07664
# Poissons Ratio (z) = -0.03966 0.14599
#
# Static dielectric constant tensor:
#      x y z
#    x 1.840730 -0.050740 0.030340 
#    y -0.050740 1.861830 0.010620 
#    z 0.030340 0.010620 1.830740 
# 
# From -- ./inp_files/292735.got.cif
#   From: 2010.05.17/outbox.cif.g08.bks.cpg/sg2_147_cif.got.tgz:292735.got - 2010.06.03 11:33:40.
