data_PCOD9090245
_publ_section_title
;
Structure prediction by ZEFSAII (Michael W. Deem and Ramdas Pophale) SiO2 
 PCOD9090245
Probable space group: P -1
;
_chemical_formula_sum "Si O2"
_cell_formula_units_Z 14
_cell_length_a 12.194622
_cell_length_b 7.573643
_cell_length_c 13.714591
_cell_angle_alpha 56.919972
_cell_angle_beta 148.182464
_cell_angle_gamma 121.666046
_cell_volume 554.161908
_symmetry_space_group_name_H-M "P -1"
_symmetry_group_IT_number 2
_symmetry_cell_setting 'triclinic'
loop_
_space_group_symop_operation_xyz
x,y,z
-x,-y,-z
loop_
_atom_site_type_symbol
_atom_site_label
_atom_site_fract_x
_atom_site_fract_y
_atom_site_fract_z
Si Si1 0.772036 0.894775 0.244125
Si Si2 0.215167 0.680030 0.411322
Si Si3 0.399883 0.863279 0.109443
Si Si4 0.773867 0.910602 0.815143
Si Si5 0.397099 0.467043 0.325146
Si Si6 0.406154 0.799701 0.712290
Si Si7 0.893789 0.329396 0.325166
O O1 0.540736 0.814549 0.137912
O O2 0.929924 0.735451 0.446155
O O3 0.848992 0.124856 0.283188
O O4 0.740075 0.961714 0.087888
O O5 0.390341 0.525716 0.579979
O O6 0.239103 0.782781 0.504530
O O7 0.992550 0.536405 0.278175
O O8 0.293072 0.867283 0.338866
O O9 0.286155 0.660780 0.141258
O O10 0.564965 0.975436 0.278923
O O11 0.747074 0.749185 0.751855
O O12 0.625067 0.799452 0.821502
O O13 0.000000 0.000000 0.000000
O O14 0.500000 0.500000 0.500000
O O15 0.309000 0.642257 0.771450
#
# Coordination Sequence:
#
# PCOD9090245 Si02
#       7
#     2   2   2   2   2   2   2
#     4   9  20  36  61  98 131 162 208 279 314 386
#     4  11  22  42  64  92 132 172 214 265 330 393
#     4  10  19  38  64  94 131 163 218 267 324 370
#     4  11  26  45  63  95 134 168 222 274 327 385
#     4  11  22  42  70  94 128 181 220 265 324 395
#     4  10  22  42  64  91 130 172 210 268 323 396
#     4  10  20  39  66  96 127 170 217 257 336 388
#
# _framework density 25.263376000000001
#
# number of rings (size 3 to 8) (size 9 to 14) (size 15 to 20)
#    0.000    1.714    1.429    3.857    2.000    1.143 
#    2.571    2.857    0.000    0.000    0.000    0.000 
#    0.000    0.000    0.000    0.000    0.000    0.000 
#
# Total GULP energy -78116.861171 kJ/mol
# GULP energy per Si atom -5579.775798 kJ/mol
# Density = 2.520588 g / cm^3
# Si number density = 25.263376 Si / 1000 Ang^3
#
#
#
# Elastic Constant Matrix: (Units=GPa)
#
#
# Indices 1 2 3 4 5 6 
#
# 1 71.4831 22.6245 22.2936 14.0074 -10.0693 11.7731
# 2 22.6245 119.1719 45.8204 10.8459 -6.5424 14.4943
# 3 22.2936 45.8204 80.0248 -3.1225 -4.9661 -1.0109
# 4 14.0074 10.8459 -3.1225 41.7113 2.0909 5.4347
# 5 -10.0693 -6.5424 -4.9661 2.0909 30.3865 10.6105
# 6 11.7731 14.4943 -1.0109 5.4347 10.6105 25.3379
#
#
#
# Elastic Compliance Matrix: (Units=1/GPa)
#
#
# Indices 1 2 3 4 5 6 
#
# 1 0.020743 0.001443 -0.006323 -0.006550 0.011541 -0.014144
# 2 0.001443 0.012928 -0.007707 -0.003402 0.005745 -0.010050
# 3 -0.006323 -0.007707 0.018707 0.004583 -0.004094 0.008825
# 4 -0.006550 -0.003402 0.004583 0.027476 -0.004442 0.001139
# 5 0.011541 0.005745 -0.004094 -0.004442 0.047262 -0.027651
# 6 -0.014144 -0.010050 0.008825 0.001139 -0.027651 0.063474
#
#
# Mechanical properties :
#
#
# Convention : Reuss Voigt Hill
#
# Bulk Modulus (GPa) = 36.76033 50.23966 43.50000
# Shear Modulus (GPa) = 22.23874 31.48323 26.86099
#
# Velocity S-wave (km/s) = 2.97016 3.53399 3.26427
# Velocity P-wave (km/s) = 5.13273 6.04827 5.60921
#
# Compressibility (1/GPa) = 0.02720324
#
# Stress axis : x y z
#
# Youngs Moduli (GPa) = 48.20861 77.35145 53.45603
#
# Poissons Ratio (x) = -0.11162 0.33800
# Poissons Ratio (y) = -0.06957 0.41201
# Poissons Ratio (z) = 0.30483 0.59618
#
# Static dielectric constant tensor:
#      x y z
#    x 2.078990 -0.017400 -0.009410 
#    y -0.017400 2.061960 -0.085260 
#    z -0.009410 -0.085260 2.124800 
# 
# From -- ./inp_files/419263.got.cif
#   From: 2010.05.17/outbox.cif.g08.bks.cpg/sg2_210_cif.got.tgz:419263.got - 2010.06.03 11:33:40.
