data_PCOD9090191
_publ_section_title
;
Structure prediction by ZEFSAII (Michael W. Deem and Ramdas Pophale) SiO2 
 PCOD9090191
Probable space group: P -1
;
_chemical_formula_sum "Si O2"
_cell_formula_units_Z 16
_cell_length_a 15.275632
_cell_length_b 9.916949
_cell_length_c 10.361226
_cell_angle_alpha 43.921614
_cell_angle_beta 51.536436
_cell_angle_gamma 85.766726
_cell_volume 617.899948
_symmetry_space_group_name_H-M "P -1"
_symmetry_group_IT_number 2
_symmetry_cell_setting 'triclinic'
loop_
_space_group_symop_operation_xyz
x,y,z
-x,-y,-z
loop_
_atom_site_type_symbol
_atom_site_label
_atom_site_fract_x
_atom_site_fract_y
_atom_site_fract_z
Si Si1 0.019906 0.532797 0.701959
Si Si2 0.151786 0.989484 0.442392
Si Si3 0.327195 0.375897 0.762922
Si Si4 0.780130 0.514131 0.568912
Si Si5 0.410171 0.783139 0.587802
Si Si6 0.727015 0.182990 0.089840
Si Si7 0.019249 0.922247 0.268192
Si Si8 0.465293 0.273177 0.100941
O O1 0.149226 0.523038 0.587194
O O2 0.026918 0.710752 0.462735
O O3 0.039534 0.682073 0.709846
O O4 0.862436 0.239301 0.003637
O O5 0.298714 0.096643 0.313414
O O6 0.055199 0.027814 0.588188
O O7 0.238798 0.175610 0.106223
O O8 0.500000 0.500000 0.500000
O O9 0.349453 0.620624 0.625007
O O10 0.198655 0.193590 0.896435
O O11 0.907338 0.792712 0.336900
O O12 0.758749 0.311839 0.832921
O O13 0.614114 0.414606 0.775815
O O14 0.299172 0.662422 0.895551
O O15 0.570027 0.876355 0.420981
O O16 0.451321 0.056120 0.341118
O O17 0.500000 0.500000 0.000000
#
# Coordination Sequence:
#
# PCOD9090191 Si02
#       8
#     2   2   2   2   2   2   2   2
#     4  10  20  34  61  96 117 157 204 260 303 362
#     4  11  23  41  66  87 128 165 209 248 301 381
#     4  11  24  37  62  99 126 153 202 265 318 346
#     4  10  20  36  65  90 121 158 212 250 300 367
#     4  10  22  37  61  89 124 157 203 259 304 363
#     4   9  18  34  62  88 115 149 207 254 306 340
#     4  10  19  38  64  90 125 159 210 251 300 364
#     4  11  24  42  63  87 119 169 213 241 304 380
#
# _framework density 25.894161
#
# number of rings (size 3 to 8) (size 9 to 14) (size 15 to 20)
#    0.000    1.750    1.250    5.250   12.250    0.500 
#    0.000    2.500    0.000    1.500    0.000    0.000 
#    0.000    0.000    0.000    0.000    0.000    0.000 
#
# Total GULP energy -89390.739355 kJ/mol
# GULP energy per Si atom -5586.921210 kJ/mol
# Density = 2.583522 g / cm^3
# Si number density = 25.894161 Si / 1000 Ang^3
#
#
#
# Elastic Constant Matrix: (Units=GPa)
#
#
# Indices 1 2 3 4 5 6 
#
# 1 74.5311 7.0395 29.4815 -2.7893 -28.9746 -14.3324
# 2 7.0395 85.7105 8.8922 11.0471 -8.9657 -18.7852
# 3 29.4815 8.8922 91.5189 14.1972 -27.6521 -8.8400
# 4 -2.7893 11.0471 14.1972 39.8891 -1.0010 -19.8926
# 5 -28.9746 -8.9657 -27.6521 -1.0010 55.4872 2.9209
# 6 -14.3324 -18.7852 -8.8400 -19.8926 2.9209 29.7065
#
#
#
# Elastic Compliance Matrix: (Units=1/GPa)
#
#
# Indices 1 2 3 4 5 6 
#
# 1 0.022439 0.001934 -0.004853 0.011765 0.008897 0.017609
# 2 0.001934 0.013896 -0.000477 0.001762 0.002496 0.010513
# 3 -0.004853 -0.000477 0.014745 -0.007056 0.004792 -0.003451
# 4 0.011765 0.001762 -0.007056 0.045356 0.001894 0.034877
# 5 0.008897 0.002496 0.004792 0.001894 0.025173 0.006090
# 6 0.017609 0.010513 -0.003451 0.034877 0.006090 0.070535
#
#
# Mechanical properties :
#
#
# Convention : Reuss Voigt Hill
#
# Bulk Modulus (GPa) = 22.57849 38.06520 30.32185
# Shear Modulus (GPa) = 23.39739 38.77305 31.08522
#
# Velocity S-wave (km/s) = 3.00922 3.87378 3.46854
# Velocity P-wave (km/s) = 4.56205 5.89410 5.27033
#
# Compressibility (1/GPa) = 0.04428994
#
# Stress axis : x y z
#
# Youngs Moduli (GPa) = 44.56448 71.96348 67.81833
#
# Poissons Ratio (x) = -0.13919 0.32909
# Poissons Ratio (y) = -0.08619 0.03235
# Poissons Ratio (z) = 0.21625 0.03432
#
# Static dielectric constant tensor:
#      x y z
#    x 2.106380 0.015470 0.028670 
#    y 0.015470 2.031640 0.027380 
#    z 0.028670 0.027380 2.253640 
# 
# From -- ./inp_files/393147.got.cif
#   From: 2010.05.17/outbox.cif.g08.bks.cpg/sg2_197_cif.got.tgz:393147.got - 2010.06.03 11:33:40.
