data_PCOD9090833
_publ_section_title
;
Structure prediction by ZEFSAII (Michael W. Deem and Ramdas Pophale) SiO2 
 PCOD9090833
Probable space group: P -1
;
_chemical_formula_sum "Si O2"
_cell_formula_units_Z 10
_cell_length_a 6.746667
_cell_length_b 9.143953
_cell_length_c 11.635672
_cell_angle_alpha 47.792113
_cell_angle_beta 98.147289
_cell_angle_gamma 69.877222
_cell_volume 421.440370
_symmetry_space_group_name_H-M "P -1"
_symmetry_group_IT_number 2
_symmetry_cell_setting 'triclinic'
loop_
_space_group_symop_operation_xyz
x,y,z
-x,-y,-z
loop_
_atom_site_type_symbol
_atom_site_label
_atom_site_fract_x
_atom_site_fract_y
_atom_site_fract_z
Si Si1 0.231412 0.160199 0.461415
Si Si2 0.549333 0.236352 0.136697
Si Si3 0.473761 0.378130 0.452523
Si Si4 0.882045 0.808690 0.802302
Si Si5 0.204224 0.798638 0.033009
O O1 0.252944 0.342817 0.445594
O O2 0.500000 0.000000 0.500000
O O3 0.246832 0.961366 0.649106
O O4 0.039526 0.283645 0.274765
O O5 0.305700 0.251939 0.138296
O O6 0.500000 0.500000 0.000000
O O7 0.656732 0.127084 0.076685
O O8 0.500000 0.500000 0.500000
O O9 0.725368 0.103249 0.618830
O O10 0.412470 0.551536 0.247985
O O11 0.000000 0.000000 0.000000
O O12 0.063128 0.746322 0.955629
#
# Coordination Sequence:
#
# PCOD9090833 Si02
#       5
#     2   2   2   2   2
#     4   8  18  37  61  87 119 165 205 254 313 362
#     4  10  21  40  66  96 125 165 216 262 313 378
#     4  10  19  39  60  86 130 166 200 260 316 369
#     4  10  22  43  64  91 132 163 211 267 310 381
#     4  12  24  39  66  96 126 171 212 255 328 375
#
# _framework density 23.728148999999998
#
# number of rings (size 3 to 8) (size 9 to 14) (size 15 to 20)
#    0.000    2.400    2.000    3.600    0.000    4.800 
#    0.000   10.000    0.000    0.000    0.000    0.000 
#    0.000    0.000    0.000    0.000    0.000    0.000 
#
# Total GULP energy -55795.589670 kJ/mol
# GULP energy per Si atom -5579.558967 kJ/mol
# Density = 2.367414 g / cm^3
# Si number density = 23.728149 Si / 1000 Ang^3
#
#
#
# Elastic Constant Matrix: (Units=GPa)
#
#
# Indices 1 2 3 4 5 6 
#
# 1 78.2125 43.2107 34.2412 15.3040 -13.1353 8.9134
# 2 43.2107 162.8748 69.5863 25.8319 0.9563 18.7124
# 3 34.2412 69.5863 200.4543 38.2561 -22.1774 -1.5186
# 4 15.3040 25.8319 38.2561 48.2447 6.2909 10.9625
# 5 -13.1353 0.9563 -22.1774 6.2909 30.3226 10.0629
# 6 8.9134 18.7124 -1.5186 10.9625 10.0629 40.5783
#
#
#
# Elastic Compliance Matrix: (Units=1/GPa)
#
#
# Indices 1 2 3 4 5 6 
#
# 1 0.017675 -0.003746 0.000161 -0.004235 0.009921 -0.003465
# 2 -0.003746 0.008609 -0.002608 -0.000426 -0.002915 -0.002407
# 3 0.000161 -0.002608 0.007748 -0.005984 0.006581 0.001442
# 4 -0.004235 -0.000426 -0.005984 0.029451 -0.010861 -0.004360
# 5 0.009921 -0.002915 0.006581 -0.010861 0.047571 -0.009452
# 6 -0.003465 -0.002407 0.001442 -0.004360 -0.009452 0.030091
#
#
# Mechanical properties :
#
#
# Convention : Reuss Voigt Hill
#
# Bulk Modulus (GPa) = 46.20158 81.73533 63.96845
# Shear Modulus (GPa) = 31.10496 43.46270 37.28383
#
# Velocity S-wave (km/s) = 3.62455 4.28447 3.96825
# Velocity P-wave (km/s) = 6.08522 7.68095 6.92917
#
# Compressibility (1/GPa) = 0.02164428
#
# Stress axis : x y z
#
# Youngs Moduli (GPa) = 56.57835 116.15703 129.07202
#
# Poissons Ratio (x) = 0.43517 -0.02076
# Poissons Ratio (y) = 0.21196 0.33662
# Poissons Ratio (z) = -0.00910 0.30293
#
# Static dielectric constant tensor:
#      x y z
#    x 2.065850 0.021860 0.091580 
#    y 0.021860 2.012320 0.024170 
#    z 0.091580 0.024170 2.004060 
# 
# From -- ./inp_files/496050.got.cif
#   From: 2010.05.17/outbox.cif.g08.bks.cpg/sg2_249_cif.got.tgz:496050.got - 2010.06.03 11:33:40.
