data_PCOD9090042
_publ_section_title
;
Structure prediction by ZEFSAII (Michael W. Deem and Ramdas Pophale) SiO2 
 PCOD9090042
Probable space group: P -1
;
_chemical_formula_sum "Si O2"
_cell_formula_units_Z 14
_cell_length_a 8.742222
_cell_length_b 7.760615
_cell_length_c 13.589572
_cell_angle_alpha 81.333683
_cell_angle_beta 53.393138
_cell_angle_gamma 100.060199
_cell_volume 689.821523
_symmetry_space_group_name_H-M "P -1"
_symmetry_group_IT_number 2
_symmetry_cell_setting 'triclinic'
loop_
_space_group_symop_operation_xyz
x,y,z
-x,-y,-z
loop_
_atom_site_type_symbol
_atom_site_label
_atom_site_fract_x
_atom_site_fract_y
_atom_site_fract_z
Si Si1 0.339461 0.976795 0.475434
Si Si2 0.638722 0.163353 0.185128
Si Si3 0.811907 0.318702 0.604597
Si Si4 0.529880 0.787651 0.127956
Si Si5 0.493422 0.304313 0.060429
Si Si6 0.073228 0.988207 0.285595
Si Si7 0.031508 0.103212 0.082269
O O1 0.278122 0.785038 0.453704
O O2 0.500000 0.000000 0.500000
O O3 0.462420 0.128669 0.335538
O O4 0.128563 0.993935 0.590185
O O5 0.642640 0.317920 0.092253
O O6 0.849927 0.184317 0.154558
O O7 0.579880 0.976898 0.155237
O O8 0.634004 0.359033 0.730380
O O9 0.874849 0.173263 0.662556
O O10 0.000000 0.500000 0.500000
O O11 0.446509 0.792888 0.049845
O O12 0.741483 0.758681 0.027254
O O13 0.272077 0.173599 0.194736
O O14 0.500000 0.500000 0.000000
O O15 0.027899 0.969699 0.187361
O O16 0.000000 0.000000 0.000000
#
# Coordination Sequence:
#
# PCOD9090042 Si02
#       7
#     2   2   2   2   2   2   2
#     4  11  22  41  68  91 130 167 212 261 324 375
#     4  10  19  38  63  89 120 170 203 257 322 374
#     4  11  25  41  68  94 125 172 217 260 313 380
#     4   9  20  38  59  89 121 157 212 257 310 373
#     4  11  23  36  63  94 123 159 215 263 316 376
#     4  11  22  40  64  93 123 170 214 262 316 378
#     4   9  19  34  65  88 120 161 207 257 320 371
#
# _framework density 20.295103999999998
#
# number of rings (size 3 to 8) (size 9 to 14) (size 15 to 20)
#    0.000    1.714    4.286    0.857    6.000    0.000 
#    0.000    3.571   12.571    0.000    0.000    0.000 
#    0.000    0.000    0.000    0.000    0.000    0.000 
#
# Total GULP energy -78015.772566 kJ/mol
# GULP energy per Si atom -5572.555183 kJ/mol
# Density = 2.024891 g / cm^3
# Si number density = 20.295104 Si / 1000 Ang^3
#
#
#
# Elastic Constant Matrix: (Units=GPa)
#
#
# Indices 1 2 3 4 5 6 
#
# 1 111.3329 25.1811 62.2689 -7.7285 9.5521 6.1708
# 2 25.1811 53.6592 43.0003 -17.1484 7.4579 4.9583
# 3 62.2689 43.0003 151.4761 -1.8959 -14.2362 4.8013
# 4 -7.7285 -17.1484 -1.8959 38.2694 -1.0167 6.0825
# 5 9.5521 7.4579 -14.2362 -1.0167 52.8042 5.9689
# 6 6.1708 4.9583 4.8013 6.0825 5.9689 20.2720
#
#
#
# Elastic Compliance Matrix: (Units=1/GPa)
#
#
# Indices 1 2 3 4 5 6 
#
# 1 0.012600 -0.000145 -0.005354 0.002486 -0.003397 -0.002278
# 2 -0.000145 0.032674 -0.009297 0.015370 -0.005822 -0.008643
# 3 -0.005354 -0.009297 0.011850 -0.004670 0.005280 0.000944
# 4 0.002486 0.015370 -0.004670 0.035396 -0.001668 -0.013540
# 5 -0.003397 -0.005822 0.005280 -0.001668 0.022316 -0.004863
# 6 -0.002278 -0.008643 0.000944 -0.013540 -0.004863 0.057407
#
#
# Mechanical properties :
#
#
# Convention : Reuss Voigt Hill
#
# Bulk Modulus (GPa) = 36.32172 64.15209 50.23690
# Shear Modulus (GPa) = 23.69533 34.67028 29.18281
#
# Velocity S-wave (km/s) = 3.42063 4.13765 3.79611
# Velocity P-wave (km/s) = 5.79108 7.38276 6.63482
#
# Compressibility (1/GPa) = 0.02753174
#
# Stress axis : x y z
#
# Youngs Moduli (GPa) = 79.36599 30.60536 84.39034
#
# Poissons Ratio (x) = 0.00444 0.45186
# Poissons Ratio (y) = 0.01150 0.78454
# Poissons Ratio (z) = 0.42495 0.28453
#
# Static dielectric constant tensor:
#      x y z
#    x 1.810590 0.018610 0.001670 
#    y 0.018610 1.775710 0.037700 
#    z 0.001670 0.037700 1.740560 
# 
# From -- ./inp_files/182671.got.cif
#   From: 2010.05.17/outbox.cif.g08.bks.cpg/sg2_92_cif.got.tgz:182671.got - 2010.06.03 11:33:40.
