data_PCOD9090858
_publ_section_title
;
Structure prediction by ZEFSAII (Michael W. Deem and Ramdas Pophale) SiO2 
 PCOD9090858
Probable space group: P -1
;
_chemical_formula_sum "Si O2"
_cell_formula_units_Z 14
_cell_length_a 10.184216
_cell_length_b 12.803992
_cell_length_c 7.394327
_cell_angle_alpha 66.192129
_cell_angle_beta 135.569219
_cell_angle_gamma 95.999967
_cell_volume 591.597673
_symmetry_space_group_name_H-M "P -1"
_symmetry_group_IT_number 2
_symmetry_cell_setting 'triclinic'
loop_
_space_group_symop_operation_xyz
x,y,z
-x,-y,-z
loop_
_atom_site_type_symbol
_atom_site_label
_atom_site_fract_x
_atom_site_fract_y
_atom_site_fract_z
Si Si1 0.576773 0.534174 0.768120
Si Si2 0.870490 0.785789 0.206257
Si Si3 0.565933 0.223808 0.171298
Si Si4 0.353294 0.710970 0.181925
Si Si5 0.284198 0.022618 0.358390
Si Si6 0.954435 0.879777 0.611551
Si Si7 0.763628 0.420678 0.358691
O O1 0.520413 0.663669 0.529370
O O2 0.665031 0.417358 0.814854
O O3 0.362271 0.523237 0.630803
O O4 0.727370 0.514933 0.095350
O O5 0.926635 0.810350 0.450174
O O6 0.021815 0.666748 0.360703
O O7 0.653905 0.771653 0.004982
O O8 0.856791 0.900084 0.985792
O O9 0.636305 0.333553 0.230159
O O10 0.712551 0.109974 0.490191
O O11 0.584650 0.223665 0.973062
O O12 0.142876 0.798304 0.963210
O O13 0.226860 0.090108 0.447632
O O14 0.500000 0.000000 0.500000
O O15 0.000000 0.000000 0.500000
#
# Coordination Sequence:
#
# PCOD9090858 Si02
#       7
#     2   2   2   2   2   2   2
#     4   9  19  35  66  85 120 168 195 263 309 355
#     4  11  23  40  64  88 130 163 203 261 308 364
#     4  10  21  40  57  89 125 156 207 254 302 374
#     4  10  19  39  60  90 124 155 213 252 306 369
#     4  10  23  40  58  94 128 162 204 255 312 371
#     4  12  22  40  67  93 121 168 211 250 311 380
#     4  10  19  40  61  88 118 160 212 248 314 367
#
# _framework density 23.664731
#
# number of rings (size 3 to 8) (size 9 to 14) (size 15 to 20)
#    0.000    1.714    4.286    0.857    0.000    5.714 
#    5.143    7.143    0.000    0.000    0.000    0.000 
#    0.000    0.000    0.000    0.000    0.000    0.000 
#
# Total GULP energy -78120.630634 kJ/mol
# GULP energy per Si atom -5580.045045 kJ/mol
# Density = 2.361087 g / cm^3
# Si number density = 23.664731 Si / 1000 Ang^3
#
#
#
# Elastic Constant Matrix: (Units=GPa)
#
#
# Indices 1 2 3 4 5 6 
#
# 1 118.3903 16.8321 52.2686 -17.8907 0.9101 -11.5786
# 2 16.8321 56.4985 30.9961 -14.7729 4.8924 1.3436
# 3 52.2686 30.9961 169.8777 -46.8317 -2.8733 10.8846
# 4 -17.8907 -14.7729 -46.8317 27.9585 -0.1655 5.9235
# 5 0.9101 4.8924 -2.8733 -0.1655 50.7451 -6.3633
# 6 -11.5786 1.3436 10.8846 5.9235 -6.3633 30.3999
#
#
#
# Elastic Compliance Matrix: (Units=1/GPa)
#
#
# Indices 1 2 3 4 5 6 
#
# 1 0.010700 -0.001727 -0.003833 -0.001748 0.000500 0.005970
# 2 -0.001727 0.021456 -0.000183 0.010795 -0.002536 -0.004175
# 3 -0.003833 -0.000183 0.014468 0.024103 -0.000448 -0.011422
# 4 -0.001748 0.010795 0.024103 0.086473 -0.002774 -0.027203
# 5 0.000500 -0.002536 -0.000448 -0.002774 0.020573 0.005310
# 6 0.005970 -0.004175 -0.011422 -0.027203 0.005310 0.045855
#
#
# Mechanical properties :
#
#
# Convention : Reuss Voigt Hill
#
# Bulk Modulus (GPa) = 28.45888 60.55114 44.50501
# Shear Modulus (GPa) = 22.44918 38.13204 30.29061
#
# Velocity S-wave (km/s) = 3.08333 4.01851 3.58158
# Velocity P-wave (km/s) = 4.97271 6.86832 5.99591
#
# Compressibility (1/GPa) = 0.03513841
#
# Stress axis : x y z
#
# Youngs Moduli (GPa) = 93.45518 46.60690 69.11670
#
# Poissons Ratio (x) = 0.08050 0.26492
# Poissons Ratio (y) = 0.16143 0.01264
# Poissons Ratio (z) = 0.35821 0.00852
#
# Static dielectric constant tensor:
#      x y z
#    x 2.012550 -0.054840 -0.062670 
#    y -0.054840 1.926050 0.001290 
#    z -0.062670 0.001290 1.948000 
# 
# From -- ./inp_files/267226.got.cif
#   From: 2010.05.17/outbox.cif.g08.bks.cpg/sg2_134_cif.got.tgz:267226.got - 2010.06.03 11:33:40.
