data_PCOD9090203
_publ_section_title
;
Structure prediction by ZEFSAII (Michael W. Deem and Ramdas Pophale) SiO2 
 PCOD9090203
Probable space group: P -1
;
_chemical_formula_sum "Si O2"
_cell_formula_units_Z 14
_cell_length_a 9.251874
_cell_length_b 9.378661
_cell_length_c 14.262775
_cell_angle_alpha 114.920641
_cell_angle_beta 76.032739
_cell_angle_gamma 51.932709
_cell_volume 629.343590
_symmetry_space_group_name_H-M "P -1"
_symmetry_group_IT_number 2
_symmetry_cell_setting 'triclinic'
loop_
_space_group_symop_operation_xyz
x,y,z
-x,-y,-z
loop_
_atom_site_type_symbol
_atom_site_label
_atom_site_fract_x
_atom_site_fract_y
_atom_site_fract_z
Si Si1 0.177886 0.738674 0.664796
Si Si2 0.846332 0.915397 0.144211
Si Si3 0.414644 0.279569 0.174054
Si Si4 0.238132 0.710977 0.428807
Si Si5 0.529423 0.743901 0.403136
Si Si6 0.896716 0.684335 0.265542
Si Si7 0.304511 0.734779 0.019112
O O1 0.201768 0.753933 0.556955
O O2 0.310488 0.459506 0.589592
O O3 0.888907 0.983623 0.816202
O O4 0.278921 0.812708 0.720498
O O5 0.906004 0.756776 0.181622
O O6 0.114792 0.757784 0.019636
O O7 0.652776 0.006070 0.123329
O O8 0.257941 0.517130 0.339435
O O9 0.182876 0.401081 0.183637
O O10 0.550718 0.288086 0.086674
O O11 0.461274 0.636525 0.337968
O O12 0.000000 0.000000 0.500000
O O13 0.713420 0.690680 0.296874
O O14 0.274738 0.053084 0.566139
O O15 0.500000 0.500000 0.000000
#
# Coordination Sequence:
#
# PCOD9090203 Si02
#       7
#     2   2   2   2   2   2   2
#     4  10  21  38  62  88 119 160 200 253 299 354
#     4  10  20  37  63  86 119 155 206 248 292 356
#     4  12  21  36  66  93 114 159 213 248 294 364
#     4  12  19  35  62  93 113 151 210 250 288 352
#     4  11  21  39  57  86 132 162 191 250 314 356
#     4  11  23  39  57  91 132 163 189 251 318 359
#     4  10  19  38  64  91 121 156 208 252 301 352
#
# _framework density 22.2454
#
# number of rings (size 3 to 8) (size 9 to 14) (size 15 to 20)
#    0.857    0.286    5.714    2.571    0.000    0.000 
#    2.571    2.857    0.000    1.714    0.000    0.000 
#    0.000    0.000    0.000    0.000    0.000    0.000 
#
# Total GULP energy -77982.539018 kJ/mol
# GULP energy per Si atom -5570.181358 kJ/mol
# Density = 2.219477 g / cm^3
# Si number density = 22.245400 Si / 1000 Ang^3
#
#
#
# Elastic Constant Matrix: (Units=GPa)
#
#
# Indices 1 2 3 4 5 6 
#
# 1 55.6570 28.9450 12.9415 -9.1531 -13.4253 -7.7978
# 2 28.9450 73.1026 8.6621 -0.0668 -21.1487 -26.2533
# 3 12.9415 8.6621 64.0972 -8.1418 -13.7982 -10.7523
# 4 -9.1531 -0.0668 -8.1418 26.0391 5.1717 -13.0113
# 5 -13.4253 -21.1487 -13.7982 5.1717 32.0992 2.3380
# 6 -7.7978 -26.2533 -10.7523 -13.0113 2.3380 32.3249
#
#
#
# Elastic Compliance Matrix: (Units=1/GPa)
#
#
# Indices 1 2 3 4 5 6 
#
# 1 0.025020 -0.008128 -0.001910 0.008679 0.002737 0.002094
# 2 -0.008128 0.031131 0.007128 0.010572 0.016376 0.028764
# 3 -0.001910 0.007128 0.021576 0.012532 0.009927 0.016831
# 4 0.008679 0.010572 0.012532 0.065395 0.002460 0.040993
# 5 0.002737 0.016376 0.009927 0.002460 0.045871 0.014935
# 6 0.002094 0.028764 0.016831 0.040993 0.014935 0.075821
#
#
# Mechanical properties :
#
#
# Convention : Reuss Voigt Hill
#
# Bulk Modulus (GPa) = 13.90743 32.66156 23.28450
# Shear Modulus (GPa) = 16.97200 27.57986 22.27593
#
# Velocity S-wave (km/s) = 2.76514 3.52490 3.16788
# Velocity P-wave (km/s) = 4.05710 5.59293 4.88574
#
# Compressibility (1/GPa) = 0.07190403
#
# Stress axis : x y z
#
# Youngs Moduli (GPa) = 39.96880 32.12256 46.34807
#
# Poissons Ratio (x) = 0.26110 0.08853
# Poissons Ratio (y) = 0.32488 -0.33035
# Poissons Ratio (z) = 0.07635 -0.22895
#
# Static dielectric constant tensor:
#      x y z
#    x 1.907600 -0.080480 -0.009960 
#    y -0.080480 1.934870 0.040310 
#    z -0.009960 0.040310 1.856570 
# 
# From -- ./inp_files/460637.got.cif
#   From: 2010.05.17/outbox.cif.g08.bks.cpg/sg2_231_cif.got.tgz:460637.got - 2010.06.03 11:33:40.
