data_PCOD9090896
_publ_section_title
;
Structure prediction by ZEFSAII (Michael W. Deem and Ramdas Pophale) SiO2 
 PCOD9090896
Probable space group: P -1
;
_chemical_formula_sum "Si O2"
_cell_formula_units_Z 16
_cell_length_a 16.359974
_cell_length_b 11.601275
_cell_length_c 18.982437
_cell_angle_alpha 38.653205
_cell_angle_beta 157.963218
_cell_angle_gamma 142.968210
_cell_volume 800.631911
_symmetry_space_group_name_H-M "P -1"
_symmetry_group_IT_number 2
_symmetry_cell_setting 'triclinic'
loop_
_space_group_symop_operation_xyz
x,y,z
-x,-y,-z
loop_
_atom_site_type_symbol
_atom_site_label
_atom_site_fract_x
_atom_site_fract_y
_atom_site_fract_z
Si Si1 0.117793 0.097950 0.974404
Si Si2 0.245381 0.435963 0.296814
Si Si3 0.907840 0.750716 0.481582
Si Si4 0.957815 0.718859 0.935853
Si Si5 0.602657 0.399265 0.241691
Si Si6 0.033722 0.419877 0.664223
Si Si7 0.574972 0.411374 0.862583
Si Si8 0.880098 0.154446 0.242153
O O1 0.390312 0.207804 0.147325
O O2 0.023646 0.269453 0.790214
O O3 0.000000 0.000000 0.000000
O O4 0.058751 0.933536 0.945200
O O5 0.500000 0.500000 0.500000
O O6 0.192770 0.315661 0.239184
O O7 0.079213 0.299417 0.286312
O O8 0.159092 0.623757 0.127807
O O9 0.644241 0.622224 0.347302
O O10 0.022515 0.623344 0.588201
O O11 0.052735 0.812968 0.637892
O O12 0.876679 0.936293 0.328041
O O13 0.788667 0.587838 0.922008
O O14 0.733024 0.530890 0.217943
O O15 0.505851 0.529172 0.155574
O O16 0.808592 0.344773 0.471250
O O17 0.658761 0.222844 0.020404
#
# Coordination Sequence:
#
# PCOD9090896 Si02
#       8
#     2   2   2   2   2   2   2   2
#     4  12  24  41  64  96 129 171 217 261 321 386
#     4  10  22  41  62  87 126 166 200 264 316 371
#     4  10  21  37  60  89 119 157 206 258 312 378
#     4  10  23  39  60  93 124 160 217 251 312 392
#     4  10  22  43  64  93 129 169 213 269 324 377
#     4  10  24  41  64  94 131 169 216 265 324 382
#     4  10  19  39  61  86 123 159 202 261 314 369
#     4  10  21  36  61  89 116 156 210 254 313 372
#
# _framework density 19.984214000000001
#
# number of rings (size 3 to 8) (size 9 to 14) (size 15 to 20)
#    0.000    1.750    1.250    2.250    1.750    5.500 
#    0.000    5.000    0.000    0.000    0.000    0.000 
#    0.000    0.000    0.000    0.000    0.000    0.000 
#
# Total GULP energy -89302.163958 kJ/mol
# GULP energy per Si atom -5581.385247 kJ/mol
# Density = 1.993873 g / cm^3
# Si number density = 19.984214 Si / 1000 Ang^3
#
#
#
# Elastic Constant Matrix: (Units=GPa)
#
#
# Indices 1 2 3 4 5 6 
#
# 1 132.9346 94.0332 70.5453 -20.5857 3.2012 -11.8212
# 2 94.0332 175.9345 71.3312 -19.3119 3.2799 -26.2668
# 3 70.5453 71.3312 104.4251 -2.4370 0.1763 -5.5349
# 4 -20.5857 -19.3119 -2.4370 34.5539 0.1799 2.6039
# 5 3.2012 3.2799 0.1763 0.1799 25.6876 -0.2909
# 6 -11.8212 -26.2668 -5.5349 2.6039 -0.2909 39.8393
#
#
#
# Elastic Compliance Matrix: (Units=1/GPa)
#
#
# Indices 1 2 3 4 5 6 
#
# 1 0.015716 -0.004751 -0.007219 0.006197 -0.001345 0.000113
# 2 -0.004751 0.010837 -0.003866 0.002579 -0.000726 0.005025
# 3 -0.007219 -0.003866 0.016866 -0.005128 0.001291 -0.002003
# 4 0.006197 0.002579 -0.005128 0.033672 -0.001295 0.000617
# 5 -0.001345 -0.000726 0.001291 -0.001295 0.039186 -0.000328
# 6 0.000113 0.005025 -0.002003 0.000617 -0.000328 0.028126
#
#
# Mechanical properties :
#
#
# Convention : Reuss Voigt Hill
#
# Bulk Modulus (GPa) = 85.11996 98.34594 91.73295
# Shear Modulus (GPa) = 27.77924 31.84180 29.81052
#
# Velocity S-wave (km/s) = 3.73239 3.99601 3.86645
# Velocity P-wave (km/s) = 7.82690 8.40294 8.12003
#
# Compressibility (1/GPa) = 0.01174813
#
# Stress axis : x y z
#
# Youngs Moduli (GPa) = 63.62883 92.27497 59.29220
#
# Poissons Ratio (x) = 0.43838 0.42804
# Poissons Ratio (y) = 0.30229 0.22920
# Poissons Ratio (z) = 0.45934 0.35669
#
# Static dielectric constant tensor:
#      x y z
#    x 1.708880 -0.018560 -0.019600 
#    y -0.018560 1.717620 0.013820 
#    z -0.019600 0.013820 1.715690 
# 
# From -- ./inp_files/532426.got.cif
#   From: 2010.05.17/outbox.cif.g08.bks.cpg/sg2_267_cif.got.tgz:532426.got - 2010.06.03 11:33:40.
