data_PCOD9090402
_publ_section_title
;
Structure prediction by ZEFSAII (Michael W. Deem and Ramdas Pophale) SiO2 
 PCOD9090402
Probable space group: P -1
;
_chemical_formula_sum "Si O2"
_cell_formula_units_Z 16
_cell_length_a 12.536412
_cell_length_b 12.996392
_cell_length_c 8.365485
_cell_angle_alpha 131.795894
_cell_angle_beta 114.443755
_cell_angle_gamma 45.863771
_cell_volume 726.029895
_symmetry_space_group_name_H-M "P -1"
_symmetry_group_IT_number 2
_symmetry_cell_setting 'triclinic'
loop_
_space_group_symop_operation_xyz
x,y,z
-x,-y,-z
loop_
_atom_site_type_symbol
_atom_site_label
_atom_site_fract_x
_atom_site_fract_y
_atom_site_fract_z
Si Si1 0.458455 0.684127 0.104933
Si Si2 0.900717 0.317193 0.413038
Si Si3 0.200759 0.042574 0.450499
Si Si4 0.288650 0.288324 0.746461
Si Si5 0.848198 0.594708 0.899618
Si Si6 0.365710 0.668580 0.691223
Si Si7 0.998623 0.334006 0.157295
Si Si8 0.110712 0.012801 0.689012
O O1 0.575962 0.721859 0.248959
O O2 0.310894 0.840501 0.265480
O O3 0.500000 0.500000 0.000000
O O4 0.433709 0.701489 0.916218
O O5 0.857865 0.437972 0.665458
O O6 0.748394 0.353292 0.313005
O O7 0.041717 0.125168 0.356864
O O8 0.970783 0.349615 0.343695
O O9 0.262622 0.146898 0.538781
O O10 0.176171 0.068137 0.651716
O O11 0.145389 0.481908 0.806735
O O12 0.285365 0.292409 0.942519
O O13 0.860785 0.686155 0.849632
O O14 0.000000 0.500000 0.000000
O O15 0.500000 0.500000 0.500000
O O16 0.250115 0.833630 0.673722
O O17 0.019360 0.166988 0.922843
O O18 0.000000 0.000000 0.500000
#
# Coordination Sequence:
#
# PCOD9090402 Si02
#       8
#     2   2   2   2   2   2   2   2
#     4  12  28  47  71 103 147 194 238 296 368 434
#     4  12  23  41  71 106 139 179 242 304 350 429
#     4  12  24  45  72 105 138 189 246 296 359 425
#     4  11  23  45  72 101 144 191 237 293 364 433
#     4  10  19  38  65  98 133 177 230 284 356 418
#     4  12  28  47  69 103 146 192 238 294 366 433
#     4  11  23  39  70 106 137 179 242 297 360 418
#     4  12  26  43  73 106 142 191 241 300 355 432
#
# _framework density 22.037659999999999
#
# number of rings (size 3 to 8) (size 9 to 14) (size 15 to 20)
#    0.000    0.500    5.000    4.500    5.250    1.000 
#    0.000    0.625    0.000    0.000    0.000    0.000 
#    0.000    0.000    0.000    0.000    0.000    0.000 
#
# Total GULP energy -89318.332202 kJ/mol
# GULP energy per Si atom -5582.395763 kJ/mol
# Density = 2.198750 g / cm^3
# Si number density = 22.037660 Si / 1000 Ang^3
#
#
#
# Elastic Constant Matrix: (Units=GPa)
#
#
# Indices 1 2 3 4 5 6 
#
# 1 84.9429 22.5425 -1.7485 6.8395 2.3763 0.9183
# 2 22.5425 105.9915 22.5104 11.4638 -0.3235 1.2165
# 3 -1.7485 22.5104 78.0133 20.6537 -2.0573 -14.8142
# 4 6.8395 11.4638 20.6537 38.0261 4.5907 -6.7471
# 5 2.3763 -0.3235 -2.0573 4.5907 39.6061 -3.7633
# 6 0.9183 1.2165 -14.8142 -6.7471 -3.7633 30.1659
#
#
#
# Elastic Compliance Matrix: (Units=1/GPa)
#
#
# Indices 1 2 3 4 5 6 
#
# 1 0.012756 -0.002825 0.001701 -0.002316 -0.000433 -0.000011
# 2 -0.002825 0.010908 -0.003267 -0.001413 0.000037 -0.002270
# 3 0.001701 -0.003267 0.017254 -0.007712 0.002338 0.007120
# 4 -0.002316 -0.001413 -0.007712 0.032330 -0.003725 0.003107
# 5 -0.000433 0.000037 0.002338 -0.003725 0.026169 0.003591
# 6 -0.000011 -0.002270 0.007120 0.003107 0.003591 0.037881
#
#
# Mechanical properties :
#
#
# Convention : Reuss Voigt Hill
#
# Bulk Modulus (GPa) = 31.11684 39.50626 35.31155
# Shear Modulus (GPa) = 31.88907 36.60252 34.24579
#
# Velocity S-wave (km/s) = 3.80811 4.07984 3.94632
# Velocity P-wave (km/s) = 5.78671 6.33712 6.06816
#
# Compressibility (1/GPa) = 0.03213694
#
# Stress axis : x y z
#
# Youngs Moduli (GPa) = 78.39442 91.67310 57.95629
#
# Poissons Ratio (x) = 0.25896 -0.09856
# Poissons Ratio (y) = 0.22145 0.18933
# Poissons Ratio (z) = -0.13332 0.29947
#
# Static dielectric constant tensor:
#      x y z
#    x 1.918310 0.053840 0.029630 
#    y 0.053840 1.855450 -0.020700 
#    z 0.029630 -0.020700 1.839260 
# 
# From -- ./inp_files/263518.got.cif
#   From: 2010.05.17/outbox.cif.g08.bks.cpg/sg2_132_cif.got.tgz:263518.got - 2010.06.03 11:33:40.
