data_PCOD9090817
_publ_section_title
;
Structure prediction by ZEFSAII (Michael W. Deem and Ramdas Pophale) SiO2 
 PCOD9090817
Probable space group: P -1
;
_chemical_formula_sum "Si O2"
_cell_formula_units_Z 16
_cell_length_a 9.344733
_cell_length_b 15.150972
_cell_length_c 14.271757
_cell_angle_alpha 147.805029
_cell_angle_beta 59.372023
_cell_angle_gamma 98.242930
_cell_volume 721.204376
_symmetry_space_group_name_H-M "P -1"
_symmetry_group_IT_number 2
_symmetry_cell_setting 'triclinic'
loop_
_space_group_symop_operation_xyz
x,y,z
-x,-y,-z
loop_
_atom_site_type_symbol
_atom_site_label
_atom_site_fract_x
_atom_site_fract_y
_atom_site_fract_z
Si Si1 0.133744 0.984700 0.817149
Si Si2 0.027213 0.196144 0.734594
Si Si3 0.240028 0.033753 0.022523
Si Si4 0.051227 0.334384 0.031880
Si Si5 0.941816 0.885537 0.552772
Si Si6 0.730241 0.765649 0.636350
Si Si7 0.499891 0.767497 0.204005
Si Si8 0.624793 0.378028 0.714531
O O1 0.328696 0.738945 0.504572
O O2 0.197522 0.064731 0.953452
O O3 0.078918 0.131665 0.879076
O O4 0.923853 0.007999 0.930111
O O5 0.985416 0.252687 0.690643
O O6 0.283454 0.006706 0.483516
O O7 0.968031 0.371176 0.986523
O O8 0.924377 0.085991 0.704478
O O9 0.201963 0.215597 0.265800
O O10 0.490900 0.844902 0.786770
O O11 0.892657 0.534861 0.330241
O O12 0.286399 0.262425 0.894149
O O13 0.747081 0.917237 0.698384
O O14 0.137724 0.746361 0.433900
O O15 0.486233 0.676776 0.224841
O O16 0.511925 0.624332 0.987734
#
# Coordination Sequence:
#
# PCOD9090817 Si02
#       8
#     2   2   2   2   2   2   2   2
#     4  11  22  42  65  86 117 153 202 253 290 344
#     4  10  22  35  58  90 123 159 190 231 287 365
#     4  10  24  44  64  82 110 161 206 247 303 340
#     4  12  22  37  60  91 123 146 197 245 293 350
#     4  10  19  40  57  82 123 163 185 235 298 348
#     4  11  23  42  63  85 120 157 196 251 297 344
#     4  10  20  35  58  90 119 159 187 231 291 364
#     4  10  19  39  60  83 123 160 188 233 296 353
#
# _framework density 22.185112
#
# number of rings (size 3 to 8) (size 9 to 14) (size 15 to 20)
#    0.000    1.500    5.000    0.375    1.750    1.500 
#    9.000    0.000    0.000    0.000    0.000    0.000 
#    0.000    0.000    0.000    0.000    0.000    0.000 
#
# Total GULP energy -89386.969885 kJ/mol
# GULP energy per Si atom -5586.685618 kJ/mol
# Density = 2.213462 g / cm^3
# Si number density = 22.185112 Si / 1000 Ang^3
#
#
#
# Elastic Constant Matrix: (Units=GPa)
#
#
# Indices 1 2 3 4 5 6 
#
# 1 97.8666 7.0459 63.0107 -11.2058 18.0337 -11.7176
# 2 7.0459 22.0652 14.6127 -14.3170 8.7232 -0.0265
# 3 63.0107 14.6127 124.0638 -19.4591 19.8669 8.0760
# 4 -11.2058 -14.3170 -19.4591 22.9302 -4.0775 4.9098
# 5 18.0337 8.7232 19.8669 -4.0775 45.2698 -16.4480
# 6 -11.7176 -0.0265 8.0760 4.9098 -16.4480 28.0519
#
#
#
# Elastic Compliance Matrix: (Units=1/GPa)
#
#
# Indices 1 2 3 4 5 6 
#
# 1 0.017808 -0.001894 -0.010524 -0.003684 0.002027 0.012300
# 2 -0.001894 0.092652 0.005553 0.063257 -0.023759 -0.027304
# 3 -0.010524 0.005553 0.017992 0.015710 -0.009955 -0.018157
# 4 -0.003684 0.063257 0.015710 0.098471 -0.021842 -0.036044
# 5 0.002027 -0.023759 -0.009955 -0.021842 0.039382 0.030604
# 6 0.012300 -0.027304 -0.018157 -0.036044 0.030604 0.070241
#
#
# Mechanical properties :
#
#
# Convention : Reuss Voigt Hill
#
# Bulk Modulus (GPa) = 8.71683 45.92602 27.32142
# Shear Modulus (GPa) = 12.86947 29.87214 21.37080
#
# Velocity S-wave (km/s) = 2.41113 3.67344 3.10707
# Velocity P-wave (km/s) = 3.41893 6.22402 5.02133
#
# Compressibility (1/GPa) = 0.11472066
#
# Stress axis : x y z
#
# Youngs Moduli (GPa) = 56.15538 10.79307 55.58092
#
# Poissons Ratio (x) = 0.02044 0.58496
# Poissons Ratio (y) = 0.10634 -0.30862
# Poissons Ratio (z) = 0.59100 -0.05993
#
# Static dielectric constant tensor:
#      x y z
#    x 1.851320 0.000790 0.048060 
#    y 0.000790 1.827060 0.001320 
#    z 0.048060 0.001320 1.842680 
# 
# From -- ./inp_files/208645.got.cif
#   From: 2010.05.17/outbox.cif.g08.bks.cpg/sg2_105_cif.got.tgz:208645.got - 2010.06.03 11:33:40.
