data_PCOD9090623
_publ_section_title
;
Structure prediction by ZEFSAII (Michael W. Deem and Ramdas Pophale) SiO2 
 PCOD9090623
Probable space group: P -1
;
_chemical_formula_sum "Si O2"
_cell_formula_units_Z 16
_cell_length_a 8.548057
_cell_length_b 7.612554
_cell_length_c 19.202502
_cell_angle_alpha 108.290123
_cell_angle_beta 41.150803
_cell_angle_gamma 128.910990
_cell_volume 608.139263
_symmetry_space_group_name_H-M "P -1"
_symmetry_group_IT_number 2
_symmetry_cell_setting 'triclinic'
loop_
_space_group_symop_operation_xyz
x,y,z
-x,-y,-z
loop_
_atom_site_type_symbol
_atom_site_label
_atom_site_fract_x
_atom_site_fract_y
_atom_site_fract_z
Si Si1 0.126028 0.123472 0.151736
Si Si2 0.776115 0.028844 0.034162
Si Si3 0.230428 0.771032 0.812683
Si Si4 0.199195 0.725721 0.273004
Si Si5 0.274091 0.375349 0.261204
Si Si6 0.410787 0.562713 0.621811
Si Si7 0.484210 0.696787 0.353746
Si Si8 0.724713 0.042879 0.491997
O O1 0.828067 0.938054 0.274729
O O2 0.017336 0.234820 0.149840
O O3 0.363470 0.302598 0.154040
O O4 0.192545 0.988740 0.060210
O O5 0.425699 0.806586 0.141498
O O6 0.831101 0.245493 0.085907
O O7 0.000000 0.000000 0.000000
O O8 0.272166 0.597733 0.740450
O O9 0.560557 0.039766 0.732142
O O10 0.109843 0.478217 0.298434
O O11 0.878179 0.653563 0.351039
O O12 0.504222 0.594179 0.261749
O O13 0.053076 0.166252 0.363535
O O14 0.593994 0.479796 0.579642
O O15 0.591339 0.807856 0.550524
O O16 0.266994 0.767548 0.440160
O O17 0.500000 0.000000 0.500000
#
# Coordination Sequence:
#
# PCOD9090623 Si02
#       8
#     2   2   2   2   2   2   2   2
#     4  11  19  41  63  95 134 164 219 273 311 385
#     4   8  18  35  65  97 130 167 217 272 316 381
#     4   9  18  39  62  92 133 163 212 275 307 377
#     4  10  19  38  68  92 127 181 207 264 334 376
#     4  12  22  41  69  92 131 179 212 269 333 377
#     4  12  24  43  67  97 135 172 215 266 328 386
#     4  12  26  42  67  97 131 175 220 260 327 398
#     4  12  23  47  68  94 135 164 217 282 319 384
#
# _framework density 26.309763
#
# number of rings (size 3 to 8) (size 9 to 14) (size 15 to 20)
#    0.750    0.500    6.250    0.375    0.000    2.500 
#    2.250    1.250    0.000    0.000    0.000    0.000 
#    0.000    0.000    0.000    0.000    0.000    0.000 
#
# Total GULP energy -89340.118391 kJ/mol
# GULP energy per Si atom -5583.757399 kJ/mol
# Density = 2.624988 g / cm^3
# Si number density = 26.309763 Si / 1000 Ang^3
#
#
#
# Elastic Constant Matrix: (Units=GPa)
#
#
# Indices 1 2 3 4 5 6 
#
# 1 70.2461 13.5628 30.6846 -3.2339 10.7715 -4.7003
# 2 13.5628 56.5783 46.9177 8.7283 4.9688 12.5637
# 3 30.6846 46.9177 113.3081 32.9691 24.0475 2.2168
# 4 -3.2339 8.7283 32.9691 50.1275 17.4409 11.2286
# 5 10.7715 4.9688 24.0475 17.4409 23.6082 4.4927
# 6 -4.7003 12.5637 2.2168 11.2286 4.4927 39.3008
#
#
#
# Elastic Compliance Matrix: (Units=1/GPa)
#
#
# Indices 1 2 3 4 5 6 
#
# 1 0.018355 -0.001256 -0.004666 0.007201 -0.009027 0.001834
# 2 -0.001256 0.032487 -0.016086 0.004307 0.009205 -0.011911
# 3 -0.004666 -0.016086 0.021724 -0.009649 -0.010886 0.007360
# 4 0.007201 0.004307 -0.009649 0.033988 -0.018022 -0.007622
# 5 -0.009027 0.009205 -0.010886 -0.018022 0.070136 -0.006277
# 6 0.001834 -0.011911 0.007360 -0.007622 -0.006277 0.031952
#
#
# Mechanical properties :
#
#
# Convention : Reuss Voigt Hill
#
# Bulk Modulus (GPa) = 35.02679 46.94030 40.98354
# Shear Modulus (GPa) = 19.07136 32.53847 25.80492
#
# Velocity S-wave (km/s) = 2.69528 3.52055 3.13519
# Velocity P-wave (km/s) = 4.79877 5.86565 5.35883
#
# Compressibility (1/GPa) = 0.02854958
#
# Stress axis : x y z
#
# Youngs Moduli (GPa) = 54.48168 30.78164 46.03309
#
# Poissons Ratio (x) = 0.03867 0.21479
# Poissons Ratio (y) = 0.06844 0.74047
# Poissons Ratio (z) = 0.25421 0.49514
#
# Static dielectric constant tensor:
#      x y z
#    x 2.071800 0.024570 0.027050 
#    y 0.024570 2.064060 0.068540 
#    z 0.027050 0.068540 2.085160 
# 
# From -- ./inp_files/556313.got.cif
#   From: 2010.05.17/outbox.cif.g08.bks.cpg/sg2_279_cif.got.tgz:556313.got - 2010.06.03 11:33:40.
