data_PCOD9090505
_publ_section_title
;
Structure prediction by ZEFSAII (Michael W. Deem and Ramdas Pophale) SiO2 
 PCOD9090505
Probable space group: P -1
;
_chemical_formula_sum "Si O2"
_cell_formula_units_Z 16
_cell_length_a 17.033615
_cell_length_b 24.295054
_cell_length_c 12.531755
_cell_angle_alpha 23.694959
_cell_angle_beta 150.556428
_cell_angle_gamma 156.451054
_cell_volume 816.585534
_symmetry_space_group_name_H-M "P -1"
_symmetry_group_IT_number 2
_symmetry_cell_setting 'triclinic'
loop_
_space_group_symop_operation_xyz
x,y,z
-x,-y,-z
loop_
_atom_site_type_symbol
_atom_site_label
_atom_site_fract_x
_atom_site_fract_y
_atom_site_fract_z
Si Si1 0.082299 0.374052 0.082886
Si Si2 0.371026 0.954634 0.820581
Si Si3 0.134235 0.203308 0.812462
Si Si4 0.823532 0.867410 0.785387
Si Si5 0.516647 0.255201 0.769821
Si Si6 0.834084 0.796041 0.690605
Si Si7 0.969673 0.557886 0.747613
Si Si8 0.738948 0.759691 0.327441
O O1 0.853251 0.213625 0.121985
O O2 0.221919 0.364580 0.347925
O O3 0.083925 0.534172 0.832257
O O4 0.000000 0.500000 0.000000
O O5 0.332395 0.088515 0.496838
O O6 0.466547 0.899820 0.946209
O O7 0.500000 0.000000 0.000000
O O8 0.991706 0.261144 0.525726
O O9 0.287273 0.277487 0.763026
O O10 0.220618 0.237903 0.972030
O O11 0.000000 0.000000 0.000000
O O12 0.821159 0.777572 0.834728
O O13 0.049841 0.048758 0.742806
O O14 0.360984 0.237853 0.532747
O O15 0.730293 0.425463 0.687336
O O16 0.437197 0.256385 0.789722
O O17 0.874729 0.674173 0.894367
O O18 0.000000 0.000000 0.500000
#
# Coordination Sequence:
#
# PCOD9090505 Si02
#       8
#     2   2   2   2   2   2   2   2
#     4   9  18  30  55  83 110 138 193 237 273 322
#     4  10  16  28  51  85 112 143 183 231 274 328
#     4  10  22  39  60  78 114 159 192 226 299 351
#     4  10  19  32  58  82 117 155 183 231 290 338
#     4  10  20  30  58  90 112 140 201 243 275 324
#     4  11  16  33  58  91 116 147 191 240 279 335
#     4  11  22  39  59  85 113 154 194 241 286 339
#     4   9  17  35  55  88 108 146 192 238 273 337
#
# _framework density 19.593783999999999
#
# number of rings (size 3 to 8) (size 9 to 14) (size 15 to 20)
#    0.000    2.000    6.250    0.000    1.750    0.500 
#    0.000    1.875    0.000    0.000    0.000    0.000 
#    0.000    0.000    0.000    0.000    0.000    0.000 
#
# Total GULP energy -89202.634964 kJ/mol
# GULP energy per Si atom -5575.164685 kJ/mol
# Density = 1.954919 g / cm^3
# Si number density = 19.593784 Si / 1000 Ang^3
#
#
#
# Elastic Constant Matrix: (Units=GPa)
#
#
# Indices 1 2 3 4 5 6 
#
# 1 182.1105 18.4843 64.9202 9.1906 16.7106 -38.5637
# 2 18.4843 44.0167 15.0526 9.5336 2.0380 -5.6168
# 3 64.9202 15.0526 99.4071 3.8564 15.3819 -22.9833
# 4 9.1906 9.5336 3.8564 23.5613 -11.8680 1.8883
# 5 16.7106 2.0380 15.3819 -11.8680 39.8546 7.2938
# 6 -38.5637 -5.6168 -22.9833 1.8883 7.2938 32.7306
#
#
#
# Elastic Compliance Matrix: (Units=1/GPa)
#
#
# Indices 1 2 3 4 5 6 
#
# 1 0.010219 0.000498 -0.001976 -0.009329 -0.008746 0.013225
# 2 0.000498 0.027388 -0.001253 -0.015071 -0.006859 0.006804
# 3 -0.001976 -0.001253 0.015777 -0.006842 -0.009245 0.010990
# 4 -0.009329 -0.015071 -0.006842 0.073194 0.034670 -0.030331
# 5 -0.008746 -0.006859 -0.009245 0.034670 0.048640 -0.030813
# 6 0.013225 0.006804 0.010990 -0.030331 -0.030813 0.063635
#
#
# Mechanical properties :
#
#
# Convention : Reuss Voigt Hill
#
# Bulk Modulus (GPa) = 20.86770 58.04983 39.45877
# Shear Modulus (GPa) = 19.20928 34.36780 26.78854
#
# Velocity S-wave (km/s) = 3.13449 4.19264 3.70157
# Velocity P-wave (km/s) = 4.87579 7.28894 6.20089
#
# Compressibility (1/GPa) = 0.04792094
#
# Stress axis : x y z
#
# Youngs Moduli (GPa) = 97.85620 36.51195 63.38371
#
# Poissons Ratio (x) = -0.01817 0.12526
# Poissons Ratio (y) = -0.04870 0.07942
# Poissons Ratio (z) = 0.19339 0.04575
#
# Static dielectric constant tensor:
#      x y z
#    x 1.724560 -0.031960 0.007110 
#    y -0.031960 1.745730 -0.024240 
#    z 0.007110 -0.024240 1.698510 
# 
# From -- ./inp_files/467237.got.cif
#   From: 2010.05.17/outbox.cif.g08.bks.cpg/sg2_234_cif.got.tgz:467237.got - 2010.06.03 11:33:40.
