data_PCOD9090386
_publ_section_title
;
Structure prediction by ZEFSAII (Michael W. Deem and Ramdas Pophale) SiO2 
 PCOD9090386
Probable space group: P -1
;
_chemical_formula_sum "Si O2"
_cell_formula_units_Z 16
_cell_length_a 8.331912
_cell_length_b 9.052431
_cell_length_c 16.064602
_cell_angle_alpha 89.385851
_cell_angle_beta 43.499270
_cell_angle_gamma 61.636346
_cell_volume 612.341593
_symmetry_space_group_name_H-M "P -1"
_symmetry_group_IT_number 2
_symmetry_cell_setting 'triclinic'
loop_
_space_group_symop_operation_xyz
x,y,z
-x,-y,-z
loop_
_atom_site_type_symbol
_atom_site_label
_atom_site_fract_x
_atom_site_fract_y
_atom_site_fract_z
Si Si1 0.164989 0.985911 0.606276
Si Si2 0.412105 0.312057 0.862490
Si Si3 0.821787 0.537079 0.808345
Si Si4 0.837846 0.799126 0.910807
Si Si5 0.142319 0.705740 0.059286
Si Si6 0.690388 0.135740 0.256559
Si Si7 0.310265 0.764192 0.403619
Si Si8 0.951596 0.672089 0.449665
O O1 0.248521 0.930018 0.669862
O O2 0.346581 0.781338 0.486403
O O3 0.220776 0.115855 0.536564
O O4 0.782745 0.137243 0.745984
O O5 0.412397 0.304410 0.762539
O O6 0.239398 0.258826 0.976967
O O7 0.282472 0.522326 0.945478
O O8 0.945792 0.634182 0.801515
O O9 0.921423 0.355538 0.830250
O O10 0.914294 0.475188 0.678421
O O11 0.437583 0.692087 0.960462
O O12 0.104614 0.804689 0.831674
O O13 0.500000 0.000000 0.000000
O O14 0.844883 0.935665 0.147016
O O15 0.310234 0.294466 0.394840
O O16 0.206531 0.648509 0.411248
O O17 0.000000 0.000000 0.500000
#
# Coordination Sequence:
#
# PCOD9090386 Si02
#       8
#     2   2   2   2   2   2   2   2
#     4  10  17  32  56  80 100 135 181 214 249 313
#     4   9  16  32  52  77  95 138 183 204 246 308
#     4  10  17  30  48  71 106 141 166 206 257 315
#     4  11  20  29  47  79 113 132 168 215 263 308
#     4  10  16  28  51  78 100 131 176 216 250 304
#     4  12  21  30  52  89 109 126 165 232 269 285
#     4   8  17  32  56  77  96 140 184 207 243 317
#     4  10  19  32  51  80 107 131 173 219 263 296
#
# _framework density 26.129204000000001
#
# number of rings (size 3 to 8) (size 9 to 14) (size 15 to 20)
#    0.000    2.250    6.250    1.125    0.000    0.500 
#    0.000    0.000    0.000   14.250    6.500    0.875 
#    0.000    0.000    0.000    0.000    0.000    0.000 
#
# Total GULP energy -89593.007455 kJ/mol
# GULP energy per Si atom -5599.562966 kJ/mol
# Density = 2.606973 g / cm^3
# Si number density = 26.129204 Si / 1000 Ang^3
#
#
#
# Elastic Constant Matrix: (Units=GPa)
#
#
# Indices 1 2 3 4 5 6 
#
# 1 68.0139 22.4959 49.5787 3.1574 14.3805 5.0795
# 2 22.4959 118.9030 77.0651 -12.3074 10.9161 32.6924
# 3 49.5787 77.0651 180.3444 2.3660 12.1999 25.9879
# 4 3.1574 -12.3074 2.3660 43.2987 14.3818 -6.6358
# 5 14.3805 10.9161 12.1999 14.3818 55.6520 9.0581
# 6 5.0795 32.6924 25.9879 -6.6358 9.0581 25.2983
#
#
#
# Elastic Compliance Matrix: (Units=1/GPa)
#
#
# Indices 1 2 3 4 5 6 
#
# 1 0.019502 -0.001057 -0.005295 0.000851 -0.004670 0.004784
# 2 -0.001057 0.015842 -0.004327 0.002524 -0.000076 -0.015125
# 3 -0.005295 -0.004327 0.009382 -0.002487 0.001481 -0.004165
# 4 0.000851 0.002524 -0.002487 0.028423 -0.009117 0.009842
# 5 -0.004670 -0.000076 0.001481 -0.009117 0.023032 -0.011123
# 6 0.004784 -0.015125 -0.004165 0.009842 -0.011123 0.068957
#
#
# Mechanical properties :
#
#
# Convention : Reuss Voigt Hill
#
# Bulk Modulus (GPa) = 42.79133 73.94898 58.37015
# Shear Modulus (GPa) = 25.73523 39.39123 32.56323
#
# Velocity S-wave (km/s) = 3.14175 3.88694 3.53404
# Velocity P-wave (km/s) = 5.43812 6.96470 6.24821
#
# Compressibility (1/GPa) = 0.02336922
#
# Stress axis : x y z
#
# Youngs Moduli (GPa) = 51.27562 63.12420 106.58303
#
# Poissons Ratio (x) = 0.06671 0.56430
# Poissons Ratio (y) = 0.05419 0.46123
# Poissons Ratio (z) = 0.27148 0.27317
#
# Static dielectric constant tensor:
#      x y z
#    x 2.167510 -0.008990 -0.068120 
#    y -0.008990 2.094100 0.037550 
#    z -0.068120 0.037550 2.044230 
# 
# From -- ./inp_files/609846.got.cif
#   From: 2010.05.17/outbox.cif.g08.bks.cpg/sg2_305_cif.got.tgz:609846.got - 2010.06.03 11:33:40.
