data_PCOD9090824
_publ_section_title
;
Structure prediction by ZEFSAII (Michael W. Deem and Ramdas Pophale) SiO2 
 PCOD9090824
Probable space group: P -1
;
_chemical_formula_sum "Si O2"
_cell_formula_units_Z 14
_cell_length_a 8.128007
_cell_length_b 16.662804
_cell_length_c 15.673631
_cell_angle_alpha 24.699553
_cell_angle_beta 138.727257
_cell_angle_gamma 136.550183
_cell_volume 577.899125
_symmetry_space_group_name_H-M "P -1"
_symmetry_group_IT_number 2
_symmetry_cell_setting 'triclinic'
loop_
_space_group_symop_operation_xyz
x,y,z
-x,-y,-z
loop_
_atom_site_type_symbol
_atom_site_label
_atom_site_fract_x
_atom_site_fract_y
_atom_site_fract_z
Si Si1 0.139460 0.008522 0.425804
Si Si2 0.470062 0.724586 0.770258
Si Si3 0.301675 0.232069 0.443879
Si Si4 0.186756 0.700112 0.505371
Si Si5 0.606871 0.416610 0.757517
Si Si6 0.800480 0.937801 0.057250
Si Si7 0.803260 0.359596 0.711023
O O1 0.309081 0.832701 0.669967
O O2 0.851557 0.905506 0.412169
O O3 0.259434 0.139637 0.267601
O O4 0.178959 0.151618 0.384535
O O5 0.319423 0.738670 0.609977
O O6 0.500000 0.500000 0.000000
O O7 0.599170 0.232158 0.546539
O O8 0.275040 0.451936 0.245475
O O9 0.954200 0.815582 0.297916
O O10 0.069182 0.472816 0.669719
O O11 0.447562 0.211590 0.920290
O O12 0.797135 0.395661 0.775124
O O13 0.411324 0.542720 0.514735
O O14 0.749368 0.132725 0.892799
O O15 0.000000 0.000000 0.000000
#
# Coordination Sequence:
#
# PCOD9090824 Si02
#       7
#     2   2   2   2   2   2   2
#     4   9  21  39  62  89 119 155 203 253 300 360
#     4  10  21  42  66  90 120 158 202 253 304 355
#     4  10  19  39  60  84 123 160 194 251 304 348
#     4  10  22  38  61  89 123 158 199 249 301 361
#     4  10  21  38  60  88 124 160 204 251 296 361
#     4  11  22  38  61  92 124 160 201 246 305 365
#     4  10  21  38  60  89 122 160 202 249 302 362
#
# _framework density 24.225680000000001
#
# number of rings (size 3 to 8) (size 9 to 14) (size 15 to 20)
#    0.000    2.000    0.000    3.000    0.000    5.714 
#    0.000   17.857    0.000    0.000    0.000    0.000 
#    0.000    0.000    0.000    0.000    0.000    0.000 
#
# Total GULP energy -78265.303372 kJ/mol
# GULP energy per Si atom -5590.378812 kJ/mol
# Density = 2.417054 g / cm^3
# Si number density = 24.225680 Si / 1000 Ang^3
#
#
#
# Elastic Constant Matrix: (Units=GPa)
#
#
# Indices 1 2 3 4 5 6 
#
# 1 108.1064 50.3885 36.1072 -28.9591 5.8539 18.6694
# 2 50.3885 103.6452 48.3335 -46.8109 3.2688 14.6655
# 3 36.1072 48.3335 121.7435 -46.3842 11.9655 5.1904
# 4 -28.9591 -46.8109 -46.3842 49.3767 -4.2989 -8.5438
# 5 5.8539 3.2688 11.9655 -4.2989 24.7749 -18.1628
# 6 18.6694 14.6655 5.1904 -8.5438 -18.1628 52.7291
#
#
#
# Elastic Compliance Matrix: (Units=1/GPa)
#
#
# Indices 1 2 3 4 5 6 
#
# 1 0.013160 -0.004548 -0.000864 0.001242 -0.005559 -0.005023
# 2 -0.004548 0.018797 -0.000636 0.014447 0.000694 -0.000975
# 3 -0.000864 -0.000636 0.013388 0.010923 -0.004813 -0.000723
# 4 0.001242 0.014447 0.010923 0.045613 0.002410 0.002688
# 5 -0.005559 0.000694 -0.004813 0.002410 0.061893 0.023959
# 6 -0.005023 -0.000975 -0.000723 0.002688 0.023959 0.029774
#
#
# Mechanical properties :
#
#
# Convention : Reuss Voigt Hill
#
# Bulk Modulus (GPa) = 30.07562 67.01707 48.54635
# Shear Modulus (GPa) = 24.29499 38.62052 31.45776
#
# Velocity S-wave (km/s) = 3.17023 3.99707 3.60742
# Velocity P-wave (km/s) = 5.08353 7.00184 6.11834
#
# Compressibility (1/GPa) = 0.03324952
#
# Stress axis : x y z
#
# Youngs Moduli (GPa) = 75.99031 53.19987 74.69247
#
# Poissons Ratio (x) = 0.24195 0.06451
# Poissons Ratio (y) = 0.34560 0.04751
# Poissons Ratio (z) = 0.06563 0.03384
#
# Static dielectric constant tensor:
#      x y z
#    x 1.981870 0.002340 -0.002030 
#    y 0.002340 1.941450 -0.002270 
#    z -0.002030 -0.002270 1.944110 
# 
# From -- ./inp_files/460508.got.cif
#   From: 2010.05.17/outbox.cif.g08.bks.cpg/sg2_231_cif.got.tgz:460508.got - 2010.06.03 11:33:40.
