data_PCOD9090461
_publ_section_title
;
Structure prediction by ZEFSAII (Michael W. Deem and Ramdas Pophale) SiO2 
 PCOD9090461
Probable space group: P -1
;
_chemical_formula_sum "Si O2"
_cell_formula_units_Z 12
_cell_length_a 8.251817
_cell_length_b 8.854110
_cell_length_c 14.032755
_cell_angle_alpha 52.641695
_cell_angle_beta 44.725267
_cell_angle_gamma 55.979125
_cell_volume 558.173149
_symmetry_space_group_name_H-M "P -1"
_symmetry_group_IT_number 2
_symmetry_cell_setting 'triclinic'
loop_
_space_group_symop_operation_xyz
x,y,z
-x,-y,-z
loop_
_atom_site_type_symbol
_atom_site_label
_atom_site_fract_x
_atom_site_fract_y
_atom_site_fract_z
Si Si1 0.965579 0.196493 0.072570
Si Si2 0.488445 0.175996 0.364762
Si Si3 0.372478 0.853614 0.051758
Si Si4 0.244274 0.574086 0.374323
Si Si5 0.993825 0.780716 0.567686
Si Si6 0.859797 0.620014 0.877725
O O1 0.722411 0.137320 0.219452
O O2 0.049419 0.278598 0.106697
O O3 0.916803 0.387541 0.954593
O O4 0.159925 0.006499 0.031582
O O5 0.457493 0.384332 0.351480
O O6 0.254317 0.208083 0.386599
O O7 0.500000 0.000000 0.500000
O O8 0.271734 0.719135 0.221295
O O9 0.576779 0.713837 0.958510
O O10 0.500000 0.000000 0.000000
O O11 0.000000 0.500000 0.500000
O O12 0.212217 0.686147 0.444523
O O13 0.984143 0.671403 0.711911
O O14 0.000000 0.000000 0.500000
#
# Coordination Sequence:
#
# PCOD9090461 Si02
#       6
#     2   2   2   2   2   2
#     4  10  20  38  64  92 125 173 214 255 325 395
#     4  11  22  41  66  93 130 175 219 264 325 398
#     4  10  19  38  66  91 126 172 213 258 330 393
#     4  10  21  40  65  91 128 175 211 262 332 390
#     4  11  23  42  64  97 133 167 216 278 325 378
#     4  10  21  39  63  92 130 165 214 267 319 384
#
# _framework density 21.498708000000001
#
# number of rings (size 3 to 8) (size 9 to 14) (size 15 to 20)
#    0.000    1.667    1.667    5.000    0.000    0.667 
#    3.000    2.500    0.000    0.000    0.000    0.000 
#    0.000    0.000    0.000    0.000    0.000    0.000 
#
# Total GULP energy -67060.306680 kJ/mol
# GULP energy per Si atom -5588.358890 kJ/mol
# Density = 2.144978 g / cm^3
# Si number density = 21.498708 Si / 1000 Ang^3
#
#
#
# Elastic Constant Matrix: (Units=GPa)
#
#
# Indices 1 2 3 4 5 6 
#
# 1 29.4817 23.6232 7.0702 -2.5467 -2.0280 -12.2766
# 2 23.6232 150.4984 34.9653 -5.1528 10.9884 -24.5544
# 3 7.0702 34.9653 83.2188 -21.2231 5.0565 -6.0817
# 4 -2.5467 -5.1528 -21.2231 46.2491 -8.1109 -0.3026
# 5 -2.0280 10.9884 5.0565 -8.1109 34.1063 -0.1195
# 6 -12.2766 -24.5544 -6.0817 -0.3026 -0.1195 31.9095
#
#
#
# Elastic Compliance Matrix: (Units=1/GPa)
#
#
# Indices 1 2 3 4 5 6 
#
# 1 0.043997 -0.004968 -0.000311 0.002679 0.004946 0.013089
# 2 -0.004968 0.009068 -0.003194 -0.001230 -0.003020 0.004435
# 3 -0.000311 -0.003194 0.015075 0.006608 0.000348 0.000360
# 4 0.002679 -0.001230 0.006608 0.025673 0.005687 0.001609
# 5 0.004946 -0.003020 0.000348 0.005687 0.031887 -0.000182
# 6 0.013089 0.004435 0.000360 0.001609 -0.000182 0.039870
#
#
# Mechanical properties :
#
#
# Convention : Reuss Voigt Hill
#
# Bulk Modulus (GPa) = 19.53340 43.83514 31.68427
# Shear Modulus (GPa) = 25.05238 35.62233 30.33735
#
# Velocity S-wave (km/s) = 3.41735 4.07498 3.76057
# Velocity P-wave (km/s) = 4.96755 6.52492 5.79876
#
# Compressibility (1/GPa) = 0.05119438
#
# Stress axis : x y z
#
# Youngs Moduli (GPa) = 22.72907 110.27214 66.33312
#
# Poissons Ratio (x) = 0.54778 0.02066
# Poissons Ratio (y) = 0.11291 0.21187
# Poissons Ratio (z) = 0.00708 0.35222
#
# Static dielectric constant tensor:
#      x y z
#    x 1.809290 0.011190 0.002610 
#    y 0.011190 1.798090 0.036940 
#    z 0.002610 0.036940 1.718300 
# 
# From -- ./inp_files/153151.got.cif
#   From: 2010.05.17/outbox.cif.g08.bks.cpg/sg2_77_cif.got.tgz:153151.got - 2010.06.03 11:33:40.
