data_PCOD9090550
_publ_section_title
;
Structure prediction by ZEFSAII (Michael W. Deem and Ramdas Pophale) SiO2 
 PCOD9090550
Probable space group: P -1
;
_chemical_formula_sum "Si O2"
_cell_formula_units_Z 16
_cell_length_a 10.972900
_cell_length_b 10.428594
_cell_length_c 8.467314
_cell_angle_alpha 49.943147
_cell_angle_beta 92.087233
_cell_angle_gamma 104.122075
_cell_volume 709.656657
_symmetry_space_group_name_H-M "P -1"
_symmetry_group_IT_number 2
_symmetry_cell_setting 'triclinic'
loop_
_space_group_symop_operation_xyz
x,y,z
-x,-y,-z
loop_
_atom_site_type_symbol
_atom_site_label
_atom_site_fract_x
_atom_site_fract_y
_atom_site_fract_z
Si Si1 0.463059 0.343899 0.244485
Si Si2 0.603866 0.383028 0.540091
Si Si3 0.014489 0.536427 0.284527
Si Si4 0.260772 0.478979 0.249397
Si Si5 0.208292 0.763264 0.510715
Si Si6 0.885072 0.082310 0.902707
Si Si7 0.632395 0.161695 0.235712
Si Si8 0.395362 0.083692 0.855132
O O1 0.555386 0.418158 0.338652
O O2 0.319304 0.333974 0.293249
O O3 0.504251 0.186240 0.290639
O O4 0.500000 0.500000 0.000000
O O5 0.693434 0.500057 0.582328
O O6 0.683722 0.249444 0.598968
O O7 0.471655 0.287121 0.697462
O O8 0.110696 0.447304 0.275251
O O9 0.077783 0.743971 0.122306
O O10 0.000000 0.500000 0.500000
O O11 0.874381 0.437021 0.296606
O O12 0.317339 0.665456 0.012370
O O13 0.126209 0.861206 0.325753
O O14 0.270826 0.837761 0.618270
O O15 0.744159 0.963679 0.038888
O O16 0.000000 0.000000 0.000000
O O17 0.616736 0.993023 0.261402
O O18 0.500000 0.000000 0.000000
#
# Coordination Sequence:
#
# PCOD9090550 Si02
#       8
#     2   2   2   2   2   2   2   2
#     4   9  22  36  56  95 129 153 198 276 323 363
#     4  11  20  37  66  90 122 169 216 260 317 384
#     4  10  19  38  67  85 125 171 216 256 319 385
#     4  11  18  38  61  91 126 160 214 259 316 385
#     4  10  21  39  63  94 123 172 217 266 326 374
#     4  11  23  43  63  95 130 168 224 269 312 388
#     4  10  21  39  64  89 132 160 212 265 325 383
#     4  12  21  42  69  90 120 176 220 254 324 397
#
# _framework density 22.546112999999998
#
# number of rings (size 3 to 8) (size 9 to 14) (size 15 to 20)
#    0.000    1.500    6.250    0.375    0.000    4.500 
#    4.500    0.625    0.000    0.000    0.000    0.000 
#    0.000    0.000    0.000    0.000    0.000    0.000 
#
# Total GULP energy -89248.709087 kJ/mol
# GULP energy per Si atom -5578.044318 kJ/mol
# Density = 2.249480 g / cm^3
# Si number density = 22.546113 Si / 1000 Ang^3
#
#
#
# Elastic Constant Matrix: (Units=GPa)
#
#
# Indices 1 2 3 4 5 6 
#
# 1 134.6549 15.7953 32.1339 0.4033 -2.0097 -4.6852
# 2 15.7953 48.8455 -14.1543 8.8353 -1.7487 2.4023
# 3 32.1339 -14.1543 63.3124 7.1412 12.0852 3.6272
# 4 0.4033 8.8353 7.1412 21.7785 5.3005 -5.5079
# 5 -2.0097 -1.7487 12.0852 5.3005 44.6040 -3.6613
# 6 -4.6852 2.4023 3.6272 -5.5079 -3.6613 40.0689
#
#
#
# Elastic Compliance Matrix: (Units=1/GPa)
#
#
# Indices 1 2 3 4 5 6 
#
# 1 0.010195 -0.006630 -0.007822 0.005407 0.001940 0.003218
# 2 -0.006630 0.029632 0.012479 -0.017311 -0.000966 -0.006149
# 3 -0.007822 0.012479 0.025529 -0.013509 -0.005696 -0.006351
# 4 0.005407 -0.017311 -0.013509 0.060797 -0.003100 0.010967
# 5 0.001940 -0.000966 -0.005696 -0.003100 0.024596 0.002622
# 6 0.003218 -0.006149 -0.006351 0.010967 0.002622 0.028024
#
#
# Mechanical properties :
#
#
# Convention : Reuss Voigt Hill
#
# Bulk Modulus (GPa) = 16.28386 34.92918 25.60652
# Shear Modulus (GPa) = 24.60757 35.49282 30.05019
#
# Velocity S-wave (km/s) = 3.30727 3.97196 3.65476
# Velocity P-wave (km/s) = 4.67142 6.04659 5.40294
#
# Compressibility (1/GPa) = 0.06141049
#
# Stress axis : x y z
#
# Youngs Moduli (GPa) = 98.08328 33.74739 39.17089
#
# Poissons Ratio (x) = 0.22376 0.30638
# Poissons Ratio (y) = 0.65033 -0.48881
# Poissons Ratio (z) = 0.76717 -0.42113
#
# Static dielectric constant tensor:
#      x y z
#    x 1.895080 -0.023970 0.002370 
#    y -0.023970 1.878960 -0.066380 
#    z 0.002370 -0.066380 1.928750 
# 
# From -- ./inp_files/251696.got.cif
#   From: 2010.05.17/outbox.cif.g08.bks.cpg/sg2_126_cif.got.tgz:251696.got - 2010.06.03 11:33:40.
