data_PCOD9090620
_publ_section_title
;
Structure prediction by ZEFSAII (Michael W. Deem and Ramdas Pophale) SiO2 
 PCOD9090620
Probable space group: P -1
;
_chemical_formula_sum "Si O2"
_cell_formula_units_Z 15
_cell_length_a 20.866911
_cell_length_b 17.908248
_cell_length_c 9.123973
_cell_angle_alpha 129.911603
_cell_angle_beta 140.523077
_cell_angle_gamma 19.615535
_cell_volume 666.789316
_symmetry_space_group_name_H-M "P -1"
_symmetry_group_IT_number 2
_symmetry_cell_setting 'triclinic'
loop_
_space_group_symop_operation_xyz
x,y,z
-x,-y,-z
loop_
_atom_site_type_symbol
_atom_site_label
_atom_site_fract_x
_atom_site_fract_y
_atom_site_fract_z
Si Si1 0.692422 0.958194 0.865305
Si Si2 0.425295 0.351395 0.088146
Si Si3 0.776341 0.225958 0.498608
Si Si4 0.028321 0.846707 0.953295
Si Si5 0.206450 0.441608 0.070322
Si Si6 0.508684 0.058974 0.367815
Si Si7 0.000000 0.500000 0.500000
Si Si8 0.383879 0.650835 0.131627
O O1 0.644315 0.893819 0.766358
O O2 0.592657 0.052790 0.642881
O O3 0.991700 0.705382 0.081869
O O4 0.526480 0.178416 0.943440
O O5 0.611426 0.276954 0.306667
O O6 0.146046 0.635273 0.906005
O O7 0.408527 0.322173 0.182324
O O8 0.866310 0.193349 0.765873
O O9 0.596910 0.456896 0.384994
O O10 0.000000 0.000000 0.500000
O O11 0.158181 0.780528 0.956231
O O12 0.738299 0.133907 0.815177
O O13 0.341196 0.260779 0.206005
O O14 0.062271 0.502564 0.771204
O O15 0.757932 0.786260 0.404294
O O16 0.500000 0.500000 0.000000
#
# Coordination Sequence:
#
# PCOD9090620 Si02
#       8
#     2   2   2   2   2   2   1   2
#     4  10  23  42  65  99 135 170 224 278 325 397
#     4  11  24  42  65  97 133 171 223 280 328 392
#     4  11  23  44  70  89 133 177 217 278 345 392
#     4  10  23  42  63  93 130 170 219 272 337 398
#     4  11  23  42  69  97 134 179 220 272 331 400
#     4  10  21  44  69  97 133 180 221 264 343 397
#     4  10  20  38  70  92 134 174 214 262 336 384
#     4  10  19  38  68  92 115 171 217 264 331 402
#
# _framework density 22.495861999999999
#
# number of rings (size 3 to 8) (size 9 to 14) (size 15 to 20)
#    0.000    1.600    2.667    2.400    1.867    0.000 
#    0.000   21.333    0.000    0.000    0.000    0.000 
#    0.000    0.000    0.000    0.000    0.000    0.000 
#
# Total GULP energy -83601.740706 kJ/mol
# GULP energy per Si atom -5573.449380 kJ/mol
# Density = 2.244466 g / cm^3
# Si number density = 22.495862 Si / 1000 Ang^3
#
#
#
# Elastic Constant Matrix: (Units=GPa)
#
#
# Indices 1 2 3 4 5 6 
#
# 1 108.0152 65.3128 47.5441 -0.4599 -23.1038 -2.5471
# 2 65.3128 192.2732 46.0222 -8.8054 -24.8264 -10.6168
# 3 47.5441 46.0222 59.6597 -17.8665 -21.4943 15.1456
# 4 -0.4599 -8.8054 -17.8665 30.8592 4.8380 -14.1081
# 5 -23.1038 -24.8264 -21.4943 4.8380 31.4265 -10.0146
# 6 -2.5471 -10.6168 15.1456 -14.1081 -10.0146 33.5375
#
#
#
# Elastic Compliance Matrix: (Units=1/GPa)
#
#
# Indices 1 2 3 4 5 6 
#
# 1 0.018033 -0.002007 -0.014740 -0.006872 0.004512 0.005847
# 2 -0.002007 0.007717 -0.004012 0.002048 0.003474 0.006001
# 3 -0.014740 -0.004012 0.042819 0.016484 0.008874 -0.012143
# 4 -0.006872 0.002048 0.016484 0.048266 0.005026 0.014487
# 5 0.004512 0.003474 0.008874 0.005026 0.047559 0.013751
# 6 0.005847 0.006001 -0.012143 0.014487 0.013751 0.047845
#
#
# Mechanical properties :
#
#
# Convention : Reuss Voigt Hill
#
# Bulk Modulus (GPa) = 36.96602 75.30072 56.13337
# Shear Modulus (GPa) = 19.02785 32.56922 25.79854
#
# Velocity S-wave (km/s) = 2.91148 3.80911 3.39014
# Velocity P-wave (km/s) = 5.26976 7.27266 6.35067
#
# Compressibility (1/GPa) = 0.02705187
#
# Stress axis : x y z
#
# Youngs Moduli (GPa) = 55.45440 129.59074 23.35401
#
# Poissons Ratio (x) = 0.26005 0.34423
# Poissons Ratio (y) = 0.11128 0.09370
# Poissons Ratio (z) = 0.81737 0.51994
#
# Static dielectric constant tensor:
#      x y z
#    x 1.865720 -0.010760 0.060990 
#    y -0.010760 1.862360 -0.015530 
#    z 0.060990 -0.015530 1.843650 
# 
# From -- ./inp_files/348639.got.cif
#   From: 2010.05.17/outbox.cif.g08.bks.cpg/sg2_175_cif.got.tgz:348639.got - 2010.06.03 11:33:40.
