data_PCOD9090476
_publ_section_title
;
Structure prediction by ZEFSAII (Michael W. Deem and Ramdas Pophale) SiO2 
 PCOD9090476
Probable space group: P -1
;
_chemical_formula_sum "Si O2"
_cell_formula_units_Z 16
_cell_length_a 9.691845
_cell_length_b 19.349107
_cell_length_c 11.745059
_cell_angle_alpha 127.656373
_cell_angle_beta 47.088189
_cell_angle_gamma 154.717286
_cell_volume 688.869941
_symmetry_space_group_name_H-M "P -1"
_symmetry_group_IT_number 2
_symmetry_cell_setting 'triclinic'
loop_
_space_group_symop_operation_xyz
x,y,z
-x,-y,-z
loop_
_atom_site_type_symbol
_atom_site_label
_atom_site_fract_x
_atom_site_fract_y
_atom_site_fract_z
Si Si1 0.114609 0.036619 0.843048
Si Si2 0.677843 0.807909 0.487269
Si Si3 0.329896 0.279819 0.365579
Si Si4 0.121577 0.233796 0.030930
Si Si5 0.277695 0.353022 0.815599
Si Si6 0.257226 0.519079 0.882817
Si Si7 0.924695 0.301627 0.353849
Si Si8 0.759636 0.179884 0.571009
O O1 0.515615 0.160073 0.737970
O O2 0.045907 0.106350 0.904284
O O3 0.890014 0.876732 0.741961
O O4 0.000000 0.000000 0.000000
O O5 0.535789 0.720668 0.602202
O O6 0.812483 0.775409 0.314213
O O7 0.358415 0.733999 0.535553
O O8 0.000000 0.000000 0.500000
O O9 0.586517 0.423907 0.275281
O O10 0.068240 0.250874 0.533385
O O11 0.438426 0.345446 0.056945
O O12 0.840817 0.180282 0.207229
O O13 0.206562 0.321353 0.958081
O O14 0.105273 0.368833 0.865314
O O15 0.694065 0.523260 0.728330
O O16 0.000000 0.500000 0.000000
O O17 0.935700 0.282828 0.460582
O O18 0.500000 0.000000 0.500000
#
# Coordination Sequence:
#
# PCOD9090476 Si02
#       8
#     2   2   2   2   2   2   2   2
#     4  11  21  40  68 102 127 175 226 273 339 410
#     4  12  27  45  64  99 140 175 224 286 342 397
#     4  11  23  43  65  97 137 170 222 282 341 392
#     4  11  22  43  71  99 132 177 233 273 334 415
#     4  11  25  46  69  99 134 184 234 267 341 417
#     4  11  24  43  67 102 135 171 224 289 341 390
#     4  11  22  45  68  97 132 181 228 272 332 411
#     4  10  19  38  66  92 131 175 219 274 326 399
#
# _framework density 23.226444999999998
#
# number of rings (size 3 to 8) (size 9 to 14) (size 15 to 20)
#    0.000    1.000    3.750    5.625    3.500    1.500 
#    2.250    1.250    0.000    0.000    0.000    0.000 
#    0.000    0.000    0.000    0.000    0.000    0.000 
#
# Total GULP energy -89436.883220 kJ/mol
# GULP energy per Si atom -5589.805201 kJ/mol
# Density = 2.317358 g / cm^3
# Si number density = 23.226445 Si / 1000 Ang^3
#
#
#
# Elastic Constant Matrix: (Units=GPa)
#
#
# Indices 1 2 3 4 5 6 
#
# 1 133.7918 11.8193 23.8806 2.9067 -6.1895 -29.8624
# 2 11.8193 44.6272 11.2115 16.3140 -6.2256 -26.0998
# 3 23.8806 11.2115 114.8568 8.5350 -4.6246 -18.6996
# 4 2.9067 16.3140 8.5350 38.6997 -10.4021 -3.0299
# 5 -6.1895 -6.2256 -4.6246 -10.4021 48.1442 3.5700
# 6 -29.8624 -26.0998 -18.6996 -3.0299 3.5700 30.0049
#
#
#
# Elastic Compliance Matrix: (Units=1/GPa)
#
#
# Indices 1 2 3 4 5 6 
#
# 1 0.010839 0.009002 0.000097 -0.003049 0.000551 0.018305
# 2 0.009002 0.068055 0.004483 -0.025021 -0.000092 0.068435
# 3 0.000097 0.004483 0.010121 -0.003320 0.000109 0.009954
# 4 -0.003049 -0.025021 -0.003320 0.037050 0.005825 -0.023820
# 5 0.000551 -0.000092 0.000109 0.005825 0.022211 -0.001519
# 6 0.018305 0.068435 0.009954 -0.023820 -0.001519 0.115053
#
#
# Mechanical properties :
#
#
# Convention : Reuss Voigt Hill
#
# Bulk Modulus (GPa) = 8.60757 43.01095 25.80926
# Shear Modulus (GPa) = 18.18894 39.79404 28.99149
#
# Velocity S-wave (km/s) = 2.80145 4.14370 3.53684
# Velocity P-wave (km/s) = 3.76539 6.43832 5.27400
#
# Compressibility (1/GPa) = 0.11617675
#
# Stress axis : x y z
#
# Youngs Moduli (GPa) = 92.25791 14.69402 98.80808
#
# Poissons Ratio (x) = -0.13227 -0.00954
# Poissons Ratio (y) = -0.83049 -0.44292
# Poissons Ratio (z) = -0.00891 -0.06587
#
# Static dielectric constant tensor:
#      x y z
#    x 1.857210 -0.020600 -0.014320 
#    y -0.020600 1.988560 0.056130 
#    z -0.014320 0.056130 1.869760 
# 
# From -- ./inp_files/307424.got.cif
#   From: 2010.05.17/outbox.cif.g08.bks.cpg/sg2_154_cif.got.tgz:307424.got - 2010.06.03 11:33:40.
