data_PCOD9090124
_publ_section_title
;
Structure prediction by ZEFSAII (Michael W. Deem and Ramdas Pophale) SiO2 
 PCOD9090124
Probable space group: P -1
;
_chemical_formula_sum "Si O2"
_cell_formula_units_Z 16
_cell_length_a 27.604412
_cell_length_b 9.245790
_cell_length_c 8.796866
_cell_angle_alpha 149.378132
_cell_angle_beta 41.557587
_cell_angle_gamma 141.933846
_cell_volume 686.985314
_symmetry_space_group_name_H-M "P -1"
_symmetry_group_IT_number 2
_symmetry_cell_setting 'triclinic'
loop_
_space_group_symop_operation_xyz
x,y,z
-x,-y,-z
loop_
_atom_site_type_symbol
_atom_site_label
_atom_site_fract_x
_atom_site_fract_y
_atom_site_fract_z
Si Si1 0.801091 0.380526 0.934492
Si Si2 0.270718 0.193484 0.617534
Si Si3 0.768082 0.226723 0.226014
Si Si4 0.402463 0.063110 0.723467
Si Si5 0.012847 0.164537 0.455275
Si Si6 0.184514 0.216951 0.142893
Si Si7 0.032607 0.304055 0.087885
Si Si8 0.581229 0.478955 0.636158
O O1 0.893544 0.444125 0.765523
O O2 0.750387 0.149232 0.710663
O O3 0.788955 0.694567 0.230844
O O4 0.775767 0.274100 0.069843
O O5 0.359814 0.418333 0.552876
O O6 0.247257 0.215348 0.865299
O O7 0.781004 0.508678 0.565184
O O8 0.674636 0.973798 0.225329
O O9 0.832788 0.099503 0.010510
O O10 0.487704 0.268210 0.629690
O O11 0.394417 0.720847 0.478348
O O12 0.408581 0.220809 0.017256
O O13 0.104867 0.214136 0.249012
O O14 0.007756 0.488100 0.712568
O O15 0.000000 0.000000 0.500000
O O16 0.945439 0.871275 0.258758
O O17 0.000000 0.000000 0.000000
#
# Coordination Sequence:
#
# PCOD9090124 Si02
#       8
#     2   2   2   2   2   2   2   2
#     4  12  24  42  71  95 127 172 232 281 328 404
#     4  12  23  43  63 100 134 174 214 275 349 402
#     4  12  22  43  63 100 126 175 226 277 320 402
#     4  10  20  36  67  96 130 164 225 270 322 392
#     4  12  25  48  68  94 134 189 231 278 353 426
#     4  12  27  40  65  94 138 172 219 277 345 407
#     4  12  26  44  69 100 132 173 234 298 348 399
#     4  10  19  38  63  99 128 171 210 276 331 398
#
# _framework density 23.290164000000001
#
# number of rings (size 3 to 8) (size 9 to 14) (size 15 to 20)
#    0.000    0.500    2.500    6.750    0.000    2.000 
#    0.000    1.250    0.000    0.000    0.000    0.000 
#    0.000    0.000    0.000    0.000    0.000    0.000 
#
# Total GULP energy -89283.337268 kJ/mol
# GULP energy per Si atom -5580.208579 kJ/mol
# Density = 2.323715 g / cm^3
# Si number density = 23.290164 Si / 1000 Ang^3
#
#
#
# Elastic Constant Matrix: (Units=GPa)
#
#
# Indices 1 2 3 4 5 6 
#
# 1 76.7116 36.9444 19.0403 -0.2220 -10.8420 -10.2809
# 2 36.9444 97.4409 35.9144 -13.6707 9.1658 0.9059
# 3 19.0403 35.9144 99.2859 6.8388 8.6086 -6.2249
# 4 -0.2220 -13.6707 6.8388 36.5683 -4.5691 -0.4268
# 5 -10.8420 9.1658 8.6086 -4.5691 41.0287 0.7918
# 6 -10.2809 0.9059 -6.2249 -0.4268 0.7918 36.2545
#
#
#
# Elastic Compliance Matrix: (Units=1/GPa)
#
#
# Indices 1 2 3 4 5 6 
#
# 1 0.018511 -0.007564 -0.000941 -0.001668 0.006494 0.005115
# 2 -0.007564 0.016142 -0.004692 0.006348 -0.003852 -0.003195
# 3 -0.000941 -0.004692 0.012583 -0.004385 -0.002368 0.002011
# 4 -0.001668 0.006348 -0.004385 0.030831 0.002515 -0.001077
# 5 0.006494 -0.003852 -0.002368 0.002515 0.027708 0.000956
# 6 0.005115 -0.003195 0.002011 -0.001077 0.000956 0.029425
#
#
# Mechanical properties :
#
#
# Convention : Reuss Voigt Hill
#
# Bulk Modulus (GPa) = 47.98057 50.80407 49.39232
# Shear Modulus (GPa) = 29.66610 34.87291 32.26950
#
# Velocity S-wave (km/s) = 3.57285 3.87372 3.72633
# Velocity P-wave (km/s) = 6.13729 6.47059 6.30614
#
# Compressibility (1/GPa) = 0.02084177
#
# Stress axis : x y z
#
# Youngs Moduli (GPa) = 54.02249 61.94838 79.47108
#
# Poissons Ratio (x) = 0.46857 0.07481
# Poissons Ratio (y) = 0.40862 0.37289
# Poissons Ratio (z) = 0.05085 0.29067
#
# Static dielectric constant tensor:
#      x y z
#    x 1.950160 -0.001270 -0.018980 
#    y -0.001270 1.987400 -0.060470 
#    z -0.018980 -0.060470 1.903030 
# 
# From -- ./inp_files/358480.got.cif
#   From: 2010.05.17/outbox.cif.g08.bks.cpg/sg2_180_cif.got.tgz:358480.got - 2010.06.03 11:33:40.
