data_PCOD9090507
_publ_section_title
;
Structure prediction by ZEFSAII (Michael W. Deem and Ramdas Pophale) SiO2 
 PCOD9090507
Probable space group: P -1
;
_chemical_formula_sum "Si O2"
_cell_formula_units_Z 16
_cell_length_a 20.961004
_cell_length_b 11.767341
_cell_length_c 7.889634
_cell_angle_alpha 54.270011
_cell_angle_beta 120.403229
_cell_angle_gamma 152.103716
_cell_volume 738.857587
_symmetry_space_group_name_H-M "P -1"
_symmetry_group_IT_number 2
_symmetry_cell_setting 'triclinic'
loop_
_space_group_symop_operation_xyz
x,y,z
-x,-y,-z
loop_
_atom_site_type_symbol
_atom_site_label
_atom_site_fract_x
_atom_site_fract_y
_atom_site_fract_z
Si Si1 0.163649 0.231374 0.820259
Si Si2 0.526046 0.679984 0.489272
Si Si3 0.742766 0.158426 0.155738
Si Si4 0.874313 0.343855 0.843938
Si Si5 0.134516 0.365881 0.997075
Si Si6 0.908495 0.144245 0.477101
Si Si7 0.239261 0.074759 0.182809
Si Si8 0.235804 0.347490 0.445257
O O1 0.193247 0.333956 0.583848
O O2 0.161583 0.340140 0.873403
O O3 0.268434 0.272233 0.969695
O O4 0.016373 0.919860 0.897605
O O5 0.500000 0.500000 0.500000
O O6 0.631592 0.797866 0.672601
O O7 0.383908 0.512628 0.509581
O O8 0.597707 0.910775 0.265521
O O9 0.808158 0.109167 0.314133
O O10 0.756413 0.207853 0.930745
O O11 0.834545 0.420719 0.142882
O O12 0.940518 0.562549 0.616969
O O13 0.825698 0.132722 0.859143
O O14 0.000000 0.500000 0.000000
O O15 0.230557 0.450180 0.196981
O O16 0.868654 0.065059 0.688628
O O17 0.868759 0.941810 0.500190
#
# Coordination Sequence:
#
# PCOD9090507 Si02
#       8
#     2   2   2   2   2   2   2   2
#     4  11  23  41  69  98 136 176 221 272 338 405
#     4  11  23  44  67  94 136 173 224 280 325 394
#     4  10  21  41  63  92 127 174 217 274 331 381
#     4  10  20  35  61  98 129 162 217 280 335 385
#     4  11  24  44  64  98 136 175 221 277 338 393
#     4  10  19  38  66  95 133 165 219 284 332 385
#     4  11  21  39  65 105 127 176 220 275 337 394
#     4  12  23  45  67  98 133 183 224 265 335 397
#
# _framework density 21.655052000000001
#
# number of rings (size 3 to 8) (size 9 to 14) (size 15 to 20)
#    0.000    1.250    3.750    4.500    0.000    2.000 
#    6.750    0.625    0.000    0.000    0.000    0.000 
#    0.000    0.000    0.000    0.000    0.000    0.000 
#
# Total GULP energy -89460.807131 kJ/mol
# GULP energy per Si atom -5591.300446 kJ/mol
# Density = 2.160576 g / cm^3
# Si number density = 21.655052 Si / 1000 Ang^3
#
#
#
# Elastic Constant Matrix: (Units=GPa)
#
#
# Indices 1 2 3 4 5 6 
#
# 1 85.1177 30.0890 27.7895 5.6154 -22.8260 -5.1315
# 2 30.0890 60.8769 23.1862 11.6804 -13.4238 -6.9532
# 3 27.7895 23.1862 46.2198 5.5030 -8.4886 -4.3741
# 4 5.6154 11.6804 5.5030 32.6465 -0.9682 0.8011
# 5 -22.8260 -13.4238 -8.4886 -0.9682 36.7544 7.7105
# 6 -5.1315 -6.9532 -4.3741 0.8011 7.7105 35.9249
#
#
#
# Elastic Compliance Matrix: (Units=1/GPa)
#
#
# Indices 1 2 3 4 5 6 
#
# 1 0.017680 -0.004403 -0.007046 -0.000021 0.007930 -0.000886
# 2 -0.004403 0.023803 -0.007653 -0.006424 0.003511 0.002436
# 3 -0.007046 -0.007653 0.029863 -0.001133 -0.000576 0.001297
# 4 -0.000021 -0.006424 -0.001133 0.033129 -0.001364 -0.001830
# 5 0.007930 0.003511 -0.000576 -0.001364 0.034424 -0.005616
# 6 -0.000886 0.002436 0.001297 -0.001830 -0.005616 0.029585
#
#
# Mechanical properties :
#
#
# Convention : Reuss Voigt Hill
#
# Bulk Modulus (GPa) = 30.17399 39.37155 34.77277
# Shear Modulus (GPa) = 22.96368 28.47515 25.71941
#
# Velocity S-wave (km/s) = 3.25996 3.63015 3.45002
# Velocity P-wave (km/s) = 5.30414 5.98259 5.65355
#
# Compressibility (1/GPa) = 0.03314112
#
# Stress axis : x y z
#
# Youngs Moduli (GPa) = 56.56125 42.01167 33.48613
#
# Poissons Ratio (x) = 0.18500 0.23594
# Poissons Ratio (y) = 0.24907 0.25627
# Poissons Ratio (z) = 0.39853 0.32151
#
# Static dielectric constant tensor:
#      x y z
#    x 1.788990 0.037880 -0.011720 
#    y 0.037880 1.775510 -0.002310 
#    z -0.011720 -0.002310 1.892450 
# 
# From -- ./inp_files/345963.got.cif
#   From: 2010.05.17/outbox.cif.g08.bks.cpg/sg2_173_cif.got.tgz:345963.got - 2010.06.03 11:33:40.
