data_PCOD9090284
_publ_section_title
;
Structure prediction by ZEFSAII (Michael W. Deem and Ramdas Pophale) SiO2 
 PCOD9090284
Probable space group: P -1
;
_chemical_formula_sum "Si O2"
_cell_formula_units_Z 16
_cell_length_a 16.975496
_cell_length_b 5.422808
_cell_length_c 8.170969
_cell_angle_alpha 62.639840
_cell_angle_beta 68.038447
_cell_angle_gamma 75.653038
_cell_volume 616.922115
_symmetry_space_group_name_H-M "P -1"
_symmetry_group_IT_number 2
_symmetry_cell_setting 'triclinic'
loop_
_space_group_symop_operation_xyz
x,y,z
-x,-y,-z
loop_
_atom_site_type_symbol
_atom_site_label
_atom_site_fract_x
_atom_site_fract_y
_atom_site_fract_z
Si Si1 0.063882 0.813990 0.630857
Si Si2 0.597154 0.535794 0.709520
Si Si3 0.419792 0.436476 0.905168
Si Si4 0.247287 0.300340 0.102974
Si Si5 0.255088 0.815185 0.447215
Si Si6 0.005727 0.295480 0.721621
Si Si7 0.326009 0.961993 0.674251
Si Si8 0.826492 0.064169 0.992333
O O1 0.160089 0.733655 0.522592
O O2 0.027538 0.516662 0.773880
O O3 0.000000 0.000000 0.500000
O O4 0.071604 0.030858 0.706768
O O5 0.512413 0.392085 0.766917
O O6 0.680167 0.320314 0.695251
O O7 0.619764 0.796182 0.505865
O O8 0.577709 0.622651 0.884943
O O9 0.386370 0.759666 0.804102
O O10 0.341133 0.272084 0.957938
O O11 0.218698 0.620573 0.057696
O O12 0.249069 0.146233 0.321737
O O13 0.184749 0.133698 0.093958
O O14 0.298237 0.770633 0.602779
O O15 0.923326 0.142338 0.882168
O O16 0.000000 0.500000 0.500000
O O17 0.234247 0.075610 0.786708
#
# Coordination Sequence:
#
# PCOD9090284 Si02
#       8
#     2   2   2   2   2   2   2   2
#     4  10  22  38  67 101 139 182 241 292 357 426
#     4  11  25  49  74 104 148 194 246 298 362 441
#     4  10  24  48  73 109 144 194 245 299 363 429
#     4  11  22  43  70 105 143 190 241 292 354 440
#     4  12  25  42  71 108 144 194 241 302 368 434
#     4  10  19  38  65 101 132 184 238 295 351 426
#     4  11  26  45  70 110 146 192 239 305 361 435
#     4  11  24  43  73 104 146 190 243 297 366 429
#
# _framework density 25.935203000000001
#
# number of rings (size 3 to 8) (size 9 to 14) (size 15 to 20)
#    0.000    1.250    1.250    5.625    5.250    1.000 
#    4.500    1.250    0.000    0.000    0.000    0.000 
#    0.000    0.000    0.000    0.000    0.000    0.000 
#
# Total GULP energy -89403.126473 kJ/mol
# GULP energy per Si atom -5587.695405 kJ/mol
# Density = 2.587617 g / cm^3
# Si number density = 25.935203 Si / 1000 Ang^3
#
#
#
# Elastic Constant Matrix: (Units=GPa)
#
#
# Indices 1 2 3 4 5 6 
#
# 1 102.2908 17.4607 24.3485 -1.9910 -46.6657 -14.3625
# 2 17.4607 103.2495 2.9961 -4.4740 -9.2184 2.1362
# 3 24.3485 2.9961 119.1283 -12.6925 -20.4647 -14.2502
# 4 -1.9910 -4.4740 -12.6925 35.4427 -0.9712 -11.2314
# 5 -46.6657 -9.2184 -20.4647 -0.9712 43.7358 11.8798
# 6 -14.3625 2.1362 -14.2502 -11.2314 11.8798 31.6447
#
#
#
# Elastic Compliance Matrix: (Units=1/GPa)
#
#
# Indices 1 2 3 4 5 6 
#
# 1 0.019457 -0.001467 -0.000031 0.002142 0.019884 0.002212
# 2 -0.001467 0.010085 0.000147 0.000839 0.001018 -0.001365
# 3 -0.000031 0.000147 0.010189 0.005401 0.003480 0.005175
# 4 0.002142 0.000839 0.005401 0.035251 0.001631 0.015247
# 5 0.019884 0.001018 0.003480 0.001631 0.047820 -0.006851
# 6 0.002212 -0.001365 0.005175 0.015247 -0.006851 0.043010
#
#
# Mechanical properties :
#
#
# Convention : Reuss Voigt Hill
#
# Bulk Modulus (GPa) = 27.00627 46.03103 36.51865
# Shear Modulus (GPa) = 27.64599 40.82219 34.23409
#
# Velocity S-wave (km/s) = 3.26845 3.97168 3.63710
# Velocity P-wave (km/s) = 4.96783 6.23052 5.63465
#
# Compressibility (1/GPa) = 0.03702844
#
# Stress axis : x y z
#
# Youngs Moduli (GPa) = 51.39479 99.16080 98.14289
#
# Poissons Ratio (x) = 0.14549 0.00308
# Poissons Ratio (y) = 0.07541 -0.01445
# Poissons Ratio (z) = 0.00161 -0.01460
#
# Static dielectric constant tensor:
#      x y z
#    x 2.226440 0.033920 0.063440 
#    y 0.033920 2.011060 0.044950 
#    z 0.063440 0.044950 2.108520 
# 
# From -- ./inp_files/323283.got.cif
#   From: 2010.05.17/outbox.cif.g08.bks.cpg/sg2_162_cif.got.tgz:323283.got - 2010.06.03 11:33:40.
