data_PCOD9090080
_publ_section_title
;
Structure prediction by ZEFSAII (Michael W. Deem and Ramdas Pophale) SiO2 
 PCOD9090080
Probable space group: P -1
;
_chemical_formula_sum "Si O2"
_cell_formula_units_Z 14
_cell_length_a 9.182852
_cell_length_b 11.739578
_cell_length_c 12.500804
_cell_angle_alpha 39.236996
_cell_angle_beta 123.556444
_cell_angle_gamma 110.651591
_cell_volume 703.035224
_symmetry_space_group_name_H-M "P -1"
_symmetry_group_IT_number 2
_symmetry_cell_setting 'triclinic'
loop_
_space_group_symop_operation_xyz
x,y,z
-x,-y,-z
loop_
_atom_site_type_symbol
_atom_site_label
_atom_site_fract_x
_atom_site_fract_y
_atom_site_fract_z
Si Si1 0.866368 0.747828 0.837591
Si Si2 0.271219 0.012722 0.696413
Si Si3 0.314546 0.466405 0.897473
Si Si4 0.533270 0.697985 0.132736
Si Si5 0.646952 0.633088 0.456171
Si Si6 0.145122 0.873619 0.521396
Si Si7 0.789409 0.487107 0.812104
O O1 0.833835 0.655742 0.777212
O O2 0.807144 0.963317 0.653493
O O3 0.780810 0.638095 0.974451
O O4 0.075988 0.691452 0.975103
O O5 0.235876 0.913449 0.643150
O O6 0.378142 0.185452 0.613437
O O7 0.392408 0.876150 0.923381
O O8 0.068863 0.090439 0.589621
O O9 0.352490 0.346417 0.894170
O O10 0.212045 0.663593 0.679636
O O11 0.500000 0.500000 0.000000
O O12 0.648597 0.696587 0.288316
O O13 0.405669 0.544433 0.210160
O O14 0.500000 0.500000 0.500000
O O15 0.806408 0.518644 0.669347
#
# Coordination Sequence:
#
# PCOD9090080 Si02
#       7
#     2   2   2   2   2   2   2
#     4  11  21  38  65  92 128 161 206 264 312 371
#     4  11  20  40  64  96 119 162 221 258 308 371
#     4  12  24  40  59  97 136 163 198 264 331 370
#     4  11  22  41  61  90 132 164 204 261 313 375
#     4  10  22  37  63  93 126 166 210 262 311 365
#     4  11  23  38  68  95 126 162 208 267 318 368
#     4  10  19  38  63  93 118 161 217 256 305 368
#
# _framework density 19.913656
#
# number of rings (size 3 to 8) (size 9 to 14) (size 15 to 20)
#    0.000    1.143    5.714    1.286    4.000    0.571 
#    5.143    2.857    0.000    1.714    0.000    0.000 
#    0.000    0.000    0.000    0.000    0.000    0.000 
#
# Total GULP energy -77984.082368 kJ/mol
# GULP energy per Si atom -5570.291598 kJ/mol
# Density = 1.986833 g / cm^3
# Si number density = 19.913656 Si / 1000 Ang^3
#
#
#
# Elastic Constant Matrix: (Units=GPa)
#
#
# Indices 1 2 3 4 5 6 
#
# 1 61.4483 22.6864 28.5713 -1.0726 -5.1946 -3.6135
# 2 22.6864 63.8706 41.8846 7.4416 -1.9452 4.2849
# 3 28.5713 41.8846 147.2493 6.0760 -3.4338 -5.1399
# 4 -1.0726 7.4416 6.0760 45.7715 -1.3881 -12.1025
# 5 -5.1946 -1.9452 -3.4338 -1.3881 20.9219 -3.9406
# 6 -3.6135 4.2849 -5.1399 -12.1025 -3.9406 20.7746
#
#
#
# Elastic Compliance Matrix: (Units=1/GPa)
#
#
# Indices 1 2 3 4 5 6 
#
# 1 0.020782 -0.007091 -0.001761 0.004241 0.006048 0.008259
# 2 -0.007091 0.023170 -0.005431 -0.006393 -0.003120 -0.011672
# 3 -0.001761 -0.005431 0.008805 0.000665 0.001228 0.003613
# 4 0.004241 -0.006393 0.000665 0.028351 0.006199 0.019913
# 5 0.006048 -0.003120 0.001228 0.006199 0.052556 0.015580
# 6 0.008259 -0.011672 0.003613 0.019913 0.015580 0.067430
#
#
# Mechanical properties :
#
#
# Convention : Reuss Voigt Hill
#
# Bulk Modulus (GPa) = 41.33826 50.98364 46.16095
# Shear Modulus (GPa) = 21.03298 29.45533 25.24415
#
# Velocity S-wave (km/s) = 3.25346 3.85015 3.56431
# Velocity P-wave (km/s) = 5.90908 6.73964 6.33798
#
# Compressibility (1/GPa) = 0.02419067
#
# Stress axis : x y z
#
# Youngs Moduli (GPa) = 48.11972 43.15987 113.57113
#
# Poissons Ratio (x) = 0.30603 0.20000
# Poissons Ratio (y) = 0.34120 0.61682
# Poissons Ratio (z) = 0.08474 0.23441
#
# Static dielectric constant tensor:
#      x y z
#    x 1.716520 0.029590 -0.043060 
#    y 0.029590 1.710670 0.002920 
#    z -0.043060 0.002920 1.787200 
# 
# From -- ./inp_files/157647.got.cif
#   From: 2010.05.17/outbox.cif.g08.bks.cpg/sg2_79_cif.got.tgz:157647.got - 2010.06.03 11:33:40.
