data_PCOD9090780
_publ_section_title
;
Structure prediction by ZEFSAII (Michael W. Deem and Ramdas Pophale) SiO2 
 PCOD9090780
Probable space group: P -1
;
_chemical_formula_sum "Si O2"
_cell_formula_units_Z 16
_cell_length_a 9.675617
_cell_length_b 16.079005
_cell_length_c 5.302240
_cell_angle_alpha 96.143283
_cell_angle_beta 71.774367
_cell_angle_gamma 102.369472
_cell_volume 764.609057
_symmetry_space_group_name_H-M "P -1"
_symmetry_group_IT_number 2
_symmetry_cell_setting 'triclinic'
loop_
_space_group_symop_operation_xyz
x,y,z
-x,-y,-z
loop_
_atom_site_type_symbol
_atom_site_label
_atom_site_fract_x
_atom_site_fract_y
_atom_site_fract_z
Si Si1 0.808850 0.448517 0.353137
Si Si2 0.881291 0.065195 0.810743
Si Si3 0.328530 0.291472 0.055103
Si Si4 0.595411 0.115030 0.226705
Si Si5 0.323741 0.011043 0.461539
Si Si6 0.524916 0.298241 0.438891
Si Si7 0.857279 0.561559 0.863217
Si Si8 0.826475 0.886884 0.073066
O O1 0.665955 0.374577 0.393000
O O2 0.810979 0.498701 0.631993
O O3 0.963619 0.414327 0.238687
O O4 0.812940 0.512480 0.135042
O O5 0.034054 0.121289 0.831445
O O6 0.841115 0.036160 0.539922
O O7 0.739874 0.106545 0.981461
O O8 0.867346 0.973240 0.919337
O O9 0.417595 0.310148 0.271045
O O10 0.223317 0.359117 0.092155
O O11 0.438628 0.294374 0.753108
O O12 0.229783 0.196604 0.082469
O O13 0.438064 0.059129 0.203258
O O14 0.580818 0.210669 0.317952
O O15 0.616745 0.063559 0.453234
O O16 0.302512 0.090342 0.670367
#
# Coordination Sequence:
#
# PCOD9090780 Si02
#       8
#     2   2   2   2   2   2   2   2
#     4  10  23  46  72  99 130 168 210 267 313 403
#     4  10  21  37  61  83 122 174 219 264 318 378
#     4  12  26  43  66  99 133 173 209 273 320 385
#     4  10  22  35  58  91 119 171 211 266 310 376
#     4  10  19  39  59  82 125 167 215 266 317 376
#     4  12  26  42  67  99 136 166 221 262 321 382
#     4  10  23  46  72  98 132 168 210 258 336 376
#     4  10  22  38  57  90 124 165 220 266 321 373
#
# _framework density 20.925727999999999
#
# number of rings (size 3 to 8) (size 9 to 14) (size 15 to 20)
#    0.000    1.500    1.250    3.000    3.500    3.000 
#    0.000    1.250    0.000    0.000    0.000    0.000 
#    0.000    0.000    0.000    0.000    0.000    0.000 
#
# Total GULP energy -89343.194348 kJ/mol
# GULP energy per Si atom -5583.949647 kJ/mol
# Density = 2.087810 g / cm^3
# Si number density = 20.925728 Si / 1000 Ang^3
#
#
#
# Elastic Constant Matrix: (Units=GPa)
#
#
# Indices 1 2 3 4 5 6 
#
# 1 103.4374 36.1997 11.3912 10.2724 8.2936 8.5470
# 2 36.1997 61.5088 -1.2284 14.0829 -6.2518 -0.0171
# 3 11.3912 -1.2284 56.3765 2.8476 2.2916 -1.9861
# 4 10.2724 14.0829 2.8476 20.0738 -4.9493 -3.8678
# 5 8.2936 -6.2518 2.2916 -4.9493 38.0255 7.9545
# 6 8.5470 -0.0171 -1.9861 -3.8678 7.9545 42.8879
#
#
#
# Elastic Compliance Matrix: (Units=1/GPa)
#
#
# Indices 1 2 3 4 5 6 
#
# 1 0.013436 -0.007802 -0.002686 -0.002423 -0.003885 -0.002303
# 2 -0.007802 0.024131 0.002561 -0.012360 0.003940 -0.000162
# 3 -0.002686 0.002561 0.018564 -0.003000 -0.000768 0.001268
# 4 -0.002423 -0.012360 -0.003000 0.062525 0.005789 0.004904
# 5 -0.003885 0.003940 -0.000768 0.005789 0.029472 -0.004204
# 6 -0.002303 -0.000162 0.001268 0.004904 -0.004204 0.025056
#
#
# Mechanical properties :
#
#
# Convention : Reuss Voigt Hill
#
# Bulk Modulus (GPa) = 24.82818 34.89418 29.86118
# Shear Modulus (GPa) = 24.69566 31.86145 28.27856
#
# Velocity S-wave (km/s) = 3.43907 3.90628 3.68010
# Velocity P-wave (km/s) = 5.25930 6.08743 5.68846
#
# Compressibility (1/GPa) = 0.04027682
#
# Stress axis : x y z
#
# Youngs Moduli (GPa) = 74.42493 41.44042 53.86834
#
# Poissons Ratio (x) = 0.32332 0.14468
# Poissons Ratio (y) = 0.58067 -0.13794
# Poissons Ratio (z) = 0.19988 -0.10611
#
# Static dielectric constant tensor:
#      x y z
#    x 1.855360 0.008800 0.021980 
#    y 0.008800 1.695910 -0.021080 
#    z 0.021980 -0.021080 1.821470 
# 
# From -- ./inp_files/37771.got.cif
#   From: 2010.05.17/outbox.cif.g08.bks.cpg/sg2_19_cif.got.tgz:37771.got - 2010.06.03 11:33:40.
