data_PCOD9090198
_publ_section_title
;
Structure prediction by ZEFSAII (Michael W. Deem and Ramdas Pophale) SiO2 
 PCOD9090198
Probable space group: P -1
;
_chemical_formula_sum "Si O2"
_cell_formula_units_Z 16
_cell_length_a 11.751279
_cell_length_b 14.646563
_cell_length_c 13.687010
_cell_angle_alpha 112.762048
_cell_angle_beta 33.295058
_cell_angle_gamma 137.786539
_cell_volume 675.154706
_symmetry_space_group_name_H-M "P -1"
_symmetry_group_IT_number 2
_symmetry_cell_setting 'triclinic'
loop_
_space_group_symop_operation_xyz
x,y,z
-x,-y,-z
loop_
_atom_site_type_symbol
_atom_site_label
_atom_site_fract_x
_atom_site_fract_y
_atom_site_fract_z
Si Si1 0.432990 0.184578 0.796242
Si Si2 0.214011 0.806039 0.894255
Si Si3 0.275686 0.560534 0.905437
Si Si4 0.228417 0.385872 0.553902
Si Si5 0.460790 0.315662 0.655701
Si Si6 0.517344 0.146743 0.068923
Si Si7 0.940747 0.962225 0.799015
Si Si8 0.298654 0.908965 0.503733
O O1 0.537853 0.324327 0.718325
O O2 0.705196 0.207089 0.570956
O O3 0.378254 0.152328 0.938070
O O4 0.000000 0.000000 0.000000
O O5 0.436818 0.862528 0.854643
O O6 0.465067 0.951324 0.694169
O O7 0.978036 0.623476 0.942746
O O8 0.909626 0.766329 0.123940
O O9 0.607748 0.634357 0.642913
O O10 0.387912 0.698966 0.943167
O O11 0.000000 0.500000 0.000000
O O12 0.500000 0.500000 0.500000
O O13 0.251917 0.500941 0.528822
O O14 0.824594 0.209247 0.813037
O O15 0.332077 0.159764 0.638320
O O16 0.136869 0.001112 0.225266
O O17 0.964146 0.853037 0.724246
O O18 0.500000 0.000000 0.500000
#
# Coordination Sequence:
#
# PCOD9090198 Si02
#       8
#     2   2   2   2   2   2   2   2
#     4  10  19  39  60  89 118 152 205 255 283 356
#     4  10  20  37  61  90 119 154 208 242 290 363
#     4   9  19  36  58  84 119 156 205 239 275 362
#     4  11  20  38  65  87 113 168 204 231 297 364
#     4  10  19  38  64  91 112 156 208 245 283 360
#     4  11  24  40  57  92 131 157 186 256 308 349
#     4  11  24  38  61  93 126 153 196 253 310 344
#     4  12  21  37  63  89 113 162 206 244 295 351
#
# _framework density 23.698273
#
# number of rings (size 3 to 8) (size 9 to 14) (size 15 to 20)
#    0.000    1.500    8.750    0.000    1.750    2.000 
#    0.000    0.625    0.000    9.000    0.000    0.000 
#    0.000    0.000    0.000    0.000    0.000    0.000 
#
# Total GULP energy -89274.451182 kJ/mol
# GULP energy per Si atom -5579.653199 kJ/mol
# Density = 2.364433 g / cm^3
# Si number density = 23.698273 Si / 1000 Ang^3
#
#
#
# Elastic Constant Matrix: (Units=GPa)
#
#
# Indices 1 2 3 4 5 6 
#
# 1 131.2891 4.2988 22.9729 -5.0305 3.9142 -22.5003
# 2 4.2988 56.8767 3.4586 18.7174 -2.7538 -14.6591
# 3 22.9729 3.4586 54.2484 17.9550 -0.2496 6.2512
# 4 -5.0305 18.7174 17.9550 30.6845 -11.1842 -1.1555
# 5 3.9142 -2.7538 -0.2496 -11.1842 36.7408 -1.8392
# 6 -22.5003 -14.6591 6.2512 -1.1555 -1.8392 31.5117
#
#
#
# Elastic Compliance Matrix: (Units=1/GPa)
#
#
# Indices 1 2 3 4 5 6 
#
# 1 0.011015 -0.000312 -0.008359 0.007847 0.001624 0.009760
# 2 -0.000312 0.026082 0.003473 -0.018763 -0.003182 0.010348
# 3 -0.008359 0.003473 0.031256 -0.024683 -0.006744 -0.011852
# 4 0.007847 -0.018763 -0.024683 0.066566 0.018117 0.005269
# 5 0.001624 -0.003182 -0.006744 0.018117 0.032454 0.003575
# 6 0.009760 0.010348 -0.011852 0.005269 0.003575 0.046270
#
#
# Mechanical properties :
#
#
# Convention : Reuss Voigt Hill
#
# Bulk Modulus (GPa) = 17.25463 33.76389 25.50926
# Shear Modulus (GPa) = 20.54575 33.89967 27.22271
#
# Velocity S-wave (km/s) = 2.94763 3.78626 3.39296
# Velocity P-wave (km/s) = 4.34528 5.77864 5.11244
#
# Compressibility (1/GPa) = 0.05795547
#
# Stress axis : x y z
#
# Youngs Moduli (GPa) = 90.78883 38.34079 31.99362
#
# Poissons Ratio (x) = 0.01197 0.26743
# Poissons Ratio (y) = 0.02836 -0.11110
# Poissons Ratio (z) = 0.75889 -0.13314
#
# Static dielectric constant tensor:
#      x y z
#    x 1.990200 -0.003140 0.068870 
#    y -0.003140 2.083900 -0.023370 
#    z 0.068870 -0.023370 2.022340 
# 
# From -- ./inp_files/522385.got.cif
#   From: 2010.05.17/outbox.cif.g08.bks.cpg/sg2_262_cif.got.tgz:522385.got - 2010.06.03 11:33:40.
