data_PCOD9090014
_publ_section_title
;
Structure prediction by ZEFSAII (Michael W. Deem and Ramdas Pophale) SiO2 
 PCOD9090014
Probable space group: P -1
;
_chemical_formula_sum "Si O2"
_cell_formula_units_Z 16
_cell_length_a 20.585436
_cell_length_b 11.653352
_cell_length_c 8.810871
_cell_angle_alpha 35.762178
_cell_angle_beta 143.705807
_cell_angle_gamma 139.055980
_cell_volume 699.114593
_symmetry_space_group_name_H-M "P -1"
_symmetry_group_IT_number 2
_symmetry_cell_setting 'triclinic'
loop_
_space_group_symop_operation_xyz
x,y,z
-x,-y,-z
loop_
_atom_site_type_symbol
_atom_site_label
_atom_site_fract_x
_atom_site_fract_y
_atom_site_fract_z
Si Si1 0.986337 0.783561 0.620715
Si Si2 0.703833 0.658896 0.671324
Si Si3 0.094248 0.926743 0.348481
Si Si4 0.749923 0.278874 0.330328
Si Si5 0.792234 0.220774 0.822253
Si Si6 0.370719 0.593799 0.500877
Si Si7 0.733315 0.754319 0.124655
Si Si8 0.599377 0.844850 0.506620
O O1 0.849963 0.693771 0.437978
O O2 0.038674 0.816284 0.515759
O O3 0.072618 0.696612 0.975314
O O4 0.000000 0.000000 0.500000
O O5 0.737396 0.488990 0.017905
O O6 0.805994 0.869900 0.633487
O O7 0.676418 0.556317 0.567095
O O8 0.598806 0.721751 0.483281
O O9 0.149661 0.786242 0.499027
O O10 0.000000 0.000000 0.000000
O O11 0.769043 0.286363 0.538672
O O12 0.635676 0.088214 0.288702
O O13 0.716565 0.285455 0.737554
O O14 0.751828 0.971548 0.010105
O O15 0.368935 0.434279 0.804318
O O16 0.487601 0.754490 0.493567
O O17 0.704799 0.804723 0.845828
#
# Coordination Sequence:
#
# PCOD9090014 Si02
#       8
#     2   2   2   2   2   2   2   2
#     4  10  19  38  63  87 121 158 197 253 306 356
#     4  11  23  40  61  91 124 160 206 251 308 373
#     4  11  22  40  64  90 124 163 205 253 308 367
#     4  10  23  41  62  90 126 166 207 251 304 367
#     4  10  22  39  61  91 123 159 207 256 305 362
#     4  12  24  38  64  94 122 162 208 256 308 363
#     4  10  22  41  63  87 121 163 207 254 305 361
#     4  10  23  42  62  89 125 164 207 256 305 358
#
# _framework density 22.886089999999999
#
# number of rings (size 3 to 8) (size 9 to 14) (size 15 to 20)
#    0.000    1.500    0.000    6.750    0.000    5.500 
#    0.000    3.750    0.000    0.000    0.000    0.000 
#    0.000    0.000    0.000    0.000    0.000    0.000 
#
# Total GULP energy -89514.582703 kJ/mol
# GULP energy per Si atom -5594.661419 kJ/mol
# Density = 2.283400 g / cm^3
# Si number density = 22.886090 Si / 1000 Ang^3
#
#
#
# Elastic Constant Matrix: (Units=GPa)
#
#
# Indices 1 2 3 4 5 6 
#
# 1 133.4449 35.2331 8.8159 -0.8067 11.0090 -7.8390
# 2 35.2331 72.5412 -7.2798 -4.9901 19.5957 -3.3054
# 3 8.8159 -7.2798 46.5228 -8.5244 5.9774 -4.6060
# 4 -0.8067 -4.9901 -8.5244 27.8444 0.2976 -2.7023
# 5 11.0090 19.5957 5.9774 0.2976 28.2269 -2.7203
# 6 -7.8390 -3.3054 -4.6060 -2.7023 -2.7203 46.0733
#
#
#
# Elastic Compliance Matrix: (Units=1/GPa)
#
#
# Indices 1 2 3 4 5 6 
#
# 1 0.008938 -0.004799 -0.002670 -0.001341 0.000509 0.000861
# 2 -0.004799 0.021191 0.007287 0.006135 -0.014356 0.000944
# 3 -0.002670 0.007287 0.026397 0.009675 -0.009448 0.002717
# 4 -0.001341 0.006135 0.009675 0.040309 -0.005902 0.003195
# 5 0.000509 -0.014356 -0.009448 -0.005902 0.047312 0.000559
# 6 0.000861 0.000944 0.002717 0.003195 0.000559 0.022411
#
#
# Mechanical properties :
#
#
# Convention : Reuss Voigt Hill
#
# Bulk Modulus (GPa) = 17.80617 36.22748 27.01682
# Shear Modulus (GPa) = 26.93353 34.81159 30.87256
#
# Velocity S-wave (km/s) = 3.43425 3.90433 3.67681
# Velocity P-wave (km/s) = 4.85002 6.01572 5.46405
#
# Compressibility (1/GPa) = 0.05616030
#
# Stress axis : x y z
#
# Youngs Moduli (GPa) = 111.88383 47.19050 37.88354
#
# Poissons Ratio (x) = 0.22649 0.10117
# Poissons Ratio (y) = 0.53698 -0.27607
# Poissons Ratio (z) = 0.29878 -0.34390
#
# Static dielectric constant tensor:
#      x y z
#    x 1.832300 0.007990 0.007700 
#    y 0.007990 1.877790 0.005640 
#    z 0.007700 0.005640 1.870720 
# 
# From -- ./inp_files/344996.got.cif
#   From: 2010.05.17/outbox.cif.g08.bks.cpg/sg2_173_cif.got.tgz:344996.got - 2010.06.03 11:33:40.
