data_PCOD9090998
_publ_section_title
;
Structure prediction by ZEFSAII (Michael W. Deem and Ramdas Pophale) SiO2 
 PCOD9090998
Probable space group: P -1
;
_chemical_formula_sum "Si O2"
_cell_formula_units_Z 16
_cell_length_a 19.675089
_cell_length_b 8.708814
_cell_length_c 17.698036
_cell_angle_alpha 133.030844
_cell_angle_beta 20.485205
_cell_angle_gamma 133.253432
_cell_volume 763.136641
_symmetry_space_group_name_H-M "P -1"
_symmetry_group_IT_number 2
_symmetry_cell_setting 'triclinic'
loop_
_space_group_symop_operation_xyz
x,y,z
-x,-y,-z
loop_
_atom_site_type_symbol
_atom_site_label
_atom_site_fract_x
_atom_site_fract_y
_atom_site_fract_z
Si Si1 0.266089 0.376550 0.033368
Si Si2 0.108018 0.957837 0.238498
Si Si3 0.079657 0.633719 0.886738
Si Si4 0.146520 0.701305 0.378045
Si Si5 0.400029 0.373685 0.489127
Si Si6 0.236725 0.550623 0.967503
Si Si7 0.976796 0.964714 0.206618
Si Si8 0.492201 0.262867 0.895536
O O1 0.249609 0.595159 0.167543
O O2 0.311127 0.422159 0.914914
O O3 0.422653 0.271408 0.884079
O O4 0.053873 0.217612 0.206391
O O5 0.960302 0.106972 0.471766
O O6 0.319860 0.108466 0.066244
O O7 0.049562 0.906255 0.194191
O O8 0.125794 0.732097 0.178790
O O9 0.273519 0.534775 0.634375
O O10 0.000000 0.500000 0.000000
O O11 0.919373 0.590678 0.973024
O O12 0.093880 0.869794 0.984890
O O13 0.300637 0.791882 0.313782
O O14 0.000000 0.500000 0.500000
O O15 0.500000 0.500000 0.500000
O O16 0.576942 0.336666 0.238321
O O17 0.249123 0.161386 0.601937
O O18 0.500000 0.500000 0.000000
#
# Coordination Sequence:
#
# PCOD9090998 Si02
#       8
#     2   2   2   2   2   2   2   2
#     4  10  24  42  62  97 134 161 204 277 324 356
#     4  11  21  36  66  93 117 174 218 248 308 383
#     4  10  19  39  62  90 126 165 215 254 305 380
#     4  11  20  41  67  89 121 169 223 254 306 382
#     4  11  20  39  66  89 122 174 217 253 302 385
#     4  12  24  40  61  99 137 156 208 273 320 368
#     4  10  19  40  66  91 118 172 222 246 306 385
#     4   9  19  39  62  85 119 161 214 258 299 379
#
# _framework density 20.966100999999998
#
# number of rings (size 3 to 8) (size 9 to 14) (size 15 to 20)
#    0.000    1.500    8.750    0.000    1.750    1.000 
#    2.250    3.125    0.000    0.000    0.000    0.000 
#    0.000    0.000    0.000    0.000    0.000    0.000 
#
# Total GULP energy -89193.938669 kJ/mol
# GULP energy per Si atom -5574.621167 kJ/mol
# Density = 2.091838 g / cm^3
# Si number density = 20.966101 Si / 1000 Ang^3
#
#
#
# Elastic Constant Matrix: (Units=GPa)
#
#
# Indices 1 2 3 4 5 6 
#
# 1 80.2300 18.5247 14.3705 -9.4502 -12.8291 6.6013
# 2 18.5247 71.5302 13.4311 -2.2899 -5.2539 25.1664
# 3 14.3705 13.4311 82.0931 1.7454 -13.8851 10.8142
# 4 -9.4502 -2.2899 1.7454 35.3135 10.9119 -2.6389
# 5 -12.8291 -5.2539 -13.8851 10.9119 22.2486 -2.7164
# 6 6.6013 25.1664 10.8142 -2.6389 -2.7164 29.6762
#
#
#
# Elastic Compliance Matrix: (Units=1/GPa)
#
#
# Indices 1 2 3 4 5 6 
#
# 1 0.014565 -0.003298 -0.001115 0.001915 0.006068 0.000689
# 2 -0.003298 0.020883 -0.000375 -0.001174 0.001317 -0.016822
# 3 -0.001115 -0.000375 0.014831 -0.004537 0.010223 -0.004306
# 4 0.001915 -0.001174 -0.004537 0.035042 -0.018748 0.003623
# 5 0.006068 0.001317 0.010223 -0.018748 0.064089 -0.001993
# 6 0.000689 -0.016822 -0.004306 0.003623 -0.001993 0.049519
#
#
# Mechanical properties :
#
#
# Convention : Reuss Voigt Hill
#
# Bulk Modulus (GPa) = 24.56947 36.27844 30.42395
# Shear Modulus (GPa) = 22.51524 29.94945 26.23234
#
# Velocity S-wave (km/s) = 3.28058 3.78361 3.54104
# Velocity P-wave (km/s) = 5.10820 6.03561 5.59116
#
# Compressibility (1/GPa) = 0.04070093
#
# Stress axis : x y z
#
# Youngs Moduli (GPa) = 68.65954 47.88697 67.42774
#
# Poissons Ratio (x) = 0.15793 0.07519
# Poissons Ratio (y) = 0.22643 0.02532
# Poissons Ratio (z) = 0.07656 0.01798
#
# Static dielectric constant tensor:
#      x y z
#    x 1.764420 0.029340 -0.000690 
#    y 0.029340 1.801820 0.052380 
#    z -0.000690 0.052380 1.842310 
# 
# From -- ./inp_files/529651.got.cif
#   From: 2010.05.17/outbox.cif.g08.bks.cpg/sg2_265_cif.got.tgz:529651.got - 2010.06.03 11:33:40.
