data_PCOD9090477
_publ_section_title
;
Structure prediction by ZEFSAII (Michael W. Deem and Ramdas Pophale) SiO2 
 PCOD9090477
Probable space group: P -1
;
_chemical_formula_sum "Si O2"
_cell_formula_units_Z 16
_cell_length_a 17.836409
_cell_length_b 23.830536
_cell_length_c 5.202972
_cell_angle_alpha 63.376205
_cell_angle_beta 118.158646
_cell_angle_gamma 159.513592
_cell_volume 682.263185
_symmetry_space_group_name_H-M "P -1"
_symmetry_group_IT_number 2
_symmetry_cell_setting 'triclinic'
loop_
_space_group_symop_operation_xyz
x,y,z
-x,-y,-z
loop_
_atom_site_type_symbol
_atom_site_label
_atom_site_fract_x
_atom_site_fract_y
_atom_site_fract_z
Si Si1 0.518452 0.721840 0.328210
Si Si2 0.486523 0.821661 0.828872
Si Si3 0.748405 0.828136 0.987876
Si Si4 0.481003 0.529131 0.160573
Si Si5 0.712938 0.207837 0.130266
Si Si6 0.071186 0.479470 0.740087
Si Si7 0.288710 0.934826 0.642709
Si Si8 0.864124 0.609123 0.921099
O O1 0.608978 0.760488 0.664928
O O2 0.300508 0.535335 0.262258
O O3 0.518091 0.797959 0.173701
O O4 0.684707 0.817612 0.172313
O O5 0.330186 0.667227 0.745435
O O6 0.686098 0.988471 0.661518
O O7 0.339239 0.781707 0.743418
O O8 0.684020 0.712409 0.129426
O O9 0.000000 0.000000 0.000000
O O10 0.500000 0.500000 0.500000
O O11 0.273217 0.434442 0.047447
O O12 0.500000 0.500000 0.000000
O O13 0.936276 0.378554 0.997598
O O14 0.508150 0.081695 0.868190
O O15 0.710467 0.133080 0.350311
O O16 0.000000 0.500000 0.500000
O O17 0.049652 0.393647 0.776465
O O18 0.069856 0.783069 0.768180
#
# Coordination Sequence:
#
# PCOD9090477 Si02
#       8
#     2   2   2   2   2   2   2   2
#     4  10  24  43  70  98 134 175 224 284 349 424
#     4  11  22  37  61  95 128 178 238 285 336 413
#     4  11  24  48  73 101 135 172 222 292 363 422
#     4  11  24  47  74 102 139 183 234 288 358 434
#     4  10  21  37  58  87 136 181 230 282 348 406
#     4  10  19  38  66  92 134 185 229 284 345 415
#     4  10  21  40  57  90 139 180 228 287 345 409
#     4   9  22  43  64 100 138 184 229 288 352 421
#
# _framework density 23.451360999999999
#
# number of rings (size 3 to 8) (size 9 to 14) (size 15 to 20)
#    0.000    1.750    1.250    2.625    1.750    2.000 
#    9.000    1.250    0.000    0.000    0.000    0.000 
#    0.000    0.000    0.000    0.000    0.000    0.000 
#
# Total GULP energy -89252.781675 kJ/mol
# GULP energy per Si atom -5578.298855 kJ/mol
# Density = 2.339798 g / cm^3
# Si number density = 23.451361 Si / 1000 Ang^3
#
#
#
# Elastic Constant Matrix: (Units=GPa)
#
#
# Indices 1 2 3 4 5 6 
#
# 1 149.3778 51.7956 32.0731 -16.8997 -1.6530 7.0528
# 2 51.7956 137.8331 50.5521 -44.3604 1.7261 6.1860
# 3 32.0731 50.5521 116.6763 -30.1538 16.4022 -16.4481
# 4 -16.8997 -44.3604 -30.1538 44.9898 -9.2499 1.7726
# 5 -1.6530 1.7261 16.4022 -9.2499 35.5666 -7.8044
# 6 7.0528 6.1860 -16.4481 1.7726 -7.8044 34.1042
#
#
#
# Elastic Compliance Matrix: (Units=1/GPa)
#
#
# Indices 1 2 3 4 5 6 
#
# 1 0.007930 -0.002411 -0.001544 -0.000208 0.000756 -0.001763
# 2 -0.002411 0.012664 -0.002994 0.010238 0.002620 -0.003175
# 3 -0.001544 -0.002994 0.012650 0.004011 -0.003406 0.005976
# 4 -0.000208 0.010238 0.004011 0.036393 0.007075 -0.000152
# 5 0.000756 0.002620 -0.003406 0.007075 0.032487 0.004792
# 6 -0.001763 -0.003175 0.005976 -0.000152 0.004792 0.034249
#
#
# Mechanical properties :
#
#
# Convention : Reuss Voigt Hill
#
# Bulk Modulus (GPa) = 51.69093 74.74765 63.21929
# Shear Modulus (GPa) = 31.90409 40.89654 36.40032
#
# Velocity S-wave (km/s) = 3.69241 4.18052 3.94402
# Velocity P-wave (km/s) = 6.34572 7.43270 6.91061
#
# Compressibility (1/GPa) = 0.01934575
#
# Stress axis : x y z
#
# Youngs Moduli (GPa) = 126.10286 78.96318 79.05057
#
# Poissons Ratio (x) = 0.19039 0.12206
# Poissons Ratio (y) = 0.30405 0.23669
# Poissons Ratio (z) = 0.19471 0.23643
#
# Static dielectric constant tensor:
#      x y z
#    x 1.926680 -0.004640 0.017210 
#    y -0.004640 1.908130 0.108870 
#    z 0.017210 0.108870 2.011410 
# 
# From -- ./inp_files/112772.got.cif
#   From: 2010.05.17/outbox.cif.g08.bks.cpg/sg2_57_cif.got.tgz:112772.got - 2010.06.03 11:33:40.
