data_PCOD9090079
_publ_section_title
;
Structure prediction by ZEFSAII (Michael W. Deem and Ramdas Pophale) SiO2 
 PCOD9090079
Probable space group: P -1
;
_chemical_formula_sum "Si O2"
_cell_formula_units_Z 10
_cell_length_a 9.122342
_cell_length_b 18.828970
_cell_length_c 9.343570
_cell_angle_alpha 33.284434
_cell_angle_beta 44.839739
_cell_angle_gamma 27.037143
_cell_volume 396.286387
_symmetry_space_group_name_H-M "P -1"
_symmetry_group_IT_number 2
_symmetry_cell_setting 'triclinic'
loop_
_space_group_symop_operation_xyz
x,y,z
-x,-y,-z
loop_
_atom_site_type_symbol
_atom_site_label
_atom_site_fract_x
_atom_site_fract_y
_atom_site_fract_z
Si Si1 0.683553 0.844755 0.462193
Si Si2 0.962475 0.165497 0.303224
Si Si3 0.118817 0.296157 0.751573
Si Si4 0.623427 0.152153 0.107227
Si Si5 0.681701 0.159945 0.741184
O O1 0.874797 0.734903 0.368863
O O2 0.667681 0.734043 0.772221
O O3 0.753507 0.945588 0.321741
O O4 0.305501 0.036182 0.354665
O O5 0.701865 0.272414 0.430947
O O6 0.000000 0.000000 0.500000
O O7 0.922958 0.289745 0.997363
O O8 0.482757 0.142467 0.827730
O O9 0.000000 0.500000 0.500000
O O10 0.538804 0.252911 0.842097
O O11 0.940810 0.060002 0.118288
#
# Coordination Sequence:
#
# PCOD9090079 Si02
#       5
#     2   2   2   2   2
#     4  10  19  38  63  93 118 160 215 253 307 360
#     4  11  20  36  69  90 116 159 216 263 288 356
#     4  12  25  40  61  93 134 164 199 256 315 374
#     4   9  19  35  68  91 118 158 212 270 293 357
#     4  10  20  38  61  92 122 157 210 256 311 356
#
# _framework density 25.234275
#
# number of rings (size 3 to 8) (size 9 to 14) (size 15 to 20)
#    0.000    1.600    4.000    1.800    0.000    0.800 
#    0.000    2.000    0.000    0.000    0.000    0.000 
#    0.000    0.000    0.000    0.000    0.000    0.000 
#
# Total GULP energy -55853.058903 kJ/mol
# GULP energy per Si atom -5585.305890 kJ/mol
# Density = 2.517684 g / cm^3
# Si number density = 25.234275 Si / 1000 Ang^3
#
#
#
# Elastic Constant Matrix: (Units=GPa)
#
#
# Indices 1 2 3 4 5 6 
#
# 1 131.4341 25.3859 42.9725 6.4306 2.9253 9.4484
# 2 25.3859 49.4548 96.0128 41.0253 13.6392 15.1137
# 3 42.9725 96.0128 229.0606 80.5712 9.0181 19.5421
# 4 6.4306 41.0253 80.5712 65.0806 6.4140 11.7773
# 5 2.9253 13.6392 9.0181 6.4140 40.1018 16.3375
# 6 9.4484 15.1137 19.5421 11.7773 16.3375 35.4258
#
#
#
# Elastic Compliance Matrix: (Units=1/GPa)
#
#
# Indices 1 2 3 4 5 6 
#
# 1 0.009279 -0.013847 0.002338 0.004770 0.003099 -0.000872
# 2 -0.013847 0.205501 -0.067194 -0.038167 -0.041528 -0.015073
# 3 0.002338 -0.067194 0.030326 0.002476 0.013783 0.004135
# 4 0.004770 -0.038167 0.002476 0.035447 0.006956 -0.001347
# 5 0.003099 -0.041528 0.013783 0.006956 0.039134 -0.011073
# 6 -0.000872 -0.015073 0.004135 -0.001347 -0.011073 0.038164
#
#
# Mechanical properties :
#
#
# Convention : Reuss Voigt Hill
#
# Bulk Modulus (GPa) = 11.40264 82.07687 46.73975
# Shear Modulus (GPa) = 9.18292 44.49355 26.83824
#
# Velocity S-wave (km/s) = 1.90970 4.20363 3.26477
# Velocity P-wave (km/s) = 3.06450 7.49381 5.72487
#
# Compressibility (1/GPa) = 0.08769902
#
# Stress axis : x y z
#
# Youngs Moduli (GPa) = 107.77224 4.86616 32.97544
#
# Poissons Ratio (x) = 0.06738 -0.07710
# Poissons Ratio (y) = 1.49236 2.21575
# Poissons Ratio (z) = -0.25198 0.32698
#
# Static dielectric constant tensor:
#      x y z
#    x 2.046250 -0.028170 0.025500 
#    y -0.028170 2.087980 0.054060 
#    z 0.025500 0.054060 2.128930 
# 
# From -- ./inp_files/147117.got.cif
#   From: 2010.05.17/outbox.cif.g08.bks.cpg/sg2_74_cif.got.tgz:147117.got - 2010.06.03 11:33:40.
