data_PCOD9090684
_publ_section_title
;
Structure prediction by ZEFSAII (Michael W. Deem and Ramdas Pophale) SiO2 
 PCOD9090684
Probable space group: P -1
;
_chemical_formula_sum "Si O2"
_cell_formula_units_Z 16
_cell_length_a 10.585089
_cell_length_b 15.272258
_cell_length_c 8.129909
_cell_angle_alpha 132.582971
_cell_angle_beta 136.383313
_cell_angle_gamma 50.939850
_cell_volume 641.588238
_symmetry_space_group_name_H-M "P -1"
_symmetry_group_IT_number 2
_symmetry_cell_setting 'triclinic'
loop_
_space_group_symop_operation_xyz
x,y,z
-x,-y,-z
loop_
_atom_site_type_symbol
_atom_site_label
_atom_site_fract_x
_atom_site_fract_y
_atom_site_fract_z
Si Si1 0.778539 0.658167 0.031431
Si Si2 0.368551 0.482502 0.705855
Si Si3 0.345509 0.713374 0.759935
Si Si4 0.977697 0.930337 0.175495
Si Si5 0.615077 0.012812 0.787109
Si Si6 0.245840 0.061216 0.692421
Si Si7 0.004689 0.485972 0.257916
Si Si8 0.257224 0.688785 0.278848
O O1 0.772106 0.794759 0.144146
O O2 0.893188 0.621923 0.263413
O O3 0.567960 0.649861 0.854519
O O4 0.864539 0.568491 0.848796
O O5 0.301681 0.615534 0.720368
O O6 0.165441 0.456645 0.513287
O O7 0.517557 0.367352 0.610005
O O8 0.500000 0.500000 0.000000
O O9 0.235134 0.715804 0.487193
O O10 0.344216 0.851636 0.991290
O O11 0.834343 0.970176 0.248372
O O12 0.145784 0.810277 0.229653
O O13 0.096407 0.028902 0.383418
O O14 0.824924 0.918956 0.881713
O O15 0.464141 0.998230 0.767674
O O16 0.500000 0.000000 0.500000
O O17 0.849054 0.410391 0.007310
#
# Coordination Sequence:
#
# PCOD9090684 Si02
#       8
#     2   2   2   2   2   2   2   2
#     4  10  19  38  70 102 124 172 231 290 320 399
#     4  12  28  45  65 104 146 180 218 286 351 414
#     4  11  22  45  72  95 135 180 239 278 338 401
#     4  11  24  42  70 103 135 177 232 292 342 399
#     4  11  27  46  68 100 144 187 226 284 350 423
#     4  10  22  42  69 101 131 174 238 288 338 393
#     4  11  22  38  70  98 132 172 226 280 341 389
#     4  12  24  45  72 104 135 177 237 286 332 412
#
# _framework density 24.938112
#
# number of rings (size 3 to 8) (size 9 to 14) (size 15 to 20)
#    0.000    1.000    3.750    3.750    1.750    5.000 
#    4.500    0.000    0.000    0.000    0.000    0.000 
#    0.000    0.000    0.000    0.000    0.000    0.000 
#
# Total GULP energy -89438.456894 kJ/mol
# GULP energy per Si atom -5589.903556 kJ/mol
# Density = 2.488135 g / cm^3
# Si number density = 24.938112 Si / 1000 Ang^3
#
#
#
# Elastic Constant Matrix: (Units=GPa)
#
#
# Indices 1 2 3 4 5 6 
#
# 1 42.8121 8.4369 12.5466 -3.2025 26.3077 -8.8856
# 2 8.4369 69.2821 34.1683 -16.1421 5.1304 -7.5137
# 3 12.5466 34.1683 164.2215 -37.4494 14.9965 -8.0995
# 4 -3.2025 -16.1421 -37.4494 43.1608 -5.5296 10.6255
# 5 26.3077 5.1304 14.9965 -5.5296 47.4672 -11.4476
# 6 -8.8856 -7.5137 -8.0995 10.6255 -11.4476 23.5708
#
#
#
# Elastic Compliance Matrix: (Units=1/GPa)
#
#
# Indices 1 2 3 4 5 6 
#
# 1 0.036495 -0.002730 -0.000868 -0.002617 -0.018849 0.004615
# 2 -0.002730 0.017011 -0.002543 0.003487 0.001533 0.002693
# 3 -0.000868 -0.002543 0.008182 0.006365 -0.001558 -0.001952
# 4 -0.002617 0.003487 0.006365 0.032880 -0.000140 -0.012578
# 5 -0.018849 0.001533 -0.001558 -0.000140 0.034110 0.009477
# 6 0.004615 0.002693 -0.001952 -0.012578 0.009477 0.054625
#
#
# Mechanical properties :
#
#
# Convention : Reuss Voigt Hill
#
# Bulk Modulus (GPa) = 20.24011 42.95768 31.59889
# Shear Modulus (GPa) = 23.57891 37.58403 30.58147
#
# Velocity S-wave (km/s) = 3.07823 3.88634 3.50565
# Velocity P-wave (km/s) = 4.55716 6.11566 5.39301
#
# Compressibility (1/GPa) = 0.04940685
#
# Stress axis : x y z
#
# Youngs Moduli (GPa) = 27.40107 58.78507 122.21548
#
# Poissons Ratio (x) = 0.16046 0.10611
# Poissons Ratio (y) = 0.07479 0.31078
# Poissons Ratio (z) = 0.02379 0.14949
#
# Static dielectric constant tensor:
#      x y z
#    x 2.123430 0.046760 -0.049350 
#    y 0.046760 2.019760 -0.000750 
#    z -0.049350 -0.000750 2.061170 
# 
# From -- ./inp_files/274519.got.cif
#   From: 2010.05.17/outbox.cif.g08.bks.cpg/sg2_138_cif.got.tgz:274519.got - 2010.06.03 11:33:40.
