data_PCOD9090564
_publ_section_title
;
Structure prediction by ZEFSAII (Michael W. Deem and Ramdas Pophale) SiO2 
 PCOD9090564
Probable space group: P -1
;
_chemical_formula_sum "Si O2"
_cell_formula_units_Z 14
_cell_length_a 9.739237
_cell_length_b 16.317813
_cell_length_c 7.658468
_cell_angle_alpha 128.099752
_cell_angle_beta 121.317358
_cell_angle_gamma 32.640676
_cell_volume 516.600541
_symmetry_space_group_name_H-M "P -1"
_symmetry_group_IT_number 2
_symmetry_cell_setting 'triclinic'
loop_
_space_group_symop_operation_xyz
x,y,z
-x,-y,-z
loop_
_atom_site_type_symbol
_atom_site_label
_atom_site_fract_x
_atom_site_fract_y
_atom_site_fract_z
Si Si1 0.187191 0.168009 0.212293
Si Si2 0.617699 0.783386 0.893059
Si Si3 0.313763 0.245951 0.706247
Si Si4 0.091153 0.995545 0.246138
Si Si5 0.571523 0.344171 0.335053
Si Si6 0.289641 0.479122 0.963163
Si Si7 0.794971 0.270296 0.876360
O O1 0.232351 0.190062 0.462033
O O2 0.369229 0.981601 0.027115
O O3 0.249275 0.230832 0.202896
O O4 0.905335 0.267417 0.123991
O O5 0.751103 0.729043 0.099431
O O6 0.551342 0.695680 0.702811
O O7 0.178329 0.420748 0.780824
O O8 0.621293 0.105377 0.700485
O O9 0.864556 0.188690 0.382470
O O10 0.085333 0.903992 0.260830
O O11 0.000000 0.000000 0.000000
O O12 0.500000 0.500000 0.500000
O O13 0.470533 0.369072 0.105330
O O14 0.496524 0.397029 0.840434
O O15 0.150697 0.660010 0.123277
#
# Coordination Sequence:
#
# PCOD9090564 Si02
#       7
#     2   2   2   2   2   2   2
#     4  11  22  39  66  98 135 176 218 269 341 404
#     4  10  22  41  63  96 137 168 220 280 321 405
#     4  10  21  40  68  94 130 178 227 269 332 402
#     4  11  18  40  71  91 122 185 231 270 335 390
#     4  11  22  41  65  96 133 171 226 288 333 383
#     4   9  21  39  63  95 129 172 226 278 327 388
#     4  10  19  38  67  90 128 172 223 273 326 397
#
# _framework density 27.100242000000001
#
# number of rings (size 3 to 8) (size 9 to 14) (size 15 to 20)
#    0.000    1.714    5.714    0.429    0.000    4.000 
#    5.143    4.286    0.000    0.000    0.000    0.000 
#    0.000    0.000    0.000    0.000    0.000    0.000 
#
# Total GULP energy -78170.912983 kJ/mol
# GULP energy per Si atom -5583.636642 kJ/mol
# Density = 2.703856 g / cm^3
# Si number density = 27.100242 Si / 1000 Ang^3
#
#
#
# Elastic Constant Matrix: (Units=GPa)
#
#
# Indices 1 2 3 4 5 6 
#
# 1 142.7349 45.3096 29.1198 18.5290 24.9180 35.9746
# 2 45.3096 168.4112 29.4218 30.1603 18.2873 42.3373
# 3 29.1198 29.4218 129.9873 10.3113 16.6642 -4.5987
# 4 18.5290 30.1603 10.3113 43.6351 9.6573 17.8954
# 5 24.9180 18.2873 16.6642 9.6573 20.6550 2.4656
# 6 35.9746 42.3373 -4.5987 17.8954 2.4656 52.3437
#
#
#
# Elastic Compliance Matrix: (Units=1/GPa)
#
#
# Indices 1 2 3 4 5 6 
#
# 1 0.011160 0.000333 -0.001383 0.001341 -0.012322 -0.007939
# 2 0.000333 0.008630 -0.001431 -0.001990 -0.005192 -0.006409
# 3 -0.001383 -0.001431 0.009086 -0.001034 -0.004325 0.003463
# 4 0.001341 -0.001990 -0.001034 0.030447 -0.012154 -0.009239
# 5 -0.012322 -0.005192 -0.004325 -0.012154 0.075509 0.012886
# 6 -0.007939 -0.006409 0.003463 -0.009239 0.012886 0.032601
#
#
# Mechanical properties :
#
#
# Convention : Reuss Voigt Hill
#
# Bulk Modulus (GPa) = 41.81825 72.09287 56.95556
# Shear Modulus (GPa) = 27.72125 45.81225 36.76675
#
# Velocity S-wave (km/s) = 3.20177 4.11600 3.68733
# Velocity P-wave (km/s) = 5.39749 7.01774 6.26025
#
# Compressibility (1/GPa) = 0.02391301
#
# Stress axis : x y z
#
# Youngs Moduli (GPa) = 89.60194 115.87699 110.06191
#
# Poissons Ratio (x) = -0.03854 0.15222
# Poissons Ratio (y) = -0.02980 0.15751
# Poissons Ratio (z) = 0.12392 0.16584
#
# Static dielectric constant tensor:
#      x y z
#    x 2.190640 -0.049560 -0.051640 
#    y -0.049560 2.236980 0.046700 
#    z -0.051640 0.046700 2.181820 
# 
# From -- ./inp_files/279962.got.cif
#   From: 2010.05.17/outbox.cif.g08.bks.cpg/sg2_140_cif.got.tgz:279962.got - 2010.06.03 11:33:40.
