data_PCOD9090256
_publ_section_title
;
Structure prediction by ZEFSAII (Michael W. Deem and Ramdas Pophale) SiO2 
 PCOD9090256
Probable space group: P -1
;
_chemical_formula_sum "Si O2"
_cell_formula_units_Z 16
_cell_length_a 17.800066
_cell_length_b 12.374662
_cell_length_c 9.068518
_cell_angle_alpha 48.100061
_cell_angle_beta 57.958748
_cell_angle_gamma 31.328063
_cell_volume 768.905394
_symmetry_space_group_name_H-M "P -1"
_symmetry_group_IT_number 2
_symmetry_cell_setting 'triclinic'
loop_
_space_group_symop_operation_xyz
x,y,z
-x,-y,-z
loop_
_atom_site_type_symbol
_atom_site_label
_atom_site_fract_x
_atom_site_fract_y
_atom_site_fract_z
Si Si1 0.250341 0.196259 0.204561
Si Si2 0.544483 0.069742 0.502926
Si Si3 0.235760 0.974776 0.195231
Si Si4 0.019159 0.315966 0.523574
Si Si5 0.008724 0.976469 0.185542
Si Si6 0.900138 0.334737 0.208009
Si Si7 0.800636 0.832638 0.261417
Si Si8 0.713525 0.401830 0.582125
O O1 0.301338 0.003674 0.216189
O O2 0.123585 0.285088 0.350819
O O3 0.368163 0.097060 0.290742
O O4 0.182249 0.412821 0.982287
O O5 0.414127 0.335237 0.460171
O O6 0.500000 0.000000 0.500000
O O7 0.656096 0.023697 0.335076
O O8 0.066071 0.157755 0.242606
O O9 0.322673 0.710558 0.341318
O O10 0.224148 0.066510 0.963491
O O11 0.033331 0.132625 0.629748
O O12 0.072135 0.257373 0.691924
O O13 0.858918 0.590279 0.416234
O O14 0.175212 0.780468 0.236840
O O15 0.917116 0.210085 0.160956
O O16 0.000000 0.000000 0.000000
O O17 0.809038 0.366558 0.395789
#
# Coordination Sequence:
#
# PCOD9090256 Si02
#       8
#     2   2   2   2   2   2   2   2
#     4  11  24  40  70  96 125 172 221 265 325 384
#     4  11  27  45  63  92 133 178 218 261 325 396
#     4  11  22  42  67 102 123 162 221 274 328 378
#     4  10  19  38  64  95 128 164 213 273 319 374
#     4  11  23  37  68 101 130 166 213 270 331 377
#     4  11  23  41  66 103 131 167 212 271 330 379
#     4  10  22  38  67  92 127 168 219 269 318 376
#     4  11  25  43  65  91 143 174 205 268 325 387
#
# _framework density 20.808803000000001
#
# number of rings (size 3 to 8) (size 9 to 14) (size 15 to 20)
#    0.000    1.250    1.250    5.625    8.750    1.500 
#    0.000    0.000    0.000    0.000    0.000    0.000 
#    0.000    0.000    0.000    0.000    0.000    0.000 
#
# Total GULP energy -89429.077896 kJ/mol
# GULP energy per Si atom -5589.317368 kJ/mol
# Density = 2.076144 g / cm^3
# Si number density = 20.808803 Si / 1000 Ang^3
#
#
#
# Elastic Constant Matrix: (Units=GPa)
#
#
# Indices 1 2 3 4 5 6 
#
# 1 99.5710 28.0429 28.4806 -7.6971 0.3991 33.8938
# 2 28.0429 117.6253 33.2812 -1.4602 0.5024 13.0017
# 3 28.4806 33.2812 79.3790 13.7227 4.5443 14.9362
# 4 -7.6971 -1.4602 13.7227 31.9638 12.7480 -6.1653
# 5 0.3991 0.5024 4.5443 12.7480 30.2589 -0.9190
# 6 33.8938 13.0017 14.9362 -6.1653 -0.9190 28.2631
#
#
#
# Elastic Compliance Matrix: (Units=1/GPa)
#
#
# Indices 1 2 3 4 5 6 
#
# 1 0.017766 -0.001397 -0.002537 0.002189 -0.001326 -0.018888
# 2 -0.001397 0.010018 -0.003909 0.001849 -0.000354 -0.000475
# 3 -0.002537 -0.003909 0.018216 -0.010616 0.001621 -0.007049
# 4 0.002189 0.001849 -0.010616 0.045583 -0.017320 0.011514
# 5 -0.001326 -0.000354 0.001621 -0.017320 0.040077 -0.001578
# 6 -0.018888 -0.000475 -0.007049 0.011514 -0.001578 0.064436
#
#
# Mechanical properties :
#
#
# Convention : Reuss Voigt Hill
#
# Bulk Modulus (GPa) = 32.98877 52.90939 42.94908
# Shear Modulus (GPa) = 22.53406 31.88187 27.20797
#
# Velocity S-wave (km/s) = 3.29433 3.91849 3.61989
# Velocity P-wave (km/s) = 5.50979 6.77897 6.17707
#
# Compressibility (1/GPa) = 0.03031334
#
# Stress axis : x y z
#
# Youngs Moduli (GPa) = 56.28674 99.82416 54.89782
#
# Poissons Ratio (x) = 0.13947 0.13929
# Poissons Ratio (y) = 0.07864 0.21458
# Poissons Ratio (z) = 0.14281 0.39018
#
# Static dielectric constant tensor:
#      x y z
#    x 1.809160 0.025890 -0.005780 
#    y 0.025890 1.751430 -0.002580 
#    z -0.005780 -0.002580 1.736890 
# 
# From -- ./inp_files/209485.got.cif
#   From: 2010.05.17/outbox.cif.g08.bks.cpg/sg2_105_cif.got.tgz:209485.got - 2010.06.03 11:33:40.
