data_PCOD9090700
_publ_section_title
;
Structure prediction by ZEFSAII (Michael W. Deem and Ramdas Pophale) SiO2 
 PCOD9090700
Probable space group: P -1
;
_chemical_formula_sum "Si O2"
_cell_formula_units_Z 13
_cell_length_a 9.115326
_cell_length_b 16.005686
_cell_length_c 5.501685
_cell_angle_alpha 81.372530
_cell_angle_beta 53.315430
_cell_angle_gamma 53.244703
_cell_volume 488.100359
_symmetry_space_group_name_H-M "P -1"
_symmetry_group_IT_number 2
_symmetry_cell_setting 'triclinic'
loop_
_space_group_symop_operation_xyz
x,y,z
-x,-y,-z
loop_
_atom_site_type_symbol
_atom_site_label
_atom_site_fract_x
_atom_site_fract_y
_atom_site_fract_z
Si Si1 0.834351 0.422344 0.706931
Si Si2 0.867834 0.211106 0.751911
Si Si3 0.157315 0.537674 0.819245
Si Si4 0.731112 0.950444 0.965176
Si Si5 0.614069 0.729773 0.806905
Si Si6 0.704468 0.784482 0.194062
Si Si7 0.000000 0.000000 0.000000
O O1 0.710352 0.490623 0.552989
O O2 0.106094 0.378471 0.429763
O O3 0.878492 0.308766 0.740944
O O4 0.715586 0.492813 0.036549
O O5 0.042954 0.140961 0.384946
O O6 0.592530 0.274799 0.941772
O O7 0.943046 0.115155 0.911500
O O8 0.970729 0.670589 0.953016
O O9 0.000000 0.500000 0.000000
O O10 0.697936 0.884446 0.219177
O O11 0.807729 0.016162 0.980534
O O12 0.500000 0.000000 0.000000
O O13 0.586012 0.771751 0.540662
O O14 0.593265 0.796864 0.035203
#
# Coordination Sequence:
#
# PCOD9090700 Si02
#       7
#     2   2   2   2   2   2   1
#     4  10  22  42  65  99 135 182 220 285 358 405
#     4  12  26  43  68  99 137 190 232 288 353 420
#     4  10  19  38  71 100 129 175 230 278 350 428
#     4  12  27  47  68  99 144 185 240 299 351 419
#     4  10  22  40  69  93 133 180 232 276 341 422
#     4  10  22  44  67  96 139 183 223 290 357 398
#     4  12  28  40  68 100 130 186 250 278 354 414
#
# _framework density 26.633863000000002
#
# number of rings (size 3 to 8) (size 9 to 14) (size 15 to 20)
#    0.000    1.231    3.077    3.692    4.308    0.615 
#    0.000    0.000    0.000   22.154    0.000    0.000 
#    0.000    0.000    0.000    0.000    0.000    0.000 
#
# Total GULP energy -72409.160312 kJ/mol
# GULP energy per Si atom -5569.935409 kJ/mol
# Density = 2.657324 g / cm^3
# Si number density = 26.633863 Si / 1000 Ang^3
#
#
#
# Elastic Constant Matrix: (Units=GPa)
#
#
# Indices 1 2 3 4 5 6 
#
# 1 161.3261 49.8670 87.7991 -3.7536 2.5777 33.2198
# 2 49.8670 124.4916 24.1025 -24.8439 4.4723 9.4558
# 3 87.7991 24.1025 107.2383 -14.8040 14.5418 -5.6457
# 4 -3.7536 -24.8439 -14.8040 38.9713 -3.6853 0.3292
# 5 2.5777 4.4723 14.5418 -3.6853 70.7603 3.2916
# 6 33.2198 9.4558 -5.6457 0.3292 3.2916 31.9048
#
#
#
# Elastic Compliance Matrix: (Units=1/GPa)
#
#
# Indices 1 2 3 4 5 6 
#
# 1 0.029065 -0.006267 -0.026371 -0.010384 0.005777 -0.033561
# 2 -0.006267 0.011055 0.004090 0.007861 -0.001088 0.004004
# 3 -0.026371 0.004090 0.034397 0.012168 -0.007266 0.032957
# 4 -0.010384 0.007861 0.012168 0.034080 -0.001329 0.010421
# 5 0.005777 -0.001088 -0.007266 -0.001329 0.015814 -0.008597
# 6 -0.033561 0.004004 0.032957 0.010421 -0.008597 0.071712
#
#
# Mechanical properties :
#
#
# Convention : Reuss Voigt Hill
#
# Bulk Modulus (GPa) = 57.40710 79.62145 68.51427
# Shear Modulus (GPa) = 19.30304 43.74642 31.52473
#
# Velocity S-wave (km/s) = 2.69505 4.05719 3.44413
# Velocity P-wave (km/s) = 5.59333 7.20468 6.44953
#
# Compressibility (1/GPa) = 0.01741945
#
# Stress axis : x y z
#
# Youngs Moduli (GPa) = 34.40569 90.45713 29.07238
#
# Poissons Ratio (x) = 0.56693 0.76668
# Poissons Ratio (y) = 0.21563 -0.11891
# Poissons Ratio (z) = 0.90733 -0.36998
#
# Static dielectric constant tensor:
#      x y z
#    x 2.158490 -0.086020 0.113480 
#    y -0.086020 2.038140 0.037210 
#    z 0.113480 0.037210 2.038510 
# 
# From -- ./inp_files/34924.got.cif
#   From: 2010.05.17/outbox.cif.g08.bks.cpg/sg2_18_cif.got.tgz:34924.got - 2010.06.03 11:33:40.
