data_PCOD9090907
_publ_section_title
;
Structure prediction by ZEFSAII (Michael W. Deem and Ramdas Pophale) SiO2 
 PCOD9090907
Probable space group: P -1
;
_chemical_formula_sum "Si O2"
_cell_formula_units_Z 14
_cell_length_a 9.720599
_cell_length_b 12.831782
_cell_length_c 12.000881
_cell_angle_alpha 108.595224
_cell_angle_beta 146.003900
_cell_angle_gamma 84.174402
_cell_volume 754.882456
_symmetry_space_group_name_H-M "P -1"
_symmetry_group_IT_number 2
_symmetry_cell_setting 'triclinic'
loop_
_space_group_symop_operation_xyz
x,y,z
-x,-y,-z
loop_
_atom_site_type_symbol
_atom_site_label
_atom_site_fract_x
_atom_site_fract_y
_atom_site_fract_z
Si Si1 0.033928 0.839531 0.525522
Si Si2 0.954145 0.653678 0.601459
Si Si3 0.804434 0.059038 0.746990
Si Si4 0.128703 0.229750 0.841105
Si Si5 0.060914 0.860114 0.882572
Si Si6 0.609112 0.917974 0.157550
Si Si7 0.426094 0.552627 0.853212
O O1 0.984930 0.742302 0.550140
O O2 0.047015 0.788648 0.394424
O O3 0.792342 0.891048 0.369632
O O4 0.280375 0.947866 0.748870
O O5 0.913477 0.726665 0.706275
O O6 0.215282 0.616454 0.769567
O O7 0.720999 0.543455 0.368247
O O8 0.946210 0.164873 0.795878
O O9 0.500000 0.000000 0.500000
O O10 0.867262 0.110966 0.930921
O O11 0.923289 0.952525 0.780532
O O12 0.323917 0.154947 0.922170
O O13 0.321056 0.359705 0.005837
O O14 0.325540 0.882825 0.000652
O O15 0.500000 0.500000 0.000000
#
# Coordination Sequence:
#
# PCOD9090907 Si02
#       7
#     2   2   2   2   2   2   2
#     4   9  18  31  60  96 118 153 193 256 314 360
#     4  11  22  36  63  93 123 159 201 265 311 356
#     4  11  26  42  60  90 134 167 203 246 315 377
#     4  10  19  39  61  89 122 163 201 259 303 367
#     4  11  24  40  61  94 124 169 202 250 311 384
#     4   9  18  34  60  95 119 149 205 253 312 368
#     4  11  22  39  60  97 122 157 209 266 311 352
#
# _framework density 18.545933000000002
#
# number of rings (size 3 to 8) (size 9 to 14) (size 15 to 20)
#    0.857    0.857    2.857    1.714    4.000    1.143 
#    0.000    0.714    0.000    1.714    0.000    0.000 
#    0.000    0.000    0.000    0.000    0.000    0.000 
#
# Total GULP energy -78025.888666 kJ/mol
# GULP energy per Si atom -5573.277762 kJ/mol
# Density = 1.850372 g / cm^3
# Si number density = 18.545933 Si / 1000 Ang^3
#
#
#
# Elastic Constant Matrix: (Units=GPa)
#
#
# Indices 1 2 3 4 5 6 
#
# 1 77.2286 36.7386 43.6042 8.2565 0.1961 11.9109
# 2 36.7386 106.6087 52.9620 15.6015 -1.5105 11.5830
# 3 43.6042 52.9620 95.1376 16.2698 0.6598 9.2741
# 4 8.2565 15.6015 16.2698 44.7264 -0.7107 -0.5526
# 5 0.1961 -1.5105 0.6598 -0.7107 28.7419 8.2549
# 6 11.9109 11.5830 9.2741 -0.5526 8.2549 31.3335
#
#
#
# Elastic Compliance Matrix: (Units=1/GPa)
#
#
# Indices 1 2 3 4 5 6 
#
# 1 0.018637 -0.002598 -0.006641 -0.000155 0.001168 -0.004469
# 2 -0.002598 0.013854 -0.005872 -0.002226 0.001650 -0.002869
# 3 -0.006641 -0.005872 0.017385 -0.003064 -0.000642 -0.000335
# 4 -0.000155 -0.002226 -0.003064 0.024304 -0.000088 0.002240
# 5 0.001168 0.001650 -0.000642 -0.000088 0.038008 -0.010879
# 6 -0.004469 -0.002869 -0.000335 0.002240 -0.010879 0.037679
#
#
# Mechanical properties :
#
#
# Convention : Reuss Voigt Hill
#
# Bulk Modulus (GPa) = 50.88605 60.62050 55.75328
# Shear Modulus (GPa) = 26.78912 30.67170 28.73041
#
# Velocity S-wave (km/s) = 3.80475 4.07113 3.94019
# Velocity P-wave (km/s) = 6.84097 7.40652 7.12935
#
# Compressibility (1/GPa) = 0.01965175
#
# Stress axis : x y z
#
# Youngs Moduli (GPa) = 53.65556 72.18264 57.51996
#
# Poissons Ratio (x) = 0.18757 0.38202
# Poissons Ratio (y) = 0.13942 0.33778
# Poissons Ratio (z) = 0.35635 0.42388
#
# Static dielectric constant tensor:
#      x y z
#    x 1.622380 -0.015960 -0.035640 
#    y -0.015960 1.668910 0.011540 
#    z -0.035640 0.011540 1.723910 
# 
# From -- ./inp_files/387963.got.cif
#   From: 2010.05.17/outbox.cif.g08.bks.cpg/sg2_194_cif.got.tgz:387963.got - 2010.06.03 11:33:40.
