data_PCOD9090358
_publ_section_title
;
Structure prediction by ZEFSAII (Michael W. Deem and Ramdas Pophale) SiO2 
 PCOD9090358
Probable space group: P -1
;
_chemical_formula_sum "Si O2"
_cell_formula_units_Z 16
_cell_length_a 14.692627
_cell_length_b 8.501767
_cell_length_c 9.292307
_cell_angle_alpha 49.352061
_cell_angle_beta 114.173155
_cell_angle_gamma 84.776371
_cell_volume 687.795524
_symmetry_space_group_name_H-M "P -1"
_symmetry_group_IT_number 2
_symmetry_cell_setting 'triclinic'
loop_
_space_group_symop_operation_xyz
x,y,z
-x,-y,-z
loop_
_atom_site_type_symbol
_atom_site_label
_atom_site_fract_x
_atom_site_fract_y
_atom_site_fract_z
Si Si1 0.714096 0.813660 0.654139
Si Si2 0.305754 0.222048 0.000949
Si Si3 0.459470 0.739648 0.236988
Si Si4 0.947694 0.834991 0.762198
Si Si5 0.473807 0.737838 0.920907
Si Si6 0.715781 0.596813 0.520933
Si Si7 0.938755 0.558612 0.686491
Si Si8 0.884950 0.335927 0.554115
O O1 0.691789 0.797222 0.815224
O O2 0.824467 0.849281 0.697362
O O3 0.723985 0.586633 0.705636
O O4 0.610784 0.039954 0.368629
O O5 0.404022 0.276312 0.982576
O O6 0.351380 0.961635 0.114555
O O7 0.185677 0.443331 0.733026
O O8 0.500000 0.500000 0.500000
O O9 0.579901 0.746156 0.308640
O O10 0.429758 0.736976 0.053324
O O11 0.979027 0.732617 0.678646
O O12 0.935976 0.084212 0.654823
O O13 0.032114 0.630345 0.051577
O O14 0.500000 0.500000 0.000000
O O15 0.797955 0.712297 0.477974
O O16 0.789367 0.368826 0.597414
O O17 0.974355 0.384601 0.673905
#
# Coordination Sequence:
#
# PCOD9090358 Si02
#       8
#     2   2   2   2   2   2   2   2
#     4  11  23  37  59  87 124 162 200 255 300 369
#     4  12  24  39  58  87 129 161 207 249 306 363
#     4  12  25  40  61  89 123 165 207 253 302 372
#     4  10  19  38  65  93 118 154 218 249 315 368
#     4  12  23  38  58  84 119 163 202 249 304 365
#     4   9  20  39  58  83 120 155 207 244 310 351
#     4   8  19  37  66  91 115 162 202 264 307 365
#     4  10  20  38  63  88 119 164 200 259 309 363
#
# _framework density 23.262726000000001
#
# number of rings (size 3 to 8) (size 9 to 14) (size 15 to 20)
#    0.750    0.750    2.500    3.375    3.500    0.000 
#    0.000    0.625    0.000    6.750    0.000    0.000 
#    0.000    0.000    0.000    0.000    0.000    0.000 
#
# Total GULP energy -89116.616031 kJ/mol
# GULP energy per Si atom -5569.788502 kJ/mol
# Density = 2.320978 g / cm^3
# Si number density = 23.262726 Si / 1000 Ang^3
#
#
#
# Elastic Constant Matrix: (Units=GPa)
#
#
# Indices 1 2 3 4 5 6 
#
# 1 44.8751 16.9174 19.6642 6.8916 -0.0810 -3.0168
# 2 16.9174 216.9701 91.1383 4.7730 -13.4502 -12.6007
# 3 19.6642 91.1383 136.9498 15.5083 -4.5187 1.2166
# 4 6.8916 4.7730 15.5083 43.6534 -6.8539 -1.4912
# 5 -0.0810 -13.4502 -4.5187 -6.8539 33.8262 13.0444
# 6 -3.0168 -12.6007 1.2166 -1.4912 13.0444 18.2636
#
#
#
# Elastic Compliance Matrix: (Units=1/GPa)
#
#
# Indices 1 2 3 4 5 6 
#
# 1 0.024688 -0.000414 -0.003093 -0.003100 -0.003576 0.006300
# 2 -0.000414 0.006891 -0.004689 0.001224 0.000545 0.004710
# 3 -0.003093 -0.004689 0.011297 -0.003018 0.001181 -0.005588
# 4 -0.003100 0.001224 -0.003018 0.025189 0.005770 -0.001531
# 5 -0.003576 0.000545 0.001181 0.005770 0.042824 -0.030409
# 6 0.006300 0.004710 -0.005588 -0.001531 -0.030409 0.081010
#
#
# Mechanical properties :
#
#
# Convention : Reuss Voigt Hill
#
# Bulk Modulus (GPa) = 37.75607 72.69275 55.22441
# Shear Modulus (GPa) = 23.02886 37.22032 30.12459
#
# Velocity S-wave (km/s) = 3.14975 4.00434 3.60248
# Velocity P-wave (km/s) = 5.43079 7.25920 6.41052
#
# Compressibility (1/GPa) = 0.02648581
#
# Stress axis : x y z
#
# Youngs Moduli (GPa) = 40.50509 145.11335 88.51998
#
# Poissons Ratio (x) = 0.06001 0.27376
# Poissons Ratio (y) = 0.01675 0.41508
# Poissons Ratio (z) = 0.12527 0.68045
#
# Static dielectric constant tensor:
#      x y z
#    x 1.916960 -0.019730 -0.004090 
#    y -0.019730 1.982780 0.005690 
#    z -0.004090 0.005690 1.883230 
# 
# From -- ./inp_files/328453.got.cif
#   From: 2010.05.17/outbox.cif.g08.bks.cpg/sg2_165_cif.got.tgz:328453.got - 2010.06.03 11:33:40.
