data_PCOD9090166
_publ_section_title
;
Structure prediction by ZEFSAII (Michael W. Deem and Ramdas Pophale) SiO2 
 PCOD9090166
Probable space group: P -1
;
_chemical_formula_sum "Si O2"
_cell_formula_units_Z 16
_cell_length_a 23.142973
_cell_length_b 9.131036
_cell_length_c 8.563245
_cell_angle_alpha 46.813360
_cell_angle_beta 147.401425
_cell_angle_gamma 136.953056
_cell_volume 653.753490
_symmetry_space_group_name_H-M "P -1"
_symmetry_group_IT_number 2
_symmetry_cell_setting 'triclinic'
loop_
_space_group_symop_operation_xyz
x,y,z
-x,-y,-z
loop_
_atom_site_type_symbol
_atom_site_label
_atom_site_fract_x
_atom_site_fract_y
_atom_site_fract_z
Si Si1 0.564272 0.971257 0.014312
Si Si2 0.500527 0.238557 0.283348
Si Si3 0.259158 0.075265 0.000481
Si Si4 0.920723 0.325921 0.294167
Si Si5 0.028543 0.796099 0.172330
Si Si6 0.753196 0.107454 0.566739
Si Si7 0.599990 0.455212 0.651193
Si Si8 0.184723 0.404410 0.748018
O O1 0.679983 0.962111 0.361716
O O2 0.593065 0.207999 0.834256
O O3 0.500000 0.000000 0.000000
O O4 0.492870 0.776094 0.878376
O O5 0.579183 0.437449 0.428849
O O6 0.500000 0.000000 0.500000
O O7 0.369976 0.207323 0.053185
O O8 0.190264 0.226030 0.771458
O O9 0.177125 0.857240 0.889338
O O10 0.297587 0.001359 0.305655
O O11 0.904887 0.259750 0.488310
O O12 0.921804 0.563232 0.084159
O O13 0.051245 0.345098 0.535154
O O14 0.112429 0.858989 0.168547
O O15 0.000000 0.000000 0.000000
O O16 0.761827 0.353724 0.382385
O O17 0.500000 0.500000 0.500000
O O18 0.727191 0.593766 0.912257
#
# Coordination Sequence:
#
# PCOD9090166 Si02
#       8
#     2   2   2   2   2   2   2   2
#     4  10  21  39  62  88 127 161 210 271 323 383
#     4  10  21  37  64  92 121 170 216 262 327 388
#     4  12  22  39  67  89 130 168 216 266 330 383
#     4  10  23  39  61  93 125 171 218 262 323 390
#     4  10  21  40  60  86 128 169 215 265 319 380
#     4  10  22  38  61  91 123 169 211 262 327 380
#     4  10  19  38  64  88 125 166 210 263 325 385
#     4  10  22  38  63  93 129 169 211 270 324 386
#
# _framework density 24.474056999999998
#
# number of rings (size 3 to 8) (size 9 to 14) (size 15 to 20)
#    0.000    1.750    1.250    3.375    0.000    6.000 
#    0.000    0.625    5.500    0.000    0.000    0.000 
#    0.000    0.000    0.000    0.000    0.000    0.000 
#
# Total GULP energy -89362.719361 kJ/mol
# GULP energy per Si atom -5585.169960 kJ/mol
# Density = 2.441835 g / cm^3
# Si number density = 24.474057 Si / 1000 Ang^3
#
#
#
# Elastic Constant Matrix: (Units=GPa)
#
#
# Indices 1 2 3 4 5 6 
#
# 1 79.1653 -5.6696 -9.5683 3.1407 -5.3024 -7.0729
# 2 -5.6696 105.4172 8.9093 5.0292 -11.4839 -18.9077
# 3 -9.5683 8.9093 32.4606 -10.5986 -5.5104 0.9013
# 4 3.1407 5.0292 -10.5986 45.9956 -11.1168 2.3766
# 5 -5.3024 -11.4839 -5.5104 -11.1168 28.1866 12.1820
# 6 -7.0729 -18.9077 0.9013 2.3766 12.1820 29.8620
#
#
#
# Elastic Compliance Matrix: (Units=1/GPa)
#
#
# Indices 1 2 3 4 5 6 
#
# 1 0.013641 0.001127 0.004316 0.000525 0.002969 0.002561
# 2 0.001127 0.011406 -0.004015 -0.002784 -0.000496 0.008034
# 3 0.004316 -0.004015 0.041260 0.014534 0.017810 -0.011187
# 4 0.000525 -0.002784 0.014534 0.030647 0.019237 -0.012364
# 5 0.002969 -0.000496 0.017810 0.019237 0.057824 -0.025268
# 6 0.002561 0.008034 -0.011187 -0.012364 -0.025268 0.050810
#
#
# Mechanical properties :
#
#
# Convention : Reuss Voigt Hill
#
# Bulk Modulus (GPa) = 14.45859 22.70954 18.58406
# Shear Modulus (GPa) = 22.14482 35.70028 28.92255
#
# Velocity S-wave (km/s) = 3.01130 3.82344 3.44141
# Velocity P-wave (km/s) = 4.24395 5.36570 4.83745
#
# Compressibility (1/GPa) = 0.06916304
#
# Stress axis : x y z
#
# Youngs Moduli (GPa) = 73.30841 87.67525 24.23639
#
# Poissons Ratio (x) = -0.09877 -0.10461
# Poissons Ratio (y) = -0.08259 0.09730
# Poissons Ratio (z) = -0.31641 0.35199
#
# Static dielectric constant tensor:
#      x y z
#    x 2.034560 0.036260 -0.054360 
#    y 0.036260 1.967600 0.060550 
#    z -0.054360 0.060550 1.955210 
# 
# From -- ./inp_files/356373.got.cif
#   From: 2010.05.17/outbox.cif.g08.bks.cpg/sg2_179_cif.got.tgz:356373.got - 2010.06.03 11:33:40.
