data_PCOD9090852
_publ_section_title
;
Structure prediction by ZEFSAII (Michael W. Deem and Ramdas Pophale) SiO2 
 PCOD9090852
Probable space group: P -1
;
_chemical_formula_sum "Si O2"
_cell_formula_units_Z 16
_cell_length_a 12.123121
_cell_length_b 29.264896
_cell_length_c 17.894134
_cell_angle_alpha 19.234525
_cell_angle_beta 20.360917
_cell_angle_gamma 29.324683
_cell_volume 722.740331
_symmetry_space_group_name_H-M "P -1"
_symmetry_group_IT_number 2
_symmetry_cell_setting 'triclinic'
loop_
_space_group_symop_operation_xyz
x,y,z
-x,-y,-z
loop_
_atom_site_type_symbol
_atom_site_label
_atom_site_fract_x
_atom_site_fract_y
_atom_site_fract_z
Si Si1 0.325013 0.103512 0.131663
Si Si2 0.245685 0.763331 0.035434
Si Si3 0.902199 0.617820 0.088998
Si Si4 0.367025 0.713487 0.869138
Si Si5 0.416199 0.395590 0.334698
Si Si6 0.581008 0.565118 0.225613
Si Si7 0.630039 0.700975 0.324555
Si Si8 0.166078 0.078396 0.842958
O O1 0.264018 0.244790 0.996712
O O2 0.597507 0.021097 0.118200
O O3 0.421809 0.159417 0.901376
O O4 0.000000 0.000000 0.500000
O O5 0.513172 0.697237 0.015511
O O6 0.934131 0.646062 0.411015
O O7 0.095859 0.883372 0.990259
O O8 0.348923 0.791809 0.839959
O O9 0.263550 0.634135 0.863605
O O10 0.866654 0.593077 0.060521
O O11 0.717102 0.483519 0.454749
O O12 0.620636 0.788545 0.534726
O O13 0.448243 0.559824 0.076200
O O14 0.013058 0.695133 0.086701
O O15 0.429351 0.305976 0.539737
O O16 0.568688 0.431338 0.385485
O O17 0.000000 0.000000 0.000000
#
# Coordination Sequence:
#
# PCOD9090852 Si02
#       8
#     2   2   2   2   2   2   2   2
#     4  11  22  43  61  84 127 175 210 252 306 371
#     4  11  22  41  68  94 124 167 211 263 318 371
#     4  10  23  35  60  93 126 163 206 260 318 376
#     4  11  22  42  68  97 129 157 212 276 309 376
#     4  11  21  39  66 104 117 155 216 265 326 373
#     4  10  19  39  60  89 129 157 196 266 331 364
#     4  10  20  39  65  88 130 158 200 267 315 373
#     4  12  27  44  65  92 127 176 220 251 308 380
#
# _framework density 22.137964
#
# number of rings (size 3 to 8) (size 9 to 14) (size 15 to 20)
#    0.000    1.250    3.750    3.000    1.750    4.000 
#    4.500    1.875    0.000    0.000    0.000    0.000 
#    0.000    0.000    0.000    0.000    0.000    0.000 
#
# Total GULP energy -89405.000862 kJ/mol
# GULP energy per Si atom -5587.812554 kJ/mol
# Density = 2.208758 g / cm^3
# Si number density = 22.137964 Si / 1000 Ang^3
#
#
#
# Elastic Constant Matrix: (Units=GPa)
#
#
# Indices 1 2 3 4 5 6 
#
# 1 100.4036 23.6106 9.9168 -8.6692 8.3126 -6.7473
# 2 23.6106 57.9526 2.7452 -10.2663 16.3720 2.2593
# 3 9.9168 2.7452 39.7454 -5.2806 2.4663 -9.0185
# 4 -8.6692 -10.2663 -5.2806 23.4978 2.1747 4.7622
# 5 8.3126 16.3720 2.4663 2.1747 29.8157 -5.9032
# 6 -6.7473 2.2593 -9.0185 4.7622 -5.9032 38.7867
#
#
#
# Elastic Compliance Matrix: (Units=1/GPa)
#
#
# Indices 1 2 3 4 5 6 
#
# 1 0.011425 -0.004153 -0.001966 0.001713 -0.000575 0.001474
# 2 -0.004153 0.025574 0.000502 0.012336 -0.014993 -0.005892
# 3 -0.001966 0.000502 0.027517 0.004736 -0.001311 0.005246
# 4 0.001713 0.012336 0.004736 0.052413 -0.012997 -0.007733
# 5 -0.000575 -0.014993 -0.001311 -0.012997 0.044746 0.008874
# 6 0.001474 -0.005892 0.005246 -0.007733 0.008874 0.029902
#
#
# Mechanical properties :
#
#
# Convention : Reuss Voigt Hill
#
# Bulk Modulus (GPa) = 18.76778 30.07186 24.41982
# Shear Modulus (GPa) = 22.66835 29.20864 25.93849
#
# Velocity S-wave (km/s) = 3.20341 3.63628 3.42669
# Velocity P-wave (km/s) = 4.70940 5.58958 5.16826
#
# Compressibility (1/GPa) = 0.05328281
#
# Stress axis : x y z
#
# Youngs Moduli (GPa) = 87.52544 39.10172 36.34130
#
# Poissons Ratio (x) = 0.16239 0.07145
# Poissons Ratio (y) = 0.36350 -0.01825
# Poissons Ratio (z) = 0.17207 -0.01964
#
# Static dielectric constant tensor:
#      x y z
#    x 1.828030 0.043750 -0.006780 
#    y 0.043750 1.816700 0.017660 
#    z -0.006780 0.017660 1.815090 
# 
# From -- ./inp_files/227517.got.cif
#   From: 2010.05.17/outbox.cif.g08.bks.cpg/sg2_114_cif.got.tgz:227517.got - 2010.06.03 11:33:40.
