data_PCOD9090525
_publ_section_title
;
Structure prediction by ZEFSAII (Michael W. Deem and Ramdas Pophale) SiO2 
 PCOD9090525
Probable space group: P -1
;
_chemical_formula_sum "Si O2"
_cell_formula_units_Z 12
_cell_length_a 8.423639
_cell_length_b 11.710584
_cell_length_c 8.828814
_cell_angle_alpha 143.536926
_cell_angle_beta 101.966050
_cell_angle_gamma 73.005503
_cell_volume 494.403174
_symmetry_space_group_name_H-M "P -1"
_symmetry_group_IT_number 2
_symmetry_cell_setting 'triclinic'
loop_
_space_group_symop_operation_xyz
x,y,z
-x,-y,-z
loop_
_atom_site_type_symbol
_atom_site_label
_atom_site_fract_x
_atom_site_fract_y
_atom_site_fract_z
Si Si1 0.205556 0.647463 0.272685
Si Si2 0.614661 0.752297 0.689862
Si Si3 0.978953 0.715789 0.801982
Si Si4 0.112622 0.240647 0.835157
Si Si5 0.424316 0.897467 0.509906
Si Si6 0.701500 0.294763 0.296769
O O1 0.343411 0.710775 0.262289
O O2 0.252979 0.674629 0.485646
O O3 0.021479 0.775205 0.336340
O O4 0.194213 0.423783 0.006852
O O5 0.785826 0.809236 0.830795
O O6 0.555032 0.831818 0.598804
O O7 0.647562 0.512169 0.443307
O O8 0.458849 0.802597 0.829804
O O9 0.000000 0.500000 0.500000
O O10 0.128486 0.803586 0.858565
O O11 0.990344 0.702815 0.970809
O O12 0.259281 0.055289 0.695289
O O13 0.500000 0.000000 0.500000
#
# Coordination Sequence:
#
# PCOD9090525 Si02
#       6
#     2   2   2   2   2   2
#     4  10  22  44  69  94 134 168 227 278 314 407
#     4   9  19  37  63  92 133 165 219 270 319 393
#     4  10  19  38  66  97 128 172 219 266 331 391
#     4  11  23  41  69 100 128 176 224 262 341 397
#     4  11  26  43  63  99 138 175 214 280 333 385
#     4   9  18  38  68  94 126 179 209 276 335 368
#
# _framework density 24.27169
#
# number of rings (size 3 to 8) (size 9 to 14) (size 15 to 20)
#    0.000    2.000    3.333    0.500    2.333    2.667 
#    3.000    3.333    0.000    0.000    0.000    0.000 
#    0.000    0.000    0.000    0.000    0.000    0.000 
#
# Total GULP energy -67122.521455 kJ/mol
# GULP energy per Si atom -5593.543455 kJ/mol
# Density = 2.421645 g / cm^3
# Si number density = 24.271690 Si / 1000 Ang^3
#
#
#
# Elastic Constant Matrix: (Units=GPa)
#
#
# Indices 1 2 3 4 5 6 
#
# 1 209.5733 68.9790 32.0338 -0.9973 13.3441 26.7153
# 2 68.9790 172.2435 26.9380 -3.4329 9.1551 -1.4984
# 3 32.0338 26.9380 42.0593 -1.4598 -2.2315 2.7520
# 4 -0.9973 -3.4329 -1.4598 22.4100 -4.4346 1.3936
# 5 13.3441 9.1551 -2.2315 -4.4346 32.2210 5.9364
# 6 26.7153 -1.4984 2.7520 1.3936 5.9364 62.8286
#
#
#
# Elastic Compliance Matrix: (Units=1/GPa)
#
#
# Indices 1 2 3 4 5 6 
#
# 1 0.006383 -0.001920 -0.003596 -0.000485 -0.001971 -0.002405
# 2 -0.001920 0.007199 -0.003307 0.000393 -0.001661 0.001281
# 3 -0.003596 -0.003307 0.028984 0.002191 0.004797 -0.000321
# 4 -0.000485 0.000393 0.002191 0.046266 0.006895 -0.001558
# 5 -0.001971 -0.001661 0.004797 0.006895 0.034119 -0.002789
# 6 -0.002405 0.001281 -0.000321 -0.001558 -0.002789 0.017282
#
#
# Mechanical properties :
#
#
# Convention : Reuss Voigt Hill
#
# Bulk Modulus (GPa) = 40.12671 75.53084 57.82878
# Shear Modulus (GPa) = 30.08700 43.22027 36.65364
#
# Velocity S-wave (km/s) = 3.52460 4.22440 3.89027
# Velocity P-wave (km/s) = 5.75604 7.41488 6.63749
#
# Compressibility (1/GPa) = 0.02492105
#
# Stress axis : x y z
#
# Youngs Moduli (GPa) = 156.66956 138.90838 34.50139
#
# Poissons Ratio (x) = 0.26665 0.12406
# Poissons Ratio (y) = 0.30075 0.11410
# Poissons Ratio (z) = 0.56337 0.45937
#
# Static dielectric constant tensor:
#      x y z
#    x 1.973570 -0.007120 -0.010380 
#    y -0.007120 1.925880 0.070630 
#    z -0.010380 0.070630 1.942680 
# 
# From -- ./inp_files/183568.got.cif
#   From: 2010.05.17/outbox.cif.g08.bks.cpg/sg2_92_cif.got.tgz:183568.got - 2010.06.03 11:33:40.
