data_PCOD9090568
_publ_section_title
;
Structure prediction by ZEFSAII (Michael W. Deem and Ramdas Pophale) SiO2 
 PCOD9090568
Probable space group: P -1
;
_chemical_formula_sum "Si O2"
_cell_formula_units_Z 16
_cell_length_a 16.393013
_cell_length_b 7.483981
_cell_length_c 15.978007
_cell_angle_alpha 103.528732
_cell_angle_beta 25.981213
_cell_angle_gamma 118.793634
_cell_volume 643.520357
_symmetry_space_group_name_H-M "P -1"
_symmetry_group_IT_number 2
_symmetry_cell_setting 'triclinic'
loop_
_space_group_symop_operation_xyz
x,y,z
-x,-y,-z
loop_
_atom_site_type_symbol
_atom_site_label
_atom_site_fract_x
_atom_site_fract_y
_atom_site_fract_z
Si Si1 0.256285 0.623262 0.425326
Si Si2 0.354495 0.605450 0.817122
Si Si3 0.559407 0.204195 0.406393
Si Si4 0.171711 0.938419 0.257406
Si Si5 0.238658 0.456340 0.598163
Si Si6 0.810012 0.916014 0.909177
Si Si7 0.975593 0.092217 0.120102
Si Si8 0.402627 0.030495 0.221460
O O1 0.261762 0.625068 0.522029
O O2 0.050463 0.344955 0.562981
O O3 0.236115 0.801835 0.412417
O O4 0.523283 0.732127 0.163125
O O5 0.364935 0.772655 0.755962
O O6 0.542715 0.553957 0.620084
O O7 0.442860 0.738040 0.837791
O O8 0.084338 0.359877 0.030344
O O9 0.725646 0.444598 0.331487
O O10 0.500000 0.000000 0.500000
O O11 0.295707 0.121771 0.630515
O O12 0.128978 0.074956 0.244484
O O13 0.255965 0.038423 0.283978
O O14 0.398670 0.973183 0.008780
O O15 0.975500 0.202269 0.801734
O O16 0.891158 0.856937 0.909239
O O17 0.000000 0.000000 0.000000
#
# Coordination Sequence:
#
# PCOD9090568 Si02
#       8
#     2   2   2   2   2   2   2   2
#     4  10  19  38  67  91 121 171 208 258 317 379
#     4  12  24  39  66  93 128 166 212 262 315 380
#     4  12  26  42  64  96 128 167 215 262 317 382
#     4   9  21  41  67  89 131 168 211 263 321 376
#     4  11  21  40  64  91 128 167 206 261 317 376
#     4  10  20  37  65  91 120 169 213 253 315 379
#     4  12  23  41  66  92 130 173 210 258 322 378
#     4  10  22  40  63  98 127 165 214 265 319 375
#
# _framework density 24.863237999999999
#
# number of rings (size 3 to 8) (size 9 to 14) (size 15 to 20)
#    0.000    1.250    3.750    2.250    0.000    5.500 
#    0.000    3.125    0.000    0.000    0.000    0.000 
#    0.000    0.000    0.000    0.000    0.000    0.000 
#
# Total GULP energy -89306.162117 kJ/mol
# GULP energy per Si atom -5581.635132 kJ/mol
# Density = 2.480665 g / cm^3
# Si number density = 24.863238 Si / 1000 Ang^3
#
#
#
# Elastic Constant Matrix: (Units=GPa)
#
#
# Indices 1 2 3 4 5 6 
#
# 1 145.5482 27.8981 22.9571 2.3337 21.1944 15.3859
# 2 27.8981 45.9419 11.5392 -2.1547 12.7076 14.4634
# 3 22.9571 11.5392 109.5419 -18.8324 19.3023 0.4524
# 4 2.3337 -2.1547 -18.8324 38.2136 -5.8039 1.9966
# 5 21.1944 12.7076 19.3023 -5.8039 37.7991 -4.1553
# 6 15.3859 14.4634 0.4524 1.9966 -4.1553 42.0216
#
#
#
# Elastic Compliance Matrix: (Units=1/GPa)
#
#
# Indices 1 2 3 4 5 6 
#
# 1 0.008448 -0.003235 -0.001070 -0.001656 -0.003604 -0.002246
# 2 -0.003235 0.029447 -0.000734 0.000691 -0.008686 -0.009835
# 3 -0.001070 -0.000734 0.010970 0.004824 -0.004025 -0.000101
# 4 -0.001656 0.000691 0.004824 0.029126 0.002616 -0.000809
# 5 -0.003604 -0.008686 -0.004025 0.002616 0.034696 0.007659
# 6 -0.002246 -0.009835 -0.000101 -0.000809 0.007659 0.028801
#
#
# Mechanical properties :
#
#
# Convention : Reuss Voigt Hill
#
# Bulk Modulus (GPa) = 25.78244 47.31341 36.54793
# Shear Modulus (GPa) = 30.39620 39.51602 34.95611
#
# Velocity S-wave (km/s) = 3.50027 3.99097 3.75365
# Velocity P-wave (km/s) = 5.16992 6.34885 5.78947
#
# Compressibility (1/GPa) = 0.03878608
#
# Stress axis : x y z
#
# Youngs Moduli (GPa) = 118.36783 33.95984 91.16158
#
# Poissons Ratio (x) = 0.10986 0.09755
# Poissons Ratio (y) = 0.38293 0.06691
# Poissons Ratio (z) = 0.12666 0.02493
#
# Static dielectric constant tensor:
#      x y z
#    x 2.982830 -0.292740 0.060220 
#    y -0.292740 2.048540 0.092880 
#    z 0.060220 0.092880 2.038150 
# 
# From -- ./inp_files/528593.got.cif
#   From: 2010.05.17/outbox.cif.g08.bks.cpg/sg2_265_cif.got.tgz:528593.got - 2010.06.03 11:33:40.
