data_PCOD9090607
_publ_section_title
;
Structure prediction by ZEFSAII (Michael W. Deem and Ramdas Pophale) SiO2 
 PCOD9090607
Probable space group: P -1
;
_chemical_formula_sum "Si O2"
_cell_formula_units_Z 14
_cell_length_a 12.683811
_cell_length_b 7.057463
_cell_length_c 9.111577
_cell_angle_alpha 52.428612
_cell_angle_beta 121.958498
_cell_angle_gamma 97.259644
_cell_volume 524.570431
_symmetry_space_group_name_H-M "P -1"
_symmetry_group_IT_number 2
_symmetry_cell_setting 'triclinic'
loop_
_space_group_symop_operation_xyz
x,y,z
-x,-y,-z
loop_
_atom_site_type_symbol
_atom_site_label
_atom_site_fract_x
_atom_site_fract_y
_atom_site_fract_z
Si Si1 0.540201 0.176888 0.736436
Si Si2 0.835097 0.228302 0.656298
Si Si3 0.306978 0.112180 0.745121
Si Si4 0.288883 0.175768 0.176184
Si Si5 0.755977 0.445695 0.791039
Si Si6 0.655978 0.393553 0.172961
Si Si7 0.062226 0.038098 0.683230
O O1 0.393545 0.244039 0.651241
O O2 0.579281 0.035218 0.677878
O O3 0.618546 0.378946 0.716811
O O4 0.613091 0.968957 0.007981
O O5 0.730939 0.706097 0.733119
O O6 0.815926 0.977688 0.836500
O O7 0.712552 0.341155 0.403289
O O8 0.955654 0.159636 0.668890
O O9 0.310808 0.866871 0.767198
O O10 0.159571 0.203732 0.648067
O O11 0.170575 0.597345 0.289902
O O12 0.282913 0.412335 0.956634
O O13 0.851172 0.228093 0.064210
O O14 0.500000 0.500000 0.000000
O O15 0.000000 0.000000 0.500000
#
# Coordination Sequence:
#
# PCOD9090607 Si02
#       7
#     2   2   2   2   2   2   2
#     4   9  19  37  70 102 136 185 228 290 355 409
#     4  11  26  45  70 108 143 191 238 289 359 423
#     4  10  19  38  68 103 139 180 233 290 349 413
#     4  11  22  44  72 102 145 184 231 298 352 422
#     4  10  22  44  68 107 149 183 237 301 351 424
#     4  12  23  45  73 102 143 187 238 295 354 425
#     4  11  20  41  75 102 143 195 234 286 356 428
#
# _framework density 26.688503999999998
#
# number of rings (size 3 to 8) (size 9 to 14) (size 15 to 20)
#    0.000    1.429    5.714    0.429    0.000    1.143 
#    2.571    0.714    0.000   17.143    0.000    0.000 
#    0.000    0.000    0.000    0.143    0.000    0.000 
#
# Total GULP energy -78447.654809 kJ/mol
# GULP energy per Si atom -5603.403915 kJ/mol
# Density = 2.662776 g / cm^3
# Si number density = 26.688504 Si / 1000 Ang^3
#
#
#
# Elastic Constant Matrix: (Units=GPa)
#
#
# Indices 1 2 3 4 5 6 
#
# 1 223.0031 60.2817 45.1253 -12.9087 -16.6020 -30.9743
# 2 60.2817 153.2346 9.7371 17.7898 -3.8378 -33.5815
# 3 45.1253 9.7371 115.4904 19.3668 -2.8633 -4.7162
# 4 -12.9087 17.7898 19.3668 43.9437 -2.5762 -13.6383
# 5 -16.6020 -3.8378 -2.8633 -2.5762 46.2238 -7.2305
# 6 -30.9743 -33.5815 -4.7162 -13.6383 -7.2305 44.6761
#
#
#
# Elastic Compliance Matrix: (Units=1/GPa)
#
#
# Indices 1 2 3 4 5 6 
#
# 1 0.007085 -0.002011 -0.003342 0.006277 0.003383 0.005511
# 2 -0.002011 0.008575 0.000760 -0.003033 0.000539 0.004293
# 3 -0.003342 0.000760 0.010939 -0.007112 -0.001322 -0.002976
# 4 0.006277 -0.003033 -0.007112 0.033087 0.005328 0.012284
# 5 0.003383 0.000539 -0.001322 0.005328 0.024389 0.008185
# 6 0.005511 0.004293 -0.002976 0.012284 0.008185 0.034192
#
#
# Mechanical properties :
#
#
# Convention : Reuss Voigt Hill
#
# Bulk Modulus (GPa) = 57.43042 80.22402 68.82722
# Shear Modulus (GPa) = 37.52133 52.07431 44.79782
#
# Velocity S-wave (km/s) = 3.75360 4.42202 4.10145
# Velocity P-wave (km/s) = 6.35228 7.49646 6.94797
#
# Compressibility (1/GPa) = 0.01741237
#
# Stress axis : x y z
#
# Youngs Moduli (GPa) = 141.14605 116.61491 91.41699
#
# Poissons Ratio (x) = 0.23451 0.30555
# Poissons Ratio (y) = 0.28384 -0.06949
# Poissons Ratio (z) = 0.47177 -0.08864
#
# Static dielectric constant tensor:
#      x y z
#    x 2.063070 0.018390 -0.024470 
#    y 0.018390 2.110470 -0.059320 
#    z -0.024470 -0.059320 2.179820 
# 
# From -- ./inp_files/234353.got.cif
#   From: 2010.05.17/outbox.cif.g08.bks.cpg/sg2_118_cif.got.tgz:234353.got - 2010.06.03 11:33:40.
