data_PCOD9090454
_publ_section_title
;
Structure prediction by ZEFSAII (Michael W. Deem and Ramdas Pophale) SiO2 
 PCOD9090454
Probable space group: P -1
;
_chemical_formula_sum "Si O2"
_cell_formula_units_Z 16
_cell_length_a 14.695029
_cell_length_b 13.416807
_cell_length_c 8.964640
_cell_angle_alpha 88.756708
_cell_angle_beta 152.052197
_cell_angle_gamma 101.251043
_cell_volume 767.559386
_symmetry_space_group_name_H-M "P -1"
_symmetry_group_IT_number 2
_symmetry_cell_setting 'triclinic'
loop_
_space_group_symop_operation_xyz
x,y,z
-x,-y,-z
loop_
_atom_site_type_symbol
_atom_site_label
_atom_site_fract_x
_atom_site_fract_y
_atom_site_fract_z
Si Si1 0.060574 0.400227 0.044117
Si Si2 0.313929 0.747137 0.312508
Si Si3 0.691666 0.472516 0.842625
Si Si4 0.755517 0.966930 0.674962
Si Si5 0.841671 0.091307 0.084496
Si Si6 0.522762 0.578419 0.167448
Si Si7 0.671220 0.817848 0.308398
Si Si8 0.549731 0.923502 0.864132
O O1 0.112664 0.427231 0.944293
O O2 0.266548 0.405853 0.433334
O O3 0.000000 0.500000 0.000000
O O4 0.873972 0.295773 0.836096
O O5 0.325558 0.641547 0.252425
O O6 0.507260 0.823861 0.689740
O O7 0.254381 0.820272 0.102783
O O8 0.500000 0.500000 0.500000
O O9 0.663473 0.461550 0.979525
O O10 0.663556 0.851457 0.468513
O O11 0.646668 0.040183 0.437117
O O12 0.741994 0.993587 0.825775
O O13 0.000000 0.000000 0.000000
O O14 0.089544 0.144547 0.408820
O O15 0.753792 0.029315 0.112597
O O16 0.553116 0.691828 0.135607
O O17 0.500000 0.500000 0.000000
O O18 0.568646 0.880954 0.054634
#
# Coordination Sequence:
#
# PCOD9090454 Si02
#       8
#     2   2   2   2   2   2   2   2
#     4   9  19  40  66  83 122 154 207 257 303 371
#     4  10  19  38  66  91 119 165 207 257 311 364
#     4   9  21  38  63  89 115 158 211 256 300 377
#     4   9  20  39  61  89 119 160 208 249 297 370
#     4  10  21  40  63  91 123 164 210 252 301 375
#     4  11  24  40  63  91 124 159 206 261 319 368
#     4  11  23  39  61  88 133 164 195 261 322 353
#     4  11  23  36  65  91 127 160 208 249 311 377
#
# _framework density 20.845292000000001
#
# number of rings (size 3 to 8) (size 9 to 14) (size 15 to 20)
#    0.000    2.000    1.250    2.250    8.750    0.000 
#    0.000    2.500    8.250    0.000    0.000    0.000 
#    0.000    0.000    0.000    0.000    0.000    0.000 
#
# Total GULP energy -89173.911327 kJ/mol
# GULP energy per Si atom -5573.369458 kJ/mol
# Density = 2.079785 g / cm^3
# Si number density = 20.845292 Si / 1000 Ang^3
#
#
#
# Elastic Constant Matrix: (Units=GPa)
#
#
# Indices 1 2 3 4 5 6 
#
# 1 117.7476 48.7784 16.5255 16.4967 5.8140 20.2953
# 2 48.7784 82.8169 -4.1825 21.5079 2.2156 12.4604
# 3 16.5255 -4.1825 15.0744 3.4986 7.0603 7.8223
# 4 16.4967 21.5079 3.4986 31.1072 -8.7886 1.5331
# 5 5.8140 2.2156 7.0603 -8.7886 23.7556 5.3661
# 6 20.2953 12.4604 7.8223 1.5331 5.3661 46.8553
#
#
#
# Elastic Compliance Matrix: (Units=1/GPa)
#
#
# Indices 1 2 3 4 5 6 
#
# 1 0.016031 -0.011839 -0.024399 0.004181 0.006105 -0.000558
# 2 -0.011839 0.027917 0.036957 -0.021832 -0.017468 -0.005751
# 3 -0.024399 0.036957 0.146939 -0.043473 -0.053563 -0.016234
# 4 0.004181 -0.021832 -0.043473 0.059463 0.034728 0.005330
# 5 0.006105 -0.017468 -0.053563 0.034728 0.070609 0.001720
# 6 -0.000558 -0.005751 -0.016234 0.005330 0.001720 0.025452
#
#
# Mechanical properties :
#
#
# Convention : Reuss Voigt Hill
#
# Bulk Modulus (GPa) = 5.19955 37.54241 21.37098
# Shear Modulus (GPa) = 12.22253 30.64478 21.43365
#
# Velocity S-wave (km/s) = 2.42408 3.83836 3.21007
# Velocity P-wave (km/s) = 3.21476 6.13947 4.90040
#
# Compressibility (1/GPa) = 0.19232434
#
# Stress axis : x y z
#
# Youngs Moduli (GPa) = 62.38093 35.82061 6.80554
#
# Poissons Ratio (x) = 0.42409 0.16605
# Poissons Ratio (y) = 0.73855 -0.25151
# Poissons Ratio (z) = 1.52203 -1.32383
#
# Static dielectric constant tensor:
#      x y z
#    x 1.820910 0.005200 0.024140 
#    y 0.005200 1.732530 0.014370 
#    z 0.024140 0.014370 1.749720 
# 
# From -- ./inp_files/307646.got.cif
#   From: 2010.05.17/outbox.cif.g08.bks.cpg/sg2_154_cif.got.tgz:307646.got - 2010.06.03 11:33:40.
