data_PCOD9090493
_publ_section_title
;
Structure prediction by ZEFSAII (Michael W. Deem and Ramdas Pophale) SiO2 
 PCOD9090493
Probable space group: P -1
;
_chemical_formula_sum "Si O2"
_cell_formula_units_Z 15
_cell_length_a 9.067486
_cell_length_b 8.226444
_cell_length_c 11.695459
_cell_angle_alpha 121.988292
_cell_angle_beta 65.155630
_cell_angle_gamma 115.356262
_cell_volume 647.036403
_symmetry_space_group_name_H-M "P -1"
_symmetry_group_IT_number 2
_symmetry_cell_setting 'triclinic'
loop_
_space_group_symop_operation_xyz
x,y,z
-x,-y,-z
loop_
_atom_site_type_symbol
_atom_site_label
_atom_site_fract_x
_atom_site_fract_y
_atom_site_fract_z
Si Si1 0.138590 0.801718 0.304504
Si Si2 0.000000 0.000000 0.000000
Si Si3 0.560147 0.797652 0.404429
Si Si4 0.399588 0.245576 0.372634
Si Si5 0.438962 0.655478 0.152145
Si Si6 0.932404 0.686729 0.560858
Si Si7 0.926261 0.906452 0.225172
Si Si8 0.385607 0.956808 0.904471
O O1 0.240967 0.637669 0.204942
O O2 0.021866 0.772696 0.443741
O O3 0.038666 0.796193 0.218050
O O4 0.271761 0.019779 0.345412
O O5 0.813200 0.050668 0.030958
O O6 0.099797 0.132474 0.913646
O O7 0.540552 0.699086 0.497772
O O8 0.477496 0.660684 0.275350
O O9 0.754897 0.865141 0.334041
O O10 0.500000 0.000000 0.500000
O O11 0.266881 0.354287 0.405613
O O12 0.558396 0.230056 0.238735
O O13 0.533609 0.865155 0.142868
O O14 0.500000 0.500000 0.000000
O O15 0.000000 0.500000 0.500000
O O16 0.987561 0.855632 0.703331
O O17 0.500000 0.000000 0.000000
#
# Coordination Sequence:
#
# PCOD9090493 Si02
#       8
#     2   1   2   2   2   2   2   2
#     4  10  19  39  64  90 123 170 217 266 333 401
#     4  12  22  38  66 100 126 170 232 268 326 408
#     4  12  18  39  70  93 116 167 232 265 310 403
#     4  10  19  38  66  94 124 174 234 269 319 411
#     4  11  24  40  64  95 130 169 216 281 341 387
#     4  11  21  36  62 100 131 164 214 287 349 379
#     4  11  21  39  64  90 122 171 223 263 316 407
#     4  11  23  41  66  97 134 179 219 275 335 413
#
# _framework density 23.182621999999999
#
# number of rings (size 3 to 8) (size 9 to 14) (size 15 to 20)
#    0.000    1.067    6.667    3.200    0.000    2.133 
#    0.000    3.333    0.000    3.200    0.000    0.000 
#    0.000    0.000    0.000    0.000    0.000    0.000 
#
# Total GULP energy -83561.857987 kJ/mol
# GULP energy per Si atom -5570.790532 kJ/mol
# Density = 2.312986 g / cm^3
# Si number density = 23.182622 Si / 1000 Ang^3
#
#
#
# Elastic Constant Matrix: (Units=GPa)
#
#
# Indices 1 2 3 4 5 6 
#
# 1 186.5787 28.3505 61.5624 9.3580 -18.6371 -23.4845
# 2 28.3505 39.6418 6.5312 -5.1563 0.2768 -9.6817
# 3 61.5624 6.5312 105.9379 0.9788 -15.3539 -9.8402
# 4 9.3580 -5.1563 0.9788 35.4075 -12.4057 -5.8591
# 5 -18.6371 0.2768 -15.3539 -12.4057 38.8835 -9.2114
# 6 -23.4845 -9.6817 -9.8402 -5.8591 -9.2114 29.8221
#
#
#
# Elastic Compliance Matrix: (Units=1/GPa)
#
#
# Indices 1 2 3 4 5 6 
#
# 1 0.008144 -0.004166 -0.003512 -0.000634 0.003494 0.004856
# 2 -0.004166 0.031555 0.001919 0.008708 0.003797 0.010481
# 3 -0.003512 0.001919 0.012510 0.003459 0.005371 0.004324
# 4 -0.000634 0.008708 0.003459 0.038246 0.017052 0.016250
# 5 0.003494 0.003797 0.005371 0.017052 0.040012 0.021466
# 6 0.004856 0.010481 0.004324 0.016250 0.021466 0.052009
#
#
# Mechanical properties :
#
#
# Convention : Reuss Voigt Hill
#
# Bulk Modulus (GPa) = 24.57588 58.33850 41.45719
# Shear Modulus (GPa) = 24.08961 36.53691 30.31326
#
# Velocity S-wave (km/s) = 3.22704 3.97425 3.61998
# Velocity P-wave (km/s) = 4.95066 6.80286 5.94929
#
# Compressibility (1/GPa) = 0.04069031
#
# Stress axis : x y z
#
# Youngs Moduli (GPa) = 122.79430 31.69054 79.93465
#
# Poissons Ratio (x) = 0.13203 0.28075
# Poissons Ratio (y) = 0.51159 -0.15340
# Poissons Ratio (z) = 0.43128 -0.06082
#
# Static dielectric constant tensor:
#      x y z
#    x 1.870320 0.028370 -0.119710 
#    y 0.028370 1.881220 0.088520 
#    z -0.119710 0.088520 1.679000 
# 
# From -- ./inp_files/380240.got.cif
#   From: 2010.05.17/outbox.cif.g08.bks.cpg/sg2_191_cif.got.tgz:380240.got - 2010.06.03 11:33:40.
