data_PCOD9090519
_publ_section_title
;
Structure prediction by ZEFSAII (Michael W. Deem and Ramdas Pophale) SiO2 
 PCOD9090519
Probable space group: P -1
;
_chemical_formula_sum "Si O2"
_cell_formula_units_Z 16
_cell_length_a 15.298673
_cell_length_b 14.090429
_cell_length_c 12.144276
_cell_angle_alpha 148.640562
_cell_angle_beta 28.081605
_cell_angle_gamma 146.187764
_cell_volume 608.387081
_symmetry_space_group_name_H-M "P -1"
_symmetry_group_IT_number 2
_symmetry_cell_setting 'triclinic'
loop_
_space_group_symop_operation_xyz
x,y,z
-x,-y,-z
loop_
_atom_site_type_symbol
_atom_site_label
_atom_site_fract_x
_atom_site_fract_y
_atom_site_fract_z
Si Si1 0.274267 0.022517 0.638075
Si Si2 0.172057 0.173980 0.535972
Si Si3 0.899064 0.380665 0.098667
Si Si4 0.603070 0.720890 0.818152
Si Si5 0.167446 0.029682 0.995416
Si Si6 0.711823 0.411955 0.796913
Si Si7 0.516632 0.918585 0.749148
Si Si8 0.144556 0.593245 0.591508
O O1 0.287872 0.114192 0.834133
O O2 0.303419 0.814177 0.410887
O O3 0.419989 0.133248 0.492768
O O4 0.055279 0.990177 0.805115
O O5 0.290992 0.315463 0.446258
O O6 0.323868 0.098976 0.359492
O O7 0.000000 0.000000 0.500000
O O8 0.061110 0.275750 0.842234
O O9 0.697702 0.224487 0.131403
O O10 0.860256 0.481789 0.353168
O O11 0.000000 0.500000 0.000000
O O12 0.449381 0.570728 0.919292
O O13 0.760239 0.850601 0.857529
O O14 0.490298 0.865371 0.039027
O O15 0.197443 0.822823 0.770273
O O16 0.725101 0.463130 0.702868
O O17 0.924367 0.522278 0.719099
#
# Coordination Sequence:
#
# PCOD9090519 Si02
#       8
#     2   2   2   2   2   2   2   2
#     4   9  20  36  66  97 127 165 216 267 322 391
#     4  12  25  45  68  94 133 172 221 276 321 385
#     4  12  28  43  66  94 133 176 217 270 331 390
#     4  11  22  39  68 101 126 171 223 270 318 394
#     4  10  19  38  66  96 130 165 214 269 325 383
#     4   9  22  37  67  90 127 168 210 268 328 382
#     4  11  23  41  67  98 125 176 219 270 320 391
#     4  10  20  42  62  91 129 167 210 267 330 381
#
# _framework density 26.299046000000001
#
# number of rings (size 3 to 8) (size 9 to 14) (size 15 to 20)
#    0.000    1.500    2.500    1.875    3.500    4.000 
#    2.250    0.000    0.000    3.750    0.000    0.000 
#    0.000    0.000    0.000    0.000    0.000    0.000 
#
# Total GULP energy -89661.492881 kJ/mol
# GULP energy per Si atom -5603.843305 kJ/mol
# Density = 2.623919 g / cm^3
# Si number density = 26.299046 Si / 1000 Ang^3
#
#
#
# Elastic Constant Matrix: (Units=GPa)
#
#
# Indices 1 2 3 4 5 6 
#
# 1 161.6094 31.4026 53.4440 -21.6343 5.9205 -16.8943
# 2 31.4026 70.3675 54.1679 -23.8662 22.1057 -7.6150
# 3 53.4440 54.1679 140.6959 -31.1645 17.9700 -8.7374
# 4 -21.6343 -23.8662 -31.1645 58.5076 -10.9177 6.6511
# 5 5.9205 22.1057 17.9700 -10.9177 49.3857 -17.7003
# 6 -16.8943 -7.6150 -8.7374 6.6511 -17.7003 31.4966
#
#
#
# Elastic Compliance Matrix: (Units=1/GPa)
#
#
# Indices 1 2 3 4 5 6 
#
# 1 0.007707 -0.001815 -0.002052 0.000976 0.002376 0.004255
# 2 -0.001815 0.023853 -0.006678 0.004295 -0.007953 -0.002435
# 3 -0.002052 -0.006678 0.011004 0.002350 -0.000384 -0.000374
# 4 0.000976 0.004295 0.002350 0.020848 0.001165 -0.001534
# 5 0.002376 -0.007953 -0.000384 0.001165 0.029505 0.015580
# 6 0.004255 -0.002435 -0.000374 -0.001534 0.015580 0.042419
#
#
# Mechanical properties :
#
#
# Convention : Reuss Voigt Hill
#
# Bulk Modulus (GPa) = 46.56601 72.30019 59.43310
# Shear Modulus (GPa) = 30.56507 43.45520 37.01014
#
# Velocity S-wave (km/s) = 3.41282 4.06932 3.75544
# Velocity P-wave (km/s) = 5.76841 7.04488 6.43836
#
# Compressibility (1/GPa) = 0.02147489
#
# Stress axis : x y z
#
# Youngs Moduli (GPa) = 129.74444 41.92289 90.87337
#
# Poissons Ratio (x) = 0.07608 0.18647
# Poissons Ratio (y) = 0.23545 0.60689
# Poissons Ratio (z) = 0.26623 0.27998
#
# Static dielectric constant tensor:
#      x y z
#    x 2.053120 -0.089950 -0.000040 
#    y -0.089950 2.067110 0.009680 
#    z -0.000040 0.009680 2.069690 
# 
# From -- ./inp_files/455037.got.cif
#   From: 2010.05.17/outbox.cif.g08.bks.cpg/sg2_228_cif.got.tgz:455037.got - 2010.06.03 11:33:40.
