data_PCOD9090935
_publ_section_title
;
Structure prediction by ZEFSAII (Michael W. Deem and Ramdas Pophale) SiO2 
 PCOD9090935
Probable space group: P -1
;
_chemical_formula_sum "Si O2"
_cell_formula_units_Z 16
_cell_length_a 11.774232
_cell_length_b 9.907715
_cell_length_c 11.719607
_cell_angle_alpha 41.726370
_cell_angle_beta 66.315298
_cell_angle_gamma 54.736835
_cell_volume 741.907011
_symmetry_space_group_name_H-M "P -1"
_symmetry_group_IT_number 2
_symmetry_cell_setting 'triclinic'
loop_
_space_group_symop_operation_xyz
x,y,z
-x,-y,-z
loop_
_atom_site_type_symbol
_atom_site_label
_atom_site_fract_x
_atom_site_fract_y
_atom_site_fract_z
Si Si1 0.563496 0.679070 0.376145
Si Si2 0.730552 0.112310 0.874393
Si Si3 0.981397 0.941393 0.175290
Si Si4 0.314630 0.127371 0.182411
Si Si5 0.175749 0.278266 0.726211
Si Si6 0.034906 0.297537 0.317238
Si Si7 0.856688 0.176618 0.294329
Si Si8 0.421417 0.415302 0.822092
O O1 0.500000 0.500000 0.500000
O O2 0.706784 0.641586 0.400327
O O3 0.595712 0.696655 0.218382
O O4 0.438573 0.908239 0.328188
O O5 0.861145 0.164677 0.776161
O O6 0.585222 0.337634 0.809194
O O7 0.722906 0.982128 0.844771
O O8 0.755150 0.942890 0.078280
O O9 0.897608 0.793306 0.299589
O O10 0.894797 0.151600 0.161632
O O11 0.000000 0.000000 0.000000
O O12 0.178089 0.261453 0.226384
O O13 0.378627 0.291281 0.014964
O O14 0.051384 0.476154 0.720373
O O15 0.933466 0.296906 0.257239
O O16 0.077299 0.076068 0.519675
O O17 0.692578 0.323059 0.292147
#
# Coordination Sequence:
#
# PCOD9090935 Si02
#       8
#     2   2   2   2   2   2   2   2
#     4  11  21  36  61  95 131 161 207 262 327 369
#     4  10  19  39  61  97 126 165 212 262 317 372
#     4  10  24  41  67  91 133 170 212 256 322 383
#     4  11  20  35  63  94 124 163 212 272 311 365
#     4  11  22  42  61  97 126 169 213 257 319 386
#     4  11  24  37  66  93 133 160 213 271 315 369
#     4  11  23  42  59  99 126 168 211 266 319 376
#     4  11  21  37  66  91 127 162 219 275 305 369
#
# _framework density 21.566047000000001
#
# number of rings (size 3 to 8) (size 9 to 14) (size 15 to 20)
#    0.000    1.250    5.000    1.500    5.250    1.500 
#    0.000    3.750    0.000    2.250    0.000    0.000 
#    0.000    0.000    0.000    0.000    0.000    0.000 
#
# Total GULP energy -89332.358346 kJ/mol
# GULP energy per Si atom -5583.272397 kJ/mol
# Density = 2.151696 g / cm^3
# Si number density = 21.566047 Si / 1000 Ang^3
#
#
#
# Elastic Constant Matrix: (Units=GPa)
#
#
# Indices 1 2 3 4 5 6 
#
# 1 130.0035 59.1572 18.6810 1.2313 -26.2796 -24.1950
# 2 59.1572 120.0619 12.0203 -3.1095 10.0045 -30.7201
# 3 18.6810 12.0203 43.8417 -3.0020 -12.1872 -11.2508
# 4 1.2313 -3.1095 -3.0020 21.7477 -7.8016 -1.5524
# 5 -26.2796 10.0045 -12.1872 -7.8016 28.0732 2.6763
# 6 -24.1950 -30.7201 -11.2508 -1.5524 2.6763 41.7905
#
#
#
# Elastic Compliance Matrix: (Units=1/GPa)
#
#
# Indices 1 2 3 4 5 6 
#
# 1 0.016055 -0.009201 0.002354 0.005677 0.020713 0.002050
# 2 -0.009201 0.016354 -0.004080 -0.003637 -0.017853 0.006605
# 3 0.002354 -0.004080 0.030531 0.010861 0.019382 0.005745
# 4 0.005677 -0.003637 0.010861 0.056479 0.026647 0.003929
# 5 0.020713 -0.017853 0.019382 0.026647 0.077179 0.000133
# 6 0.002050 0.006605 0.005745 0.003929 0.000133 0.031655
#
#
# Mechanical properties :
#
#
# Convention : Reuss Voigt Hill
#
# Bulk Modulus (GPa) = 24.33899 52.62492 38.48195
# Shear Modulus (GPa) = 18.95342 31.92551 25.43947
#
# Velocity S-wave (km/s) = 2.96776 3.85172 3.43827
# Velocity P-wave (km/s) = 4.80144 6.65099 5.80041
#
# Compressibility (1/GPa) = 0.04108635
#
# Stress axis : x y z
#
# Youngs Moduli (GPa) = 62.28451 61.14539 32.75355
#
# Poissons Ratio (x) = 0.56259 -0.07710
# Poissons Ratio (y) = 0.57307 0.13365
# Poissons Ratio (z) = -0.14662 0.24950
#
# Static dielectric constant tensor:
#      x y z
#    x 1.843020 -0.036490 0.062330 
#    y -0.036490 1.754930 -0.030980 
#    z 0.062330 -0.030980 1.946170 
# 
# From -- ./inp_files/186811.got.cif
#   From: 2010.05.17/outbox.cif.g08.bks.cpg/sg2_94_cif.got.tgz:186811.got - 2010.06.03 11:33:40.
