data_PCOD9090471
_publ_section_title
;
Structure prediction by ZEFSAII (Michael W. Deem and Ramdas Pophale) SiO2 
 PCOD9090471
Probable space group: P -1
;
_chemical_formula_sum "Si O2"
_cell_formula_units_Z 14
_cell_length_a 11.753773
_cell_length_b 11.020846
_cell_length_c 5.529476
_cell_angle_alpha 53.773048
_cell_angle_beta 84.616366
_cell_angle_gamma 87.636180
_cell_volume 575.162902
_symmetry_space_group_name_H-M "P -1"
_symmetry_group_IT_number 2
_symmetry_cell_setting 'triclinic'
loop_
_space_group_symop_operation_xyz
x,y,z
-x,-y,-z
loop_
_atom_site_type_symbol
_atom_site_label
_atom_site_fract_x
_atom_site_fract_y
_atom_site_fract_z
Si Si1 0.091256 0.956243 0.835461
Si Si2 0.837620 0.437472 0.240603
Si Si3 0.040677 0.253480 0.282346
Si Si4 0.436002 0.153066 0.766582
Si Si5 0.273998 0.775981 0.869427
Si Si6 0.400502 0.617192 0.404583
Si Si7 0.376121 0.072567 0.374456
O O1 0.200091 0.858037 0.998693
O O2 0.030899 0.843601 0.786858
O O3 0.117323 0.121975 0.528494
O O4 0.000000 0.000000 0.000000
O O5 0.787771 0.360646 0.095478
O O6 0.726620 0.436151 0.435824
O O7 0.948242 0.331759 0.388755
O O8 0.887345 0.605596 0.000677
O O9 0.540144 0.268010 0.557234
O O10 0.358081 0.149460 0.549694
O O11 0.373619 0.175015 0.013923
O O12 0.500000 0.000000 0.000000
O O13 0.296582 0.923691 0.527956
O O14 0.383918 0.709885 0.052479
O O15 0.500000 0.500000 0.500000
O O16 0.500000 0.000000 0.500000
#
# Coordination Sequence:
#
# PCOD9090471 Si02
#       7
#     2   2   2   2   2   2   2
#     4  10  21  41  69  99 126 157 218 279 335 407
#     4  10  22  43  66  91 135 170 214 271 344 413
#     4   9  21  43  68  98 125 167 212 277 341 404
#     4  10  20  40  65  88 130 176 227 280 328 395
#     4  11  23  40  66  93 125 181 218 278 340 399
#     4  12  26  41  59  94 133 179 220 278 336 408
#     4  10  19  38  66  92 125 172 231 271 332 392
#
# _framework density 24.340928999999999
#
# number of rings (size 3 to 8) (size 9 to 14) (size 15 to 20)
#    0.000    1.714    2.857    2.571    0.000    2.857 
#    5.143    4.286    0.000    0.000    0.000    0.000 
#    0.000    0.000    0.000    0.000    0.000    0.000 
#
# Total GULP energy -78016.538500 kJ/mol
# GULP energy per Si atom -5572.609893 kJ/mol
# Density = 2.428553 g / cm^3
# Si number density = 24.340929 Si / 1000 Ang^3
#
#
#
# Elastic Constant Matrix: (Units=GPa)
#
#
# Indices 1 2 3 4 5 6 
#
# 1 93.9064 19.6100 34.8921 -21.9197 -7.9915 -4.3133
# 2 19.6100 68.9047 36.1896 -22.3787 -4.1104 -2.7624
# 3 34.8921 36.1896 98.1043 -2.1770 -17.1945 -2.7195
# 4 -21.9197 -22.3787 -2.1770 50.0192 8.0312 -2.1693
# 5 -7.9915 -4.1104 -17.1945 8.0312 47.0719 -10.9074
# 6 -4.3133 -2.7624 -2.7195 -2.1693 -10.9074 46.8857
#
#
#
# Elastic Compliance Matrix: (Units=1/GPa)
#
#
# Indices 1 2 3 4 5 6 
#
# 1 0.013890 0.000819 -0.005105 0.006322 -0.000219 0.001272
# 2 0.000819 0.022033 -0.008641 0.010303 -0.002683 0.000725
# 3 -0.005105 -0.008641 0.016053 -0.006251 0.005529 0.000949
# 4 0.006322 0.010303 -0.006251 0.027921 -0.004845 0.000991
# 5 -0.000219 -0.002683 0.005529 -0.004845 0.025156 0.005771
# 6 0.001272 0.000725 0.000949 0.000991 0.005771 0.022931
#
#
# Mechanical properties :
#
#
# Convention : Reuss Voigt Hill
#
# Bulk Modulus (GPa) = 38.28050 49.14431 43.71240
# Shear Modulus (GPa) = 30.76059 40.14362 35.45211
#
# Velocity S-wave (km/s) = 3.55877 4.06547 3.82053
# Velocity P-wave (km/s) = 5.71379 6.50163 6.12040
#
# Compressibility (1/GPa) = 0.02612296
#
# Stress axis : x y z
#
# Youngs Moduli (GPa) = 71.99352 45.38659 62.29301
#
# Poissons Ratio (x) = -0.03719 0.31803
# Poissons Ratio (y) = -0.05899 0.53825
# Poissons Ratio (z) = 0.36755 0.39217
#
# Static dielectric constant tensor:
#      x y z
#    x 2.311900 -0.214960 -0.193830 
#    y -0.214960 2.148290 0.173260 
#    z -0.193830 0.173260 2.092750 
# 
# From -- ./inp_files/62999.got.cif
#   From: 2010.05.17/outbox.cif.g08.bks.cpg/sg2_32_cif.got.tgz:62999.got - 2010.06.03 11:33:40.
