data_PCOD9090232
_publ_section_title
;
Structure prediction by ZEFSAII (Michael W. Deem and Ramdas Pophale) SiO2 
 PCOD9090232
Probable space group: P -1
;
_chemical_formula_sum "Si O2"
_cell_formula_units_Z 16
_cell_length_a 13.699369
_cell_length_b 13.300478
_cell_length_c 14.644027
_cell_angle_alpha 50.631154
_cell_angle_beta 28.879352
_cell_angle_gamma 32.963128
_cell_volume 648.010783
_symmetry_space_group_name_H-M "P -1"
_symmetry_group_IT_number 2
_symmetry_cell_setting 'triclinic'
loop_
_space_group_symop_operation_xyz
x,y,z
-x,-y,-z
loop_
_atom_site_type_symbol
_atom_site_label
_atom_site_fract_x
_atom_site_fract_y
_atom_site_fract_z
Si Si1 0.258357 0.543859 0.314644
Si Si2 0.944287 0.434602 0.718922
Si Si3 0.383967 0.280466 0.592046
Si Si4 0.623311 0.123068 0.017654
Si Si5 0.179749 0.090308 0.414796
Si Si6 0.179356 0.752360 0.865247
Si Si7 0.708596 0.028297 0.805102
Si Si8 0.131756 0.480260 0.999068
O O1 0.139813 0.616807 0.266600
O O2 0.628009 0.353597 0.137568
O O3 0.099248 0.488381 0.514925
O O4 0.116994 0.725355 0.389143
O O5 0.614922 0.640240 0.915018
O O6 0.212582 0.265829 0.669115
O O7 0.576336 0.292904 0.373600
O O8 0.598114 0.111802 0.591017
O O9 0.083063 0.486883 0.769404
O O10 0.391761 0.114397 0.217286
O O11 0.818651 0.005221 0.831399
O O12 0.865841 0.989570 0.978701
O O13 0.104091 0.081824 0.378794
O O14 0.110829 0.643073 0.943560
O O15 0.475562 0.260657 0.846613
O O16 0.500000 0.000000 0.000000
O O17 0.000000 0.500000 0.000000
#
# Coordination Sequence:
#
# PCOD9090232 Si02
#       8
#     2   2   2   2   2   2   2   2
#     4   9  21  41  62  95 128 167 222 262 321 380
#     4   9  19  39  69  90 127 174 207 274 323 372
#     4  11  22  41  67  95 128 170 214 265 325 379
#     4  10  19  38  64  93 129 167 217 261 323 380
#     4  10  20  40  63  90 133 172 207 265 325 383
#     4  11  25  41  64  97 130 168 219 266 312 391
#     4  10  20  36  66  91 122 176 209 253 325 382
#     4  12  22  43  64  93 135 170 209 265 325 383
#
# _framework density 24.690947999999999
#
# number of rings (size 3 to 8) (size 9 to 14) (size 15 to 20)
#    0.000    1.750    3.750    0.750    1.750    2.500 
#    2.250    1.875    0.000    0.000    0.000    0.000 
#    0.000    0.000    0.000    0.000    0.000    0.000 
#
# Total GULP energy -89417.861897 kJ/mol
# GULP energy per Si atom -5588.616369 kJ/mol
# Density = 2.463475 g / cm^3
# Si number density = 24.690948 Si / 1000 Ang^3
#
#
#
# Elastic Constant Matrix: (Units=GPa)
#
#
# Indices 1 2 3 4 5 6 
#
# 1 111.9589 10.9279 30.4953 -5.8395 -3.9533 -14.4831
# 2 10.9279 67.6387 10.3193 -2.2398 -5.3870 -9.0818
# 3 30.4953 10.3193 74.3461 0.5837 -14.3268 -2.2209
# 4 -5.8395 -2.2398 0.5837 28.8440 -5.2626 -2.8411
# 5 -3.9533 -5.3870 -14.3268 -5.2626 38.0459 0.4331
# 6 -14.4831 -9.0818 -2.2209 -2.8411 0.4331 33.8242
#
#
#
# Elastic Compliance Matrix: (Units=1/GPa)
#
#
# Indices 1 2 3 4 5 6 
#
# 1 0.010862 -0.000425 -0.004331 0.002650 -0.000247 0.004478
# 2 -0.000425 0.015853 -0.001566 0.001915 0.001829 0.004109
# 3 -0.004331 -0.001566 0.016465 -0.000460 0.005480 -0.001303
# 4 0.002650 0.001915 -0.000460 0.036808 0.005412 0.004641
# 5 -0.000247 0.001829 0.005480 0.005412 0.029320 0.000824
# 6 0.004478 0.004109 -0.001303 0.004641 0.000824 0.032879
#
#
# Mechanical properties :
#
#
# Convention : Reuss Voigt Hill
#
# Bulk Modulus (GPa) = 32.74792 39.71431 36.23111
# Shear Modulus (GPa) = 30.30134 33.62289 31.96212
#
# Velocity S-wave (km/s) = 3.50698 3.69419 3.60180
# Velocity P-wave (km/s) = 5.44889 5.85795 5.65712
#
# Compressibility (1/GPa) = 0.03053629
#
# Stress axis : x y z
#
# Youngs Moduli (GPa) = 92.06619 63.08029 60.73471
#
# Poissons Ratio (x) = 0.02679 0.26304
# Poissons Ratio (y) = 0.03910 0.09511
# Poissons Ratio (z) = 0.39873 0.09878
#
# Static dielectric constant tensor:
#      x y z
#    x 2.024580 -0.067440 0.033010 
#    y -0.067440 1.971510 -0.062200 
#    z 0.033010 -0.062200 1.984700 
# 
# From -- ./inp_files/534322.got.cif
#   From: 2010.05.17/outbox.cif.g08.bks.cpg/sg2_268_cif.got.tgz:534322.got - 2010.06.03 11:33:40.
