data_PCOD9090187
_publ_section_title
;
Structure prediction by ZEFSAII (Michael W. Deem and Ramdas Pophale) SiO2 
 PCOD9090187
Probable space group: P -1
;
_chemical_formula_sum "Si O2"
_cell_formula_units_Z 16
_cell_length_a 9.600620
_cell_length_b 16.593229
_cell_length_c 8.986001
_cell_angle_alpha 87.928598
_cell_angle_beta 43.100161
_cell_angle_gamma 116.993408
_cell_volume 694.820669
_symmetry_space_group_name_H-M "P -1"
_symmetry_group_IT_number 2
_symmetry_cell_setting 'triclinic'
loop_
_space_group_symop_operation_xyz
x,y,z
-x,-y,-z
loop_
_atom_site_type_symbol
_atom_site_label
_atom_site_fract_x
_atom_site_fract_y
_atom_site_fract_z
Si Si1 0.436562 0.086466 0.539995
Si Si2 0.692036 0.785029 0.914259
Si Si3 0.828129 0.534174 0.106430
Si Si4 0.830294 0.844437 0.132144
Si Si5 0.771783 0.619407 0.850558
Si Si6 0.668998 0.058647 0.616057
Si Si7 0.833293 0.681781 0.304538
Si Si8 0.261296 0.794582 0.222793
O O1 0.357610 0.157624 0.602963
O O2 0.679744 0.124501 0.462178
O O3 0.468972 0.056455 0.354031
O O4 0.151716 0.968418 0.850784
O O5 0.659010 0.679751 0.957755
O O6 0.013619 0.883290 0.595093
O O7 0.690264 0.816779 0.082446
O O8 0.466245 0.779433 0.010865
O O9 0.901298 0.616047 0.177330
O O10 0.490160 0.418585 0.377950
O O11 0.873121 0.597677 0.916711
O O12 0.000000 0.500000 0.000000
O O13 0.833682 0.753215 0.180469
O O14 0.035214 0.697231 0.525460
O O15 0.500000 0.500000 0.000000
O O16 0.572267 0.086469 0.828543
O O17 0.058605 0.767206 0.250072
#
# Coordination Sequence:
#
# PCOD9090187 Si02
#       8
#     2   2   2   2   2   2   2   2
#     4   9  18  36  66  91 118 161 205 257 297 369
#     4  10  21  36  64  89 118 163 208 246 299 366
#     4  11  26  43  63  89 129 164 203 252 309 360
#     4  10  19  38  64  90 119 163 209 245 309 364
#     4  11  23  41  61  91 122 162 209 250 299 374
#     4   9  19  36  61  90 121 149 206 251 295 361
#     4  11  25  43  60  93 129 161 200 259 307 364
#     4  11  23  38  64  90 127 161 202 255 306 359
#
# _framework density 23.027525000000001
#
# number of rings (size 3 to 8) (size 9 to 14) (size 15 to 20)
#    0.000    1.750    3.750    0.000    3.500    0.500 
#    2.250    1.250    0.000    0.000    0.000    0.000 
#    0.000    0.000    0.000    0.000    0.000    0.000 
#
# Total GULP energy -89360.176680 kJ/mol
# GULP energy per Si atom -5585.011043 kJ/mol
# Density = 2.297511 g / cm^3
# Si number density = 23.027525 Si / 1000 Ang^3
#
#
#
# Elastic Constant Matrix: (Units=GPa)
#
#
# Indices 1 2 3 4 5 6 
#
# 1 61.7304 13.0594 4.6903 16.1488 -10.9892 -6.3921
# 2 13.0594 102.7650 4.1464 26.9992 -20.9818 -21.1531
# 3 4.6903 4.1464 61.4296 0.3778 -0.6809 -17.7639
# 4 16.1488 26.9992 0.3778 28.6757 -14.5117 -8.3327
# 5 -10.9892 -20.9818 -0.6809 -14.5117 26.7768 2.7351
# 6 -6.3921 -21.1531 -17.7639 -8.3327 2.7351 38.7545
#
#
#
# Elastic Compliance Matrix: (Units=1/GPa)
#
#
# Indices 1 2 3 4 5 6 
#
# 1 0.019344 0.001044 -0.001210 -0.009985 0.003230 0.000831
# 2 0.001044 0.014530 0.000803 -0.009445 0.006102 0.006010
# 3 -0.001210 0.000803 0.019078 0.003129 0.001337 0.009562
# 4 -0.009985 -0.009445 0.003129 0.062164 0.021609 0.006473
# 5 0.003230 0.006102 0.001337 0.021609 0.054660 0.005265
# 6 0.000831 0.006010 0.009562 0.006473 0.005265 0.034624
#
#
# Mechanical properties :
#
#
# Convention : Reuss Voigt Hill
#
# Bulk Modulus (GPa) = 18.44112 29.96860 24.20486
# Shear Modulus (GPa) = 22.60405 32.44334 27.52370
#
# Velocity S-wave (km/s) = 3.13646 3.75760 3.46099
# Velocity P-wave (km/s) = 4.59807 5.64522 5.14834
#
# Compressibility (1/GPa) = 0.05422665
#
# Stress axis : x y z
#
# Youngs Moduli (GPa) = 51.69690 68.82214 52.41766
#
# Poissons Ratio (x) = -0.07188 0.06342
# Poissons Ratio (y) = -0.05400 -0.04210
# Poissons Ratio (z) = 0.06255 -0.05527
#
# Static dielectric constant tensor:
#      x y z
#    x 1.843320 0.012920 -0.030860 
#    y 0.012920 1.898910 -0.001870 
#    z -0.030860 -0.001870 1.887740 
# 
# From -- ./inp_files/206734.got.cif
#   From: 2010.05.17/outbox.cif.g08.bks.cpg/sg2_104_cif.got.tgz:206734.got - 2010.06.03 11:33:40.
