data_PCOD9090652
_publ_section_title
;
Structure prediction by ZEFSAII (Michael W. Deem and Ramdas Pophale) SiO2 
 PCOD9090652
Probable space group: P -1
;
_chemical_formula_sum "Si O2"
_cell_formula_units_Z 16
_cell_length_a 9.092433
_cell_length_b 9.450326
_cell_length_c 12.549968
_cell_angle_alpha 139.561440
_cell_angle_beta 78.247784
_cell_angle_gamma 83.510557
_cell_volume 620.813898
_symmetry_space_group_name_H-M "P -1"
_symmetry_group_IT_number 2
_symmetry_cell_setting 'triclinic'
loop_
_space_group_symop_operation_xyz
x,y,z
-x,-y,-z
loop_
_atom_site_type_symbol
_atom_site_label
_atom_site_fract_x
_atom_site_fract_y
_atom_site_fract_z
Si Si1 0.081194 0.313919 0.135305
Si Si2 0.558800 0.090790 0.936307
Si Si3 0.188027 0.426797 0.399599
Si Si4 0.893940 0.078372 0.310510
Si Si5 0.147397 0.987460 0.395946
Si Si6 0.718749 0.562415 0.985262
Si Si7 0.691508 0.858655 0.359335
Si Si8 0.825481 0.189755 0.056406
O O1 0.172696 0.411069 0.264483
O O2 0.164456 0.030129 0.995663
O O3 0.121096 0.415700 0.078504
O O4 0.886431 0.370261 0.210381
O O5 0.687831 0.832024 0.724084
O O6 0.428849 0.239477 0.949965
O O7 0.656353 0.245773 0.052168
O O8 0.500000 0.000000 0.000000
O O9 0.225365 0.652234 0.553002
O O10 0.000000 0.500000 0.500000
O O11 0.779699 0.981740 0.337376
O O12 0.037632 0.095709 0.371538
O O13 0.017711 0.912015 0.106961
O O14 0.264965 0.706426 0.192585
O O15 0.227412 0.132375 0.533461
O O16 0.000000 0.000000 0.500000
O O17 0.710294 0.633751 0.151882
O O18 0.500000 0.000000 0.500000
#
# Coordination Sequence:
#
# PCOD9090652 Si02
#       8
#     2   2   2   2   2   2   2   2
#     4  10  19  38  69 102 137 180 232 285 356 436
#     4  11  23  41  70 107 144 186 226 282 378 431
#     4  11  21  41  73 105 144 184 230 289 358 442
#     4  11  22  47  73  98 139 182 240 298 349 427
#     4  10  26  48  75 101 137 194 248 292 359 425
#     4  12  24  49  74 101 153 189 231 312 361 420
#     4  11  27  47  70 104 145 191 253 301 352 420
#     4  10  20  38  68 104 134 180 231 281 351 445
#
# _framework density 25.772618999999999
#
# number of rings (size 3 to 8) (size 9 to 14) (size 15 to 20)
#    0.000    1.250    6.250    1.500    1.750    2.500 
#    2.250    1.875    0.000    0.000    0.000    0.000 
#    0.000    0.000    0.000    0.000    0.000    0.000 
#
# Total GULP energy -89202.153605 kJ/mol
# GULP energy per Si atom -5575.134600 kJ/mol
# Density = 2.571396 g / cm^3
# Si number density = 25.772619 Si / 1000 Ang^3
#
#
#
# Elastic Constant Matrix: (Units=GPa)
#
#
# Indices 1 2 3 4 5 6 
#
# 1 132.4455 35.4634 23.8288 9.5676 7.7202 -8.5517
# 2 35.4634 103.4015 52.3026 17.4648 7.5669 13.3250
# 3 23.8288 52.3026 120.8803 10.5300 3.5443 -7.4973
# 4 9.5676 17.4648 10.5300 57.7995 1.7205 -3.8276
# 5 7.7202 7.5669 3.5443 1.7205 34.8432 -10.4221
# 6 -8.5517 13.3250 -7.4973 -3.8276 -10.4221 44.0653
#
#
#
# Elastic Compliance Matrix: (Units=1/GPa)
#
#
# Indices 1 2 3 4 5 6 
#
# 1 0.008617 -0.003105 -0.000165 -0.000282 -0.000472 0.002447
# 2 -0.003105 0.015820 -0.006284 -0.003509 -0.004259 -0.007768
# 3 -0.000165 -0.006284 0.011228 0.000110 0.001492 0.004141
# 4 -0.000282 -0.003509 0.000110 0.018552 0.000738 0.002811
# 5 -0.000472 -0.004259 0.001492 0.000738 0.032278 0.009148
# 6 0.002447 -0.007768 0.004141 0.002811 0.009148 0.028630
#
#
# Mechanical properties :
#
#
# Convention : Reuss Voigt Hill
#
# Bulk Modulus (GPa) = 60.39959 64.43518 62.41739
# Shear Modulus (GPa) = 35.77770 43.68376 39.73073
#
# Velocity S-wave (km/s) = 3.72991 4.12147 3.93056
# Velocity P-wave (km/s) = 6.48352 6.90683 6.69852
#
# Compressibility (1/GPa) = 0.01655640
#
# Stress axis : x y z
#
# Youngs Moduli (GPa) = 116.04573 63.21135 89.06583
#
# Poissons Ratio (x) = 0.19628 0.01469
# Poissons Ratio (y) = 0.36034 0.55970
# Poissons Ratio (z) = 0.01914 0.39723
#
# Static dielectric constant tensor:
#      x y z
#    x 1.905160 -0.018200 -0.141530 
#    y -0.018200 2.133160 0.005010 
#    z -0.141530 0.005010 2.044990 
# 
# From -- ./inp_files/500965.got.cif
#   From: 2010.05.17/outbox.cif.g08.bks.cpg/sg2_251_cif.got.tgz:500965.got - 2010.06.03 11:33:40.
