data_PCOD9090892
_publ_section_title
;
Structure prediction by ZEFSAII (Michael W. Deem and Ramdas Pophale) SiO2 
 PCOD9090892
Probable space group: P -1
;
_chemical_formula_sum "Si O2"
_cell_formula_units_Z 13
_cell_length_a 19.427796
_cell_length_b 7.079113
_cell_length_c 9.414964
_cell_angle_alpha 53.799244
_cell_angle_beta 152.458041
_cell_angle_gamma 126.768210
_cell_volume 473.320385
_symmetry_space_group_name_H-M "P -1"
_symmetry_group_IT_number 2
_symmetry_cell_setting 'triclinic'
loop_
_space_group_symop_operation_xyz
x,y,z
-x,-y,-z
loop_
_atom_site_type_symbol
_atom_site_label
_atom_site_fract_x
_atom_site_fract_y
_atom_site_fract_z
Si Si1 0.987359 0.901705 0.251930
Si Si2 0.271849 0.450947 0.801764
Si Si3 0.566052 0.108404 0.277280
Si Si4 0.000000 0.000000 0.500000
Si Si5 0.808796 0.387189 0.124000
Si Si6 0.287201 0.174719 0.551517
Si Si7 0.422727 0.698286 0.496022
O O1 0.076849 0.798584 0.600957
O O2 0.889598 0.660314 0.115501
O O3 0.113431 0.051380 0.317307
O O4 0.904728 0.042721 0.147810
O O5 0.340901 0.638025 0.724807
O O6 0.209850 0.599960 0.746842
O O7 0.144467 0.233596 0.616322
O O8 0.411591 0.364858 0.171682
O O9 0.570712 0.106483 0.455689
O O10 0.644113 0.916136 0.426483
O O11 0.397550 0.102913 0.907944
O O12 0.657070 0.293702 0.804172
O O13 0.315162 0.456992 0.469021
#
# Coordination Sequence:
#
# PCOD9090892 Si02
#       7
#     2   2   2   1   2   2   2
#     4  10  20  40  60  83 116 165 199 238 299 372
#     4  10  19  39  61  86 121 160 197 242 299 358
#     4  10  20  37  63  89 117 161 202 237 297 357
#     4  10  20  34  64  88 106 158 210 236 282 366
#     4  10  22  38  60  84 125 155 193 250 308 339
#     4  10  20  38  64  84 120 162 201 236 295 367
#     4  11  22  38  60  95 122 151 199 260 289 343
#
# _framework density 27.465541000000002
#
# number of rings (size 3 to 8) (size 9 to 14) (size 15 to 20)
#    0.000    1.846    1.538    4.154    0.000    0.615 
#    5.538    2.308    0.000    0.000    0.000    0.000 
#    0.000    0.000    0.000    0.000    0.000    0.000 
#
# Total GULP energy -72717.094787 kJ/mol
# GULP energy per Si atom -5593.622676 kJ/mol
# Density = 2.740303 g / cm^3
# Si number density = 27.465541 Si / 1000 Ang^3
#
#
#
# Elastic Constant Matrix: (Units=GPa)
#
#
# Indices 1 2 3 4 5 6 
#
# 1 107.8609 1.7506 16.9305 20.4214 -18.7922 -17.3775
# 2 1.7506 134.7004 37.1539 54.4533 0.3367 -0.0254
# 3 16.9305 37.1539 117.6451 36.4176 -12.3063 -18.7857
# 4 20.4214 54.4533 36.4176 61.0750 0.8128 0.3981
# 5 -18.7922 0.3367 -12.3063 0.8128 39.2166 19.2741
# 6 -17.3775 -0.0254 -18.7857 0.3981 19.2741 48.7986
#
#
#
# Elastic Compliance Matrix: (Units=1/GPa)
#
#
# Indices 1 2 3 4 5 6 
#
# 1 0.011531 0.002211 0.000426 -0.006158 0.004521 0.002536
# 2 0.002211 0.012063 -0.000515 -0.011201 0.000855 0.000349
# 3 0.000426 -0.000515 0.011458 -0.006567 0.002074 0.003797
# 4 -0.006158 -0.011201 -0.006567 0.032409 -0.003889 -0.003455
# 5 0.004521 0.000855 0.002074 -0.003889 0.033740 -0.010886
# 6 0.002536 0.000349 0.003797 -0.003455 -0.010886 0.027185
#
#
# Mechanical properties :
#
#
# Convention : Reuss Voigt Hill
#
# Bulk Modulus (GPa) = 25.44833 52.43071 38.93952
# Shear Modulus (GPa) = 36.43238 50.10945 43.27092
#
# Velocity S-wave (km/s) = 3.64603 4.27599 3.97352
# Velocity P-wave (km/s) = 5.19715 6.59620 5.93802
#
# Compressibility (1/GPa) = 0.03929531
#
# Stress axis : x y z
#
# Youngs Moduli (GPa) = 86.72645 82.89598 87.27693
#
# Poissons Ratio (x) = -0.18328 -0.03721
# Poissons Ratio (y) = -0.19175 0.04499
# Poissons Ratio (z) = -0.03698 0.04273
#
# Static dielectric constant tensor:
#      x y z
#    x 2.257260 -0.059470 -0.057670 
#    y -0.059470 2.188860 -0.057120 
#    z -0.057670 -0.057120 2.155450 
# 
# From -- ./inp_files/164334.got.cif
#   From: 2010.05.17/outbox.cif.g08.bks.cpg/sg2_83_cif.got.tgz:164334.got - 2010.06.03 11:33:40.
