data_PCOD9090543
_publ_section_title
;
Structure prediction by ZEFSAII (Michael W. Deem and Ramdas Pophale) SiO2 
 PCOD9090543
Probable space group: P -1
;
_chemical_formula_sum "Si O2"
_cell_formula_units_Z 14
_cell_length_a 11.640683
_cell_length_b 9.264723
_cell_length_c 11.333199
_cell_angle_alpha 35.929254
_cell_angle_beta 113.453186
_cell_angle_gamma 94.074600
_cell_volume 581.908556
_symmetry_space_group_name_H-M "P -1"
_symmetry_group_IT_number 2
_symmetry_cell_setting 'triclinic'
loop_
_space_group_symop_operation_xyz
x,y,z
-x,-y,-z
loop_
_atom_site_type_symbol
_atom_site_label
_atom_site_fract_x
_atom_site_fract_y
_atom_site_fract_z
Si Si1 0.322127 0.962560 0.956906
Si Si2 0.906223 0.840322 0.074141
Si Si3 0.898801 0.374058 0.090445
Si Si4 0.704587 0.188781 0.571177
Si Si5 0.392008 0.318993 0.609930
Si Si6 0.930464 0.259938 0.457673
Si Si7 0.600289 0.617294 0.706686
O O1 0.287665 0.218920 0.689563
O O2 0.195583 0.012187 0.956047
O O3 0.450813 0.906721 0.136828
O O4 0.378582 0.696427 0.072751
O O5 0.208875 0.713585 0.547080
O O6 0.964295 0.512102 0.337939
O O7 0.000000 0.000000 0.000000
O O8 0.816506 0.914656 0.866074
O O9 0.906135 0.308488 0.275515
O O10 0.954561 0.063162 0.263194
O O11 0.737971 0.587811 0.848835
O O12 0.000000 0.500000 0.000000
O O13 0.641262 0.405728 0.511945
O O14 0.564703 0.191339 0.456013
O O15 0.380353 0.340076 0.452236
#
# Coordination Sequence:
#
# PCOD9090543 Si02
#       7
#     2   2   2   2   2   2   2
#     4  10  20  37  64 107 142 179 219 281 357 420
#     4  12  25  41  70 108 149 179 225 293 358 420
#     4  11  28  53  72  94 139 196 241 294 344 421
#     4  11  22  41  70 106 140 179 236 296 345 416
#     4  10  19  38  67 103 147 176 221 284 352 420
#     4  11  27  49  71 100 140 187 245 288 349 420
#     4  11  23  42  71 103 140 185 234 285 352 416
#
# _framework density 24.058764
#
# number of rings (size 3 to 8) (size 9 to 14) (size 15 to 20)
#    0.000    1.143    4.286    1.714    4.000    4.571 
#    0.000    2.857    0.000    0.000    0.000    0.000 
#    0.000    0.000    0.000    0.000    0.000    0.000 
#
# Total GULP energy -78223.058543 kJ/mol
# GULP energy per Si atom -5587.361324 kJ/mol
# Density = 2.400401 g / cm^3
# Si number density = 24.058764 Si / 1000 Ang^3
#
#
#
# Elastic Constant Matrix: (Units=GPa)
#
#
# Indices 1 2 3 4 5 6 
#
# 1 182.6559 42.9325 80.6514 6.6486 -5.9954 17.9330
# 2 42.9325 71.2016 59.6353 3.2348 9.6970 11.2618
# 3 80.6514 59.6353 129.7304 -5.1525 4.6720 18.6598
# 4 6.6486 3.2348 -5.1525 45.4829 1.0316 -5.2370
# 5 -5.9954 9.6970 4.6720 1.0316 46.7824 4.2365
# 6 17.9330 11.2618 18.6598 -5.2370 4.2365 39.3704
#
#
#
# Elastic Compliance Matrix: (Units=1/GPa)
#
#
# Indices 1 2 3 4 5 6 
#
# 1 0.007933 -0.001046 -0.004346 -0.001815 0.001861 -0.001696
# 2 -0.001046 0.024105 -0.010179 -0.002804 -0.003912 -0.001547
# 3 -0.004346 -0.010179 0.015499 0.002872 0.000131 -0.002086
# 4 -0.001815 -0.002804 0.002872 0.023189 -0.000761 0.003434
# 5 0.001861 -0.003912 0.000131 -0.000761 0.022640 -0.002328
# 6 -0.001696 -0.001547 -0.002086 0.003434 -0.002328 0.028311
#
#
# Mechanical properties :
#
#
# Convention : Reuss Voigt Hill
#
# Bulk Modulus (GPa) = 60.99234 83.33627 72.16430
# Shear Modulus (GPa) = 31.58867 39.68504 35.63686
#
# Velocity S-wave (km/s) = 3.62744 4.06582 3.85287
# Velocity P-wave (km/s) = 6.55369 7.53359 7.06066
#
# Compressibility (1/GPa) = 0.01639550
#
# Stress axis : x y z
#
# Youngs Moduli (GPa) = 126.04787 41.48459 64.52094
#
# Poissons Ratio (x) = 0.04339 0.28044
# Poissons Ratio (y) = 0.13185 0.65673
# Poissons Ratio (z) = 0.54786 0.42226
#
# Static dielectric constant tensor:
#      x y z
#    x 1.921080 0.058480 0.056330 
#    y 0.058480 1.989620 -0.018410 
#    z 0.056330 -0.018410 1.982250 
# 
# From -- ./inp_files/531513.got.cif
#   From: 2010.05.17/outbox.cif.g08.bks.cpg/sg2_266_cif.got.tgz:531513.got - 2010.06.03 11:33:40.
