data_PCOD9090019
_publ_section_title
;
Structure prediction by ZEFSAII (Michael W. Deem and Ramdas Pophale) SiO2 
 PCOD9090019
Probable space group: P -1
;
_chemical_formula_sum "Si O2"
_cell_formula_units_Z 16
_cell_length_a 18.959542
_cell_length_b 10.119819
_cell_length_c 13.554256
_cell_angle_alpha 128.023867
_cell_angle_beta 150.824141
_cell_angle_gamma 35.319275
_cell_volume 688.704440
_symmetry_space_group_name_H-M "P -1"
_symmetry_group_IT_number 2
_symmetry_cell_setting 'triclinic'
loop_
_space_group_symop_operation_xyz
x,y,z
-x,-y,-z
loop_
_atom_site_type_symbol
_atom_site_label
_atom_site_fract_x
_atom_site_fract_y
_atom_site_fract_z
Si Si1 0.579822 0.023403 0.008683
Si Si2 0.637636 0.417801 0.830994
Si Si3 0.087379 0.506924 0.868454
Si Si4 0.297857 0.719593 0.710240
Si Si5 0.759005 0.112303 0.557863
Si Si6 0.072906 0.105947 0.003555
Si Si7 0.924913 0.022363 0.258656
Si Si8 0.822616 0.673718 0.446813
O O1 0.382177 0.247351 0.806462
O O2 0.722292 0.776404 0.008731
O O3 0.500000 0.000000 0.000000
O O4 0.712934 0.070695 0.223709
O O5 0.519056 0.495313 0.827067
O O6 0.450725 0.632544 0.628251
O O7 0.754338 0.142568 0.838613
O O8 0.809517 0.422472 0.035071
O O9 0.928000 0.544481 0.619648
O O10 0.978249 0.677401 0.908171
O O11 0.106839 0.799112 0.451424
O O12 0.251377 0.750344 0.783333
O O13 0.948837 0.944421 0.633142
O O14 0.739918 0.935876 0.482275
O O15 0.860030 0.169685 0.777840
O O16 0.129854 0.058655 0.934670
O O17 0.000000 0.500000 0.500000
#
# Coordination Sequence:
#
# PCOD9090019 Si02
#       8
#     2   2   2   2   2   2   2   2
#     4  12  22  37  59  86 119 149 188 236 293 344
#     4  11  19  34  58  87 114 147 189 235 282 340
#     4  12  23  36  56  86 122 155 184 234 288 348
#     4  10  19  38  63  88 109 148 196 240 288 325
#     4   9  20  37  57  86 116 149 188 238 282 339
#     4  10  23  37  55  86 117 155 190 231 288 337
#     4   8  19  39  61  84 114 144 197 242 278 336
#     4  12  22  35  57  86 122 149 189 236 287 345
#
# _framework density 23.232026999999999
#
# number of rings (size 3 to 8) (size 9 to 14) (size 15 to 20)
#    0.750    0.750    5.000    1.125    0.000    2.000 
#    0.000    0.625    0.000    0.750    0.000    0.000 
#    0.000    0.000    0.000    0.000    0.000    0.000 
#
# Total GULP energy -89226.118432 kJ/mol
# GULP energy per Si atom -5576.632402 kJ/mol
# Density = 2.317915 g / cm^3
# Si number density = 23.232027 Si / 1000 Ang^3
#
#
#
# Elastic Constant Matrix: (Units=GPa)
#
#
# Indices 1 2 3 4 5 6 
#
# 1 61.5123 4.4329 13.0752 -5.8041 -9.7380 -19.5782
# 2 4.4329 113.2667 24.4742 -14.8973 -19.3661 -12.4336
# 3 13.0752 24.4742 79.2023 -12.4993 -19.5754 -4.2073
# 4 -5.8041 -14.8973 -12.4993 30.7727 -4.0537 -2.5949
# 5 -9.7380 -19.3661 -19.5754 -4.0537 23.3223 7.8542
# 6 -19.5782 -12.4336 -4.2073 -2.5949 7.8542 30.1890
#
#
#
# Elastic Compliance Matrix: (Units=1/GPa)
#
#
# Indices 1 2 3 4 5 6 
#
# 1 0.022875 0.003302 -0.000775 0.007899 0.008077 0.014664
# 2 0.003302 0.012316 0.000111 0.008566 0.011514 0.004970
# 3 -0.000775 0.000111 0.018463 0.009572 0.017469 -0.001606
# 4 0.007899 0.008566 0.009572 0.045809 0.023805 0.007729
# 5 0.008077 0.011514 0.017469 0.023805 0.076438 -0.005426
# 6 0.014664 0.004970 -0.001606 0.007729 -0.005426 0.046534
#
#
# Mechanical properties :
#
#
# Convention : Reuss Voigt Hill
#
# Bulk Modulus (GPa) = 16.96952 37.54954 27.25953
# Shear Modulus (GPa) = 21.11463 30.99008 26.05236
#
# Velocity S-wave (km/s) = 3.01800 3.65627 3.35236
# Velocity P-wave (km/s) = 4.41188 5.83287 5.17141
#
# Compressibility (1/GPa) = 0.05892917
#
# Stress axis : x y z
#
# Youngs Moduli (GPa) = 43.71570 81.19267 54.16331
#
# Poissons Ratio (x) = -0.26808 0.04197
# Poissons Ratio (y) = -0.14434 -0.00599
# Poissons Ratio (z) = 0.03387 -0.00898
#
# Static dielectric constant tensor:
#      x y z
#    x 1.994920 -0.048060 -0.027290 
#    y -0.048060 1.853520 0.006810 
#    z -0.027290 0.006810 1.885670 
# 
# From -- ./inp_files/541126.got.cif
#   From: 2010.05.17/outbox.cif.g08.bks.cpg/sg2_271_cif.got.tgz:541126.got - 2010.06.03 11:33:40.
