data_PCOD9090333
_publ_section_title
;
Structure prediction by ZEFSAII (Michael W. Deem and Ramdas Pophale) SiO2 
 PCOD9090333
Probable space group: P -1
;
_chemical_formula_sum "Si O2"
_cell_formula_units_Z 16
_cell_length_a 18.768992
_cell_length_b 8.574421
_cell_length_c 13.154214
_cell_angle_alpha 129.049808
_cell_angle_beta 30.104507
_cell_angle_gamma 126.555916
_cell_volume 817.621609
_symmetry_space_group_name_H-M "P -1"
_symmetry_group_IT_number 2
_symmetry_cell_setting 'triclinic'
loop_
_space_group_symop_operation_xyz
x,y,z
-x,-y,-z
loop_
_atom_site_type_symbol
_atom_site_label
_atom_site_fract_x
_atom_site_fract_y
_atom_site_fract_z
Si Si1 0.112150 0.874853 0.359110
Si Si2 0.331075 0.430918 0.695929
Si Si3 0.315287 0.430976 0.958828
Si Si4 0.964175 0.841430 0.728740
Si Si5 0.746988 0.030986 0.454319
Si Si6 0.359341 0.887839 0.172317
Si Si7 0.232501 0.836271 0.973527
Si Si8 0.504173 0.102906 0.647642
O O1 0.233409 0.003010 0.329206
O O2 0.025437 0.757230 0.512301
O O3 0.193927 0.810780 0.131157
O O4 0.000000 0.000000 0.500000
O O5 0.500000 0.500000 0.500000
O O6 0.314960 0.416898 0.831851
O O7 0.247222 0.608076 0.827839
O O8 0.276936 0.211895 0.626491
O O9 0.442734 0.315440 0.797725
O O10 0.164727 0.315156 0.134828
O O11 0.331683 0.659417 0.072655
O O12 0.091951 0.889111 0.673541
O O13 0.888964 0.042786 0.876654
O O14 0.648780 0.100320 0.693720
O O15 0.667770 0.111852 0.487783
O O16 0.500000 0.000000 0.000000
O O17 0.386615 0.966938 0.809206
O O18 0.500000 0.000000 0.500000
#
# Coordination Sequence:
#
# PCOD9090333 Si02
#       8
#     2   2   2   2   2   2   2   2
#     4   9  18  37  62  89 122 167 201 246 312 374
#     4  12  21  38  66  93 120 169 214 252 312 370
#     4  11  23  41  66  90 123 174 208 248 325 380
#     4   9  23  40  62  94 130 161 209 260 314 372
#     4  11  23  38  62  92 131 157 209 267 306 359
#     4  11  22  39  63  94 125 157 212 266 307 364
#     4  10  19  38  65  90 122 171 211 249 311 381
#     4  11  21  40  62  91 126 171 210 261 314 368
#
# _framework density 19.568954999999999
#
# number of rings (size 3 to 8) (size 9 to 14) (size 15 to 20)
#    0.000    1.500    3.750    1.500    0.000    3.500 
#    0.000    1.250    2.750    0.000    0.000    0.000 
#    0.000    0.000    0.000    0.000    0.000    0.000 
#
# Total GULP energy -89081.363233 kJ/mol
# GULP energy per Si atom -5567.585202 kJ/mol
# Density = 1.952442 g / cm^3
# Si number density = 19.568955 Si / 1000 Ang^3
#
#
#
# Elastic Constant Matrix: (Units=GPa)
#
#
# Indices 1 2 3 4 5 6 
#
# 1 120.2443 45.1346 35.7675 -0.4487 -9.7304 1.2547
# 2 45.1346 108.9801 47.3786 4.5488 1.5831 -0.1830
# 3 35.7675 47.3786 101.5762 -13.2573 9.2580 -3.7406
# 4 -0.4487 4.5488 -13.2573 37.1639 -2.8071 0.4758
# 5 -9.7304 1.5831 9.2580 -2.8071 40.6355 9.0125
# 6 1.2547 -0.1830 -3.7406 0.4758 9.0125 21.4933
#
#
#
# Elastic Compliance Matrix: (Units=1/GPa)
#
#
# Indices 1 2 3 4 5 6 
#
# 1 0.010709 -0.003323 -0.002692 -0.000093 0.003913 -0.002761
# 2 -0.003323 0.013040 -0.005374 -0.003564 -0.000224 -0.000457
# 3 -0.002692 -0.005374 0.014565 0.005437 -0.004342 0.004346
# 4 -0.000093 -0.003564 0.005437 0.029354 0.000932 -0.000119
# 5 0.003913 -0.000224 -0.004342 0.000932 0.029583 -0.013411
# 6 -0.002761 -0.000457 0.004346 -0.000119 -0.013411 0.053066
#
#
# Mechanical properties :
#
#
# Convention : Reuss Voigt Hill
#
# Bulk Modulus (GPa) = 64.36127 65.26245 64.81186
# Shear Modulus (GPa) = 28.04707 33.35986 30.70346
#
# Velocity S-wave (km/s) = 3.78993 4.13332 3.96534
# Velocity P-wave (km/s) = 7.21888 7.49677 7.35914
#
# Compressibility (1/GPa) = 0.01553730
#
# Stress axis : x y z
#
# Youngs Moduli (GPa) = 93.37617 76.68988 68.66003
#
# Poissons Ratio (x) = 0.25482 0.18481
# Poissons Ratio (y) = 0.31026 0.36896
# Poissons Ratio (z) = 0.25134 0.41210
#
# Static dielectric constant tensor:
#      x y z
#    x 1.754820 -0.062360 -0.027080 
#    y -0.062360 1.668910 0.020700 
#    z -0.027080 0.020700 1.802720 
# 
# From -- ./inp_files/403498.got.cif
#   From: 2010.05.17/outbox.cif.g08.bks.cpg/sg2_202_cif.got.tgz:403498.got - 2010.06.03 11:33:40.
