data_PCOD9090523
_publ_section_title
;
Structure prediction by ZEFSAII (Michael W. Deem and Ramdas Pophale) SiO2 
 PCOD9090523
Probable space group: P -1
;
_chemical_formula_sum "Si O2"
_cell_formula_units_Z 16
_cell_length_a 5.083551
_cell_length_b 11.758151
_cell_length_c 17.719997
_cell_angle_alpha 120.842203
_cell_angle_beta 105.623335
_cell_angle_gamma 52.166075
_cell_volume 716.637926
_symmetry_space_group_name_H-M "P -1"
_symmetry_group_IT_number 2
_symmetry_cell_setting 'triclinic'
loop_
_space_group_symop_operation_xyz
x,y,z
-x,-y,-z
loop_
_atom_site_type_symbol
_atom_site_label
_atom_site_fract_x
_atom_site_fract_y
_atom_site_fract_z
Si Si1 0.681085 0.951801 0.208140
Si Si2 0.382515 0.384584 0.471336
Si Si3 0.367194 0.478691 0.866604
Si Si4 0.271302 0.826625 0.426563
Si Si5 0.570077 0.499993 0.731117
Si Si6 0.783940 0.691020 0.719689
Si Si7 0.586266 0.148537 0.717888
Si Si8 0.011606 0.650722 0.029999
O O1 0.525756 0.942656 0.271440
O O2 0.038673 0.916191 0.247248
O O3 0.738504 0.813884 0.107506
O O4 0.416350 0.123944 0.207836
O O5 0.500000 0.500000 0.500000
O O6 0.534472 0.270591 0.516397
O O7 0.406887 0.293279 0.366602
O O8 0.000000 0.500000 0.500000
O O9 0.522415 0.518148 0.823476
O O10 0.336776 0.339096 0.784743
O O11 0.650519 0.385315 0.920003
O O12 0.058895 0.633792 0.937486
O O13 0.229139 0.690418 0.339911
O O14 0.418641 0.862944 0.377155
O O15 0.000000 0.000000 0.500000
O O16 0.730075 0.583277 0.734575
O O17 0.181097 0.597452 0.706348
O O18 0.000000 0.500000 0.000000
#
# Coordination Sequence:
#
# PCOD9090523 Si02
#       8
#     2   2   2   2   2   2   2   2
#     4  11  23  41  66  96 132 173 220 267 336 393
#     4  12  24  45  66  94 131 181 220 267 338 400
#     4   9  21  37  64  95 129 163 211 269 334 390
#     4  11  24  43  70 101 131 169 231 286 328 389
#     4  11  25  44  66  94 131 177 217 270 333 392
#     4  12  24  45  65  89 133 183 220 259 329 417
#     4  10  22  40  63  98 130 165 216 285 329 374
#     4  10  19  38  66  97 127 165 208 277 340 385
#
# _framework density 22.326478999999999
#
# number of rings (size 3 to 8) (size 9 to 14) (size 15 to 20)
#    0.000    1.250    3.750    1.500    1.750    5.000 
#    0.000    5.000    0.000    0.000    0.000    0.000 
#    0.000    0.000    0.000    0.000    0.000    0.000 
#
# Total GULP energy -89326.138311 kJ/mol
# GULP energy per Si atom -5582.883644 kJ/mol
# Density = 2.227566 g / cm^3
# Si number density = 22.326479 Si / 1000 Ang^3
#
#
#
# Elastic Constant Matrix: (Units=GPa)
#
#
# Indices 1 2 3 4 5 6 
#
# 1 109.6247 46.4758 20.3538 11.4393 -8.6996 7.4981
# 2 46.4758 128.4886 54.2321 21.7632 -15.5188 1.7130
# 3 20.3538 54.2321 146.9826 14.9169 -28.8819 2.1176
# 4 11.4393 21.7632 14.9169 44.6674 1.9092 -0.5193
# 5 -8.6996 -15.5188 -28.8819 1.9092 27.0727 -9.1015
# 6 7.4981 1.7130 2.1176 -0.5193 -9.1015 24.1876
#
#
#
# Elastic Compliance Matrix: (Units=1/GPa)
#
#
# Indices 1 2 3 4 5 6 
#
# 1 0.011056 -0.003752 0.000131 -0.001108 0.000624 -0.002962
# 2 -0.003752 0.011264 -0.002631 -0.003769 0.003301 0.001757
# 3 0.000131 -0.002631 0.010021 -0.002509 0.010461 0.003151
# 4 -0.001108 -0.003769 -0.002509 0.025649 -0.007485 -0.001436
# 5 0.000624 0.003301 0.010461 -0.007485 0.057485 0.020127
# 6 -0.002962 0.001757 0.003151 -0.001436 0.020127 0.049404
#
#
# Mechanical properties :
#
#
# Convention : Reuss Voigt Hill
#
# Bulk Modulus (GPa) = 50.40757 69.69103 60.04930
# Shear Modulus (GPa) = 27.17478 36.78780 31.98129
#
# Velocity S-wave (km/s) = 3.49256 4.06362 3.78886
# Velocity P-wave (km/s) = 6.23622 7.30066 6.78933
#
# Compressibility (1/GPa) = 0.01983829
#
# Stress axis : x y z
#
# Youngs Moduli (GPa) = 90.44789 88.77897 99.79313
#
# Poissons Ratio (x) = 0.33308 -0.01309
# Poissons Ratio (y) = 0.33934 0.26251
# Poissons Ratio (z) = -0.01186 0.23354
#
# Static dielectric constant tensor:
#      x y z
#    x 1.880730 -0.033230 0.026130 
#    y -0.033230 1.806770 0.006060 
#    z 0.026130 0.006060 1.911960 
# 
# From -- ./inp_files/350710.got.cif
#   From: 2010.05.17/outbox.cif.g08.bks.cpg/sg2_176_cif.got.tgz:350710.got - 2010.06.03 11:33:40.
