data_PCOD9090656
_publ_section_title
;
Structure prediction by ZEFSAII (Michael W. Deem and Ramdas Pophale) SiO2 
 PCOD9090656
Probable space group: P -1
;
_chemical_formula_sum "Si O2"
_cell_formula_units_Z 16
_cell_length_a 17.074289
_cell_length_b 8.368110
_cell_length_c 9.509690
_cell_angle_alpha 133.469846
_cell_angle_beta 49.453344
_cell_angle_gamma 116.250866
_cell_volume 749.275023
_symmetry_space_group_name_H-M "P -1"
_symmetry_group_IT_number 2
_symmetry_cell_setting 'triclinic'
loop_
_space_group_symop_operation_xyz
x,y,z
-x,-y,-z
loop_
_atom_site_type_symbol
_atom_site_label
_atom_site_fract_x
_atom_site_fract_y
_atom_site_fract_z
Si Si1 0.173911 0.913121 0.979900
Si Si2 0.000014 0.741346 0.717441
Si Si3 0.791982 0.987659 0.420427
Si Si4 0.954097 0.466095 0.185844
Si Si5 0.373345 0.369902 0.131652
Si Si6 0.180899 0.154343 0.380622
Si Si7 0.325669 0.174384 0.786996
Si Si8 0.422075 0.840498 0.300664
O O1 0.174447 0.936301 0.161235
O O2 0.087068 0.091661 0.137547
O O3 0.278629 0.989985 0.833727
O O4 0.147329 0.675244 0.811820
O O5 0.111270 0.859489 0.640976
O O6 0.984812 0.682376 0.864019
O O7 0.000000 0.500000 0.500000
O O8 0.685299 0.128388 0.639019
O O9 0.811320 0.885153 0.487474
O O10 0.759252 0.812264 0.230637
O O11 0.921126 0.696880 0.430515
O O12 0.000000 0.500000 0.000000
O O13 0.277191 0.284623 0.280684
O O14 0.404895 0.618783 0.276976
O O15 0.347179 0.362113 0.988541
O O16 0.472712 0.209481 0.934073
O O17 0.421915 0.064998 0.527655
#
# Coordination Sequence:
#
# PCOD9090656 Si02
#       8
#     2   2   2   2   2   2   2   2
#     4  11  23  40  62  82 122 162 201 243 297 357
#     4  12  24  41  63  87 120 165 201 249 297 361
#     4  10  23  40  58  85 131 150 204 251 291 361
#     4  12  25  39  60  88 120 157 203 250 299 349
#     4  10  19  38  69  84 118 156 204 244 308 351
#     4  11  24  41  56  93 121 161 198 253 295 354
#     4   9  20  37  61  86 115 155 197 241 294 359
#     4   9  20  38  63  92 115 155 202 251 293 368
#
# _framework density 21.353974999999998
#
# number of rings (size 3 to 8) (size 9 to 14) (size 15 to 20)
#    0.750    0.750    2.500    3.000    5.250    1.500 
#    2.250    0.000    0.000    1.500    0.000    0.000 
#    0.000    0.000    0.000    0.000    0.000    0.000 
#
# Total GULP energy -89155.299320 kJ/mol
# GULP energy per Si atom -5572.206207 kJ/mol
# Density = 2.130537 g / cm^3
# Si number density = 21.353975 Si / 1000 Ang^3
#
#
#
# Elastic Constant Matrix: (Units=GPa)
#
#
# Indices 1 2 3 4 5 6 
#
# 1 79.8668 15.2858 18.9224 -9.8777 -0.5433 -15.0711
# 2 15.2858 39.8864 15.9030 -13.0407 9.5811 -14.0071
# 3 18.9224 15.9030 86.3434 -3.2516 1.6892 -10.6186
# 4 -9.8777 -13.0407 -3.2516 28.4750 2.5332 9.8573
# 5 -0.5433 9.5811 1.6892 2.5332 46.6748 -2.3239
# 6 -15.0711 -14.0071 -10.6186 9.8573 -2.3239 27.6095
#
#
#
# Elastic Compliance Matrix: (Units=1/GPa)
#
#
# Indices 1 2 3 4 5 6 
#
# 1 0.014743 -0.002601 -0.002041 0.001734 0.000954 0.005405
# 2 -0.002601 0.037655 -0.004408 0.012803 -0.007759 0.010765
# 3 -0.002041 -0.004408 0.013054 -0.002157 0.000650 0.002495
# 4 0.001734 0.012803 -0.002157 0.045294 -0.005487 -0.010021
# 5 0.000954 -0.007759 0.000650 -0.005487 0.023341 0.000758
# 6 0.005405 0.010765 0.002495 -0.010021 0.000758 0.049232
#
#
# Mechanical properties :
#
#
# Convention : Reuss Voigt Hill
#
# Bulk Modulus (GPa) = 21.11753 34.03544 27.57649
# Shear Modulus (GPa) = 23.02009 30.95089 26.98549
#
# Velocity S-wave (km/s) = 3.28689 3.81126 3.55874
# Velocity P-wave (km/s) = 4.93109 5.94482 5.46152
#
# Compressibility (1/GPa) = 0.04735401
#
# Stress axis : x y z
#
# Youngs Moduli (GPa) = 67.82919 26.55661 76.60715
#
# Poissons Ratio (x) = 0.06906 0.15633
# Poissons Ratio (y) = 0.17639 0.33766
# Poissons Ratio (z) = 0.13842 0.11705
#
# Static dielectric constant tensor:
#      x y z
#    x 1.854780 0.010000 0.020280 
#    y 0.010000 1.739980 0.018700 
#    z 0.020280 0.018700 1.806660 
# 
# From -- ./inp_files/329518.got.cif
#   From: 2010.05.17/outbox.cif.g08.bks.cpg/sg2_165_cif.got.tgz:329518.got - 2010.06.03 11:33:40.
