data_PCOD9090860
_publ_section_title
;
Structure prediction by ZEFSAII (Michael W. Deem and Ramdas Pophale) SiO2 
 PCOD9090860
Probable space group: P -1
;
_chemical_formula_sum "Si O2"
_cell_formula_units_Z 16
_cell_length_a 17.866534
_cell_length_b 10.944687
_cell_length_c 9.596360
_cell_angle_alpha 122.855646
_cell_angle_beta 116.497351
_cell_angle_gamma 28.448942
_cell_volume 748.694895
_symmetry_space_group_name_H-M "P -1"
_symmetry_group_IT_number 2
_symmetry_cell_setting 'triclinic'
loop_
_space_group_symop_operation_xyz
x,y,z
-x,-y,-z
loop_
_atom_site_type_symbol
_atom_site_label
_atom_site_fract_x
_atom_site_fract_y
_atom_site_fract_z
Si Si1 0.156100 0.194779 0.071267
Si Si2 0.117386 0.111740 0.502967
Si Si3 0.008006 0.235960 0.189656
Si Si4 0.958881 0.336270 0.801657
Si Si5 0.710970 0.452386 0.737385
Si Si6 0.739980 0.394934 0.036190
Si Si7 0.475374 0.685663 0.179277
Si Si8 0.551776 0.276153 0.485262
O O1 0.021162 0.350497 0.166549
O O2 0.133081 0.376507 0.080863
O O3 0.311510 0.980200 0.159604
O O4 0.124850 0.109558 0.882473
O O5 0.026688 0.264875 0.378554
O O6 0.003844 0.266826 0.635040
O O7 0.199848 0.831717 0.386520
O O8 0.262714 0.009976 0.569970
O O9 0.154926 0.908453 0.073996
O O10 0.857553 0.356500 0.122668
O O11 0.845453 0.375076 0.778814
O O12 0.654673 0.534509 0.901993
O O13 0.564885 0.671909 0.645182
O O14 0.621293 0.565429 0.171705
O O15 0.467609 0.681759 0.337280
O O16 0.500000 0.500000 0.000000
O O17 0.500000 0.500000 0.500000
#
# Coordination Sequence:
#
# PCOD9090860 Si02
#       8
#     2   2   2   2   2   2   2   2
#     4  11  24  43  61  88 127 165 215 240 305 380
#     4  10  21  37  64  90 117 163 204 256 312 351
#     4  10  19  39  60  91 120 153 211 254 299 367
#     4  11  25  41  62  89 127 171 199 257 303 363
#     4  10  21  39  60  93 126 152 210 259 302 361
#     4  10  21  35  64  93 122 156 199 264 305 348
#     4  12  22  38  65  91 121 164 203 254 306 364
#     4  10  22  37  59  98 125 149 203 260 313 360
#
# _framework density 21.370522999999999
#
# number of rings (size 3 to 8) (size 9 to 14) (size 15 to 20)
#    0.000    1.500    3.750    1.875    7.000    0.500 
#    0.000    2.500    0.000    0.000    0.000    0.000 
#    0.000    0.000    0.000    0.000    0.000    0.000 
#
# Total GULP energy -89286.460767 kJ/mol
# GULP energy per Si atom -5580.403798 kJ/mol
# Density = 2.132188 g / cm^3
# Si number density = 21.370523 Si / 1000 Ang^3
#
#
#
# Elastic Constant Matrix: (Units=GPa)
#
#
# Indices 1 2 3 4 5 6 
#
# 1 107.4301 28.6380 25.8419 -6.7901 -13.4141 -18.7464
# 2 28.6380 48.9807 30.8105 -23.8039 -3.3232 -8.9090
# 3 25.8419 30.8105 69.2727 -30.1311 -17.1787 -0.4969
# 4 -6.7901 -23.8039 -30.1311 30.0641 -2.4518 -5.5017
# 5 -13.4141 -3.3232 -17.1787 -2.4518 37.4630 -5.5954
# 6 -18.7464 -8.9090 -0.4969 -5.5017 -5.5954 24.3653
#
#
#
# Elastic Compliance Matrix: (Units=1/GPa)
#
#
# Indices 1 2 3 4 5 6 
#
# 1 0.013232 -0.004813 -0.001655 -0.000351 0.004939 0.009442
# 2 -0.004813 0.050828 0.003794 0.049221 0.012054 0.028842
# 3 -0.001655 0.003794 0.040497 0.048363 0.024076 0.017389
# 4 -0.000351 0.049221 0.048363 0.135085 0.044123 0.059349
# 5 0.004939 0.012054 0.024076 0.044123 0.047888 0.029659
# 6 0.009442 0.028842 0.017389 0.059349 0.029659 0.079419
#
#
# Mechanical properties :
#
#
# Convention : Reuss Voigt Hill
#
# Bulk Modulus (GPa) = 10.07981 44.02936 27.05459
# Shear Modulus (GPa) = 12.33447 27.73802 20.03625
#
# Velocity S-wave (km/s) = 2.40505 3.60663 3.06529
# Velocity P-wave (km/s) = 3.52693 6.16370 5.02148
#
# Compressibility (1/GPa) = 0.09920818
#
# Stress axis : x y z
#
# Youngs Moduli (GPa) = 75.57618 19.67412 24.69291
#
# Poissons Ratio (x) = 0.09469 0.04088
# Poissons Ratio (y) = 0.36375 -0.09368
# Poissons Ratio (z) = 0.12511 -0.07464
#
# Static dielectric constant tensor:
#      x y z
#    x 1.777580 0.009340 0.035880 
#    y 0.009340 1.848460 0.001070 
#    z 0.035880 0.001070 1.832040 
# 
# From -- ./inp_files/184930.got.cif
#   From: 2010.05.17/outbox.cif.g08.bks.cpg/sg2_93_cif.got.tgz:184930.got - 2010.06.03 11:33:40.
