data_PCOD9090682
_publ_section_title
;
Structure prediction by ZEFSAII (Michael W. Deem and Ramdas Pophale) SiO2 
 PCOD9090682
Probable space group: P -1
;
_chemical_formula_sum "Si O2"
_cell_formula_units_Z 12
_cell_length_a 9.951526
_cell_length_b 11.760692
_cell_length_c 8.900452
_cell_angle_alpha 131.850642
_cell_angle_beta 79.346344
_cell_angle_gamma 133.018352
_cell_volume 492.503328
_symmetry_space_group_name_H-M "P -1"
_symmetry_group_IT_number 2
_symmetry_cell_setting 'triclinic'
loop_
_space_group_symop_operation_xyz
x,y,z
-x,-y,-z
loop_
_atom_site_type_symbol
_atom_site_label
_atom_site_fract_x
_atom_site_fract_y
_atom_site_fract_z
Si Si1 0.242581 0.515344 0.231405
Si Si2 0.121675 0.949442 0.972825
Si Si3 0.770430 0.237077 0.767642
Si Si4 0.063724 0.226078 0.709853
Si Si5 0.528672 0.689338 0.582581
Si Si6 0.423143 0.728034 0.922810
O O1 0.293188 0.722882 0.331984
O O2 0.437708 0.615886 0.372113
O O3 0.769802 0.934588 0.783927
O O4 0.171305 0.353502 0.961519
O O5 0.957801 0.671653 0.779626
O O6 0.327720 0.100868 0.959124
O O7 0.000000 0.000000 0.000000
O O8 0.844866 0.130284 0.634782
O O9 0.628777 0.166993 0.876413
O O10 0.000000 0.500000 0.000000
O O11 0.251796 0.454812 0.767201
O O12 0.000000 0.000000 0.500000
O O13 0.500000 0.500000 0.500000
O O14 0.407060 0.712010 0.731150
#
# Coordination Sequence:
#
# PCOD9090682 Si02
#       6
#     2   2   2   2   2   2
#     4  10  19  38  69  99 139 180 217 282 334 395
#     4  10  20  35  64 102 141 177 225 271 333 396
#     4   8  18  42  64  93 138 182 220 281 336 408
#     4  10  22  41  71 100 132 178 232 283 340 401
#     4  10  20  35  63 102 143 170 230 272 329 391
#     4   8  19  37  64  96 142 173 224 273 333 406
#
# _framework density 24.365316
#
# number of rings (size 3 to 8) (size 9 to 14) (size 15 to 20)
#    1.000    2.000    1.667    0.000    2.333    0.000 
#    0.000   28.333   14.667    9.000    0.000    1.167 
#    0.000    0.167    0.000    0.000    0.000    0.000 
#
# Total GULP energy -66920.690828 kJ/mol
# GULP energy per Si atom -5576.724236 kJ/mol
# Density = 2.430986 g / cm^3
# Si number density = 24.365316 Si / 1000 Ang^3
#
#
#
# Elastic Constant Matrix: (Units=GPa)
#
#
# Indices 1 2 3 4 5 6 
#
# 1 165.5274 58.0070 60.1573 -16.0028 -5.1129 -9.5314
# 2 58.0070 130.3328 34.4213 8.9117 -5.6886 5.7360
# 3 60.1573 34.4213 95.4401 0.2789 13.2657 -10.6916
# 4 -16.0028 8.9117 0.2789 34.7513 -6.3653 1.4682
# 5 -5.1129 -5.6886 13.2657 -6.3653 52.4895 -6.8970
# 6 -9.5314 5.7360 -10.6916 1.4682 -6.8970 48.6682
#
#
#
# Elastic Compliance Matrix: (Units=1/GPa)
#
#
# Indices 1 2 3 4 5 6 
#
# 1 0.009864 -0.003340 -0.005267 0.005901 0.002828 0.001391
# 2 -0.003340 0.010009 -0.001787 -0.003919 0.000467 -0.002042
# 3 -0.005267 -0.001787 0.015324 -0.003032 -0.004688 0.001972
# 4 0.005901 -0.003919 -0.003032 0.033421 0.005056 0.000660
# 5 0.002828 0.000467 -0.004688 0.005056 0.021486 0.002361
# 6 0.001391 -0.002042 0.001972 0.000660 0.002361 0.021808
#
#
# Mechanical properties :
#
#
# Convention : Reuss Voigt Hill
#
# Bulk Modulus (GPa) = 69.40399 77.38572 73.39485
# Shear Modulus (GPa) = 36.36266 43.09610 39.72938
#
# Velocity S-wave (km/s) = 3.86734 4.21021 4.04241
# Velocity P-wave (km/s) = 6.96336 7.44742 7.20945
#
# Compressibility (1/GPa) = 0.01440839
#
# Stress axis : x y z
#
# Youngs Moduli (GPa) = 101.37805 99.90541 65.25844
#
# Poissons Ratio (x) = 0.33372 0.34373
# Poissons Ratio (y) = 0.33863 0.11661
# Poissons Ratio (z) = 0.53399 0.17851
#
# Static dielectric constant tensor:
#      x y z
#    x 2.010720 0.005700 -0.062720 
#    y 0.005700 2.105930 0.009690 
#    z -0.062720 0.009690 1.969990 
# 
# From -- ./inp_files/190746.got.cif
#   From: 2010.05.17/outbox.cif.g08.bks.cpg/sg2_96_cif.got.tgz:190746.got - 2010.06.03 11:33:40.
