data_PCOD9090332
_publ_section_title
;
Structure prediction by ZEFSAII (Michael W. Deem and Ramdas Pophale) SiO2 
 PCOD9090332
Probable space group: P -1
;
_chemical_formula_sum "Si O2"
_cell_formula_units_Z 16
_cell_length_a 8.765765
_cell_length_b 11.441908
_cell_length_c 17.032815
_cell_angle_alpha 134.654220
_cell_angle_beta 52.967703
_cell_angle_gamma 91.186197
_cell_volume 684.208343
_symmetry_space_group_name_H-M "P -1"
_symmetry_group_IT_number 2
_symmetry_cell_setting 'triclinic'
loop_
_space_group_symop_operation_xyz
x,y,z
-x,-y,-z
loop_
_atom_site_type_symbol
_atom_site_label
_atom_site_fract_x
_atom_site_fract_y
_atom_site_fract_z
Si Si1 0.801233 0.059329 0.520462
Si Si2 0.202193 0.532116 0.964573
Si Si3 0.827625 0.868104 0.805496
Si Si4 0.704162 0.628739 0.972280
Si Si5 0.730047 0.716501 0.420895
Si Si6 0.314000 0.373612 0.196922
Si Si7 0.854914 0.051689 0.323214
Si Si8 0.228865 0.175373 0.374225
O O1 0.929299 0.015934 0.375265
O O2 0.758971 0.889787 0.467291
O O3 0.498809 0.319987 0.737417
O O4 0.000000 0.000000 0.500000
O O5 0.259057 0.506347 0.028136
O O6 0.038725 0.791067 0.110267
O O7 0.000000 0.500000 0.000000
O O8 0.823567 0.725083 0.801151
O O9 0.739457 0.831453 0.733189
O O10 0.088062 0.814877 0.677348
O O11 0.608524 0.141311 0.025163
O O12 0.648500 0.585959 0.884172
O O13 0.000304 0.528773 0.816001
O O14 0.450712 0.901028 0.195328
O O15 0.455762 0.809504 0.518517
O O16 0.710181 0.735141 0.530955
O O17 0.099824 0.624734 0.421098
#
# Coordination Sequence:
#
# PCOD9090332 Si02
#       8
#     2   2   2   2   2   2   2   2
#     4  12  25  38  61  94 126 171 217 253 314 383
#     4  12  23  41  65  92 131 177 211 256 326 385
#     4  10  22  41  64  96 120 162 214 264 320 375
#     4  10  20  36  64  88 120 164 211 248 317 370
#     4  11  21  40  60  88 129 169 205 255 321 378
#     4   9  21  40  67  88 124 162 209 268 321 372
#     4  12  25  40  64  92 135 167 211 266 316 382
#     4  10  19  38  65  90 118 165 205 263 313 376
#
# _framework density 23.384689999999999
#
# number of rings (size 3 to 8) (size 9 to 14) (size 15 to 20)
#    0.000    1.250    3.750    2.250    1.750    4.500 
#    0.000    2.500    0.000   12.750    0.000    0.000 
#    0.000    0.000    0.000    0.000    0.000    0.000 
#
# Total GULP energy -89240.412583 kJ/mol
# GULP energy per Si atom -5577.525786 kJ/mol
# Density = 2.333147 g / cm^3
# Si number density = 23.384690 Si / 1000 Ang^3
#
#
#
# Elastic Constant Matrix: (Units=GPa)
#
#
# Indices 1 2 3 4 5 6 
#
# 1 74.8184 34.2093 31.7964 1.9691 -14.3357 19.3867
# 2 34.2093 73.8587 12.4488 -8.2594 -2.8993 19.1207
# 3 31.7964 12.4488 180.0114 7.7710 -21.0872 2.7103
# 4 1.9691 -8.2594 7.7710 33.5044 -7.1141 -5.1378
# 5 -14.3357 -2.8993 -21.0872 -7.1141 35.4376 -8.0163
# 6 19.3867 19.1207 2.7103 -5.1378 -8.0163 33.9240
#
#
#
# Elastic Compliance Matrix: (Units=1/GPa)
#
#
# Indices 1 2 3 4 5 6 
#
# 1 0.020378 -0.007438 -0.002382 -0.002613 0.004184 -0.006669
# 2 -0.007438 0.019034 -0.000343 0.003718 -0.002368 -0.006447
# 3 -0.002382 -0.000343 0.006356 -0.000506 0.003073 0.001696
# 4 -0.002613 0.003718 -0.000506 0.033482 0.007065 0.006179
# 5 0.004184 -0.002368 0.003073 0.007065 0.034770 0.007984
# 6 -0.006669 -0.006447 0.001696 0.006179 0.007984 0.039610
#
#
# Mechanical properties :
#
#
# Convention : Reuss Voigt Hill
#
# Bulk Modulus (GPa) = 39.30623 53.95529 46.63076
# Shear Modulus (GPa) = 27.40687 37.25546 32.33116
#
# Velocity S-wave (km/s) = 3.42716 3.99577 3.72234
# Velocity P-wave (km/s) = 5.70137 6.66417 6.20148
#
# Compressibility (1/GPa) = 0.02544126
#
# Stress axis : x y z
#
# Youngs Moduli (GPa) = 49.07363 52.53728 157.33483
#
# Poissons Ratio (x) = 0.39079 0.37471
# Poissons Ratio (y) = 0.36502 0.05401
# Poissons Ratio (z) = 0.11687 0.01804
#
# Static dielectric constant tensor:
#      x y z
#    x 1.914260 0.010330 0.004510 
#    y 0.010330 1.905070 -0.011500 
#    z 0.004510 -0.011500 1.931210 
# 
# From -- ./inp_files/528659.got.cif
#   From: 2010.05.17/outbox.cif.g08.bks.cpg/sg2_265_cif.got.tgz:528659.got - 2010.06.03 11:33:40.
