data_PCOD9090015
_publ_section_title
;
Structure prediction by ZEFSAII (Michael W. Deem and Ramdas Pophale) SiO2 
 PCOD9090015
Probable space group: P -1
;
_chemical_formula_sum "Si O2"
_cell_formula_units_Z 14
_cell_length_a 15.422010
_cell_length_b 14.814322
_cell_length_c 12.184895
_cell_angle_alpha 30.841809
_cell_angle_beta 28.002874
_cell_angle_gamma 30.721803
_cell_volume 607.482070
_symmetry_space_group_name_H-M "P -1"
_symmetry_group_IT_number 2
_symmetry_cell_setting 'triclinic'
loop_
_space_group_symop_operation_xyz
x,y,z
-x,-y,-z
loop_
_atom_site_type_symbol
_atom_site_label
_atom_site_fract_x
_atom_site_fract_y
_atom_site_fract_z
Si Si1 0.495898 0.229198 0.520098
Si Si2 0.927024 0.398549 0.094597
Si Si3 0.760758 0.988137 0.916466
Si Si4 0.855952 0.942398 0.296538
Si Si5 0.475689 0.415577 0.769498
Si Si6 0.915681 0.551025 0.718427
Si Si7 0.235272 0.178702 0.686207
O O1 0.409713 0.096736 0.822295
O O2 0.466758 0.420178 0.417084
O O3 0.380791 0.260635 0.498559
O O4 0.730404 0.101203 0.360445
O O5 0.005139 0.457867 0.833032
O O6 0.038493 0.165162 0.208567
O O7 0.684195 0.494697 0.246038
O O8 0.000000 0.500000 0.000000
O O9 0.789983 0.961546 0.044745
O O10 0.665668 0.210510 0.755014
O O11 0.960821 0.733800 0.453234
O O12 0.707804 0.912390 0.401837
O O13 0.000000 0.000000 0.000000
O O14 0.325813 0.381810 0.063226
O O15 0.020319 0.367481 0.714257
#
# Coordination Sequence:
#
# PCOD9090015 Si02
#       7
#     2   2   2   2   2   2   2
#     4  10  20  37  56  86 123 166 197 253 294 356
#     4   9  20  41  68  89 116 158 203 255 311 368
#     4   9  20  39  61  86 131 152 200 258 298 357
#     4  12  22  34  58  88 124 171 208 245 298 356
#     4  10  19  38  63  87 121 164 197 245 317 351
#     4   9  19  39  57  84 129 152 201 259 299 352
#     4   9  20  37  54  86 124 162 208 245 290 365
#
# _framework density 23.045949
#
# number of rings (size 3 to 8) (size 9 to 14) (size 15 to 20)
#    1.714    0.571    1.429    1.714    0.000    1.714 
#    0.000    2.857    0.000    4.286    0.000    0.000 
#    0.000    0.000    0.000    0.000    0.000    0.000 
#
# Total GULP energy -78054.380352 kJ/mol
# GULP energy per Si atom -5575.312882 kJ/mol
# Density = 2.299350 g / cm^3
# Si number density = 23.045949 Si / 1000 Ang^3
#
#
#
# Elastic Constant Matrix: (Units=GPa)
#
#
# Indices 1 2 3 4 5 6 
#
# 1 77.8160 44.8792 13.6332 -21.8439 -17.4667 5.4959
# 2 44.8792 183.6158 33.3177 -29.1308 2.2959 -2.3900
# 3 13.6332 33.3177 79.8308 -17.9435 1.7004 0.1218
# 4 -21.8439 -29.1308 -17.9435 37.7174 5.2761 -3.6073
# 5 -17.4667 2.2959 1.7004 5.2761 26.3539 -2.8331
# 6 5.4959 -2.3900 0.1218 -3.6073 -2.8331 25.0507
#
#
#
# Elastic Compliance Matrix: (Units=1/GPa)
#
#
# Indices 1 2 3 4 5 6 
#
# 1 0.019853 -0.003934 -0.000594 0.006259 0.012021 -0.002467
# 2 -0.003934 0.007274 -0.001556 0.003261 -0.003619 0.001625
# 3 -0.000594 -0.001556 0.014625 0.005781 -0.002307 0.000482
# 4 0.006259 0.003261 0.005781 0.036235 -0.003360 0.003748
# 5 0.012021 -0.003619 -0.002307 -0.003360 0.047252 0.001889
# 6 -0.002467 0.001625 0.000482 0.003748 0.001889 0.041366
#
#
# Mechanical properties :
#
#
# Convention : Reuss Voigt Hill
#
# Bulk Modulus (GPa) = 33.80258 58.32477 46.06368
# Shear Modulus (GPa) = 26.50606 34.45321 30.47964
#
# Velocity S-wave (km/s) = 3.39505 3.87069 3.64065
# Velocity P-wave (km/s) = 5.48341 6.73345 6.14032
#
# Compressibility (1/GPa) = 0.02958354
#
# Stress axis : x y z
#
# Youngs Moduli (GPa) = 50.36902 137.47851 68.37524
#
# Poissons Ratio (x) = 0.54086 0.04061
# Poissons Ratio (y) = 0.19816 0.10642
# Poissons Ratio (z) = 0.02991 0.21397
#
# Static dielectric constant tensor:
#      x y z
#    x 1.878960 -0.009090 -0.012390 
#    y -0.009090 2.007400 0.075150 
#    z -0.012390 0.075150 1.883490 
# 
# From -- ./inp_files/534035.got.cif
#   From: 2010.05.17/outbox.cif.g08.bks.cpg/sg2_268_cif.got.tgz:534035.got - 2010.06.03 11:33:40.
