data_PCOD9090326
_publ_section_title
;
Structure prediction by ZEFSAII (Michael W. Deem and Ramdas Pophale) SiO2 
 PCOD9090326
Probable space group: P -1
;
_chemical_formula_sum "Si O2"
_cell_formula_units_Z 14
_cell_length_a 5.207576
_cell_length_b 17.249990
_cell_length_c 9.323776
_cell_angle_alpha 116.267440
_cell_angle_beta 66.752670
_cell_angle_gamma 86.356613
_cell_volume 660.618104
_symmetry_space_group_name_H-M "P -1"
_symmetry_group_IT_number 2
_symmetry_cell_setting 'triclinic'
loop_
_space_group_symop_operation_xyz
x,y,z
-x,-y,-z
loop_
_atom_site_type_symbol
_atom_site_label
_atom_site_fract_x
_atom_site_fract_y
_atom_site_fract_z
Si Si1 0.999553 0.212331 0.278023
Si Si2 0.304156 0.279839 0.514357
Si Si3 0.554833 0.720030 0.916787
Si Si4 0.301715 0.438463 0.445658
Si Si5 0.612774 0.781297 0.250429
Si Si6 0.983334 0.119864 0.933904
Si Si7 0.214018 0.966995 0.557982
O O1 0.169168 0.215852 0.391721
O O2 0.123375 0.277819 0.201987
O O3 0.655262 0.249208 0.402924
O O4 0.051153 0.125749 0.091598
O O5 0.222279 0.378209 0.541271
O O6 0.228942 0.272429 0.690823
O O7 0.520826 0.633665 0.771067
O O8 0.527035 0.722854 0.096012
O O9 0.336252 0.813388 0.979017
O O10 0.500000 0.500000 0.500000
O O11 0.000000 0.500000 0.500000
O O12 0.335543 0.859415 0.436183
O O13 0.810208 0.833832 0.166079
O O14 0.049225 0.019272 0.775512
O O15 0.500000 0.000000 0.500000
O O16 0.000000 0.000000 0.500000
#
# Coordination Sequence:
#
# PCOD9090326 Si02
#       7
#     2   2   2   2   2   2   2
#     4  10  20  37  61  84 119 166 200 235 289 365
#     4  11  23  40  62  90 124 155 196 252 312 348
#     4  10  20  39  66  89 116 160 205 238 298 365
#     4  11  23  41  64  87 112 156 206 245 295 371
#     4  10  23  37  63  94 125 159 195 251 303 345
#     4  10  19  38  65  89 120 163 210 238 278 362
#     4  10  20  35  57  92 122 160 203 239 280 350
#
# _framework density 21.192274000000001
#
# number of rings (size 3 to 8) (size 9 to 14) (size 15 to 20)
#    0.000    1.714    4.286    1.714    4.000    0.000 
#    0.000    2.857    0.000    0.000    0.000    0.000 
#    0.000    0.000    0.000    0.000    0.000    0.000 
#
# Total GULP energy -78102.073739 kJ/mol
# GULP energy per Si atom -5578.719553 kJ/mol
# Density = 2.114404 g / cm^3
# Si number density = 21.192274 Si / 1000 Ang^3
#
#
#
# Elastic Constant Matrix: (Units=GPa)
#
#
# Indices 1 2 3 4 5 6 
#
# 1 136.4688 27.0671 42.1279 -3.7855 11.0674 -9.9712
# 2 27.0671 91.7009 50.2935 -17.6641 11.9285 -16.7957
# 3 42.1279 50.2935 112.4663 8.3622 37.6788 -4.2053
# 4 -3.7855 -17.6641 8.3622 17.7644 -7.8667 2.8751
# 5 11.0674 11.9285 37.6788 -7.8667 49.3237 -3.4481
# 6 -9.9712 -16.7957 -4.2053 2.8751 -3.4481 25.3661
#
#
#
# Elastic Compliance Matrix: (Units=1/GPa)
#
#
# Indices 1 2 3 4 5 6 
#
# 1 0.008961 0.002717 -0.006364 0.008695 0.003847 0.003804
# 2 0.002717 0.038516 -0.030156 0.060826 0.024068 0.017948
# 3 -0.006364 -0.030156 0.039813 -0.062362 -0.032563 -0.013227
# 4 0.008695 0.060826 -0.062362 0.170875 0.059777 0.022112
# 5 0.003847 0.024068 -0.032563 0.059777 0.048832 0.011913
# 6 0.003804 0.017948 -0.013227 0.022112 0.011913 0.049722
#
#
# Mechanical properties :
#
#
# Convention : Reuss Voigt Hill
#
# Bulk Modulus (GPa) = 50.80999 64.40144 57.60572
# Shear Modulus (GPa) = 11.60399 33.23400 22.41900
#
# Velocity S-wave (km/s) = 2.34253 3.96436 3.25604
# Velocity P-wave (km/s) = 5.59861 7.17008 6.43251
#
# Compressibility (1/GPa) = 0.01968117
#
# Stress axis : x y z
#
# Youngs Moduli (GPa) = 111.59878 25.96357 25.11772
#
# Poissons Ratio (x) = -0.07054 0.15986
# Poissons Ratio (y) = -0.30319 0.75745
# Poissons Ratio (z) = 0.71027 0.78296
#
# Static dielectric constant tensor:
#      x y z
#    x 1.799950 0.004110 0.015690 
#    y 0.004110 1.785910 -0.002790 
#    z 0.015690 -0.002790 1.827510 
# 
# From -- ./inp_files/39195.got.cif
#   From: 2010.05.17/outbox.cif.g08.bks.cpg/sg2_20_cif.got.tgz:39195.got - 2010.06.03 11:33:40.
