data_PCOD9090155
_publ_section_title
;
Structure prediction by ZEFSAII (Michael W. Deem and Ramdas Pophale) SiO2 
 PCOD9090155
Probable space group: P -1
;
_chemical_formula_sum "Si O2"
_cell_formula_units_Z 16
_cell_length_a 6.813169
_cell_length_b 8.475144
_cell_length_c 14.383259
_cell_angle_alpha 78.654904
_cell_angle_beta 54.296847
_cell_angle_gamma 80.010855
_cell_volume 659.454883
_symmetry_space_group_name_H-M "P -1"
_symmetry_group_IT_number 2
_symmetry_cell_setting 'triclinic'
loop_
_space_group_symop_operation_xyz
x,y,z
-x,-y,-z
loop_
_atom_site_type_symbol
_atom_site_label
_atom_site_fract_x
_atom_site_fract_y
_atom_site_fract_z
Si Si1 0.539335 0.705735 0.556822
Si Si2 0.183374 0.704234 0.025073
Si Si3 0.223332 0.933354 0.154140
Si Si4 0.982454 0.804073 0.697747
Si Si5 0.340170 0.267727 0.880335
Si Si6 0.985389 0.135054 0.587299
Si Si7 0.467356 0.653443 0.370660
Si Si8 0.649580 0.551122 0.839555
O O1 0.743090 0.823765 0.510231
O O2 0.570128 0.667930 0.443109
O O3 0.563886 0.533419 0.620185
O O4 0.267094 0.777499 0.639124
O O5 0.158408 0.856588 0.083607
O O6 0.219320 0.542022 0.098048
O O7 0.945271 0.707389 0.027032
O O8 0.439673 0.691594 0.903463
O O9 0.508490 0.886574 0.100068
O O10 0.085910 0.838465 0.285632
O O11 0.139744 0.116330 0.183701
O O12 0.861725 0.642040 0.722433
O O13 0.942311 0.946108 0.616604
O O14 0.370144 0.268449 0.760529
O O15 0.495376 0.414569 0.853183
O O16 0.792840 0.250343 0.573123
#
# Coordination Sequence:
#
# PCOD9090155 Si02
#       8
#     2   2   2   2   2   2   2   2
#     4  11  21  37  62  88 113 157 207 235 287 356
#     4  10  19  38  64  87 112 159 196 242 290 351
#     4   8  20  37  58  83 122 151 190 239 297 346
#     4  10  22  40  56  90 125 155 191 249 296 345
#     4  10  19  39  60  84 115 159 194 237 296 351
#     4   9  20  39  56  82 123 156 187 241 297 342
#     4  10  22  36  60  88 116 152 200 247 286 345
#     4  10  22  37  60  89 121 147 200 247 288 347
#
# _framework density 24.262464000000001
#
# number of rings (size 3 to 8) (size 9 to 14) (size 15 to 20)
#    0.750    1.500    0.000    2.625    0.000    7.000 
#    0.000    5.625    0.000    0.000    0.000    0.000 
#    0.000    0.000    0.000    0.000    0.000    0.000 
#
# Total GULP energy -89422.001571 kJ/mol
# GULP energy per Si atom -5588.875098 kJ/mol
# Density = 2.420724 g / cm^3
# Si number density = 24.262464 Si / 1000 Ang^3
#
#
#
# Elastic Constant Matrix: (Units=GPa)
#
#
# Indices 1 2 3 4 5 6 
#
# 1 88.2456 33.0553 26.7449 -12.6938 -28.2611 -4.0268
# 2 33.0553 83.3852 17.1349 -0.5720 -16.3635 0.5105
# 3 26.7449 17.1349 59.7123 -5.8631 -31.4037 -0.7198
# 4 -12.6938 -0.5720 -5.8631 40.4959 4.4183 0.9766
# 5 -28.2611 -16.3635 -31.4037 4.4183 44.0734 4.9134
# 6 -4.0268 0.5105 -0.7198 0.9766 4.9134 33.1326
#
#
#
# Elastic Compliance Matrix: (Units=1/GPa)
#
#
# Indices 1 2 3 4 5 6 
#
# 1 0.016568 -0.004777 -0.002004 0.004060 0.006916 0.000898
# 2 -0.004777 0.014476 -0.001320 -0.001639 0.001650 -0.001029
# 3 -0.002004 -0.001320 0.027611 0.001442 0.018015 -0.002337
# 4 0.004060 -0.001639 0.001442 0.026111 0.000436 -0.000284
# 5 0.006916 0.001650 0.018015 0.000436 0.041075 -0.004898
# 6 0.000898 -0.001029 -0.002337 -0.000284 -0.004898 0.030991
#
#
# Mechanical properties :
#
#
# Convention : Reuss Voigt Hill
#
# Bulk Modulus (GPa) = 23.55458 42.80149 33.17804
# Shear Modulus (GPa) = 26.71156 33.83425 30.27290
#
# Velocity S-wave (km/s) = 3.32164 3.73837 3.53615
# Velocity P-wave (km/s) = 4.94372 6.02604 5.51151
#
# Compressibility (1/GPa) = 0.04245459
#
# Stress axis : x y z
#
# Youngs Moduli (GPa) = 60.35614 69.07865 36.21763
#
# Poissons Ratio (x) = 0.32997 0.07256
# Poissons Ratio (y) = 0.28831 0.04781
# Poissons Ratio (z) = 0.12093 0.09119
#
# Static dielectric constant tensor:
#      x y z
#    x 1.930810 0.025390 0.093900 
#    y 0.025390 1.945260 0.042850 
#    z 0.093900 0.042850 2.002650 
# 
# From -- ./inp_files/582404.got.cif
#   From: 2010.05.17/outbox.cif.g08.bks.cpg/sg2_292_cif.got.tgz:582404.got - 2010.06.03 11:33:40.
