data_PCOD9090199
_publ_section_title
;
Structure prediction by ZEFSAII (Michael W. Deem and Ramdas Pophale) SiO2 
 PCOD9090199
Probable space group: P -1
;
_chemical_formula_sum "Si O2"
_cell_formula_units_Z 16
_cell_length_a 14.915802
_cell_length_b 14.163637
_cell_length_c 12.431817
_cell_angle_alpha 151.181116
_cell_angle_beta 47.815611
_cell_angle_gamma 142.214457
_cell_volume 773.755155
_symmetry_space_group_name_H-M "P -1"
_symmetry_group_IT_number 2
_symmetry_cell_setting 'triclinic'
loop_
_space_group_symop_operation_xyz
x,y,z
-x,-y,-z
loop_
_atom_site_type_symbol
_atom_site_label
_atom_site_fract_x
_atom_site_fract_y
_atom_site_fract_z
Si Si1 0.722860 0.116043 0.994467
Si Si2 0.666792 0.614299 0.586100
Si Si3 0.983081 0.477608 0.731236
Si Si4 0.755060 0.942905 0.445406
Si Si5 0.337317 0.440320 0.702043
Si Si6 0.129844 0.305299 0.305057
Si Si7 0.863959 0.759242 0.006908
Si Si8 0.423616 0.943711 0.174047
O O1 0.880566 0.342714 0.123833
O O2 0.590243 0.092258 0.146164
O O3 0.675344 0.085310 0.877949
O O4 0.719071 0.885213 0.799543
O O5 0.491518 0.465242 0.590973
O O6 0.705703 0.550217 0.376614
O O7 0.744173 0.601657 0.615279
O O8 0.047243 0.431511 0.526398
O O9 0.884054 0.219942 0.608705
O O10 0.896611 0.593659 0.883260
O O11 0.613698 0.945914 0.588854
O O12 0.770807 0.799429 0.385806
O O13 0.755835 0.808968 0.205246
O O14 0.374780 0.675377 0.967293
O O15 0.182136 0.339664 0.175048
O O16 0.015030 0.022326 0.135669
#
# Coordination Sequence:
#
# PCOD9090199 Si02
#       8
#     2   2   2   2   2   2   2   2
#     4  10  20  37  62  91 120 156 209 247 297 369
#     4  10  19  38  64  91 118 157 204 255 300 351
#     4  11  22  38  63  90 123 159 203 255 305 359
#     4  11  23  39  61  89 128 167 190 252 313 362
#     4  10  21  37  62  89 124 158 199 247 302 372
#     4  10  21  38  65  90 116 160 208 257 295 358
#     4  10  22  41  60  89 123 161 206 251 304 357
#     4  10  21  38  60  87 123 164 197 249 302 357
#
# _framework density 20.678376
#
# number of rings (size 3 to 8) (size 9 to 14) (size 15 to 20)
#    0.000    1.750    2.500    1.875    3.500    0.500 
#    0.000    6.875    0.000    2.250    0.000    0.000 
#    0.000    0.000    0.000    0.000    0.000    0.000 
#
# Total GULP energy -89371.261767 kJ/mol
# GULP energy per Si atom -5585.703860 kJ/mol
# Density = 2.063131 g / cm^3
# Si number density = 20.678376 Si / 1000 Ang^3
#
#
#
# Elastic Constant Matrix: (Units=GPa)
#
#
# Indices 1 2 3 4 5 6 
#
# 1 51.0294 3.0761 11.4760 -6.8642 -1.9894 -10.0203
# 2 3.0761 61.5313 27.0437 -3.4836 -6.5253 -18.9484
# 3 11.4760 27.0437 94.4701 -15.0651 -17.3221 -6.9918
# 4 -6.8642 -3.4836 -15.0651 41.2626 -0.5895 -5.5978
# 5 -1.9894 -6.5253 -17.3221 -0.5895 29.1832 3.7329
# 6 -10.0203 -18.9484 -6.9918 -5.5978 3.7329 13.2761
#
#
#
# Elastic Compliance Matrix: (Units=1/GPa)
#
#
# Indices 1 2 3 4 5 6 
#
# 1 0.030434 0.015243 -0.002979 0.011849 -0.002288 0.048797
# 2 0.015243 0.041683 -0.006640 0.013634 -0.002776 0.074029
# 3 -0.002979 -0.006640 0.014484 0.003707 0.007581 -0.004666
# 4 0.011849 0.013634 0.003707 0.034794 0.001038 0.044734
# 5 -0.002288 -0.002776 0.007581 0.001038 0.039596 -0.012392
# 6 0.048797 0.074029 -0.004666 0.044734 -0.012392 0.237700
#
#
# Mechanical properties :
#
#
# Convention : Reuss Voigt Hill
#
# Bulk Modulus (GPa) = 10.21985 32.24693 21.23339
# Shear Modulus (GPa) = 11.90308 27.77336 19.83822
#
# Velocity S-wave (km/s) = 2.40183 3.66882 3.10073
# Velocity P-wave (km/s) = 3.55594 5.79443 4.80729
#
# Compressibility (1/GPa) = 0.09784877
#
# Stress axis : x y z
#
# Youngs Moduli (GPa) = 32.85767 23.99081 69.04154
#
# Poissons Ratio (x) = -0.36569 0.20568
# Poissons Ratio (y) = -0.50085 0.45843
# Poissons Ratio (z) = 0.09788 0.15930
#
# Static dielectric constant tensor:
#      x y z
#    x 1.706940 -0.011820 -0.038090 
#    y -0.011820 1.759940 -0.013170 
#    z -0.038090 -0.013170 1.788170 
# 
# From -- ./inp_files/455993.got.cif
#   From: 2010.05.17/outbox.cif.g08.bks.cpg/sg2_228_cif.got.tgz:455993.got - 2010.06.03 11:33:40.
