data_PCOD9090703
_publ_section_title
;
Structure prediction by ZEFSAII (Michael W. Deem and Ramdas Pophale) SiO2 
 PCOD9090703
Probable space group: P -1
;
_chemical_formula_sum "Si O2"
_cell_formula_units_Z 12
_cell_length_a 6.878287
_cell_length_b 12.843030
_cell_length_c 9.507816
_cell_angle_alpha 117.037920
_cell_angle_beta 123.168530
_cell_angle_gamma 42.799761
_cell_volume 475.590034
_symmetry_space_group_name_H-M "P -1"
_symmetry_group_IT_number 2
_symmetry_cell_setting 'triclinic'
loop_
_space_group_symop_operation_xyz
x,y,z
-x,-y,-z
loop_
_atom_site_type_symbol
_atom_site_label
_atom_site_fract_x
_atom_site_fract_y
_atom_site_fract_z
Si Si1 0.990117 0.011850 0.211741
Si Si2 0.725486 0.918402 0.867189
Si Si3 0.882132 0.864978 0.415162
Si Si4 0.194627 0.571167 0.837560
Si Si5 0.353994 0.284006 0.637666
Si Si6 0.495536 0.577154 0.405874
O O1 0.302887 0.833977 0.238489
O O2 0.057301 0.086346 0.165046
O O3 0.971592 0.081721 0.398037
O O4 0.726502 0.012561 0.052573
O O5 0.906405 0.742034 0.869594
O O6 0.407194 0.006439 0.714153
O O7 0.767088 0.805206 0.444123
O O8 0.137148 0.720316 0.331551
O O9 0.160254 0.441384 0.746994
O O10 0.311995 0.555521 0.714983
O O11 0.500000 0.500000 0.000000
O O12 0.367923 0.336822 0.520320
O O13 0.500000 0.500000 0.500000
#
# Coordination Sequence:
#
# PCOD9090703 Si02
#       6
#     2   2   2   2   2   2
#     4  10  20  38  66  99 135 177 223 286 338 402
#     4  10  19  38  71  94 134 182 227 279 339 407
#     4  11  23  43  68 105 131 180 236 275 343 420
#     4  10  20  42  70  95 140 183 222 287 344 400
#     4   9  21  40  69  95 138 176 228 279 339 409
#     4  10  23  42  68 101 141 176 225 292 345 398
#
# _framework density 25.231816999999999
#
# number of rings (size 3 to 8) (size 9 to 14) (size 15 to 20)
#    1.000    1.000    1.667    3.000    0.000    1.333 
#    3.000    4.167    0.000    4.000    0.000    1.167 
#    0.000    0.000    0.000    0.000    0.000    0.000 
#
# Total GULP energy -67035.050127 kJ/mol
# GULP energy per Si atom -5586.254177 kJ/mol
# Density = 2.517439 g / cm^3
# Si number density = 25.231817 Si / 1000 Ang^3
#
#
#
# Elastic Constant Matrix: (Units=GPa)
#
#
# Indices 1 2 3 4 5 6 
#
# 1 107.6158 23.0127 36.3006 -0.3940 3.3431 20.4140
# 2 23.0127 170.3272 43.5457 -7.4883 16.1640 0.4077
# 3 36.3006 43.5457 136.1914 3.5714 16.6533 13.9356
# 4 -0.3940 -7.4883 3.5714 33.1921 -0.0752 5.7218
# 5 3.3431 16.1640 16.6533 -0.0752 39.7724 -5.6270
# 6 20.4140 0.4077 13.9356 5.7218 -5.6270 42.6032
#
#
#
# Elastic Compliance Matrix: (Units=1/GPa)
#
#
# Indices 1 2 3 4 5 6 
#
# 1 0.011137 -0.000857 -0.002188 0.001000 -0.000348 -0.004793
# 2 -0.000857 0.006684 -0.001775 0.001604 -0.001832 0.000470
# 3 -0.002188 -0.001775 0.009143 -0.001036 -0.003238 -0.002214
# 4 0.001000 0.001604 -0.001036 0.031384 -0.000877 -0.004486
# 5 -0.000348 -0.001832 -0.003238 -0.000877 0.027987 0.005058
# 6 -0.004793 0.000470 -0.002214 -0.004486 0.005058 0.027759
#
#
# Mechanical properties :
#
#
# Convention : Reuss Voigt Hill
#
# Bulk Modulus (GPa) = 57.72054 68.87247 63.29650
# Shear Modulus (GPa) = 38.60768 43.86523 41.23646
#
# Velocity S-wave (km/s) = 3.91592 4.17404 4.04704
# Velocity P-wave (km/s) = 6.58571 7.11234 6.85408
#
# Compressibility (1/GPa) = 0.01732486
#
# Stress axis : x y z
#
# Youngs Moduli (GPa) = 89.78915 149.61589 109.37475
#
# Poissons Ratio (x) = 0.12822 0.23928
# Poissons Ratio (y) = 0.07695 0.19412
# Poissons Ratio (z) = 0.19643 0.26554
#
# Static dielectric constant tensor:
#      x y z
#    x 1.989560 0.013290 -0.017070 
#    y 0.013290 1.965220 -0.001350 
#    z -0.017070 -0.001350 1.989550 
# 
# From -- ./inp_files/394438.got.cif
#   From: 2010.05.17/outbox.cif.g08.bks.cpg/sg2_198_cif.got.tgz:394438.got - 2010.06.03 11:33:40.
