data_PCOD9090116
_publ_section_title
;
Structure prediction by ZEFSAII (Michael W. Deem and Ramdas Pophale) SiO2 
 PCOD9090116
Probable space group: P -1
;
_chemical_formula_sum "Si O2"
_cell_formula_units_Z 14
_cell_length_a 15.515505
_cell_length_b 13.150561
_cell_length_c 12.046987
_cell_angle_alpha 130.879339
_cell_angle_beta 33.832908
_cell_angle_gamma 153.330438
_cell_volume 575.093962
_symmetry_space_group_name_H-M "P -1"
_symmetry_group_IT_number 2
_symmetry_cell_setting 'triclinic'
loop_
_space_group_symop_operation_xyz
x,y,z
-x,-y,-z
loop_
_atom_site_type_symbol
_atom_site_label
_atom_site_fract_x
_atom_site_fract_y
_atom_site_fract_z
Si Si1 0.937343 0.121272 0.484935
Si Si2 0.294974 0.970613 0.735316
Si Si3 0.171128 0.469202 0.911519
Si Si4 0.623284 0.799551 0.384184
Si Si5 0.643317 0.455849 0.826774
Si Si6 0.495831 0.406357 0.181059
Si Si7 0.990382 0.348236 0.781487
O O1 0.088466 0.334235 0.388305
O O2 0.178493 0.199969 0.334414
O O3 0.846010 0.146624 0.704157
O O4 0.732366 0.895306 0.460486
O O5 0.056524 0.740215 0.903948
O O6 0.500000 0.000000 0.500000
O O7 0.206713 0.984357 0.727287
O O8 0.457317 0.203368 0.795392
O O9 0.171109 0.629952 0.013036
O O10 0.455884 0.625601 0.774522
O O11 0.067554 0.338425 0.810582
O O12 0.624310 0.648122 0.232378
O O13 0.298829 0.606523 0.589600
O O14 0.500000 0.500000 0.000000
O O15 0.649220 0.438934 0.940535
#
# Coordination Sequence:
#
# PCOD9090116 Si02
#       7
#     2   2   2   2   2   2   2
#     4  10  21  40  67  93 133 171 207 268 328 387
#     4  12  22  40  70 103 126 173 222 271 329 394
#     4  11  24  42  70  90 137 170 220 273 325 386
#     4  11  22  42  71  93 137 166 218 271 334 378
#     4  10  19  38  63  97 137 161 216 271 324 386
#     4  10  23  40  64 102 129 170 215 272 326 392
#     4  10  23  49  60  95 132 179 214 270 327 393
#
# _framework density 24.34385
#
# number of rings (size 3 to 8) (size 9 to 14) (size 15 to 20)
#    0.000    1.429    5.714    0.857    4.000    4.571 
#    2.571    5.714    0.000    0.000    0.000    0.000 
#    0.000    0.000    0.000    0.000    0.000    0.000 
#
# Total GULP energy -78316.234473 kJ/mol
# GULP energy per Si atom -5594.016748 kJ/mol
# Density = 2.428844 g / cm^3
# Si number density = 24.343850 Si / 1000 Ang^3
#
#
#
# Elastic Constant Matrix: (Units=GPa)
#
#
# Indices 1 2 3 4 5 6 
#
# 1 148.7820 43.2881 27.4615 28.8178 34.2113 15.0640
# 2 43.2881 95.3782 22.9312 21.0081 8.2359 26.4270
# 3 27.4615 22.9312 65.2614 28.8239 26.3197 11.4898
# 4 28.8178 21.0081 28.8239 42.5704 4.2850 16.6051
# 5 34.2113 8.2359 26.3197 4.2850 49.1593 6.0040
# 6 15.0640 26.4270 11.4898 16.6051 6.0040 40.1512
#
#
#
# Elastic Compliance Matrix: (Units=1/GPa)
#
#
# Indices 1 2 3 4 5 6 
#
# 1 0.010151 -0.003584 0.002781 -0.006903 -0.007564 0.001741
# 2 -0.003584 0.014867 -0.003648 0.000384 0.002899 -0.007989
# 3 0.002781 -0.003648 0.030363 -0.020382 -0.016234 0.003526
# 4 -0.006903 0.000384 -0.020382 0.045342 0.013234 -0.012561
# 5 -0.007564 0.002899 -0.016234 0.013234 0.033253 -0.004870
# 6 0.001741 -0.007989 0.003526 -0.012561 -0.004870 0.034425
#
#
# Mechanical properties :
#
#
# Convention : Reuss Voigt Hill
#
# Bulk Modulus (GPa) = 21.51535 55.19813 38.35674
# Shear Modulus (GPa) = 25.93405 40.75891 33.34648
#
# Velocity S-wave (km/s) = 3.26747 4.09626 3.70511
# Velocity P-wave (km/s) = 4.80546 6.71536 5.83903
#
# Compressibility (1/GPa) = 0.04647844
#
# Stress axis : x y z
#
# Youngs Moduli (GPa) = 98.51392 67.26294 32.93456
#
# Poissons Ratio (x) = 0.24109 -0.09159
# Poissons Ratio (y) = 0.35311 0.12014
# Poissons Ratio (z) = -0.27395 0.24536
#
# Static dielectric constant tensor:
#      x y z
#    x 1.998690 0.021670 0.019200 
#    y 0.021670 1.993400 -0.021610 
#    z 0.019200 -0.021610 2.013460 
# 
# From -- ./inp_files/451750.got.cif
#   From: 2010.05.17/outbox.cif.g08.bks.cpg/sg2_226_cif.got.tgz:451750.got - 2010.06.03 11:33:40.
