data_PCOD9090517
_publ_section_title
;
Structure prediction by ZEFSAII (Michael W. Deem and Ramdas Pophale) SiO2 
 PCOD9090517
Probable space group: P -1
;
_chemical_formula_sum "Si O2"
_cell_formula_units_Z 16
_cell_length_a 8.153037
_cell_length_b 15.149803
_cell_length_c 9.797264
_cell_angle_alpha 56.550440
_cell_angle_beta 45.537003
_cell_angle_gamma 51.140792
_cell_volume 658.799901
_symmetry_space_group_name_H-M "P -1"
_symmetry_group_IT_number 2
_symmetry_cell_setting 'triclinic'
loop_
_space_group_symop_operation_xyz
x,y,z
-x,-y,-z
loop_
_atom_site_type_symbol
_atom_site_label
_atom_site_fract_x
_atom_site_fract_y
_atom_site_fract_z
Si Si1 0.957503 0.144532 0.672451
Si Si2 0.119691 0.796216 0.933053
Si Si3 0.663457 0.546000 0.467416
Si Si4 0.355117 0.001800 0.943976
Si Si5 0.875947 0.609135 0.818320
Si Si6 0.343799 0.625119 0.174049
Si Si7 0.179928 0.744145 0.630389
Si Si8 0.429676 0.137578 0.325166
O O1 0.828639 0.062371 0.865215
O O2 0.805565 0.265484 0.734712
O O3 0.915147 0.168435 0.514852
O O4 0.257175 0.099122 0.557570
O O5 0.114971 0.793637 0.775653
O O6 0.302895 0.860325 0.803792
O O7 0.243951 0.672149 0.041684
O O8 0.838703 0.868442 0.089230
O O9 0.500000 0.500000 0.500000
O O10 0.699739 0.480651 0.646421
O O11 0.479530 0.677395 0.489355
O O12 0.933590 0.503341 0.275439
O O13 0.538494 0.929662 0.779124
O O14 0.500000 0.000000 0.000000
O O15 0.743312 0.723479 0.704516
O O16 0.047568 0.653136 0.774356
O O17 0.640604 0.595390 0.034998
#
# Coordination Sequence:
#
# PCOD9090517 Si02
#       8
#     2   2   2   2   2   2   2   2
#     4  11  22  43  69  89 128 175 217 256 323 380
#     4  11  25  42  62  97 135 166 213 270 322 374
#     4  10  19  38  66  96 127 168 219 260 310 384
#     4  12  25  44  69  96 127 168 217 266 319 389
#     4   9  18  37  65  90 124 166 215 262 306 378
#     4  11  21  40  68  91 128 175 210 262 327 374
#     4  10  22  41  62  97 132 163 219 270 306 382
#     4  10  21  41  64  91 129 167 210 265 314 383
#
# _framework density 24.286583
#
# number of rings (size 3 to 8) (size 9 to 14) (size 15 to 20)
#    0.000    1.500    6.250    1.875    0.000    5.000 
#    2.250    2.500    0.000    0.000    0.000    0.000 
#    0.000    0.000    0.000    0.000    0.000    0.000 
#
# Total GULP energy -89471.599083 kJ/mol
# GULP energy per Si atom -5591.974943 kJ/mol
# Density = 2.423131 g / cm^3
# Si number density = 24.286583 Si / 1000 Ang^3
#
#
#
# Elastic Constant Matrix: (Units=GPa)
#
#
# Indices 1 2 3 4 5 6 
#
# 1 62.2884 15.4325 34.7194 17.0153 -9.9735 -12.7283
# 2 15.4325 52.0747 18.2250 18.5074 -12.3051 -27.8251
# 3 34.7194 18.2250 133.9818 32.8545 -8.4382 -10.9353
# 4 17.0153 18.5074 32.8545 46.2075 -15.8405 -6.4767
# 5 -9.9735 -12.3051 -8.4382 -15.8405 46.3162 5.3573
# 6 -12.7283 -27.8251 -10.9353 -6.4767 5.3573 30.5040
#
#
#
# Elastic Compliance Matrix: (Units=1/GPa)
#
#
# Indices 1 2 3 4 5 6 
#
# 1 0.020726 0.000397 -0.003932 -0.003419 0.001927 0.006536
# 2 0.000397 0.043702 -0.000056 -0.011198 0.003576 0.037004
# 3 -0.003932 -0.000056 0.009923 -0.005866 -0.001155 0.000823
# 4 -0.003419 -0.011198 -0.005866 0.032975 0.007429 -0.008047
# 5 0.001927 0.003576 -0.001155 0.007429 0.025193 0.000805
# 6 0.006536 0.037004 0.000823 -0.008047 0.000805 0.067709
#
#
# Mechanical properties :
#
#
# Convention : Reuss Voigt Hill
#
# Bulk Modulus (GPa) = 14.88789 42.78873 28.83831
# Shear Modulus (GPa) = 21.75811 36.60341 29.18076
#
# Velocity S-wave (km/s) = 2.99639 3.88641 3.47005
# Velocity P-wave (km/s) = 4.25612 6.14780 5.28725
#
# Compressibility (1/GPa) = 0.06716871
#
# Stress axis : x y z
#
# Youngs Moduli (GPa) = 48.24960 22.88210 100.77654
#
# Poissons Ratio (x) = -0.00908 0.39621
# Poissons Ratio (y) = -0.01914 0.00567
# Poissons Ratio (z) = 0.18969 0.00129
#
# Static dielectric constant tensor:
#      x y z
#    x 1.960930 -0.047270 -0.008360 
#    y -0.047270 1.997830 -0.017240 
#    z -0.008360 -0.017240 1.917590 
# 
# From -- ./inp_files/217258.got.cif
#   From: 2010.05.17/outbox.cif.g08.bks.cpg/sg2_109_cif.got.tgz:217258.got - 2010.06.03 11:33:40.
