data_PCOD9090208
_publ_section_title
;
Structure prediction by ZEFSAII (Michael W. Deem and Ramdas Pophale) SiO2 
 PCOD9090208
Probable space group: P -1
;
_chemical_formula_sum "Si O2"
_cell_formula_units_Z 16
_cell_length_a 11.385573
_cell_length_b 18.368437
_cell_length_c 22.284259
_cell_angle_alpha 29.170234
_cell_angle_beta 149.973618
_cell_angle_gamma 163.559480
_cell_volume 629.190644
_symmetry_space_group_name_H-M "P -1"
_symmetry_group_IT_number 2
_symmetry_cell_setting 'triclinic'
loop_
_space_group_symop_operation_xyz
x,y,z
-x,-y,-z
loop_
_atom_site_type_symbol
_atom_site_label
_atom_site_fract_x
_atom_site_fract_y
_atom_site_fract_z
Si Si1 0.881949 0.816563 0.954328
Si Si2 0.825169 0.728713 0.281309
Si Si3 0.235917 0.463756 0.322878
Si Si4 0.393966 0.487419 0.791389
Si Si5 0.351355 0.232112 0.589996
Si Si6 0.699422 0.389454 0.063058
Si Si7 0.487406 0.008575 0.166071
Si Si8 0.775969 0.271329 0.458767
O O1 0.762409 0.838483 0.947399
O O2 0.500000 0.500000 0.000000
O O3 0.942752 0.987160 0.814517
O O4 0.303414 0.948455 0.061991
O O5 0.472019 0.550552 0.303837
O O6 0.657719 0.614614 0.222803
O O7 0.103327 0.734510 0.419508
O O8 0.055730 0.207519 0.450582
O O9 0.532453 0.669947 0.360490
O O10 0.951375 0.453151 0.184877
O O11 0.469490 0.703235 0.663869
O O12 0.934813 0.238834 0.801219
O O13 0.740949 0.575957 0.918668
O O14 0.244327 0.000920 0.704644
O O15 0.795476 0.482788 0.568531
O O16 0.716498 0.274848 0.101827
O O17 0.500000 0.000000 0.500000
#
# Coordination Sequence:
#
# PCOD9090208 Si02
#       8
#     2   2   2   2   2   2   2   2
#     4  11  22  37  66  94 122 160 208 259 307 363
#     4  11  22  41  62  92 128 161 204 256 308 369
#     4  10  23  41  62  87 130 171 198 250 312 372
#     4  10  20  40  61  91 128 154 205 265 306 359
#     4   9  21  43  61  84 132 163 208 252 304 374
#     4  11  21  38  65  91 121 168 205 249 316 370
#     4  10  19  38  64  92 118 163 208 259 304 357
#     4  10  23  37  66  96 117 159 212 264 304 354
#
# _framework density 25.429496
#
# number of rings (size 3 to 8) (size 9 to 14) (size 15 to 20)
#    0.000    1.750    2.500    1.875    7.000    1.000 
#    0.000    6.250    0.000    0.000    0.000    0.000 
#    0.000    0.000    0.000    0.000    0.000    0.000 
#
# Total GULP energy -89403.781617 kJ/mol
# GULP energy per Si atom -5587.736351 kJ/mol
# Density = 2.537162 g / cm^3
# Si number density = 25.429496 Si / 1000 Ang^3
#
#
#
# Elastic Constant Matrix: (Units=GPa)
#
#
# Indices 1 2 3 4 5 6 
#
# 1 80.4163 14.7024 53.1012 3.6885 16.0301 -4.6947
# 2 14.7024 53.3471 52.2511 -6.8911 7.2403 -7.9567
# 3 53.1012 52.2511 255.5384 -0.7704 20.2149 -18.7409
# 4 3.6885 -6.8911 -0.7704 30.9686 -17.6444 10.3815
# 5 16.0301 7.2403 20.2149 -17.6444 38.7386 -2.2080
# 6 -4.6947 -7.9567 -18.7409 10.3815 -2.2080 29.7480
#
#
#
# Elastic Compliance Matrix: (Units=1/GPa)
#
#
# Indices 1 2 3 4 5 6 
#
# 1 0.016613 -0.001905 -0.002129 -0.008762 -0.009219 0.003144
# 2 -0.001905 0.024577 -0.004616 0.005885 0.001364 0.001412
# 3 -0.002129 -0.004616 0.005693 -0.002972 -0.002417 0.002873
# 4 -0.008762 0.005885 -0.002972 0.057878 0.029316 -0.019704
# 5 -0.009219 0.001364 -0.002417 0.029316 0.043439 -0.009619
# 6 0.003144 0.001412 0.002873 -0.019704 -0.009619 0.042462
#
#
# Mechanical properties :
#
#
# Convention : Reuss Voigt Hill
#
# Bulk Modulus (GPa) = 33.80397 69.93458 51.86928
# Shear Modulus (GPa) = 22.95448 37.84083 30.39766
#
# Velocity S-wave (km/s) = 3.00771 3.86173 3.46116
# Velocity P-wave (km/s) = 5.03824 6.88804 6.03444
#
# Compressibility (1/GPa) = 0.02958232
#
# Stress axis : x y z
#
# Youngs Moduli (GPa) = 60.19518 40.68828 175.66644
#
# Poissons Ratio (x) = 0.07749 0.37403
# Poissons Ratio (y) = 0.11465 0.81091
# Poissons Ratio (z) = 0.12817 0.18783
#
# Static dielectric constant tensor:
#      x y z
#    x 2.017640 0.041080 -0.003470 
#    y 0.041080 2.032140 0.009990 
#    z -0.003470 0.009990 2.156740 
# 
# From -- ./inp_files/239694.got.cif
#   From: 2010.05.17/outbox.cif.g08.bks.cpg/sg2_120_cif.got.tgz:239694.got - 2010.06.03 11:33:40.
