data_PCOD9090033
_publ_section_title
;
Structure prediction by ZEFSAII (Michael W. Deem and Ramdas Pophale) SiO2 
 PCOD9090033
Probable space group: P -1
;
_chemical_formula_sum "Si O2"
_cell_formula_units_Z 16
_cell_length_a 14.443195
_cell_length_b 9.412327
_cell_length_c 11.955588
_cell_angle_alpha 142.731926
_cell_angle_beta 46.999926
_cell_angle_gamma 112.417875
_cell_volume 670.295323
_symmetry_space_group_name_H-M "P -1"
_symmetry_group_IT_number 2
_symmetry_cell_setting 'triclinic'
loop_
_space_group_symop_operation_xyz
x,y,z
-x,-y,-z
loop_
_atom_site_type_symbol
_atom_site_label
_atom_site_fract_x
_atom_site_fract_y
_atom_site_fract_z
Si Si1 0.022237 0.723736 0.262224
Si Si2 0.203987 0.979470 0.806822
Si Si3 0.614359 0.775010 0.510225
Si Si4 0.796713 0.522101 0.408897
Si Si5 0.229879 0.468141 0.107488
Si Si6 0.150821 0.014687 0.624072
Si Si7 0.507820 0.635269 0.288986
Si Si8 0.424336 0.163022 0.058552
O O1 0.916875 0.611842 0.331180
O O2 0.164971 0.549282 0.087226
O O3 0.979693 0.786734 0.207958
O O4 0.000000 0.000000 0.500000
O O5 0.174289 0.766502 0.766934
O O6 0.126510 0.030204 0.784883
O O7 0.360995 0.852522 0.555670
O O8 0.182342 0.245755 0.048926
O O9 0.689106 0.601178 0.444397
O O10 0.577481 0.632842 0.349611
O O11 0.719454 0.910486 0.470942
O O12 0.471430 0.974489 0.798595
O O13 0.727394 0.686586 0.679480
O O14 0.184355 0.726405 0.376048
O O15 0.391153 0.349449 0.881277
O O16 0.485602 0.377793 0.124413
O O17 0.500000 0.000000 0.000000
#
# Coordination Sequence:
#
# PCOD9090033 Si02
#       8
#     2   2   2   2   2   2   2   2
#     4   9  21  42  69  86 114 162 218 253 286 362
#     4  11  24  38  59  94 133 155 194 256 309 367
#     4  10  19  38  63  88 124 161 206 244 296 366
#     4   9  21  40  58  91 126 158 200 257 303 354
#     4  11  22  39  65  89 123 163 204 251 299 356
#     4  10  21  40  63  92 119 160 210 248 296 359
#     4  11  22  37  60  97 125 155 207 246 300 369
#     4   9  19  34  59  85 125 159 189 254 305 345
#
# _framework density 23.870076000000001
#
# number of rings (size 3 to 8) (size 9 to 14) (size 15 to 20)
#    0.000    2.000    2.500    0.375    1.750    8.000 
#    0.000    3.750    0.000    0.000    0.000    0.000 
#    0.000    0.000    0.000    0.000    0.000    0.000 
#
# Total GULP energy -89479.289203 kJ/mol
# GULP energy per Si atom -5592.455575 kJ/mol
# Density = 2.381575 g / cm^3
# Si number density = 23.870076 Si / 1000 Ang^3
#
#
#
# Elastic Constant Matrix: (Units=GPa)
#
#
# Indices 1 2 3 4 5 6 
#
# 1 67.9322 27.4048 14.1768 -6.1481 -8.4004 -10.6879
# 2 27.4048 141.0057 44.7923 36.4140 7.4870 -5.0661
# 3 14.1768 44.7923 86.4025 4.0778 2.4986 14.7510
# 4 -6.1481 36.4140 4.0778 25.6821 -4.8592 2.4596
# 5 -8.4004 7.4870 2.4986 -4.8592 23.7136 1.5988
# 6 -10.6879 -5.0661 14.7510 2.4596 1.5988 26.9451
#
#
#
# Elastic Compliance Matrix: (Units=1/GPa)
#
#
# Indices 1 2 3 4 5 6 
#
# 1 0.025208 -0.012707 -0.000052 0.027118 0.018229 0.004082
# 2 -0.012707 0.024996 -0.010047 -0.041757 -0.020578 0.010192
# 3 -0.000052 -0.010047 0.018308 0.013544 0.004907 -0.013460
# 4 0.027118 -0.041757 0.013544 0.112801 0.045658 -0.017515
# 5 0.018229 -0.020578 0.004907 0.045658 0.064457 -0.007317
# 6 0.004082 0.010192 -0.013460 -0.017515 -0.007317 0.050049
#
#
# Mechanical properties :
#
#
# Convention : Reuss Voigt Hill
#
# Bulk Modulus (GPa) = 43.67184 52.00978 47.84081
# Shear Modulus (GPa) = 14.32399 29.19928 21.76164
#
# Velocity S-wave (km/s) = 2.45231 3.50131 3.02266
# Velocity P-wave (km/s) = 5.13360 6.17912 5.68046
#
# Compressibility (1/GPa) = 0.02289805
#
# Stress axis : x y z
#
# Youngs Moduli (GPa) = 39.66951 40.00720 54.62126
#
# Poissons Ratio (x) = 0.50837 0.00287
# Poissons Ratio (y) = 0.50408 0.54880
# Poissons Ratio (z) = 0.00208 0.40197
#
# Static dielectric constant tensor:
#      x y z
#    x 1.957510 -0.031210 -0.039250 
#    y -0.031210 1.761170 -0.079010 
#    z -0.039250 -0.079010 1.865250 
# 
# From -- ./inp_files/448292.got.cif
#   From: 2010.05.17/outbox.cif.g08.bks.cpg/sg2_225_cif.got.tgz:448292.got - 2010.06.03 11:33:40.
