data_PCOD9090040
_publ_section_title
;
Structure prediction by ZEFSAII (Michael W. Deem and Ramdas Pophale) SiO2 
 PCOD9090040
Probable space group: P -1
;
_chemical_formula_sum "Si O2"
_cell_formula_units_Z 14
_cell_length_a 8.514580
_cell_length_b 10.036670
_cell_length_c 11.391046
_cell_angle_alpha 117.139447
_cell_angle_beta 123.526703
_cell_angle_gamma 83.633033
_cell_volume 708.980129
_symmetry_space_group_name_H-M "P -1"
_symmetry_group_IT_number 2
_symmetry_cell_setting 'triclinic'
loop_
_space_group_symop_operation_xyz
x,y,z
-x,-y,-z
loop_
_atom_site_type_symbol
_atom_site_label
_atom_site_fract_x
_atom_site_fract_y
_atom_site_fract_z
Si Si1 0.975528 0.081006 0.189059
Si Si2 0.747175 0.247441 0.998778
Si Si3 0.715192 0.572671 0.152465
Si Si4 0.304301 0.912576 0.323214
Si Si5 0.333862 0.121177 0.853764
Si Si6 0.053619 0.350883 0.514725
Si Si7 0.156898 0.890040 0.507106
O O1 0.031835 0.222905 0.357036
O O2 0.796619 0.962533 0.127515
O O3 0.904631 0.152914 0.071404
O O4 0.169785 0.014532 0.244579
O O5 0.679427 0.208671 0.820991
O O6 0.561190 0.191693 0.984996
O O7 0.819515 0.429795 0.113909
O O8 0.756680 0.733567 0.166523
O O9 0.746251 0.612484 0.318556
O O10 0.500000 0.500000 0.000000
O O11 0.191954 0.858465 0.374446
O O12 0.500000 0.000000 0.500000
O O13 0.323666 0.993419 0.694887
O O14 0.000000 0.500000 0.500000
O O15 0.908771 0.270768 0.522369
O O16 0.000000 0.000000 0.500000
#
# Coordination Sequence:
#
# PCOD9090040 Si02
#       7
#     2   2   2   2   2   2   2
#     4  11  22  39  62  88 118 158 200 246 289 349
#     4  11  23  36  59  92 124 153 190 249 305 341
#     4  10  20  34  56  90 119 148 192 240 291 350
#     4  12  23  38  61  87 121 157 202 244 294 356
#     4  10  19  38  63  89 114 154 207 239 282 355
#     4  11  20  37  64  88 113 150 202 248 294 339
#     4  11  19  38  66  85 108 160 208 240 284 357
#
# _framework density 19.746673999999999
#
# number of rings (size 3 to 8) (size 9 to 14) (size 15 to 20)
#    0.000    1.143    7.143    0.857    2.000    0.000 
#    0.000    2.857    0.000    0.857    0.000    0.000 
#    0.000    0.000    0.000    0.000    0.000    0.000 
#
# Total GULP energy -77935.064706 kJ/mol
# GULP energy per Si atom -5566.790336 kJ/mol
# Density = 1.970173 g / cm^3
# Si number density = 19.746674 Si / 1000 Ang^3
#
#
#
# Elastic Constant Matrix: (Units=GPa)
#
#
# Indices 1 2 3 4 5 6 
#
# 1 40.5162 21.1189 21.5712 2.3699 1.8281 0.0788
# 2 21.1189 145.6306 37.9595 2.6087 2.5125 4.6078
# 3 21.5712 37.9595 113.1413 -4.0064 -4.0917 14.5601
# 4 2.3699 2.6087 -4.0064 34.0201 1.2270 4.7011
# 5 1.8281 2.5125 -4.0917 1.2270 29.0175 -5.0477
# 6 0.0788 4.6078 14.5601 4.7011 -5.0477 17.5886
#
#
#
# Elastic Compliance Matrix: (Units=1/GPa)
#
#
# Indices 1 2 3 4 5 6 
#
# 1 0.029373 -0.002924 -0.005511 -0.003213 -0.001247 0.005698
# 2 -0.002924 0.007870 -0.002079 -0.000556 -0.000840 -0.000420
# 3 -0.005511 -0.002079 0.012029 0.003358 0.000307 -0.010198
# 4 -0.003213 -0.000556 0.003358 0.031796 -0.002689 -0.011890
# 5 -0.001247 -0.000840 0.000307 -0.002689 0.036724 0.011229
# 6 0.005698 -0.000420 -0.010198 -0.011890 0.011229 0.071782
#
#
# Mechanical properties :
#
#
# Convention : Reuss Voigt Hill
#
# Bulk Modulus (GPa) = 35.40616 51.17637 43.29126
# Shear Modulus (GPa) = 22.72540 30.70114 26.71327
#
# Velocity S-wave (km/s) = 3.39609 3.94731 3.68203
# Velocity P-wave (km/s) = 5.77469 6.83723 6.32830
#
# Compressibility (1/GPa) = 0.02824367
#
# Stress axis : x y z
#
# Youngs Moduli (GPa) = 34.04469 127.05799 83.13116
#
# Poissons Ratio (x) = 0.37155 0.45815
# Poissons Ratio (y) = 0.09956 0.17283
# Poissons Ratio (z) = 0.18763 0.26416
#
# Static dielectric constant tensor:
#      x y z
#    x 1.777460 -0.013950 0.035330 
#    y -0.013950 1.720720 -0.010340 
#    z 0.035330 -0.010340 1.776050 
# 
# From -- ./inp_files/262901.got.cif
#   From: 2010.05.17/outbox.cif.g08.bks.cpg/sg2_132_cif.got.tgz:262901.got - 2010.06.03 11:33:40.
