data_PCOD9090026
_publ_section_title
;
Structure prediction by ZEFSAII (Michael W. Deem and Ramdas Pophale) SiO2 
 PCOD9090026
Probable space group: P -1
;
_chemical_formula_sum "Si O2"
_cell_formula_units_Z 14
_cell_length_a 11.212633
_cell_length_b 13.822098
_cell_length_c 11.634371
_cell_angle_alpha 41.738531
_cell_angle_beta 35.840910
_cell_angle_gamma 50.811219
_cell_volume 701.189453
_symmetry_space_group_name_H-M "P -1"
_symmetry_group_IT_number 2
_symmetry_cell_setting 'triclinic'
loop_
_space_group_symop_operation_xyz
x,y,z
-x,-y,-z
loop_
_atom_site_type_symbol
_atom_site_label
_atom_site_fract_x
_atom_site_fract_y
_atom_site_fract_z
Si Si1 0.307043 0.903057 0.752977
Si Si2 0.368224 0.574676 0.932687
Si Si3 0.709122 0.604369 0.063426
Si Si4 0.594665 0.141461 0.848207
Si Si5 0.815737 0.397938 0.372087
Si Si6 0.981642 0.438062 0.441118
Si Si7 0.921897 0.110853 0.812271
O O1 0.373684 0.747291 0.782813
O O2 0.500000 0.000000 0.500000
O O3 0.225809 0.880821 0.967117
O O4 0.103721 0.986133 0.785741
O O5 0.399582 0.495532 0.856361
O O6 0.500000 0.500000 0.000000
O O7 0.140433 0.535712 0.170469
O O8 0.579645 0.756521 0.042316
O O9 0.727143 0.520520 0.245316
O O10 0.942658 0.628558 0.822020
O O11 0.697342 0.251416 0.582391
O O12 0.774841 0.091357 0.838324
O O13 0.500000 0.000000 0.000000
O O14 0.805496 0.441062 0.477710
O O15 0.023160 0.264882 0.580715
O O16 0.000000 0.500000 0.500000
#
# Coordination Sequence:
#
# PCOD9090026 Si02
#       7
#     2   2   2   2   2   2   2
#     4  11  23  41  60  94 128 162 206 260 326 375
#     4  11  22  37  65  91 121 165 207 258 315 373
#     4  10  22  42  62  91 126 160 219 265 306 379
#     4  11  24  41  63  91 126 171 209 257 321 378
#     4   9  22  41  63  90 123 165 215 265 308 372
#     4  10  19  38  63  88 119 163 209 256 311 365
#     4  10  23  41  60  90 129 160 212 264 307 383
#
# _framework density 19.966073000000002
#
# number of rings (size 3 to 8) (size 9 to 14) (size 15 to 20)
#    0.000    1.714    1.429    2.143    2.000    7.429 
#    0.000    0.000    0.000    0.000    0.000    0.000 
#    0.000    0.000    0.000    0.000    0.000    0.000 
#
# Total GULP energy -77998.055934 kJ/mol
# GULP energy per Si atom -5571.289710 kJ/mol
# Density = 1.992063 g / cm^3
# Si number density = 19.966073 Si / 1000 Ang^3
#
#
#
# Elastic Constant Matrix: (Units=GPa)
#
#
# Indices 1 2 3 4 5 6 
#
# 1 101.8356 63.0208 20.8909 -24.7229 2.6753 7.3036
# 2 63.0208 135.0894 48.7646 -24.5636 -12.4642 12.1616
# 3 20.8909 48.7646 110.0273 -17.3786 -21.7757 10.4069
# 4 -24.7229 -24.5636 -17.3786 42.7603 7.3071 -9.0016
# 5 2.6753 -12.4642 -21.7757 7.3071 36.1864 -2.3706
# 6 7.3036 12.1616 10.4069 -9.0016 -2.3706 25.0412
#
#
#
# Elastic Compliance Matrix: (Units=1/GPa)
#
#
# Indices 1 2 3 4 5 6 
#
# 1 0.015438 -0.006561 -0.000023 0.006023 -0.004604 0.000423
# 2 -0.006561 0.012272 -0.003370 0.001057 0.002337 -0.002045
# 3 -0.000023 -0.003370 0.012179 0.001535 0.005707 -0.002326
# 4 0.006023 0.001057 0.001535 0.030525 -0.004823 0.007609
# 5 -0.004604 0.002337 0.005707 -0.004823 0.033138 -0.000760
# 6 0.000423 -0.002045 -0.002326 0.007609 -0.000760 0.044433
#
#
# Mechanical properties :
#
#
# Convention : Reuss Voigt Hill
#
# Bulk Modulus (GPa) = 50.05256 68.03386 59.04321
# Shear Modulus (GPa) = 28.64439 35.08264 31.86352
#
# Velocity S-wave (km/s) = 3.79179 4.19634 3.99918
# Velocity P-wave (km/s) = 6.65533 7.59129 7.13867
#
# Compressibility (1/GPa) = 0.01997900
#
# Stress axis : x y z
#
# Youngs Moduli (GPa) = 64.77654 81.48750 82.10982
#
# Poissons Ratio (x) = 0.53466 0.00189
# Poissons Ratio (y) = 0.42501 0.27675
# Poissons Ratio (z) = 0.00149 0.27465
#
# Static dielectric constant tensor:
#      x y z
#    x 1.735110 0.041470 0.024050 
#    y 0.041470 1.742710 0.045430 
#    z 0.024050 0.045430 1.728460 
# 
# From -- ./inp_files/424836.got.cif
#   From: 2010.05.17/outbox.cif.g08.bks.cpg/sg2_213_cif.got.tgz:424836.got - 2010.06.03 11:33:40.
