data_PCOD9090163
_publ_section_title
;
Structure prediction by ZEFSAII (Michael W. Deem and Ramdas Pophale) SiO2 
 PCOD9090163
Probable space group: P -1
;
_chemical_formula_sum "Si O2"
_cell_formula_units_Z 14
_cell_length_a 12.149662
_cell_length_b 8.206585
_cell_length_c 20.761660
_cell_angle_alpha 34.071365
_cell_angle_beta 151.847542
_cell_angle_gamma 145.227068
_cell_volume 513.669961
_symmetry_space_group_name_H-M "P -1"
_symmetry_group_IT_number 2
_symmetry_cell_setting 'triclinic'
loop_
_space_group_symop_operation_xyz
x,y,z
-x,-y,-z
loop_
_atom_site_type_symbol
_atom_site_label
_atom_site_fract_x
_atom_site_fract_y
_atom_site_fract_z
Si Si1 0.355203 0.643604 0.190163
Si Si2 0.026548 0.078956 0.264725
Si Si3 0.444324 0.775391 0.342557
Si Si4 0.888459 0.475998 0.166557
Si Si5 0.249302 0.638939 0.539860
Si Si6 0.898766 0.273278 0.377792
Si Si7 0.579635 0.807607 0.048324
O O1 0.092718 0.374895 0.155312
O O2 0.448640 0.724095 0.284899
O O3 0.527995 0.487645 0.291497
O O4 0.352690 0.955169 0.054103
O O5 0.938611 0.183570 0.252281
O O6 0.274645 0.997680 0.431739
O O7 0.825628 0.801771 0.212551
O O8 0.500000 0.500000 0.500000
O O9 0.157542 0.742861 0.217798
O O10 0.661558 0.104639 0.356557
O O11 0.820530 0.401854 0.229841
O O12 0.654141 0.482837 0.001202
O O13 0.000000 0.500000 0.500000
O O14 0.144391 0.508803 0.458744
O O15 0.000000 0.000000 0.500000
O O16 0.500000 0.000000 0.000000
#
# Coordination Sequence:
#
# PCOD9090163 Si02
#       7
#     2   2   2   2   2   2   2
#     4  11  21  38  63  92 121 162 209 249 299 372
#     4  10  23  38  61  94 123 159 200 259 308 355
#     4  11  21  33  63  95 116 154 210 254 293 356
#     4  10  20  38  62  85 117 158 208 245 291 365
#     4  12  24  38  59  90 129 159 196 259 318 352
#     4  12  20  38  60  85 124 161 204 242 304 365
#     4  10  19  38  64  88 121 162 207 249 298 362
#
# _framework density 27.254854000000002
#
# number of rings (size 3 to 8) (size 9 to 14) (size 15 to 20)
#    0.000    1.143    4.286    3.429    2.000    0.000 
#    2.571    0.714    0.000    0.857    0.000    0.000 
#    0.000    0.000    0.000    0.000    0.000    0.000 
#
# Total GULP energy -78267.047202 kJ/mol
# GULP energy per Si atom -5590.503372 kJ/mol
# Density = 2.719282 g / cm^3
# Si number density = 27.254854 Si / 1000 Ang^3
#
#
#
# Elastic Constant Matrix: (Units=GPa)
#
#
# Indices 1 2 3 4 5 6 
#
# 1 88.7239 5.7912 16.7877 4.5522 -17.8747 14.8118
# 2 5.7912 111.8263 15.1264 29.5695 -11.5449 26.2755
# 3 16.7877 15.1264 101.0331 12.0223 -5.5818 9.5727
# 4 4.5522 29.5695 12.0223 50.3719 0.2293 1.3337
# 5 -17.8747 -11.5449 -5.5818 0.2293 50.2045 1.3778
# 6 14.8118 26.2755 9.5727 1.3337 1.3778 46.3647
#
#
#
# Elastic Compliance Matrix: (Units=1/GPa)
#
#
# Indices 1 2 3 4 5 6 
#
# 1 0.013411 0.001678 -0.001514 -0.001726 0.005138 -0.005026
# 2 0.001678 0.013141 -0.000394 -0.007583 0.003824 -0.007797
# 3 -0.001514 -0.000394 0.010632 -0.002134 0.000602 -0.001445
# 4 -0.001726 -0.007583 -0.002134 0.024858 -0.002837 0.004658
# 5 0.005138 0.003824 0.000602 -0.002837 0.022831 -0.004530
# 6 -0.005026 -0.007797 -0.001445 0.004658 -0.004530 0.027891
#
#
# Mechanical properties :
#
#
# Convention : Reuss Voigt Hill
#
# Bulk Modulus (GPa) = 27.23054 41.88822 34.55938
# Shear Modulus (GPa) = 39.85145 46.98010 43.41578
#
# Velocity S-wave (km/s) = 3.82799 4.15629 3.99551
# Velocity P-wave (km/s) = 5.43606 6.19963 5.83036
#
# Compressibility (1/GPa) = 0.03672348
#
# Stress axis : x y z
#
# Youngs Moduli (GPa) = 74.56821 76.09949 94.05226
#
# Poissons Ratio (x) = -0.12769 0.14241
# Poissons Ratio (y) = -0.12512 0.03705
# Poissons Ratio (z) = 0.11291 0.02997
#
# Static dielectric constant tensor:
#      x y z
#    x 2.159940 0.020040 0.056450 
#    y 0.020040 2.250160 0.035060 
#    z 0.056450 0.035060 2.201840 
# 
# From -- ./inp_files/188609.got.cif
#   From: 2010.05.17/outbox.cif.g08.bks.cpg/sg2_95_cif.got.tgz:188609.got - 2010.06.03 11:33:40.
