data_PCOD9090211
_publ_section_title
;
Structure prediction by ZEFSAII (Michael W. Deem and Ramdas Pophale) SiO2 
 PCOD9090211
Probable space group: P -1
;
_chemical_formula_sum "Si O2"
_cell_formula_units_Z 16
_cell_length_a 7.582217
_cell_length_b 7.911248
_cell_length_c 19.974610
_cell_angle_alpha 45.477661
_cell_angle_beta 56.716546
_cell_angle_gamma 78.695955
_cell_volume 677.371759
_symmetry_space_group_name_H-M "P -1"
_symmetry_group_IT_number 2
_symmetry_cell_setting 'triclinic'
loop_
_space_group_symop_operation_xyz
x,y,z
-x,-y,-z
loop_
_atom_site_type_symbol
_atom_site_label
_atom_site_fract_x
_atom_site_fract_y
_atom_site_fract_z
Si Si1 0.740957 0.427410 0.094155
Si Si2 0.034538 0.762057 0.266782
Si Si3 0.745349 0.979613 0.469794
Si Si4 0.307209 0.597346 0.370505
Si Si5 0.296690 0.993583 0.878291
Si Si6 0.305831 0.722471 0.489128
Si Si7 0.206062 0.913272 0.709767
Si Si8 0.782865 0.955952 0.970929
O O1 0.632674 0.215463 0.120193
O O2 0.725623 0.299477 0.206298
O O3 0.669588 0.674376 0.045459
O O4 0.000000 0.500000 0.000000
O O5 0.166215 0.691818 0.319644
O O6 0.807578 0.529979 0.375759
O O7 0.970414 0.007256 0.231513
O O8 0.180045 0.829092 0.151488
O O9 0.743287 0.697588 0.543031
O O10 0.878282 0.133527 0.335858
O O11 0.500000 0.000000 0.500000
O O12 0.793411 0.085559 0.505086
O O13 0.258854 0.670858 0.435066
O O14 0.559597 0.745240 0.256298
O O15 0.036739 0.959879 0.931990
O O16 0.324751 0.992112 0.952509
O O17 0.571924 0.843512 0.405050
#
# Coordination Sequence:
#
# PCOD9090211 Si02
#       8
#     2   2   2   2   2   2   2   2
#     4  10  19  38  64  92 122 155 216 271 303 363
#     4  12  24  42  64  96 136 175 205 263 331 385
#     4  10  26  38  66 100 118 169 219 265 313 385
#     4  12  25  43  63  94 141 168 208 265 330 389
#     4  10  22  39  67  91 122 172 215 265 317 369
#     4  11  24  43  68  92 131 169 216 266 319 381
#     4  11  21  41  68  97 124 167 219 266 318 378
#     4  10  23  40  67  94 124 164 224 269 305 377
#
# _framework density 23.620706999999999
#
# number of rings (size 3 to 8) (size 9 to 14) (size 15 to 20)
#    0.000    1.250    5.000    0.750    8.750    3.000 
#    0.000    0.625    0.000    0.000    0.000    0.000 
#    0.000    0.000    0.000    0.000    0.000    0.000 
#
# Total GULP energy -89410.526485 kJ/mol
# GULP energy per Si atom -5588.157905 kJ/mol
# Density = 2.356694 g / cm^3
# Si number density = 23.620707 Si / 1000 Ang^3
#
#
#
# Elastic Constant Matrix: (Units=GPa)
#
#
# Indices 1 2 3 4 5 6 
#
# 1 45.6535 24.9976 23.1497 0.9547 12.8585 -3.1972
# 2 24.9976 140.1998 73.2898 29.1368 23.9277 30.1105
# 3 23.1497 73.2898 151.5147 17.7575 33.9056 20.9299
# 4 0.9547 29.1368 17.7575 31.1794 9.1880 12.6310
# 5 12.8585 23.9277 33.9056 9.1880 31.3206 7.5978
# 6 -3.1972 30.1105 20.9299 12.6310 7.5978 20.2005
#
#
#
# Elastic Compliance Matrix: (Units=1/GPa)
#
#
# Indices 1 2 3 4 5 6 
#
# 1 0.031622 -0.007855 -0.001803 0.001884 -0.010788 0.021462
# 2 -0.007855 0.014777 -0.003223 -0.005106 0.001082 -0.017144
# 3 -0.001803 -0.003223 0.010587 0.000965 -0.007516 -0.004227
# 4 0.001884 -0.005106 0.000965 0.046065 -0.006733 -0.019361
# 5 -0.010788 0.001082 -0.007516 -0.006733 0.047908 -0.009341
# 6 0.021462 -0.017144 -0.004227 -0.019361 -0.009341 0.098454
#
#
# Mechanical properties :
#
#
# Convention : Reuss Voigt Hill
#
# Bulk Modulus (GPa) = 32.02749 64.47135 48.24942
# Shear Modulus (GPa) = 17.50806 30.93547 24.22176
#
# Velocity S-wave (km/s) = 2.72548 3.62287 3.20573
# Velocity P-wave (km/s) = 4.84694 6.69731 5.84580
#
# Compressibility (1/GPa) = 0.03122318
#
# Stress axis : x y z
#
# Youngs Moduli (GPa) = 31.62387 67.67483 94.45267
#
# Poissons Ratio (x) = 0.53160 0.17031
# Poissons Ratio (y) = 0.24841 0.30441
# Poissons Ratio (z) = 0.05702 0.21811
#
# Static dielectric constant tensor:
#      x y z
#    x 1.969670 0.050780 -0.014220 
#    y 0.050780 1.967470 0.019760 
#    z -0.014220 0.019760 1.914230 
# 
# From -- ./inp_files/587761.got.cif
#   From: 2010.05.17/outbox.cif.g08.bks.cpg/sg2_294_cif.got.tgz:587761.got - 2010.06.03 11:33:40.
