data_PCOD9090305
_publ_section_title
;
Structure prediction by ZEFSAII (Michael W. Deem and Ramdas Pophale) SiO2 
 PCOD9090305
Probable space group: P -1
;
_chemical_formula_sum "Si O2"
_cell_formula_units_Z 16
_cell_length_a 18.928537
_cell_length_b 8.301046
_cell_length_c 17.286379
_cell_angle_alpha 51.945453
_cell_angle_beta 21.449360
_cell_angle_gamma 43.259074
_cell_volume 659.909499
_symmetry_space_group_name_H-M "P -1"
_symmetry_group_IT_number 2
_symmetry_cell_setting 'triclinic'
loop_
_space_group_symop_operation_xyz
x,y,z
-x,-y,-z
loop_
_atom_site_type_symbol
_atom_site_label
_atom_site_fract_x
_atom_site_fract_y
_atom_site_fract_z
Si Si1 0.868475 0.573367 0.733124
Si Si2 0.810193 0.733498 0.360010
Si Si3 0.341096 0.962005 0.864061
Si Si4 0.046086 0.798152 0.377258
Si Si5 0.567694 0.657167 0.285495
Si Si6 0.140951 0.845804 0.784018
Si Si7 0.563806 0.420801 0.837870
Si Si8 0.756936 0.341292 0.498350
O O1 0.963158 0.357938 0.636643
O O2 0.007831 0.437991 0.708327
O O3 0.900844 0.776178 0.601592
O O4 0.603613 0.670783 0.980277
O O5 0.809476 0.542549 0.358229
O O6 0.549264 0.879242 0.615227
O O7 0.866317 0.937085 0.224740
O O8 0.353927 0.153231 0.848906
O O9 0.412663 0.712983 0.907092
O O10 0.101491 0.064922 0.034640
O O11 0.289003 0.682954 0.204907
O O12 0.951233 0.066426 0.365720
O O13 0.341224 0.767121 0.538716
O O14 0.767228 0.399677 0.189890
O O15 0.477019 0.614025 0.311334
O O16 0.724703 0.358647 0.618174
#
# Coordination Sequence:
#
# PCOD9090305 Si02
#       8
#     2   2   2   2   2   2   2   2
#     4  11  22  40  65  86 120 169 211 245 298 366
#     4  10  21  40  62  87 128 163 197 255 308 365
#     4  10  19  38  65  87 120 161 203 255 301 359
#     4  11  23  41  62  90 124 165 209 255 292 359
#     4  10  23  40  62  96 123 158 208 259 303 365
#     4  10  20  41  69  88 119 165 210 251 307 366
#     4  11  23  40  61  91 125 166 202 247 313 366
#     4  11  24  42  58  92 137 158 197 262 309 358
#
# _framework density 24.245747999999999
#
# number of rings (size 3 to 8) (size 9 to 14) (size 15 to 20)
#    0.000    1.500    3.750    2.625    1.750    1.000 
#    2.250    2.500    0.000    0.000    0.000    0.000 
#    0.000    0.000    0.000    0.000    0.000    0.000 
#
# Total GULP energy -89533.615235 kJ/mol
# GULP energy per Si atom -5595.850952 kJ/mol
# Density = 2.419056 g / cm^3
# Si number density = 24.245748 Si / 1000 Ang^3
#
#
#
# Elastic Constant Matrix: (Units=GPa)
#
#
# Indices 1 2 3 4 5 6 
#
# 1 52.1396 50.7040 15.9553 7.3230 -31.9314 5.1683
# 2 50.7040 14.3038 34.3970 50.8144 6.2985 29.7739
# 3 15.9553 34.3970 95.9149 -17.0256 -44.2078 -5.7115
# 4 7.3230 50.8144 -17.0256 3.2000 -24.5768 -21.1755
# 5 -31.9314 6.2985 -44.2078 -24.5768 33.0951 -6.0745
# 6 5.1683 29.7739 -5.7115 -21.1755 -6.0745 28.3166
#
#
#
# Elastic Compliance Matrix: (Units=1/GPa)
#
#
# Indices 1 2 3 4 5 6 
#
# 1 0.040199 -0.007334 -0.004398 -0.026194 0.011622 -0.017608
# 2 -0.007334 0.010034 0.005935 0.015304 0.011385 0.005871
# 3 -0.004398 0.005935 0.011172 -0.003185 0.006416 -0.004189
# 4 -0.026194 0.015304 -0.003185 0.023991 -0.014079 0.002968
# 5 0.011622 0.011385 0.006416 -0.014079 0.034453 -0.015935
# 6 -0.017608 0.005871 -0.004189 0.002968 -0.015935 0.030311
#
#
# Mechanical properties :
#
#
# Convention : Reuss Voigt Hill
#
# Bulk Modulus (GPa) = 20.07596 40.49678 30.28637
# Shear Modulus (GPa) = 28.03353 17.00914 22.52134
#
# Velocity S-wave (km/s) = 3.40402 2.65152 3.05106
# Velocity P-wave (km/s) = 4.87319 5.11008 4.99304
#
# Compressibility (1/GPa) = 0.04981083
#
# Stress axis : x y z
#
# Youngs Moduli (GPa) = 24.87637 99.65620 89.51313
#
# Poissons Ratio (x) = 0.73083 0.39370
# Poissons Ratio (y) = 0.18243 -0.53124
# Poissons Ratio (z) = 0.10941 -0.59143
#
# Static dielectric constant tensor:
#      x y z
#    x 1.937430 0.055210 0.077480 
#    y 0.055210 1.910920 -0.002830 
#    z 0.077480 -0.002830 1.958100 
# 
# From -- ./inp_files/329568.got.cif
#   From: 2010.05.17/outbox.cif.g08.bks.cpg/sg2_165_cif.got.tgz:329568.got - 2010.06.03 11:33:40.
