data_PCOD9090353
_publ_section_title
;
Structure prediction by ZEFSAII (Michael W. Deem and Ramdas Pophale) SiO2 
 PCOD9090353
Probable space group: P -1
;
_chemical_formula_sum "Si O2"
_cell_formula_units_Z 16
_cell_length_a 19.779884
_cell_length_b 7.374817
_cell_length_c 14.411572
_cell_angle_alpha 89.998323
_cell_angle_beta 22.859208
_cell_angle_gamma 102.668494
_cell_volume 674.031773
_symmetry_space_group_name_H-M "P -1"
_symmetry_group_IT_number 2
_symmetry_cell_setting 'triclinic'
loop_
_space_group_symop_operation_xyz
x,y,z
-x,-y,-z
loop_
_atom_site_type_symbol
_atom_site_label
_atom_site_fract_x
_atom_site_fract_y
_atom_site_fract_z
Si Si1 0.654221 0.974030 0.866886
Si Si2 0.182479 0.957529 0.772610
Si Si3 0.336320 0.127087 0.397760
Si Si4 0.951917 0.180783 0.865932
Si Si5 0.905376 0.261209 0.722301
Si Si6 0.925139 0.342369 0.254789
Si Si7 0.910481 0.684565 0.773863
Si Si8 0.659698 0.595046 0.924703
O O1 0.567714 0.722994 0.997895
O O2 0.875339 0.090588 0.529659
O O3 0.281377 0.885611 0.446736
O O4 0.500000 0.000000 0.000000
O O5 0.081986 0.729486 0.842082
O O6 0.369420 0.136900 0.468444
O O7 0.215626 0.938948 0.838573
O O8 0.000000 0.000000 0.000000
O O9 0.124073 0.122750 0.654082
O O10 0.734235 0.110712 0.861693
O O11 0.506107 0.334786 0.125470
O O12 0.067537 0.440603 0.740477
O O13 0.863385 0.144524 0.874632
O O14 0.919865 0.485021 0.720853
O O15 0.130214 0.328794 0.398046
O O16 0.100303 0.355524 0.102068
O O17 0.727482 0.670927 0.946183
#
# Coordination Sequence:
#
# PCOD9090353 Si02
#       8
#     2   2   2   2   2   2   2   2
#     4  11  25  39  61  90 124 168 216 256 310 381
#     4   8  17  35  63  93 124 158 216 256 306 373
#     4   9  22  36  58  99 123 163 215 254 311 373
#     4  10  19  38  65  92 125 170 209 257 317 366
#     4  10  23  42  61  91 128 168 209 259 316 379
#     4   9  20  35  63  91 125 162 210 257 311 368
#     4  10  22  42  60  89 126 171 210 252 321 373
#     4  11  23  40  60  88 136 162 206 261 322 375
#
# _framework density 23.737753000000001
#
# number of rings (size 3 to 8) (size 9 to 14) (size 15 to 20)
#    0.750    1.500    0.000    3.375    7.000    2.500 
#    0.000    0.625    0.000    9.750    0.000    0.000 
#    0.000    0.000    0.000    0.000    0.000    0.125 
#
# Total GULP energy -89329.795139 kJ/mol
# GULP energy per Si atom -5583.112196 kJ/mol
# Density = 2.368372 g / cm^3
# Si number density = 23.737753 Si / 1000 Ang^3
#
#
#
# Elastic Constant Matrix: (Units=GPa)
#
#
# Indices 1 2 3 4 5 6 
#
# 1 154.6382 27.5184 46.2556 -0.8140 34.5272 -15.4161
# 2 27.5184 145.5968 30.9762 -7.6646 3.5818 -12.4208
# 3 46.2556 30.9762 38.6594 -7.4028 11.6526 -6.1073
# 4 -0.8140 -7.6646 -7.4028 27.2961 -4.9696 7.5038
# 5 34.5272 3.5818 11.6526 -4.9696 38.0663 1.0750
# 6 -15.4161 -12.4208 -6.1073 7.5038 1.0750 41.7312
#
#
#
# Elastic Compliance Matrix: (Units=1/GPa)
#
#
# Indices 1 2 3 4 5 6 
#
# 1 0.012655 0.000784 -0.013743 -0.005765 -0.008215 0.004145
# 2 0.000784 0.008484 -0.007716 0.000002 0.000805 0.001665
# 3 -0.013743 -0.007716 0.050609 0.011573 -0.000733 -0.002029
# 4 -0.005765 0.000002 0.011573 0.043295 0.007576 -0.008415
# 5 -0.008215 0.000805 -0.000733 0.007576 0.035005 -0.005166
# 6 0.004145 0.001665 -0.002029 -0.008415 -0.005166 0.027339
#
#
# Mechanical properties :
#
#
# Convention : Reuss Voigt Hill
#
# Bulk Modulus (GPa) = 32.89547 60.93275 46.91411
# Shear Modulus (GPa) = 21.84661 37.02834 29.43748
#
# Velocity S-wave (km/s) = 3.03699 3.95383 3.52534
# Velocity P-wave (km/s) = 5.11720 6.82412 6.03135
#
# Compressibility (1/GPa) = 0.03039932
#
# Stress axis : x y z
#
# Youngs Moduli (GPa) = 79.01936 117.87095 19.75940
#
# Poissons Ratio (x) = -0.09244 0.27155
# Poissons Ratio (y) = -0.06197 0.15245
# Poissons Ratio (z) = 1.08596 0.90943
#
# Static dielectric constant tensor:
#      x y z
#    x 1.987920 0.033530 0.047770 
#    y 0.033530 1.928880 0.028870 
#    z 0.047770 0.028870 1.931410 
# 
# From -- ./inp_files/540231.got.cif
#   From: 2010.05.17/outbox.cif.g08.bks.cpg/sg2_271_cif.got.tgz:540231.got - 2010.06.03 11:33:40.
