data_PCOD9090962
_publ_section_title
;
Structure prediction by ZEFSAII (Michael W. Deem and Ramdas Pophale) SiO2 
 PCOD9090962
Probable space group: P -1
;
_chemical_formula_sum "Si O2"
_cell_formula_units_Z 14
_cell_length_a 7.204249
_cell_length_b 7.645008
_cell_length_c 22.473482
_cell_angle_alpha 142.705247
_cell_angle_beta 45.770205
_cell_angle_gamma 131.602520
_cell_volume 520.169389
_symmetry_space_group_name_H-M "P -1"
_symmetry_group_IT_number 2
_symmetry_cell_setting 'triclinic'
loop_
_space_group_symop_operation_xyz
x,y,z
-x,-y,-z
loop_
_atom_site_type_symbol
_atom_site_label
_atom_site_fract_x
_atom_site_fract_y
_atom_site_fract_z
Si Si1 0.087117 0.968520 0.603041
Si Si2 0.481779 0.081515 0.299409
Si Si3 0.404068 0.945769 0.413180
Si Si4 0.906669 0.395061 0.899356
Si Si5 0.444448 0.560356 0.902571
Si Si6 0.673596 0.760317 0.790446
Si Si7 0.851071 0.348857 0.194127
O O1 0.328069 0.895044 0.566138
O O2 0.131795 0.310155 0.703702
O O3 0.162992 0.965551 0.515777
O O4 0.773400 0.811493 0.639910
O O5 0.770104 0.210488 0.239681
O O6 0.456614 0.108880 0.382648
O O7 0.442903 0.731532 0.201257
O O8 0.342266 0.586709 0.314971
O O9 0.177328 0.506395 0.906874
O O10 0.923555 0.610120 0.896468
O O11 0.898274 0.046200 0.795673
O O12 0.658462 0.392220 0.996548
O O13 0.650830 0.787377 0.875125
O O14 0.412841 0.804097 0.825854
#
# Coordination Sequence:
#
# PCOD9090962 Si02
#       7
#     2   2   2   2   2   2   2
#     4  10  21  43  63  89 128 158 201 261 300 358
#     4  11  22  39  61  92 126 157 204 253 304 368
#     4   9  21  41  68  95 117 161 209 244 313 367
#     4  10  19  39  62  86 127 163 203 259 300 361
#     4   9  21  36  61  94 118 162 213 248 308 363
#     4   9  18  38  63  87 118 159 207 256 303 358
#     4  10  22  36  56  87 124 163 201 246 307 364
#
# _framework density 26.914307999999998
#
# number of rings (size 3 to 8) (size 9 to 14) (size 15 to 20)
#    0.000    2.286    0.000    2.571    0.000    3.429 
#    0.000   21.429    0.000    2.571    0.000    1.000 
#    0.000    0.000    0.000    0.000    0.000    0.000 
#
# Total GULP energy -78129.028004 kJ/mol
# GULP energy per Si atom -5580.644857 kJ/mol
# Density = 2.685305 g / cm^3
# Si number density = 26.914308 Si / 1000 Ang^3
#
#
#
# Elastic Constant Matrix: (Units=GPa)
#
#
# Indices 1 2 3 4 5 6 
#
# 1 66.3346 43.5794 44.7615 -37.3673 7.1106 16.1642
# 2 43.5794 136.2255 46.1178 -43.5354 16.2661 -14.5709
# 3 44.7615 46.1178 122.3860 -48.2218 22.2360 0.0487
# 4 -37.3673 -43.5354 -48.2218 54.2007 -4.0196 9.5666
# 5 7.1106 16.2661 22.2360 -4.0196 40.1023 -14.7765
# 6 16.1642 -14.5709 0.0487 9.5666 -14.7765 29.6539
#
#
#
# Elastic Compliance Matrix: (Units=1/GPa)
#
#
# Indices 1 2 3 4 5 6 
#
# 1 0.087337 -0.013421 0.009999 0.072659 -0.045221 -0.100192
# 2 -0.013421 0.012411 -0.002009 -0.003710 0.004254 0.016734
# 3 0.009999 -0.002009 0.017628 0.023682 -0.016605 -0.022381
# 4 0.072659 -0.003710 0.023682 0.100370 -0.051029 -0.099276
# 5 -0.045221 0.004254 -0.016605 -0.051029 0.062777 0.074512
# 6 -0.100192 0.016734 -0.022381 -0.099276 0.074512 0.165753
#
#
# Mechanical properties :
#
#
# Convention : Reuss Voigt Hill
#
# Bulk Modulus (GPa) = 9.38854 65.98484 37.68669
# Shear Modulus (GPa) = 10.14936 37.49054 23.81995
#
# Velocity S-wave (km/s) = 1.94401 3.73629 2.97817
# Velocity P-wave (km/s) = 2.92144 6.57138 5.08516
#
# Compressibility (1/GPa) = 0.10651283
#
# Stress axis : x y z
#
# Youngs Moduli (GPa) = 11.44993 80.57461 56.72862
#
# Poissons Ratio (x) = 1.08142 -0.56726
# Poissons Ratio (y) = 0.15367 0.11399
# Poissons Ratio (z) = -0.11449 0.16191
#
# Static dielectric constant tensor:
#      x y z
#    x 2.218900 -0.025910 -0.007770 
#    y -0.025910 2.098710 -0.047840 
#    z -0.007770 -0.047840 2.128580 
# 
# From -- ./inp_files/606488.got.cif
#   From: 2010.05.17/outbox.cif.g08.bks.cpg/sg2_304_cif.got.tgz:606488.got - 2010.06.03 11:33:40.
