data_PCOD9090587
_publ_section_title
;
Structure prediction by ZEFSAII (Michael W. Deem and Ramdas Pophale) SiO2 
 PCOD9090587
Probable space group: P -1
;
_chemical_formula_sum "Si O2"
_cell_formula_units_Z 16
_cell_length_a 11.835384
_cell_length_b 14.729764
_cell_length_c 8.411961
_cell_angle_alpha 59.548220
_cell_angle_beta 64.393111
_cell_angle_gamma 112.767376
_cell_volume 713.999662
_symmetry_space_group_name_H-M "P -1"
_symmetry_group_IT_number 2
_symmetry_cell_setting 'triclinic'
loop_
_space_group_symop_operation_xyz
x,y,z
-x,-y,-z
loop_
_atom_site_type_symbol
_atom_site_label
_atom_site_fract_x
_atom_site_fract_y
_atom_site_fract_z
Si Si1 0.440252 0.046030 0.628069
Si Si2 0.769100 0.884646 0.413617
Si Si3 0.191395 0.648347 0.641430
Si Si4 0.233294 0.254692 0.755734
Si Si5 0.742297 0.482182 0.546590
Si Si6 0.079609 0.735306 0.353365
Si Si7 0.308313 0.226383 0.060471
Si Si8 0.946051 0.836499 0.556143
O O1 0.358497 0.094979 0.541516
O O2 0.625878 0.199414 0.490644
O O3 0.500000 0.000000 0.500000
O O4 0.263128 0.889349 0.991741
O O5 0.699497 0.755713 0.439962
O O6 0.787073 0.828105 0.614465
O O7 0.001006 0.066818 0.083662
O O8 0.236165 0.577837 0.565321
O O9 0.148504 0.713209 0.482694
O O10 0.000000 0.500000 0.000000
O O11 0.232764 0.378629 0.631446
O O12 0.363023 0.287567 0.784834
O O13 0.526164 0.331856 0.893156
O O14 0.916047 0.570811 0.490108
O O15 0.975514 0.770892 0.463175
O O16 0.185307 0.262674 0.120222
O O17 0.153781 0.026378 0.302922
#
# Coordination Sequence:
#
# PCOD9090587 Si02
#       8
#     2   2   2   2   2   2   2   2
#     4  12  26  47  77 104 135 189 240 285 346 425
#     4  10  19  40  69  97 131 170 231 274 344 415
#     4  12  30  47  68 103 143 189 239 291 346 418
#     4  10  19  38  67  96 132 174 221 283 342 407
#     4  12  23  43  68  98 140 180 230 287 355 402
#     4  12  25  48  72  97 143 188 239 283 352 414
#     4  10  23  36  64 102 135 173 222 287 350 409
#     4  10  22  42  66  99 136 179 226 287 344 419
#
# _framework density 22.408974000000001
#
# number of rings (size 3 to 8) (size 9 to 14) (size 15 to 20)
#    0.000    1.000    2.500    4.875    1.750    4.500 
#    0.000    0.000    0.000    0.000    0.000    0.000 
#    0.000    0.000    0.000    0.000    0.000    0.000 
#
# Total GULP energy -89300.896797 kJ/mol
# GULP energy per Si atom -5581.306050 kJ/mol
# Density = 2.235797 g / cm^3
# Si number density = 22.408974 Si / 1000 Ang^3
#
#
#
# Elastic Constant Matrix: (Units=GPa)
#
#
# Indices 1 2 3 4 5 6 
#
# 1 123.2737 43.2500 29.3284 -1.3085 -4.2175 -5.1166
# 2 43.2500 170.0836 45.5913 18.8088 -20.1864 -12.5972
# 3 29.3284 45.5913 111.9503 5.3067 -25.0441 -3.9386
# 4 -1.3085 18.8088 5.3067 31.7824 5.4187 -15.0124
# 5 -4.2175 -20.1864 -25.0441 5.4187 36.8205 -0.8496
# 6 -5.1166 -12.5972 -3.9386 -15.0124 -0.8496 43.6317
#
#
#
# Elastic Compliance Matrix: (Units=1/GPa)
#
#
# Indices 1 2 3 4 5 6 
#
# 1 0.009439 -0.002328 -0.002079 0.003054 -0.002030 0.001258
# 2 -0.002328 0.007902 -0.001514 -0.005070 0.003787 0.000201
# 3 -0.002079 -0.001514 0.011852 -0.002595 0.007367 -0.000360
# 4 0.003054 -0.005070 -0.002595 0.043033 -0.010222 0.013267
# 5 -0.002030 0.003787 0.007367 -0.010222 0.035487 -0.001306
# 6 0.001258 0.000201 -0.000360 0.013267 -0.001306 0.027632
#
#
# Mechanical properties :
#
#
# Convention : Reuss Voigt Hill
#
# Bulk Modulus (GPa) = 57.63387 71.29411 64.46399
# Shear Modulus (GPa) = 32.68592 41.58946 37.13769
#
# Velocity S-wave (km/s) = 3.82332 4.31272 4.07537
# Velocity P-wave (km/s) = 6.72795 7.52884 7.13963
#
# Compressibility (1/GPa) = 0.01735091
#
# Stress axis : x y z
#
# Youngs Moduli (GPa) = 105.94627 126.54546 84.37380
#
# Poissons Ratio (x) = 0.29463 0.17543
# Poissons Ratio (y) = 0.24667 0.12771
# Poissons Ratio (z) = 0.22028 0.19154
#
# Static dielectric constant tensor:
#      x y z
#    x 1.908750 0.054880 0.048300 
#    y 0.054880 1.923610 0.044190 
#    z 0.048300 0.044190 1.850580 
# 
# From -- ./inp_files/272120.got.cif
#   From: 2010.05.17/outbox.cif.g08.bks.cpg/sg2_137_cif.got.tgz:272120.got - 2010.06.03 11:33:40.
