data_PCOD9090068
_publ_section_title
;
Structure prediction by ZEFSAII (Michael W. Deem and Ramdas Pophale) SiO2 
 PCOD9090068
Probable space group: P -1
;
_chemical_formula_sum "Si O2"
_cell_formula_units_Z 16
_cell_length_a 9.016385
_cell_length_b 21.126763
_cell_length_c 11.861744
_cell_angle_alpha 156.588076
_cell_angle_beta 64.674785
_cell_angle_gamma 123.620298
_cell_volume 725.235379
_symmetry_space_group_name_H-M "P -1"
_symmetry_group_IT_number 2
_symmetry_cell_setting 'triclinic'
loop_
_space_group_symop_operation_xyz
x,y,z
-x,-y,-z
loop_
_atom_site_type_symbol
_atom_site_label
_atom_site_fract_x
_atom_site_fract_y
_atom_site_fract_z
Si Si1 0.986856 0.843427 0.825857
Si Si2 0.094108 0.456749 0.251553
Si Si3 0.729995 0.307656 0.996383
Si Si4 0.036135 0.208926 0.671205
Si Si5 0.098785 0.878088 0.088979
Si Si6 0.571907 0.707725 0.784785
Si Si7 0.099178 0.400027 0.741004
Si Si8 0.592863 0.163197 0.146912
O O1 0.014784 0.716491 0.518081
O O2 0.786880 0.775994 0.834971
O O3 0.111273 0.894936 0.977808
O O4 0.000000 0.000000 0.000000
O O5 0.249865 0.651133 0.547690
O O6 0.889162 0.428985 0.234908
O O7 0.146066 0.366721 0.981863
O O8 0.046102 0.316594 0.140465
O O9 0.533708 0.223811 0.981033
O O10 0.729797 0.442490 0.119028
O O11 0.113746 0.275201 0.629101
O O12 0.050870 0.029902 0.399218
O O13 0.828796 0.191519 0.724878
O O14 0.300834 0.899070 0.083096
O O15 0.500000 0.500000 0.500000
O O16 0.533598 0.769847 0.775353
O O17 0.000000 0.500000 0.000000
O O18 0.500000 0.000000 0.000000
#
# Coordination Sequence:
#
# PCOD9090068 Si02
#       8
#     2   2   2   2   2   2   2   2
#     4  12  24  39  66 103 133 173 230 278 341 405
#     4  10  22  41  69  93 132 177 227 265 350 401
#     4   9  20  39  66  94 130 177 227 272 338 402
#     4   9  21  39  68 100 132 180 230 276 334 417
#     4  12  22  42  72  99 132 178 233 281 335 411
#     4  12  24  42  66 100 140 171 224 291 337 396
#     4  10  19  38  63  91 132 174 221 269 330 405
#     4  12  26  42  65 101 137 174 227 290 343 400
#
# _framework density 22.061803999999999
#
# number of rings (size 3 to 8) (size 9 to 14) (size 15 to 20)
#    0.750    0.500    3.750    3.000    0.000    0.000 
#    0.000    1.250    0.000    3.000    0.000    0.000 
#    0.000    0.000    0.000    0.000    0.000    0.000 
#
# Total GULP energy -89078.684494 kJ/mol
# GULP energy per Si atom -5567.417781 kJ/mol
# Density = 2.201159 g / cm^3
# Si number density = 22.061804 Si / 1000 Ang^3
#
#
#
# Elastic Constant Matrix: (Units=GPa)
#
#
# Indices 1 2 3 4 5 6 
#
# 1 68.9134 21.4700 23.7757 3.7140 -17.9159 0.5732
# 2 21.4700 118.8703 33.7388 8.9347 -8.6794 -8.9135
# 3 23.7757 33.7388 94.9296 5.7689 -30.8726 4.1540
# 4 3.7140 8.9347 5.7689 49.3159 -4.8612 -5.8354
# 5 -17.9159 -8.6794 -30.8726 -4.8612 30.0373 7.0894
# 6 0.5732 -8.9135 4.1540 -5.8354 7.0894 41.0493
#
#
#
# Elastic Compliance Matrix: (Units=1/GPa)
#
#
# Indices 1 2 3 4 5 6 
#
# 1 0.018152 -0.002693 0.000009 -0.000148 0.010672 -0.002703
# 2 -0.002693 0.010159 -0.004330 -0.001151 -0.004068 0.003221
# 3 0.000009 -0.004330 0.018648 -0.000224 0.019348 -0.006201
# 4 -0.000148 -0.001151 -0.000224 0.021021 0.002188 0.002385
# 5 0.010672 -0.004068 0.019348 0.002188 0.061877 -0.013366
# 6 -0.002703 0.003221 -0.006201 0.002385 -0.013366 0.028373
#
#
# Mechanical properties :
#
#
# Convention : Reuss Voigt Hill
#
# Bulk Modulus (GPa) = 30.36726 48.96467 39.66596
# Shear Modulus (GPa) = 27.28737 37.66243 32.47490
#
# Velocity S-wave (km/s) = 3.52072 4.13623 3.84082
# Velocity P-wave (km/s) = 5.50652 6.71220 6.13903
#
# Compressibility (1/GPa) = 0.03293021
#
# Stress axis : x y z
#
# Youngs Moduli (GPa) = 55.09055 98.43536 53.62514
#
# Poissons Ratio (x) = 0.26513 -0.00048
# Poissons Ratio (y) = 0.14838 0.23219
# Poissons Ratio (z) = -0.00049 0.42621
#
# Static dielectric constant tensor:
#      x y z
#    x 1.803050 -0.078240 -0.015490 
#    y -0.078240 1.824200 0.024570 
#    z -0.015490 0.024570 1.875720 
# 
# From -- ./inp_files/508761.got.cif
#   From: 2010.05.17/outbox.cif.g08.bks.cpg/sg2_255_cif.got.tgz:508761.got - 2010.06.03 11:33:40.
