data_PCOD9090559
_publ_section_title
;
Structure prediction by ZEFSAII (Michael W. Deem and Ramdas Pophale) SiO2 
 PCOD9090559
Probable space group: P -1
;
_chemical_formula_sum "Si O2"
_cell_formula_units_Z 13
_cell_length_a 6.974932
_cell_length_b 12.917760
_cell_length_c 7.017508
_cell_angle_alpha 97.180325
_cell_angle_beta 64.158281
_cell_angle_gamma 70.229337
_cell_volume 507.050096
_symmetry_space_group_name_H-M "P -1"
_symmetry_group_IT_number 2
_symmetry_cell_setting 'triclinic'
loop_
_space_group_symop_operation_xyz
x,y,z
-x,-y,-z
loop_
_atom_site_type_symbol
_atom_site_label
_atom_site_fract_x
_atom_site_fract_y
_atom_site_fract_z
Si Si1 0.596868 0.730562 0.223489
Si Si2 0.518532 0.227399 0.158246
Si Si3 0.737357 0.442214 0.756925
Si Si4 0.776923 0.560368 0.408516
Si Si5 0.500000 0.000000 0.000000
Si Si6 0.028783 0.786689 0.175555
Si Si7 0.700821 0.023381 0.525339
O O1 0.656401 0.608401 0.269194
O O2 0.370902 0.840176 0.437688
O O3 0.819311 0.761460 0.171632
O O4 0.563062 0.732899 0.014073
O O5 0.327268 0.318790 0.400222
O O6 0.536059 0.100257 0.133425
O O7 0.768134 0.232833 0.070450
O O8 0.717134 0.475400 0.549032
O O9 0.855822 0.306126 0.726456
O O10 0.942134 0.481601 0.740771
O O11 0.500000 0.500000 0.000000
O O12 0.332001 0.989577 0.239844
O O13 0.934675 0.917736 0.321842
O O14 0.500000 0.000000 0.500000
#
# Coordination Sequence:
#
# PCOD9090559 Si02
#       7
#     2   2   2   2   1   2   2
#     4   9  21  39  60  91 124 161 206 253 306 377
#     4  11  21  39  62  89 126 164 204 255 310 369
#     4  10  19  38  67  90 120 167 212 252 310 369
#     4  10  21  40  67  87 129 168 195 268 316 347
#     4  10  20  32  56  86 116 160 200 236 306 368
#     4  10  20  38  64  85 125 162 201 260 302 361
#     4   9  18  37  57  83 123 157 193 255 302 357
#
# _framework density 25.638490999999998
#
# number of rings (size 3 to 8) (size 9 to 14) (size 15 to 20)
#    0.000    2.154    1.538    2.769    0.000    2.462 
#    0.000   27.692    0.000    0.000    0.000    0.000 
#    0.000    0.000    0.000    0.000    0.000    0.000 
#
# Total GULP energy -72465.801040 kJ/mol
# GULP energy per Si atom -5574.292388 kJ/mol
# Density = 2.558014 g / cm^3
# Si number density = 25.638491 Si / 1000 Ang^3
#
#
#
# Elastic Constant Matrix: (Units=GPa)
#
#
# Indices 1 2 3 4 5 6 
#
# 1 89.6307 33.3330 44.0983 -4.4818 -15.6586 11.4681
# 2 33.3330 72.5369 25.3263 -4.6655 -31.5358 1.9812
# 3 44.0983 25.3263 136.3644 3.1485 -19.5679 -4.9350
# 4 -4.4818 -4.6655 3.1485 50.2325 4.4636 -1.8168
# 5 -15.6586 -31.5358 -19.5679 4.4636 47.5408 -7.1915
# 6 11.4681 1.9812 -4.9350 -1.8168 -7.1915 36.5785
#
#
#
# Elastic Compliance Matrix: (Units=1/GPa)
#
#
# Indices 1 2 3 4 5 6 
#
# 1 0.016250 -0.006406 -0.004542 0.001088 -0.001723 -0.005645
# 2 -0.006406 0.022441 -0.000088 0.000467 0.013211 0.003402
# 3 -0.004542 -0.000088 0.009377 -0.001143 0.002897 0.003207
# 4 0.001088 0.000467 -0.001143 0.020275 -0.001682 0.000156
# 5 -0.001723 0.013211 0.002897 -0.001682 0.031539 0.006333
# 6 -0.005645 0.003402 0.003207 0.000156 0.006333 0.030609
#
#
# Mechanical properties :
#
#
# Convention : Reuss Voigt Hill
#
# Bulk Modulus (GPa) = 38.46891 56.00525 47.23708
# Shear Modulus (GPa) = 31.01204 39.92197 35.46700
#
# Velocity S-wave (km/s) = 3.48169 3.95031 3.72338
# Velocity P-wave (km/s) = 5.58568 6.53438 6.07857
#
# Compressibility (1/GPa) = 0.02599502
#
# Stress axis : x y z
#
# Youngs Moduli (GPa) = 61.54010 44.56066 106.64853
#
# Poissons Ratio (x) = 0.28547 0.48437
# Poissons Ratio (y) = 0.39424 0.00941
# Poissons Ratio (z) = 0.27950 0.00393
#
# Static dielectric constant tensor:
#      x y z
#    x 2.083740 -0.045990 -0.009090 
#    y -0.045990 2.041100 -0.018790 
#    z -0.009090 -0.018790 1.955200 
# 
# From -- ./inp_files/196455.got.cif
#   From: 2010.05.17/outbox.cif.g08.bks.cpg/sg2_99_cif.got.tgz:196455.got - 2010.06.03 11:33:40.
