data_PCOD9090804
_publ_section_title
;
Structure prediction by ZEFSAII (Michael W. Deem and Ramdas Pophale) SiO2 
 PCOD9090804
Probable space group: P -1
;
_chemical_formula_sum "Si O2"
_cell_formula_units_Z 16
_cell_length_a 9.944783
_cell_length_b 9.521667
_cell_length_c 9.142712
_cell_angle_alpha 86.662111
_cell_angle_beta 123.306251
_cell_angle_gamma 104.364391
_cell_volume 697.652895
_symmetry_space_group_name_H-M "P -1"
_symmetry_group_IT_number 2
_symmetry_cell_setting 'triclinic'
loop_
_space_group_symop_operation_xyz
x,y,z
-x,-y,-z
loop_
_atom_site_type_symbol
_atom_site_label
_atom_site_fract_x
_atom_site_fract_y
_atom_site_fract_z
Si Si1 0.665105 0.358173 0.539951
Si Si2 0.438843 0.268031 0.818414
Si Si3 0.207401 0.520545 0.932192
Si Si4 0.174881 0.430602 0.595169
Si Si5 0.589463 0.091970 0.684241
Si Si6 0.327766 0.020458 0.967222
Si Si7 0.705040 0.649506 0.740776
Si Si8 0.020392 0.748665 0.763686
O O1 0.780378 0.413030 0.466849
O O2 0.709984 0.232847 0.670500
O O3 0.685356 0.500980 0.643490
O O4 0.471688 0.312384 0.376575
O O5 0.344161 0.378578 0.689192
O O6 0.474747 0.166534 0.714720
O O7 0.327541 0.173016 0.884560
O O8 0.613250 0.360946 0.982120
O O9 0.145907 0.449390 0.745452
O O10 0.085128 0.621950 0.893315
O O11 0.238797 0.399857 0.067708
O O12 0.040905 0.315911 0.427904
O O13 0.500000 0.000000 0.500000
O O14 0.660531 0.997548 0.850070
O O15 0.170220 0.891849 0.834760
O O16 0.500000 0.000000 0.000000
O O17 0.857757 0.766507 0.750583
#
# Coordination Sequence:
#
# PCOD9090804 Si02
#       8
#     2   2   2   2   2   2   2   2
#     4  10  19  39  59  94 130 160 213 256 315 372
#     4  11  22  43  64  91 131 168 214 256 314 378
#     4  12  21  39  65  99 129 165 210 262 319 376
#     4  11  25  37  68 100 125 168 209 264 318 373
#     4  11  22  36  63  93 120 166 215 256 304 372
#     4  10  22  42  64  85 128 175 206 254 313 378
#     4  10  20  36  66  90 129 167 199 265 319 368
#     4  11  22  40  61  94 134 165 208 260 321 371
#
# _framework density 22.93404
#
# number of rings (size 3 to 8) (size 9 to 14) (size 15 to 20)
#    0.000    1.250    5.000    2.625    1.750    1.500 
#    0.000    2.500    0.000    3.750    0.000    0.000 
#    0.000    0.000    0.000    0.000    0.000    0.000 
#
# Total GULP energy -89420.141835 kJ/mol
# GULP energy per Si atom -5588.758865 kJ/mol
# Density = 2.288184 g / cm^3
# Si number density = 22.934040 Si / 1000 Ang^3
#
#
#
# Elastic Constant Matrix: (Units=GPa)
#
#
# Indices 1 2 3 4 5 6 
#
# 1 56.4818 25.1944 46.6890 11.6230 7.6330 16.2652
# 2 25.1944 89.8198 50.0464 -4.3277 -8.1230 31.4734
# 3 46.6890 50.0464 157.8363 -3.3976 -4.4322 29.5042
# 4 11.6230 -4.3277 -3.3976 40.1492 20.6202 1.1634
# 5 7.6330 -8.1230 -4.4322 20.6202 29.6926 0.7337
# 6 16.2652 31.4734 29.5042 1.1634 0.7337 33.5366
#
#
#
# Elastic Compliance Matrix: (Units=1/GPa)
#
#
# Indices 1 2 3 4 5 6 
#
# 1 0.027867 -0.003353 -0.006664 -0.006627 -0.004370 -0.004180
# 2 -0.003353 0.018813 -0.002132 0.000200 0.005905 -0.014289
# 3 -0.006664 -0.002132 0.009696 0.001945 0.001310 -0.003393
# 4 -0.006627 0.000200 0.001945 0.040339 -0.025977 0.000484
# 5 -0.004370 0.005905 0.001310 -0.025977 0.054773 -0.004872
# 6 -0.004180 -0.014289 -0.003393 0.000484 -0.004872 0.048331
#
#
# Mechanical properties :
#
#
# Convention : Reuss Voigt Hill
#
# Bulk Modulus (GPa) = 31.17474 60.88861 46.03168
# Shear Modulus (GPa) = 21.29373 32.82289 27.05831
#
# Velocity S-wave (km/s) = 3.05040 3.78721 3.43859
# Velocity P-wave (km/s) = 5.10189 6.76247 5.99000
#
# Compressibility (1/GPa) = 0.03207725
#
# Stress axis : x y z
#
# Youngs Moduli (GPa) = 35.88419 53.15579 103.13626
#
# Poissons Ratio (x) = 0.17826 0.68730
# Poissons Ratio (y) = 0.12034 0.21987
# Poissons Ratio (z) = 0.23913 0.11332
#
# Static dielectric constant tensor:
#      x y z
#    x 1.892090 0.002120 -0.009550 
#    y 0.002120 1.891910 -0.040660 
#    z -0.009550 -0.040660 1.871360 
# 
# From -- ./inp_files/258278.got.cif
#   From: 2010.05.17/outbox.cif.g08.bks.cpg/sg2_130_cif.got.tgz:258278.got - 2010.06.03 11:33:40.
