data_PCOD9090185
_publ_section_title
;
Structure prediction by ZEFSAII (Michael W. Deem and Ramdas Pophale) SiO2 
 PCOD9090185
Probable space group: P -1
;
_chemical_formula_sum "Si O2"
_cell_formula_units_Z 14
_cell_length_a 16.430984
_cell_length_b 13.697097
_cell_length_c 8.419335
_cell_angle_alpha 126.223902
_cell_angle_beta 124.824337
_cell_angle_gamma 24.265234
_cell_volume 625.195196
_symmetry_space_group_name_H-M "P -1"
_symmetry_group_IT_number 2
_symmetry_cell_setting 'triclinic'
loop_
_space_group_symop_operation_xyz
x,y,z
-x,-y,-z
loop_
_atom_site_type_symbol
_atom_site_label
_atom_site_fract_x
_atom_site_fract_y
_atom_site_fract_z
Si Si1 0.604597 0.160572 0.916886
Si Si2 0.087539 0.025821 0.042201
Si Si3 0.810828 0.371657 0.584446
Si Si4 0.718474 0.711639 0.961429
Si Si5 0.205895 0.886548 0.689109
Si Si6 0.209229 0.489576 0.647009
Si Si7 0.093150 0.377960 0.235924
O O1 0.678949 0.182637 0.892146
O O2 0.408186 0.299098 0.785784
O O3 0.781842 0.875948 0.847930
O O4 0.612725 0.223165 0.153713
O O5 0.070032 0.026752 0.833988
O O6 0.963641 0.262734 0.211341
O O7 0.000000 0.000000 0.000000
O O8 0.727704 0.558016 0.794314
O O9 0.742429 0.306307 0.475120
O O10 0.758604 0.473500 0.448317
O O11 0.053977 0.108655 0.611202
O O12 0.823138 0.653353 0.864200
O O13 0.860687 0.597782 0.157046
O O14 0.500000 0.000000 0.000000
O O15 0.147048 0.419329 0.468230
#
# Coordination Sequence:
#
# PCOD9090185 Si02
#       7
#     2   2   2   2   2   2   2
#     4  10  22  39  60  91 130 168 203 263 313 381
#     4  10  21  39  61  90 124 164 206 265 313 374
#     4  10  19  38  64  90 116 167 205 257 314 370
#     4  10  21  39  65  91 129 164 212 264 318 371
#     4   9  20  38  66  84 128 163 204 259 321 366
#     4  11  22  37  66  90 127 168 212 251 319 377
#     4  10  22  39  60  93 128 171 206 261 313 374
#
# _framework density 22.393006
#
# number of rings (size 3 to 8) (size 9 to 14) (size 15 to 20)
#    0.857    1.143    2.857    0.429    0.000    7.429 
#    0.000    0.000    3.143    3.429    0.000    0.000 
#    0.000    0.000    0.000    0.000    0.000    0.000 
#
# Total GULP energy -78110.321425 kJ/mol
# GULP energy per Si atom -5579.308673 kJ/mol
# Density = 2.234204 g / cm^3
# Si number density = 22.393006 Si / 1000 Ang^3
#
#
#
# Elastic Constant Matrix: (Units=GPa)
#
#
# Indices 1 2 3 4 5 6 
#
# 1 57.9898 10.4439 33.3086 1.4486 21.7890 -2.3506
# 2 10.4439 85.2187 71.3723 -10.3513 31.9230 -7.0716
# 3 33.3086 71.3723 156.6674 -8.7182 54.2666 -4.6802
# 4 1.4486 -10.3513 -8.7182 42.7746 5.1059 6.2264
# 5 21.7890 31.9230 54.2666 5.1059 34.0401 1.7001
# 6 -2.3506 -7.0716 -4.6802 6.2264 1.7001 27.9939
#
#
#
# Elastic Compliance Matrix: (Units=1/GPa)
#
#
# Indices 1 2 3 4 5 6 
#
# 1 0.024456 0.005826 -0.000157 0.002492 -0.021454 0.004248
# 2 0.005826 0.023382 -0.004686 0.006024 -0.019363 0.005448
# 3 -0.000157 -0.004686 0.016991 0.004840 -0.023418 0.001989
# 4 0.002492 0.006024 0.004840 0.028398 -0.019090 -0.002617
# 5 -0.021454 -0.019363 -0.023418 -0.019090 0.102092 -0.012562
# 6 0.004248 0.005448 0.001989 -0.002617 -0.012562 0.039133
#
#
# Mechanical properties :
#
#
# Convention : Reuss Voigt Hill
#
# Bulk Modulus (GPa) = 14.97085 58.90284 36.93684
# Shear Modulus (GPa) = 19.62696 33.27847 26.45272
#
# Velocity S-wave (km/s) = 2.96375 3.85919 3.44072
# Velocity P-wave (km/s) = 4.29089 6.79846 5.68466
#
# Compressibility (1/GPa) = 0.06679648
#
# Stress axis : x y z
#
# Youngs Moduli (GPa) = 40.88925 42.76759 58.85320
#
# Poissons Ratio (x) = -0.24917 0.00923
# Poissons Ratio (y) = -0.23823 0.27578
# Poissons Ratio (z) = 0.00642 0.20041
#
# Static dielectric constant tensor:
#      x y z
#    x 2.062530 0.083830 -0.020450 
#    y 0.083830 1.842580 -0.073220 
#    z -0.020450 -0.073220 1.887310 
# 
# From -- ./inp_files/335768.got.cif
#   From: 2010.05.17/outbox.cif.g08.bks.cpg/sg2_168_cif.got.tgz:335768.got - 2010.06.03 11:33:40.
