data_PCOD9090578
_publ_section_title
;
Structure prediction by ZEFSAII (Michael W. Deem and Ramdas Pophale) SiO2 
 PCOD9090578
Probable space group: P -1
;
_chemical_formula_sum "Si O2"
_cell_formula_units_Z 14
_cell_length_a 8.750851
_cell_length_b 8.864078
_cell_length_c 13.026486
_cell_angle_alpha 136.587958
_cell_angle_beta 83.833977
_cell_angle_gamma 80.169821
_cell_volume 643.018407
_symmetry_space_group_name_H-M "P -1"
_symmetry_group_IT_number 2
_symmetry_cell_setting 'triclinic'
loop_
_space_group_symop_operation_xyz
x,y,z
-x,-y,-z
loop_
_atom_site_type_symbol
_atom_site_label
_atom_site_fract_x
_atom_site_fract_y
_atom_site_fract_z
Si Si1 0.395923 0.941050 0.875578
Si Si2 0.680117 0.424532 0.398441
Si Si3 0.872364 0.013009 0.926573
Si Si4 0.321327 0.493560 0.165419
Si Si5 0.836093 0.451877 0.013445
Si Si6 0.414375 0.284668 0.665103
Si Si7 0.217404 0.397004 0.328543
O O1 0.289438 0.849482 0.759388
O O2 0.586460 0.773817 0.772120
O O3 0.309123 0.905514 0.968613
O O4 0.376094 0.210470 0.003339
O O5 0.500000 0.500000 0.500000
O O6 0.659631 0.575890 0.368601
O O7 0.795828 0.470262 0.498305
O O8 0.890241 0.764451 0.754132
O O9 0.880327 0.204350 0.943082
O O10 0.000000 0.000000 0.000000
O O11 0.452648 0.606553 0.248361
O O12 0.196801 0.541712 0.295604
O O13 0.250593 0.577676 0.100362
O O14 0.721899 0.644530 0.198820
O O15 0.000000 0.500000 0.000000
O O16 0.500000 0.000000 0.500000
#
# Coordination Sequence:
#
# PCOD9090578 Si02
#       7
#     2   2   2   2   2   2   2
#     4  10  19  38  67  94 123 166 229 280 317 387
#     4  10  20  38  66  95 133 167 215 278 344 377
#     4  11  22  41  64  91 126 175 229 272 321 402
#     4  11  22  39  66 101 129 175 229 282 330 393
#     4  12  26  44  65  96 141 182 224 273 338 403
#     4  12  26  42  67 105 141 174 222 278 342 401
#     4  10  20  37  66  95 125 165 225 279 330 387
#
# _framework density 21.772316
#
# number of rings (size 3 to 8) (size 9 to 14) (size 15 to 20)
#    0.000    1.143    4.286    4.714    6.000    0.000 
#    0.000    1.429    0.000    0.000    0.000    0.000 
#    0.000    0.000    0.000    0.000    0.000    0.000 
#
# Total GULP energy -78079.844123 kJ/mol
# GULP energy per Si atom -5577.131723 kJ/mol
# Density = 2.172276 g / cm^3
# Si number density = 21.772316 Si / 1000 Ang^3
#
#
#
# Elastic Constant Matrix: (Units=GPa)
#
#
# Indices 1 2 3 4 5 6 
#
# 1 84.6501 60.8736 73.9958 -5.1046 12.8150 18.7424
# 2 60.8736 151.6088 69.2948 -11.8572 19.2766 7.0988
# 3 73.9958 69.2948 185.7745 -6.2921 42.8920 11.0260
# 4 -5.1046 -11.8572 -6.2921 39.7061 6.1656 15.7308
# 5 12.8150 19.2766 42.8920 6.1656 55.7726 -9.4514
# 6 18.7424 7.0988 11.0260 15.7308 -9.4514 37.3129
#
#
#
# Elastic Compliance Matrix: (Units=1/GPa)
#
#
# Indices 1 2 3 4 5 6 
#
# 1 0.024968 -0.005874 -0.006546 0.005423 -0.001325 -0.012112
# 2 -0.005874 0.009721 -0.000832 0.002279 -0.001627 -0.000026
# 3 -0.006546 -0.000832 0.010022 0.002377 -0.006547 -0.002175
# 4 0.005423 0.002279 0.002377 0.037833 -0.011912 -0.022827
# 5 -0.001325 -0.001627 -0.006547 -0.011912 0.027681 0.014943
# 6 -0.012112 -0.000026 -0.002175 -0.022827 0.014943 0.046941
#
#
# Mechanical properties :
#
#
# Convention : Reuss Voigt Hill
#
# Bulk Modulus (GPa) = 54.92207 92.26242 73.59225
# Shear Modulus (GPa) = 26.35218 41.08292 33.71755
#
# Velocity S-wave (km/s) = 3.48279 4.34860 3.93955
# Velocity P-wave (km/s) = 6.43844 8.22689 7.38699
#
# Compressibility (1/GPa) = 0.01820762
#
# Stress axis : x y z
#
# Youngs Moduli (GPa) = 40.05051 102.87111 99.78345
#
# Poissons Ratio (x) = 0.60424 0.65317
# Poissons Ratio (y) = 0.23525 0.08303
# Poissons Ratio (z) = 0.26217 0.08560
#
# Static dielectric constant tensor:
#      x y z
#    x 1.825640 -0.017480 -0.011170 
#    y -0.017480 1.789640 -0.017040 
#    z -0.011170 -0.017040 1.894700 
# 
# From -- ./inp_files/380596.got.cif
#   From: 2010.05.17/outbox.cif.g08.bks.cpg/sg2_191_cif.got.tgz:380596.got - 2010.06.03 11:33:40.
