data_PCOD9090367
_publ_section_title
;
Structure prediction by ZEFSAII (Michael W. Deem and Ramdas Pophale) SiO2 
 PCOD9090367
Probable space group: P -1
;
_chemical_formula_sum "Si O2"
_cell_formula_units_Z 14
_cell_length_a 14.739913
_cell_length_b 11.613514
_cell_length_c 9.103719
_cell_angle_alpha 62.062546
_cell_angle_beta 133.919455
_cell_angle_gamma 80.084649
_cell_volume 619.031646
_symmetry_space_group_name_H-M "P -1"
_symmetry_group_IT_number 2
_symmetry_cell_setting 'triclinic'
loop_
_space_group_symop_operation_xyz
x,y,z
-x,-y,-z
loop_
_atom_site_type_symbol
_atom_site_label
_atom_site_fract_x
_atom_site_fract_y
_atom_site_fract_z
Si Si1 0.642082 0.643678 0.159585
Si Si2 0.398218 0.702971 0.353262
Si Si3 0.021362 0.140863 0.509045
Si Si4 0.400997 0.218433 0.302657
Si Si5 0.210296 0.893138 0.603797
Si Si6 0.031326 0.432292 0.407280
Si Si7 0.710912 0.313862 0.443038
O O1 0.763624 0.665052 0.352773
O O2 0.786965 0.400091 0.475423
O O3 0.602445 0.706045 0.905829
O O4 0.432586 0.776867 0.925583
O O5 0.500000 0.500000 0.500000
O O6 0.514938 0.741979 0.511704
O O7 0.329748 0.697753 0.433322
O O8 0.208366 0.910624 0.925055
O O9 0.035689 0.274399 0.499071
O O10 0.823164 0.223084 0.289435
O O11 0.056708 0.105943 0.394841
O O12 0.500000 0.000000 0.500000
O O13 0.178702 0.360350 0.026729
O O14 0.166972 0.892948 0.386503
O O15 0.000000 0.500000 0.500000
O O16 0.500000 0.500000 0.000000
#
# Coordination Sequence:
#
# PCOD9090367 Si02
#       7
#     2   2   2   2   2   2   2
#     4  10  20  40  68  93 128 184 220 268 335 415
#     4  12  24  39  68 104 137 172 231 286 334 398
#     4  11  25  39  68 100 130 179 228 282 333 407
#     4  11  23  42  69  97 137 179 221 281 344 411
#     4  10  21  40  65  94 132 173 227 270 338 392
#     4  10  22  41  67  94 130 179 228 265 345 411
#     4  10  19  38  65  93 130 177 213 270 339 398
#
# _framework density 22.615970000000001
#
# number of rings (size 3 to 8) (size 9 to 14) (size 15 to 20)
#    0.000    1.429    2.857    5.143    6.000    1.143 
#    2.571    1.429    0.000    2.571    0.000    0.000 
#    0.000    0.000    0.000    0.000    0.000    0.000 
#
# Total GULP energy -78082.096942 kJ/mol
# GULP energy per Si atom -5577.292639 kJ/mol
# Density = 2.256450 g / cm^3
# Si number density = 22.615970 Si / 1000 Ang^3
#
#
#
# Elastic Constant Matrix: (Units=GPa)
#
#
# Indices 1 2 3 4 5 6 
#
# 1 124.9367 68.4354 25.3156 7.1806 33.6645 6.4393
# 2 68.4354 201.4616 36.0577 -4.6506 10.9788 12.2488
# 3 25.3156 36.0577 70.6181 -0.7123 16.3667 8.4985
# 4 7.1806 -4.6506 -0.7123 35.5626 8.3307 2.6016
# 5 33.6645 10.9788 16.3667 8.3307 41.8374 12.8083
# 6 6.4393 12.2488 8.4985 2.6016 12.8083 53.6233
#
#
#
# Elastic Compliance Matrix: (Units=1/GPa)
#
#
# Indices 1 2 3 4 5 6 
#
# 1 0.012701 -0.003817 -0.000671 -0.001030 -0.009277 0.001719
# 2 -0.003817 0.006668 -0.002436 0.001115 0.002456 -0.001320
# 3 -0.000671 -0.002436 0.017042 0.001516 -0.005540 -0.000814
# 4 -0.001030 0.001115 0.001516 0.029913 -0.005886 -0.000417
# 5 -0.009277 0.002456 -0.005540 -0.005886 0.036182 -0.006926
# 6 0.001719 -0.001320 -0.000814 -0.000417 -0.006926 0.020547
#
#
# Mechanical properties :
#
#
# Convention : Reuss Voigt Hill
#
# Bulk Modulus (GPa) = 44.31946 72.95933 58.63940
# Shear Modulus (GPa) = 34.62045 44.01850 39.31947
#
# Velocity S-wave (km/s) = 3.91678 4.41653 4.17414
# Velocity P-wave (km/s) = 6.33198 7.63791 7.01540
#
# Compressibility (1/GPa) = 0.02256345
#
# Stress axis : x y z
#
# Youngs Moduli (GPa) = 78.73235 149.95983 58.67748
#
# Poissons Ratio (x) = 0.57241 0.03940
# Poissons Ratio (y) = 0.30053 0.14293
# Poissons Ratio (z) = 0.05286 0.36527
#
# Static dielectric constant tensor:
#      x y z
#    x 1.881380 0.004090 0.056890 
#    y 0.004090 1.936460 -0.016970 
#    z 0.056890 -0.016970 1.941210 
# 
# From -- ./inp_files/304867.got.cif
#   From: 2010.05.17/outbox.cif.g08.bks.cpg/sg2_153_cif.got.tgz:304867.got - 2010.06.03 11:33:40.
