data_PCOD9090269
_publ_section_title
;
Structure prediction by ZEFSAII (Michael W. Deem and Ramdas Pophale) SiO2 
 PCOD9090269
Probable space group: P -1
;
_chemical_formula_sum "Si O2"
_cell_formula_units_Z 14
_cell_length_a 9.173219
_cell_length_b 9.019318
_cell_length_c 11.096085
_cell_angle_alpha 92.156217
_cell_angle_beta 119.181903
_cell_angle_gamma 115.780929
_cell_volume 684.375708
_symmetry_space_group_name_H-M "P -1"
_symmetry_group_IT_number 2
_symmetry_cell_setting 'triclinic'
loop_
_space_group_symop_operation_xyz
x,y,z
-x,-y,-z
loop_
_atom_site_type_symbol
_atom_site_label
_atom_site_fract_x
_atom_site_fract_y
_atom_site_fract_z
Si Si1 0.309593 0.247400 0.625189
Si Si2 0.919865 0.313570 0.666121
Si Si3 0.441192 0.645673 0.479245
Si Si4 0.441043 0.889799 0.851331
Si Si5 0.909305 0.140964 0.397705
Si Si6 0.381542 0.002702 0.332405
Si Si7 0.624591 0.472297 0.148590
O O1 0.493280 0.276071 0.626350
O O2 0.367101 0.415804 0.729944
O O3 0.133991 0.213041 0.463345
O O4 0.207714 0.068820 0.653326
O O5 0.779010 0.392954 0.593636
O O6 0.906771 0.214466 0.532095
O O7 0.146409 0.447120 0.788130
O O8 0.827252 0.165046 0.727429
O O9 0.500000 0.500000 0.500000
O O10 0.579212 0.803252 0.629650
O O11 0.210267 0.808819 0.735159
O O12 0.541426 0.993734 0.770966
O O13 0.473095 0.730224 0.872204
O O14 0.500000 0.000000 0.000000
O O15 0.500000 0.000000 0.500000
O O16 0.500000 0.500000 0.000000
#
# Coordination Sequence:
#
# PCOD9090269 Si02
#       7
#     2   2   2   2   2   2   2
#     4  10  21  35  64  94 128 160 217 271 322 389
#     4  10  21  41  70  92 131 176 219 273 330 386
#     4  11  20  33  60 101 128 155 209 280 325 380
#     4  12  24  41  67  93 135 178 223 268 331 397
#     4  10  19  38  64  96 122 172 216 265 329 393
#     4  10  19  41  67  96 128 169 218 271 332 393
#     4  11  26  44  61  94 138 180 224 272 327 395
#
# _framework density 20.456600000000002
#
# number of rings (size 3 to 8) (size 9 to 14) (size 15 to 20)
#    0.000    1.429    4.286    2.571    2.000    1.143 
#    0.000    3.571    0.000    0.000    0.000    0.000 
#    0.000    0.000    0.000    0.000    0.000    0.000 
#
# Total GULP energy -78058.223297 kJ/mol
# GULP energy per Si atom -5575.587378 kJ/mol
# Density = 2.041004 g / cm^3
# Si number density = 20.456600 Si / 1000 Ang^3
#
#
#
# Elastic Constant Matrix: (Units=GPa)
#
#
# Indices 1 2 3 4 5 6 
#
# 1 108.7428 32.4500 34.8857 5.1825 -6.1893 -2.3670
# 2 32.4500 115.3340 46.0655 -0.9199 -9.7985 -15.8377
# 3 34.8857 46.0655 89.1292 -2.3691 -10.5701 0.3301
# 4 5.1825 -0.9199 -2.3691 26.6097 -8.7445 0.8789
# 5 -6.1893 -9.7985 -10.5701 -8.7445 31.9702 -0.2435
# 6 -2.3670 -15.8377 0.3301 0.8789 -0.2435 39.0610
#
#
#
# Elastic Compliance Matrix: (Units=1/GPa)
#
#
# Indices 1 2 3 4 5 6 
#
# 1 0.010939 -0.001719 -0.003495 -0.002593 -0.000273 0.000052
# 2 -0.001719 0.012131 -0.005377 0.000720 0.001841 0.004855
# 3 -0.003495 -0.005377 0.015914 0.003247 0.003805 -0.002576
# 4 -0.002593 0.000720 0.003247 0.042504 0.012412 -0.000772
# 5 -0.000273 0.001841 0.003805 0.012412 0.036449 0.000646
# 6 0.000052 0.004855 -0.002576 -0.000772 0.000646 0.027616
#
#
# Mechanical properties :
#
#
# Convention : Reuss Voigt Hill
#
# Bulk Modulus (GPa) = 56.17362 60.00095 58.08728
# Shear Modulus (GPa) = 28.95732 32.84849 30.90290
#
# Velocity S-wave (km/s) = 3.76646 4.01155 3.89093
# Velocity P-wave (km/s) = 6.81428 7.13100 6.97444
#
# Compressibility (1/GPa) = 0.01780195
#
# Stress axis : x y z
#
# Youngs Moduli (GPa) = 91.41420 82.43560 62.83773
#
# Poissons Ratio (x) = 0.14168 0.21961
# Poissons Ratio (y) = 0.15711 0.33791
# Poissons Ratio (z) = 0.31948 0.44329
#
# Static dielectric constant tensor:
#      x y z
#    x 1.781110 -0.005430 0.014850 
#    y -0.005430 1.852070 -0.007050 
#    z 0.014850 -0.007050 1.714860 
# 
# From -- ./inp_files/240522.got.cif
#   From: 2010.05.17/outbox.cif.g08.bks.cpg/sg2_121_cif.got.tgz:240522.got - 2010.06.03 11:33:40.
