data_PCOD9090789
_publ_section_title
;
Structure prediction by ZEFSAII (Michael W. Deem and Ramdas Pophale) SiO2 
 PCOD9090789
Probable space group: P -1
;
_chemical_formula_sum "Si O2"
_cell_formula_units_Z 14
_cell_length_a 12.608701
_cell_length_b 21.769829
_cell_length_c 15.037651
_cell_angle_alpha 151.117278
_cell_angle_beta 28.781259
_cell_angle_gamma 157.993372
_cell_volume 697.796904
_symmetry_space_group_name_H-M "P -1"
_symmetry_group_IT_number 2
_symmetry_cell_setting 'triclinic'
loop_
_space_group_symop_operation_xyz
x,y,z
-x,-y,-z
loop_
_atom_site_type_symbol
_atom_site_label
_atom_site_fract_x
_atom_site_fract_y
_atom_site_fract_z
Si Si1 0.747211 0.414547 0.002965
Si Si2 0.270098 0.167524 0.606901
Si Si3 0.651290 0.196996 0.650761
Si Si4 0.349824 0.581625 0.205677
Si Si5 0.667652 0.833943 0.645330
Si Si6 0.628937 0.544748 0.562171
Si Si7 0.919914 0.297172 0.032646
O O1 0.475964 0.380447 0.205754
O O2 0.626861 0.240086 0.823519
O O3 0.000000 0.500000 0.000000
O O4 0.918121 0.561320 0.985918
O O5 0.569412 0.318565 0.634385
O O6 0.336385 0.144046 0.429948
O O7 0.021323 0.977566 0.594842
O O8 0.068540 0.217551 0.816090
O O9 0.539951 0.268139 0.757302
O O10 0.011658 0.325429 0.534411
O O11 0.500000 0.000000 0.500000
O O12 0.023468 0.410290 0.190815
O O13 0.500000 0.500000 0.000000
O O14 0.532196 0.641849 0.515449
O O15 0.442772 0.836460 0.869071
O O16 0.500000 0.500000 0.500000
#
# Coordination Sequence:
#
# PCOD9090789 Si02
#       7
#     2   2   2   2   2   2   2
#     4  11  21  40  67  92 127 170 218 270 328 390
#     4  10  22  35  60  89 127 159 212 265 315 384
#     4  11  25  44  67  99 135 169 224 279 324 399
#     4   9  20  40  63  89 125 173 205 263 331 380
#     4  11  21  37  60  93 120 164 216 263 318 381
#     4  12  23  41  70  93 128 179 218 269 340 395
#     4  10  19  39  59  87 121 163 211 264 316 385
#
# _framework density 20.063144999999999
#
# number of rings (size 3 to 8) (size 9 to 14) (size 15 to 20)
#    0.000    1.429    5.714    0.429    2.000    1.143 
#    0.000    0.000    0.000    0.000    0.000    0.000 
#    0.000    0.000    0.000    0.000    0.000    0.000 
#
# Total GULP energy -77986.992660 kJ/mol
# GULP energy per Si atom -5570.499476 kJ/mol
# Density = 2.001748 g / cm^3
# Si number density = 20.063145 Si / 1000 Ang^3
#
#
#
# Elastic Constant Matrix: (Units=GPa)
#
#
# Indices 1 2 3 4 5 6 
#
# 1 72.0149 22.3571 26.9792 6.7579 7.2021 9.8380
# 2 22.3571 94.5673 33.8704 11.9243 0.6805 -3.7068
# 3 26.9792 33.8704 119.9316 4.7460 10.6460 -0.7705
# 4 6.7579 11.9243 4.7460 43.1056 -3.5817 0.6155
# 5 7.2021 0.6805 10.6460 -3.5817 30.7071 3.7430
# 6 9.8380 -3.7068 -0.7705 0.6155 3.7430 16.0583
#
#
#
# Elastic Compliance Matrix: (Units=1/GPa)
#
#
# Indices 1 2 3 4 5 6 
#
# 1 0.017938 -0.003440 -0.002907 -0.001536 -0.001911 -0.011419
# 2 -0.003440 0.012921 -0.002785 -0.002752 0.000564 0.004931
# 3 -0.002907 -0.002785 0.010071 -0.000170 -0.003053 0.002339
# 4 -0.001536 -0.002752 -0.000170 0.024533 0.003520 -0.001463
# 5 -0.001911 0.000564 -0.003053 0.003520 0.035351 -0.007221
# 6 -0.011419 0.004931 0.002339 -0.001463 -0.007221 0.072258
#
#
# Mechanical properties :
#
#
# Convention : Reuss Voigt Hill
#
# Bulk Modulus (GPa) = 44.11554 50.32523 47.22038
# Shear Modulus (GPa) = 25.13932 31.52802 28.33367
#
# Velocity S-wave (km/s) = 3.54363 3.96844 3.76203
# Velocity P-wave (km/s) = 6.22729 6.79234 6.51594
#
# Compressibility (1/GPa) = 0.02266775
#
# Stress axis : x y z
#
# Youngs Moduli (GPa) = 55.74736 77.39124 99.29281
#
# Poissons Ratio (x) = 0.26621 0.28862
# Poissons Ratio (y) = 0.19176 0.27651
# Poissons Ratio (z) = 0.16204 0.21552
#
# Static dielectric constant tensor:
#      x y z
#    x 1.750170 0.024410 -0.001940 
#    y 0.024410 1.691450 0.034980 
#    z -0.001940 0.034980 1.803950 
# 
# From -- ./inp_files/433554.got.cif
#   From: 2010.05.17/outbox.cif.g08.bks.cpg/sg2_217_cif.got.tgz:433554.got - 2010.06.03 11:33:40.
