data_PCOD9090141
_publ_section_title
;
Structure prediction by ZEFSAII (Michael W. Deem and Ramdas Pophale) SiO2 
 PCOD9090141
Probable space group: P -1
;
_chemical_formula_sum "Si O2"
_cell_formula_units_Z 16
_cell_length_a 8.182755
_cell_length_b 6.759664
_cell_length_c 17.832216
_cell_angle_alpha 72.168753
_cell_angle_beta 75.211692
_cell_angle_gamma 125.728336
_cell_volume 630.652532
_symmetry_space_group_name_H-M "P -1"
_symmetry_group_IT_number 2
_symmetry_cell_setting 'triclinic'
loop_
_space_group_symop_operation_xyz
x,y,z
-x,-y,-z
loop_
_atom_site_type_symbol
_atom_site_label
_atom_site_fract_x
_atom_site_fract_y
_atom_site_fract_z
Si Si1 0.467776 0.161988 0.543272
Si Si2 0.037937 0.516015 0.707012
Si Si3 0.923733 0.126068 0.046895
Si Si4 0.705479 0.182120 0.640679
Si Si5 0.273009 0.300470 0.768974
Si Si6 0.280915 0.215943 0.421469
Si Si7 0.353751 0.666104 0.850349
Si Si8 0.564039 0.073250 0.898435
O O1 0.221551 0.870847 0.646472
O O2 0.500000 0.000000 0.500000
O O3 0.675705 0.329096 0.562339
O O4 0.416141 0.296768 0.475492
O O5 0.918642 0.400094 0.651182
O O6 0.161237 0.401349 0.725354
O O7 0.831417 0.374227 0.809187
O O8 0.648239 0.962146 0.099350
O O9 0.934484 0.047236 0.140575
O O10 0.090720 0.443195 0.946186
O O11 0.000000 0.000000 0.000000
O O12 0.725660 0.989939 0.610494
O O13 0.467015 0.938209 0.749801
O O14 0.527000 0.463603 0.681017
O O15 0.356538 0.472181 0.818831
O O16 0.000000 0.000000 0.500000
O O17 0.526422 0.826716 0.884190
O O18 0.500000 0.000000 0.000000
#
# Coordination Sequence:
#
# PCOD9090141 Si02
#       8
#     2   2   2   2   2   2   2   2
#     4  10  19  38  64  85 113 161 202 251 308 350
#     4  11  21  39  65  87 121 157 212 258 297 372
#     4  10  21  37  60  85 123 166 193 254 316 365
#     4   9  20  38  63  90 115 160 208 248 307 363
#     4  10  20  41  62  87 129 164 203 258 317 359
#     4  10  21  38  61  87 127 159 201 255 309 367
#     4   9  18  39  62  84 123 163 201 252 298 365
#     4  11  23  36  61  96 119 159 218 253 297 376
#
# _framework density 25.370546999999998
#
# number of rings (size 3 to 8) (size 9 to 14) (size 15 to 20)
#    0.000    2.000    3.750    1.875    1.750    2.000 
#    0.000   14.375    0.000    0.000    0.000    0.000 
#    0.000    0.000    0.000    0.000    0.000    0.000 
#
# Total GULP energy -89161.380518 kJ/mol
# GULP energy per Si atom -5572.586282 kJ/mol
# Density = 2.531280 g / cm^3
# Si number density = 25.370547 Si / 1000 Ang^3
#
#
#
# Elastic Constant Matrix: (Units=GPa)
#
#
# Indices 1 2 3 4 5 6 
#
# 1 66.4528 14.8105 55.4872 -0.4835 -0.1351 -0.8962
# 2 14.8105 77.4016 38.9931 26.9155 8.9056 13.1487
# 3 55.4872 38.9931 237.1762 -3.7823 -18.0173 16.4646
# 4 -0.4835 26.9155 -3.7823 53.2586 8.3440 -2.2626
# 5 -0.1351 8.9056 -18.0173 8.3440 58.8883 6.6869
# 6 -0.8962 13.1487 16.4646 -2.2626 6.6869 24.1159
#
#
#
# Elastic Compliance Matrix: (Units=1/GPa)
#
#
# Indices 1 2 3 4 5 6 
#
# 1 0.019694 -0.002899 -0.004678 0.001876 -0.001919 0.006215
# 2 -0.002899 0.020133 -0.002164 -0.010631 -0.001035 -0.010318
# 3 -0.004678 -0.002164 0.006133 0.000936 0.002490 -0.003784
# 4 0.001876 -0.010631 0.000936 0.024989 -0.002584 0.008288
# 5 -0.001919 -0.001035 0.002490 -0.002584 0.019025 -0.006724
# 6 0.006215 -0.010318 -0.003784 0.008288 -0.006724 0.052549
#
#
# Mechanical properties :
#
#
# Convention : Reuss Voigt Hill
#
# Bulk Modulus (GPa) = 37.76630 66.62358 52.19494
# Shear Modulus (GPa) = 29.26871 45.36856 37.31864
#
# Velocity S-wave (km/s) = 3.40023 4.23334 3.83945
# Velocity P-wave (km/s) = 5.50759 7.08605 6.34609
#
# Compressibility (1/GPa) = 0.02647863
#
# Stress axis : x y z
#
# Youngs Moduli (GPa) = 50.77666 49.66974 163.04695
#
# Poissons Ratio (x) = 0.14400 0.76275
# Poissons Ratio (y) = 0.14721 0.35278
# Poissons Ratio (z) = 0.23754 0.10747
#
# Static dielectric constant tensor:
#      x y z
#    x 2.371120 1.059710 -0.525820 
#    y 1.059710 6.688190 -2.610830 
#    z -0.525820 -2.610830 3.523450 
# 
# From -- ./inp_files/557111.got.cif
#   From: 2010.05.17/outbox.cif.g08.bks.cpg/sg2_279_cif.got.tgz:557111.got - 2010.06.03 11:33:40.
