data_PCOD9090982
_publ_section_title
;
Structure prediction by ZEFSAII (Michael W. Deem and Ramdas Pophale) SiO2 
 PCOD9090982
Probable space group: P -1
;
_chemical_formula_sum "Si O2"
_cell_formula_units_Z 16
_cell_length_a 16.576520
_cell_length_b 17.224199
_cell_length_c 15.345156
_cell_angle_alpha 38.802094
_cell_angle_beta 36.570198
_cell_angle_gamma 17.052018
_cell_volume 763.819145
_symmetry_space_group_name_H-M "P -1"
_symmetry_group_IT_number 2
_symmetry_cell_setting 'triclinic'
loop_
_space_group_symop_operation_xyz
x,y,z
-x,-y,-z
loop_
_atom_site_type_symbol
_atom_site_label
_atom_site_fract_x
_atom_site_fract_y
_atom_site_fract_z
Si Si1 0.057597 0.857637 0.495989
Si Si2 0.792950 0.850410 0.829138
Si Si3 0.480326 0.621470 0.606191
Si Si4 0.534659 0.941755 0.621750
Si Si5 0.599637 0.238081 0.089096
Si Si6 0.862293 0.552856 0.371824
Si Si7 0.777860 0.241327 0.102715
Si Si8 0.147277 0.342957 0.900777
O O1 0.798647 0.094466 0.446891
O O2 0.005700 0.768901 0.666097
O O3 0.000000 0.000000 0.500000
O O4 0.356586 0.607404 0.400429
O O5 0.882193 0.640802 0.904407
O O6 0.463399 0.142188 0.830658
O O7 0.844458 0.796666 0.935388
O O8 0.711664 0.544367 0.487686
O O9 0.364484 0.667202 0.759865
O O10 0.449646 0.867825 0.775251
O O11 0.845078 0.707861 0.601906
O O12 0.500000 0.000000 0.500000
O O13 0.334894 0.203975 0.610178
O O14 0.665176 0.234975 0.132850
O O15 0.327280 0.538256 0.030335
O O16 0.875105 0.046239 0.956234
O O17 0.888683 0.613756 0.208214
#
# Coordination Sequence:
#
# PCOD9090982 Si02
#       8
#     2   2   2   2   2   2   2   2
#     4  12  24  42  64  94 134 170 217 279 327 385
#     4  10  19  39  62  89 124 160 212 260 324 384
#     4  12  24  43  68  96 129 170 232 262 322 400
#     4  12  26  42  65 100 136 167 209 273 337 379
#     4  10  22  44  65  95 133 166 217 258 324 391
#     4  12  23  41  67  96 131 170 218 272 323 388
#     4  10  22  42  71  91 125 181 212 261 313 386
#     4  10  20  37  65  89 119 168 210 259 314 385
#
# _framework density 20.947367
#
# number of rings (size 3 to 8) (size 9 to 14) (size 15 to 20)
#    0.000    1.000    2.500    4.500    0.000    3.000 
#    6.750    0.000    0.000    0.000    0.000    0.000 
#    0.000    0.000    0.000    0.000    0.000    0.000 
#
# Total GULP energy -89330.358669 kJ/mol
# GULP energy per Si atom -5583.147417 kJ/mol
# Density = 2.089969 g / cm^3
# Si number density = 20.947367 Si / 1000 Ang^3
#
#
#
# Elastic Constant Matrix: (Units=GPa)
#
#
# Indices 1 2 3 4 5 6 
#
# 1 70.7154 28.6454 36.3569 -4.6520 27.7277 6.2134
# 2 28.6454 128.2065 10.3263 -8.4044 15.1143 5.8859
# 3 36.3569 10.3263 72.9901 6.3904 28.9682 2.4687
# 4 -4.6520 -8.4044 6.3904 31.5069 8.7451 12.7386
# 5 27.7277 15.1143 28.9682 8.7451 41.8490 -2.8359
# 6 6.2134 5.8859 2.4687 12.7386 -2.8359 44.1000
#
#
#
# Elastic Compliance Matrix: (Units=1/GPa)
#
#
# Indices 1 2 3 4 5 6 
#
# 1 0.025950 -0.002473 -0.007901 0.011435 -0.013700 -0.007068
# 2 -0.002473 0.008981 0.000981 0.003581 -0.003178 -0.002144
# 3 -0.007901 0.000981 0.021477 -0.002609 -0.009446 -0.000074
# 4 0.011435 0.003581 -0.002609 0.046576 -0.017918 -0.016549
# 5 -0.013700 -0.003178 -0.009446 -0.017918 0.045146 0.010962
# 6 -0.007068 -0.002144 -0.000074 -0.016549 0.010962 0.029447
#
#
# Mechanical properties :
#
#
# Convention : Reuss Voigt Hill
#
# Bulk Modulus (GPa) = 26.57891 46.95213 36.76552
# Shear Modulus (GPa) = 23.93471 36.59673 30.26572
#
# Velocity S-wave (km/s) = 3.38392 4.18434 3.80524
# Velocity P-wave (km/s) = 5.28998 6.76816 6.07420
#
# Compressibility (1/GPa) = 0.03762382
#
# Stress axis : x y z
#
# Youngs Moduli (GPa) = 38.53597 111.34443 46.56164
#
# Poissons Ratio (x) = 0.27530 0.36788
# Poissons Ratio (y) = 0.09528 -0.04569
# Poissons Ratio (z) = 0.30447 -0.10927
#
# Static dielectric constant tensor:
#      x y z
#    x 1.750350 0.005930 -0.011460 
#    y 0.005930 1.709610 -0.011370 
#    z -0.011460 -0.011370 1.764500 
# 
# From -- ./inp_files/534251.got.cif
#   From: 2010.05.17/outbox.cif.g08.bks.cpg/sg2_268_cif.got.tgz:534251.got - 2010.06.03 11:33:40.
