data_PCOD9090486
_publ_section_title
;
Structure prediction by ZEFSAII (Michael W. Deem and Ramdas Pophale) SiO2 
 PCOD9090486
Probable space group: P -1
;
_chemical_formula_sum "Si O2"
_cell_formula_units_Z 16
_cell_length_a 21.603621
_cell_length_b 18.148812
_cell_length_c 11.643736
_cell_angle_alpha 31.165284
_cell_angle_beta 139.604608
_cell_angle_gamma 160.583302
_cell_volume 757.535125
_symmetry_space_group_name_H-M "P -1"
_symmetry_group_IT_number 2
_symmetry_cell_setting 'triclinic'
loop_
_space_group_symop_operation_xyz
x,y,z
-x,-y,-z
loop_
_atom_site_type_symbol
_atom_site_label
_atom_site_fract_x
_atom_site_fract_y
_atom_site_fract_z
Si Si1 0.150888 0.201493 0.341238
Si Si2 0.895186 0.685587 0.338542
Si Si3 0.771281 0.232065 0.061537
Si Si4 0.482810 0.904562 0.480923
Si Si5 0.546946 0.660103 0.961366
Si Si6 0.926701 0.008733 0.060028
Si Si7 0.401961 0.781346 0.988093
Si Si8 0.738171 0.882622 0.561210
O O1 0.201870 0.112830 0.480249
O O2 0.052064 0.151530 0.159232
O O3 0.330487 0.529276 0.197924
O O4 0.000000 0.000000 0.500000
O O5 0.731803 0.360016 0.521128
O O6 0.822083 0.723032 0.263085
O O7 0.084820 0.884319 0.409152
O O8 0.947372 0.803714 0.126160
O O9 0.736055 0.320528 0.977638
O O10 0.686754 0.979380 0.339048
O O11 0.000000 0.500000 0.000000
O O12 0.620472 0.062957 0.970305
O O13 0.513491 0.777550 0.718667
O O14 0.500000 0.000000 0.500000
O O15 0.613484 0.146414 0.246609
O O16 0.500000 0.500000 0.000000
O O17 0.415240 0.424675 0.190144
O O18 0.767874 0.923733 0.957327
#
# Coordination Sequence:
#
# PCOD9090486 Si02
#       8
#     2   2   2   2   2   2   2   2
#     4  11  25  46  66  95 133 176 224 275 330 393
#     4  10  19  38  66  93 128 169 211 275 330 390
#     4  11  25  47  71  99 134 179 230 274 329 401
#     4  12  24  42  63  95 140 172 212 271 343 399
#     4  12  21  39  68 101 127 166 220 278 326 394
#     4  10  21  38  65  97 129 163 222 271 325 389
#     4  11  26  46  69  97 138 182 219 274 341 398
#     4  11  23  41  70  98 127 169 228 273 329 393
#
# _framework density 21.121133
#
# number of rings (size 3 to 8) (size 9 to 14) (size 15 to 20)
#    0.000    1.000    2.500    5.250    1.750    2.500 
#    9.000    1.250    0.000    0.000    0.000    0.000 
#    0.000    0.000    0.000    0.000    0.000    0.000 
#
# Total GULP energy -89363.619672 kJ/mol
# GULP energy per Si atom -5585.226229 kJ/mol
# Density = 2.107306 g / cm^3
# Si number density = 21.121133 Si / 1000 Ang^3
#
#
#
# Elastic Constant Matrix: (Units=GPa)
#
#
# Indices 1 2 3 4 5 6 
#
# 1 88.4808 35.4022 15.0848 -0.2122 -6.3234 -21.1929
# 2 35.4022 87.0938 6.0144 0.1931 0.3142 -5.6274
# 3 15.0848 6.0144 76.2468 8.5625 -2.1591 -8.4953
# 4 -0.2122 0.1931 8.5625 36.1704 2.0753 3.8469
# 5 -6.3234 0.3142 -2.1591 2.0753 33.1998 -1.2496
# 6 -21.1929 -5.6274 -8.4953 3.8469 -1.2496 34.7790
#
#
#
# Elastic Compliance Matrix: (Units=1/GPa)
#
#
# Indices 1 2 3 4 5 6 
#
# 1 0.016306 -0.005961 -0.001612 -0.000620 0.003426 0.008769
# 2 -0.005961 0.013822 -0.000133 0.000159 -0.001341 -0.001494
# 3 -0.001612 -0.000133 0.014217 -0.003740 0.000962 0.002917
# 4 -0.000620 0.000159 -0.003740 0.029150 -0.002357 -0.004575
# 5 0.003426 -0.001341 0.000962 -0.002357 0.031127 0.003485
# 6 0.008769 -0.001494 0.002917 -0.004575 0.003485 0.035199
#
#
# Mechanical properties :
#
#
# Convention : Reuss Voigt Hill
#
# Bulk Modulus (GPa) = 34.56355 40.53601 37.54978
# Shear Modulus (GPa) = 30.32576 33.85115 32.08846
#
# Velocity S-wave (km/s) = 3.79331 4.00774 3.90199
# Velocity P-wave (km/s) = 5.96536 6.37572 6.17395
#
# Compressibility (1/GPa) = 0.02893221
#
# Stress axis : x y z
#
# Youngs Moduli (GPa) = 61.32869 72.34808 70.33849
#
# Poissons Ratio (x) = 0.43127 0.11338
# Poissons Ratio (y) = 0.36558 0.00937
# Poissons Ratio (z) = 0.09886 0.00964
#
# Static dielectric constant tensor:
#      x y z
#    x 1.757520 0.028950 -0.023540 
#    y 0.028950 1.802410 -0.023010 
#    z -0.023540 -0.023010 1.813790 
# 
# From -- ./inp_files/472339.got.cif
#   From: 2010.05.17/outbox.cif.g08.bks.cpg/sg2_237_cif.got.tgz:472339.got - 2010.06.03 11:33:40.
