data_PCOD9090925
_publ_section_title
;
Structure prediction by ZEFSAII (Michael W. Deem and Ramdas Pophale) SiO2 
 PCOD9090925
Probable space group: P -1
;
_chemical_formula_sum "Si O2"
_cell_formula_units_Z 16
_cell_length_a 10.446848
_cell_length_b 11.552306
_cell_length_c 15.396899
_cell_angle_alpha 120.371058
_cell_angle_beta 41.856034
_cell_angle_gamma 145.478300
_cell_volume 673.361752
_symmetry_space_group_name_H-M "P -1"
_symmetry_group_IT_number 2
_symmetry_cell_setting 'triclinic'
loop_
_space_group_symop_operation_xyz
x,y,z
-x,-y,-z
loop_
_atom_site_type_symbol
_atom_site_label
_atom_site_fract_x
_atom_site_fract_y
_atom_site_fract_z
Si Si1 0.678721 0.155404 0.686817
Si Si2 0.703862 0.403419 0.459076
Si Si3 0.619068 0.952436 0.027215
Si Si4 0.165199 0.223511 0.966273
Si Si5 0.360101 0.174797 0.379777
Si Si6 0.870091 0.628428 0.789467
Si Si7 0.360750 0.723654 0.901047
Si Si8 0.638569 0.942269 0.364472
O O1 0.584555 0.177273 0.832264
O O2 0.579581 0.948166 0.671116
O O3 0.512728 0.136264 0.683547
O O4 0.037927 0.347763 0.557975
O O5 0.463168 0.236409 0.592485
O O6 0.918518 0.386719 0.335797
O O7 0.536662 0.346421 0.432400
O O8 0.573389 0.083444 0.077063
O O9 0.507637 0.790795 0.947877
O O10 0.976097 0.140800 0.942588
O O11 0.527526 0.416051 0.852228
O O12 0.111251 0.312543 0.097665
O O13 0.000000 0.000000 0.000000
O O14 0.488837 0.269930 0.254370
O O15 0.000000 0.000000 0.500000
O O16 0.011343 0.829468 0.739965
O O17 0.000000 0.500000 0.000000
O O18 0.500000 0.000000 0.500000
#
# Coordination Sequence:
#
# PCOD9090925 Si02
#       8
#     2   2   2   2   2   2   2   2
#     4  11  20  40  69  92 127 164 215 260 322 387
#     4  11  22  40  68  89 123 172 209 257 318 384
#     4  10  21  40  64  95 123 162 217 267 304 382
#     4  11  22  38  59  95 132 161 204 260 323 380
#     4  11  24  44  63  93 131 166 215 273 322 379
#     4  10  21  37  60  91 128 166 203 253 315 386
#     4  10  22  43  69  89 120 170 222 263 318 374
#     4  10  19  39  61  93 122 160 209 251 312 391
#
# _framework density 23.761372999999999
#
# number of rings (size 3 to 8) (size 9 to 14) (size 15 to 20)
#    0.000    1.500    3.750    2.625    0.000    2.500 
#    4.500    0.000    0.000    0.000    0.000    0.000 
#    0.000    0.000    0.000    0.000    0.000    0.000 
#
# Total GULP energy -89439.446600 kJ/mol
# GULP energy per Si atom -5589.965412 kJ/mol
# Density = 2.370729 g / cm^3
# Si number density = 23.761373 Si / 1000 Ang^3
#
#
#
# Elastic Constant Matrix: (Units=GPa)
#
#
# Indices 1 2 3 4 5 6 
#
# 1 48.6757 21.9005 36.6129 6.0062 7.6875 29.3197
# 2 21.9005 94.1576 44.4964 -23.9423 16.3325 33.1692
# 3 36.6129 44.4964 133.5233 -21.8992 16.5923 26.1385
# 4 6.0062 -23.9423 -21.8992 43.0111 7.7428 -6.9066
# 5 7.6875 16.3325 16.5923 7.7428 38.7915 -2.3402
# 6 29.3197 33.1692 26.1385 -6.9066 -2.3402 45.3703
#
#
#
# Elastic Compliance Matrix: (Units=1/GPa)
#
#
# Indices 1 2 3 4 5 6 
#
# 1 0.046281 0.000087 -0.009382 -0.014835 -0.003865 -0.027024
# 2 0.000087 0.020449 -0.001104 0.010666 -0.011087 -0.013318
# 3 -0.009382 -0.001104 0.012071 0.007762 -0.004335 0.000874
# 4 -0.014835 0.010666 0.007762 0.037811 -0.012271 0.002440
# 5 -0.003865 -0.011087 -0.004335 -0.012271 0.036307 0.013105
# 6 -0.027024 -0.013318 0.000874 0.002440 0.013105 0.049785
#
#
# Mechanical properties :
#
#
# Convention : Reuss Voigt Hill
#
# Bulk Modulus (GPa) = 17.24081 53.59734 35.41908
# Shear Modulus (GPa) = 20.59002 36.99105 28.79053
#
# Velocity S-wave (km/s) = 2.94689 3.94988 3.48466
# Velocity P-wave (km/s) = 4.34171 6.58844 5.57933
#
# Compressibility (1/GPa) = 0.05800190
#
# Stress axis : x y z
#
# Youngs Moduli (GPa) = 21.60722 48.90238 82.84599
#
# Poissons Ratio (x) = -0.00426 0.77727
# Poissons Ratio (y) = -0.00188 0.09149
# Poissons Ratio (z) = 0.20272 0.05400
#
# Static dielectric constant tensor:
#      x y z
#    x 1.950840 -0.025470 0.000510 
#    y -0.025470 1.943910 0.053340 
#    z 0.000510 0.053340 1.998410 
# 
# From -- ./inp_files/521617.got.cif
#   From: 2010.05.17/outbox.cif.g08.bks.cpg/sg2_261_cif.got.tgz:521617.got - 2010.06.03 11:33:40.
