data_PCOD9090002
_publ_section_title
;
Structure prediction by ZEFSAII (Michael W. Deem and Ramdas Pophale) SiO2 
 PCOD9090002
Probable space group: P -1
;
_chemical_formula_sum "Si O2"
_cell_formula_units_Z 16
_cell_length_a 12.685100
_cell_length_b 14.883887
_cell_length_c 11.540672
_cell_angle_alpha 58.410924
_cell_angle_beta 132.294604
_cell_angle_gamma 156.114751
_cell_volume 621.410503
_symmetry_space_group_name_H-M "P -1"
_symmetry_group_IT_number 2
_symmetry_cell_setting 'triclinic'
loop_
_space_group_symop_operation_xyz
x,y,z
-x,-y,-z
loop_
_atom_site_type_symbol
_atom_site_label
_atom_site_fract_x
_atom_site_fract_y
_atom_site_fract_z
Si Si1 0.188021 0.003397 0.514914
Si Si2 0.460056 0.540134 0.560182
Si Si3 0.673233 0.612254 0.905819
Si Si4 0.769712 0.524693 0.213080
Si Si5 0.648393 0.788863 0.178291
Si Si6 0.702448 0.377885 0.760647
Si Si7 0.675974 0.261607 0.162462
Si Si8 0.287707 0.891267 0.524131
O O1 0.338391 0.048567 0.480745
O O2 0.894433 0.722849 0.492239
O O3 0.951062 0.949813 0.364765
O O4 0.399334 0.102417 0.717272
O O5 0.500000 0.500000 0.500000
O O6 0.690826 0.666883 0.750851
O O7 0.465666 0.665727 0.439548
O O8 0.552534 0.631330 0.878191
O O9 0.420414 0.350173 0.869695
O O10 0.907429 0.701641 0.101881
O O11 0.764990 0.411189 0.220240
O O12 0.952052 0.640449 0.390050
O O13 0.348060 0.593430 0.177729
O O14 0.615531 0.877777 0.027603
O O15 0.038835 0.566379 0.837114
O O16 0.630691 0.126285 0.292630
O O17 0.500000 0.000000 0.500000
#
# Coordination Sequence:
#
# PCOD9090002 Si02
#       8
#     2   2   2   2   2   2   2   2
#     4  11  23  42  66  99 130 172 227 265 320 398
#     4  11  20  38  66  98 134 170 217 270 326 386
#     4   9  18  35  64  91 119 166 215 266 311 381
#     4  10  19  38  63  86 122 169 217 257 322 382
#     4  10  21  41  66  98 133 169 218 276 323 395
#     4  12  22  40  71  98 132 178 216 267 335 395
#     4  11  24  41  67  95 133 175 216 271 344 383
#     4  12  24  42  61  91 134 172 217 276 324 393
#
# _framework density 25.747876000000002
#
# number of rings (size 3 to 8) (size 9 to 14) (size 15 to 20)
#    0.000    1.250    6.250    1.875    0.000    1.000 
#    2.250    1.250    0.000    0.000    0.000    0.000 
#    0.000    0.000    0.000    0.000    0.000    0.000 
#
# Total GULP energy -89087.621976 kJ/mol
# GULP energy per Si atom -5567.976373 kJ/mol
# Density = 2.568927 g / cm^3
# Si number density = 25.747876 Si / 1000 Ang^3
#
#
#
# Elastic Constant Matrix: (Units=GPa)
#
#
# Indices 1 2 3 4 5 6 
#
# 1 179.1399 14.8376 19.8775 -3.8593 -7.3609 -7.5506
# 2 14.8376 38.8274 15.5666 -0.8685 8.6194 3.1601
# 3 19.8775 15.5666 136.7515 -20.2650 14.4713 4.5424
# 4 -3.8593 -0.8685 -20.2650 42.3421 4.1341 6.1490
# 5 -7.3609 8.6194 14.4713 4.1341 48.2761 -0.4616
# 6 -7.5506 3.1601 4.5424 6.1490 -0.4616 19.0918
#
#
#
# Elastic Compliance Matrix: (Units=1/GPa)
#
#
# Indices 1 2 3 4 5 6 
#
# 1 0.006108 -0.002620 -0.000981 -0.000623 0.001778 0.003326
# 2 -0.002620 0.029215 -0.002116 0.000674 -0.005094 -0.005709
# 3 -0.000981 -0.002116 0.008860 0.004943 -0.002887 -0.003807
# 4 -0.000623 0.000674 0.004943 0.027890 -0.004187 -0.010618
# 5 0.001778 -0.005094 -0.002887 -0.004187 0.023158 0.004142
# 6 0.003326 -0.005709 -0.003807 -0.010618 0.004142 0.059065
#
#
# Mechanical properties :
#
#
# Convention : Reuss Voigt Hill
#
# Bulk Modulus (GPa) = 30.53495 50.58690 40.56092
# Shear Modulus (GPa) = 28.30490 42.23780 35.27135
#
# Velocity S-wave (km/s) = 3.31918 4.05463 3.70520
# Velocity P-wave (km/s) = 5.15502 6.45056 5.83883
#
# Compressibility (1/GPa) = 0.03274936
#
# Stress axis : x y z
#
# Youngs Moduli (GPa) = 163.72203 34.22871 112.86181
#
# Poissons Ratio (x) = 0.08969 0.11066
# Poissons Ratio (y) = 0.42902 0.23884
# Poissons Ratio (z) = 0.16053 0.07243
#
# Static dielectric constant tensor:
#      x y z
#    x 2.452170 0.037440 0.029050 
#    y 0.037440 2.573060 0.142350 
#    z 0.029050 0.142350 2.211690 
# 
# From -- ./inp_files/432765.got.cif
#   From: 2010.05.17/outbox.cif.g08.bks.cpg/sg2_217_cif.got.tgz:432765.got - 2010.06.03 11:33:40.
