data_PCOD9090746
_publ_section_title
;
Structure prediction by ZEFSAII (Michael W. Deem and Ramdas Pophale) SiO2 
 PCOD9090746
Probable space group: P -1
;
_chemical_formula_sum "Si O2"
_cell_formula_units_Z 16
_cell_length_a 7.676052
_cell_length_b 9.643269
_cell_length_c 11.741180
_cell_angle_alpha 63.442758
_cell_angle_beta 106.048946
_cell_angle_gamma 106.181183
_cell_volume 734.851309
_symmetry_space_group_name_H-M "P -1"
_symmetry_group_IT_number 2
_symmetry_cell_setting 'triclinic'
loop_
_space_group_symop_operation_xyz
x,y,z
-x,-y,-z
loop_
_atom_site_type_symbol
_atom_site_label
_atom_site_fract_x
_atom_site_fract_y
_atom_site_fract_z
Si Si1 0.915208 0.656379 0.446499
Si Si2 0.774227 0.856324 0.959844
Si Si3 0.847033 0.799180 0.614053
Si Si4 0.531977 0.687732 0.776375
Si Si5 0.498039 0.089731 0.816890
Si Si6 0.394781 0.989156 0.603089
Si Si7 0.362026 0.352549 0.793830
Si Si8 0.943861 0.997113 0.228391
O O1 0.903313 0.687800 0.567553
O O2 0.724218 0.620077 0.354200
O O3 0.000000 0.500000 0.500000
O O4 0.997255 0.830735 0.343295
O O5 0.659362 0.737910 0.890074
O O6 0.638871 0.979406 0.919028
O O7 0.952262 0.943592 0.891829
O O8 0.788050 0.754915 0.112436
O O9 0.663379 0.717650 0.678086
O O10 0.982659 0.869832 0.713314
O O11 0.787898 0.943957 0.479866
O O12 0.389140 0.809572 0.704992
O O13 0.432907 0.510280 0.815847
O O14 0.513629 0.098494 0.679234
O O15 0.277606 0.021160 0.811801
O O16 0.520199 0.251613 0.830215
O O17 0.500000 0.000000 0.500000
#
# Coordination Sequence:
#
# PCOD9090746 Si02
#       8
#     2   2   2   2   2   2   2   2
#     4  11  25  37  56  94 129 162 194 254 327 361
#     4  10  22  42  66  89 116 169 222 243 304 369
#     4  10  19  39  57  87 122 162 210 243 299 386
#     4   9  21  35  62  89 119 162 203 260 309 358
#     4  10  21  38  60  94 117 159 211 251 311 355
#     4   9  17  34  57  86 115 157 207 236 292 374
#     4  11  22  40  60  89 130 160 201 266 308 362
#     4  10  22  40  67  88 121 167 207 260 293 368
#
# _framework density 21.773111
#
# number of rings (size 3 to 8) (size 9 to 14) (size 15 to 20)
#    0.000    2.000    2.500    1.875    1.750    4.500 
#    0.000    1.250    0.000    6.000    0.000    0.000 
#    0.000    0.000    0.000    0.000    0.000    0.000 
#
# Total GULP energy -89268.583570 kJ/mol
# GULP energy per Si atom -5579.286473 kJ/mol
# Density = 2.172355 g / cm^3
# Si number density = 21.773111 Si / 1000 Ang^3
#
#
#
# Elastic Constant Matrix: (Units=GPa)
#
#
# Indices 1 2 3 4 5 6 
#
# 1 69.0447 24.7095 14.9103 -12.5567 -6.6173 -15.5954
# 2 24.7095 130.2048 18.7484 4.4497 -6.6845 -30.7347
# 3 14.9103 18.7484 78.0847 16.2135 -13.4012 -14.1720
# 4 -12.5567 4.4497 16.2135 27.0076 4.2226 -5.1573
# 5 -6.6173 -6.6845 -13.4012 4.2226 27.7330 4.5533
# 6 -15.5954 -30.7347 -14.1720 -5.1573 4.5533 35.6777
#
#
#
# Elastic Compliance Matrix: (Units=1/GPa)
#
#
# Indices 1 2 3 4 5 6 
#
# 1 0.020611 -0.001941 -0.005491 0.014904 -0.001709 0.007529
# 2 -0.001941 0.009892 -0.000340 -0.001047 0.000719 0.007295
# 3 -0.005491 -0.000340 0.019050 -0.015211 0.009898 0.001412
# 4 0.014904 -0.001047 -0.015211 0.057359 -0.014372 0.009696
# 5 -0.001709 0.000719 0.009898 -0.014372 0.043421 -0.003815
# 6 0.007529 0.007295 0.001412 0.009696 -0.003815 0.040054
#
#
# Mechanical properties :
#
#
# Convention : Reuss Voigt Hill
#
# Bulk Modulus (GPa) = 29.40269 43.78563 36.59416
# Shear Modulus (GPa) = 23.01323 32.68140 27.84731
#
# Velocity S-wave (km/s) = 3.25461 3.87848 3.58016
# Velocity P-wave (km/s) = 5.25897 6.34116 5.82525
#
# Compressibility (1/GPa) = 0.03401049
#
# Stress axis : x y z
#
# Youngs Moduli (GPa) = 48.51782 101.09045 52.49310
#
# Poissons Ratio (x) = 0.19618 0.28825
# Poissons Ratio (y) = 0.09415 0.01783
# Poissons Ratio (z) = 0.26642 0.03434
#
# Static dielectric constant tensor:
#      x y z
#    x 1.828280 0.000000 -0.017310 
#    y 0.000000 1.826820 0.009110 
#    z -0.017310 0.009110 1.850380 
# 
# From -- ./inp_files/205578.got.cif
#   From: 2010.05.17/outbox.cif.g08.bks.cpg/sg2_103_cif.got.tgz:205578.got - 2010.06.03 11:33:40.
