data_PCOD9090704
_publ_section_title
;
Structure prediction by ZEFSAII (Michael W. Deem and Ramdas Pophale) SiO2 
 PCOD9090704
Probable space group: P -1
;
_chemical_formula_sum "Si O2"
_cell_formula_units_Z 14
_cell_length_a 9.107815
_cell_length_b 10.081475
_cell_length_c 8.113216
_cell_angle_alpha 100.846699
_cell_angle_beta 131.727721
_cell_angle_gamma 86.637382
_cell_volume 543.782245
_symmetry_space_group_name_H-M "P -1"
_symmetry_group_IT_number 2
_symmetry_cell_setting 'triclinic'
loop_
_space_group_symop_operation_xyz
x,y,z
-x,-y,-z
loop_
_atom_site_type_symbol
_atom_site_label
_atom_site_fract_x
_atom_site_fract_y
_atom_site_fract_z
Si Si1 0.550702 0.241499 0.371998
Si Si2 0.183628 0.668507 0.132970
Si Si3 0.723282 0.835380 0.556201
Si Si4 0.938414 0.649559 0.496701
Si Si5 0.838077 0.117573 0.085733
Si Si6 0.209345 0.374586 0.977749
Si Si7 0.761464 0.004145 0.315446
O O1 0.694159 0.343947 0.612016
O O2 0.414029 0.162314 0.390162
O O3 0.685715 0.138596 0.365886
O O4 0.412978 0.318021 0.166417
O O5 0.955427 0.666151 0.015406
O O6 0.240939 0.810538 0.116074
O O7 0.219469 0.538072 0.020734
O O8 0.767500 0.681078 0.506570
O O9 0.935263 0.915505 0.780819
O O10 0.670723 0.893500 0.352247
O O11 0.868642 0.682292 0.268893
O O12 0.000000 0.500000 0.500000
O O13 0.113071 0.753313 0.723249
O O14 0.721232 0.005299 0.087849
O O15 0.000000 0.000000 0.500000
#
# Coordination Sequence:
#
# PCOD9090704 Si02
#       7
#     2   2   2   2   2   2   2
#     4  12  24  42  67 102 131 173 229 273 330 396
#     4  11  23  40  67  97 143 174 215 271 338 396
#     4   9  21  42  66  96 134 169 223 277 323 390
#     4  10  19  38  71  95 132 178 210 270 331 388
#     4   9  19  42  67  94 131 176 221 260 335 385
#     4  11  22  42  64 102 138 178 215 271 332 397
#     4  10  22  44  70  92 133 178 223 278 332 394
#
# _framework density 25.745598999999999
#
# number of rings (size 3 to 8) (size 9 to 14) (size 15 to 20)
#    0.857    0.857    2.857    1.714    2.000    1.143 
#    2.571    8.571    0.000    0.000    0.000    0.000 
#    0.000    0.000    0.000    0.000    0.000    0.000 
#
# Total GULP energy -78266.593076 kJ/mol
# GULP energy per Si atom -5590.470934 kJ/mol
# Density = 2.568700 g / cm^3
# Si number density = 25.745599 Si / 1000 Ang^3
#
#
#
# Elastic Constant Matrix: (Units=GPa)
#
#
# Indices 1 2 3 4 5 6 
#
# 1 138.8155 31.3507 13.4518 -19.3009 4.9209 -14.9239
# 2 31.3507 52.5948 25.2023 -14.2758 3.9792 -16.5877
# 3 13.4518 25.2023 142.4760 -22.3200 -12.7515 -13.0417
# 4 -19.3009 -14.2758 -22.3200 41.4727 3.7630 -8.2767
# 5 4.9209 3.9792 -12.7515 3.7630 22.3129 -2.0984
# 6 -14.9239 -16.5877 -13.0417 -8.2767 -2.0984 42.5671
#
#
#
# Elastic Compliance Matrix: (Units=1/GPa)
#
#
# Indices 1 2 3 4 5 6 
#
# 1 0.008805 -0.003561 0.000491 0.003767 -0.001425 0.002512
# 2 -0.003561 0.028974 -0.002924 0.009473 -0.006648 0.010660
# 3 0.000491 -0.002924 0.008833 0.004073 0.005035 0.002779
# 4 0.003767 0.009473 0.004073 0.034285 -0.004781 0.012691
# 5 -0.001425 -0.006648 0.005035 -0.004781 0.050000 -0.000012
# 6 0.002512 0.010660 0.002779 0.012691 -0.000012 0.031846
#
#
# Mechanical properties :
#
#
# Convention : Reuss Voigt Hill
#
# Bulk Modulus (GPa) = 28.88282 52.65513 40.76897
# Shear Modulus (GPa) = 26.84271 38.86263 32.85267
#
# Velocity S-wave (km/s) = 3.23246 3.88943 3.57606
# Velocity P-wave (km/s) = 5.01743 6.37704 5.73765
#
# Compressibility (1/GPa) = 0.03462266
#
# Stress axis : x y z
#
# Youngs Moduli (GPa) = 113.57465 34.51426 113.21467
#
# Poissons Ratio (x) = 0.12292 -0.05560
# Poissons Ratio (y) = 0.40448 0.33104
# Poissons Ratio (z) = -0.05578 0.10092
#
# Static dielectric constant tensor:
#      x y z
#    x 2.025040 0.049050 0.001420 
#    y 0.049050 2.049430 -0.016700 
#    z 0.001420 -0.016700 2.092330 
# 
# From -- ./inp_files/178355.got.cif
#   From: 2010.05.17/outbox.cif.g08.bks.cpg/sg2_90_cif.got.tgz:178355.got - 2010.06.03 11:33:40.
