data_PCOD9090859
_publ_section_title
;
Structure prediction by ZEFSAII (Michael W. Deem and Ramdas Pophale) SiO2 
 PCOD9090859
Probable space group: P -1
;
_chemical_formula_sum "Si O2"
_cell_formula_units_Z 16
_cell_length_a 9.347940
_cell_length_b 18.472361
_cell_length_c 12.834177
_cell_angle_alpha 155.414382
_cell_angle_beta 99.615324
_cell_angle_gamma 92.993675
_cell_volume 788.561762
_symmetry_space_group_name_H-M "P -1"
_symmetry_group_IT_number 2
_symmetry_cell_setting 'triclinic'
loop_
_space_group_symop_operation_xyz
x,y,z
-x,-y,-z
loop_
_atom_site_type_symbol
_atom_site_label
_atom_site_fract_x
_atom_site_fract_y
_atom_site_fract_z
Si Si1 0.241913 0.060280 0.839479
Si Si2 0.363688 0.496501 0.401521
Si Si3 0.339985 0.145122 0.199580
Si Si4 0.553577 0.988015 0.782501
Si Si5 0.427669 0.517937 0.124023
Si Si6 0.741130 0.576075 0.328276
Si Si7 0.077508 0.361425 0.791448
Si Si8 0.186877 0.610910 0.706558
O O1 0.405966 0.038172 0.810717
O O2 0.258075 0.261710 0.054190
O O3 0.247749 0.078964 0.991245
O O4 0.075501 0.864077 0.527093
O O5 0.500000 0.500000 0.500000
O O6 0.475299 0.661494 0.546461
O O7 0.271700 0.571574 0.565337
O O8 0.377785 0.990630 0.062692
O O9 0.235519 0.211397 0.349373
O O10 0.483244 0.753714 0.446552
O O11 0.715987 0.149568 0.951506
O O12 0.539065 0.457970 0.132255
O O13 0.500000 0.500000 0.000000
O O14 0.227550 0.395621 0.932783
O O15 0.837935 0.587629 0.248266
O O16 0.791364 0.485694 0.312111
O O17 0.000000 0.500000 0.000000
O O18 0.000000 0.500000 0.500000
#
# Coordination Sequence:
#
# PCOD9090859 Si02
#       8
#     2   2   2   2   2   2   2   2
#     4  11  20  35  69  92 132 166 212 261 335 383
#     4  10  19  39  60  90 138 166 198 256 333 410
#     4  10  20  37  66  99 121 173 212 250 344 405
#     4  11  21  37  66  94 129 175 210 264 328 393
#     4   9  21  43  64  88 123 175 225 258 314 375
#     4  10  22  43  65  89 138 172 200 278 331 381
#     4  11  23  40  66  99 126 169 233 275 296 374
#     4  12  25  39  61 103 139 160 213 272 334 400
#
# _framework density 20.290105000000001
#
# number of rings (size 3 to 8) (size 9 to 14) (size 15 to 20)
#    0.000    1.500    6.250    0.375    1.750    3.500 
#    0.000    2.500    2.750    8.250    0.000    0.000 
#    0.000    0.000    0.000    0.000    0.000    0.000 
#
# Total GULP energy -89093.794879 kJ/mol
# GULP energy per Si atom -5568.362180 kJ/mol
# Density = 2.024392 g / cm^3
# Si number density = 20.290105 Si / 1000 Ang^3
#
#
#
# Elastic Constant Matrix: (Units=GPa)
#
#
# Indices 1 2 3 4 5 6 
#
# 1 108.8395 37.1955 43.9867 -4.7972 17.3643 -1.3858
# 2 37.1955 72.1859 26.8589 9.3634 5.3367 -13.8127
# 3 43.9867 26.8589 131.9326 6.4348 19.1769 -7.5281
# 4 -4.7972 9.3634 6.4348 30.5486 1.7910 -2.5140
# 5 17.3643 5.3367 19.1769 1.7910 38.4766 -16.4985
# 6 -1.3858 -13.8127 -7.5281 -2.5140 -16.4985 36.0705
#
#
#
# Elastic Compliance Matrix: (Units=1/GPa)
#
#
# Indices 1 2 3 4 5 6 
#
# 1 0.014036 -0.007419 -0.002780 0.004992 -0.006517 -0.005515
# 2 -0.007419 0.020533 -0.001669 -0.006669 0.005652 0.009350
# 3 -0.002780 -0.001669 0.009386 -0.001743 -0.003287 -0.000412
# 4 0.004992 -0.006669 -0.001743 0.035970 -0.002771 -0.001486
# 5 -0.006517 0.005652 -0.003287 -0.002771 0.037765 0.018308
# 6 -0.005515 0.009350 -0.000412 -0.001486 0.018308 0.039276
#
#
# Mechanical properties :
#
#
# Convention : Reuss Voigt Hill
#
# Bulk Modulus (GPa) = 49.46086 58.78225 54.12155
# Shear Modulus (GPa) = 26.67464 34.68027 30.67746
#
# Velocity S-wave (km/s) = 3.62976 4.13876 3.89259
# Velocity P-wave (km/s) = 6.48048 7.20228 6.85089
#
# Compressibility (1/GPa) = 0.02021801
#
# Stress axis : x y z
#
# Youngs Moduli (GPa) = 71.24296 48.70100 106.54443
#
# Poissons Ratio (x) = 0.36132 0.29623
# Poissons Ratio (y) = 0.52856 0.17786
# Poissons Ratio (z) = 0.19808 0.08130
#
# Static dielectric constant tensor:
#      x y z
#    x 1.725600 0.003150 0.011440 
#    y 0.003150 1.807630 0.018510 
#    z 0.011440 0.018510 1.823110 
# 
# From -- ./inp_files/508200.got.cif
#   From: 2010.05.17/outbox.cif.g08.bks.cpg/sg2_255_cif.got.tgz:508200.got - 2010.06.03 11:33:40.
