data_PCOD9090357
_publ_section_title
;
Structure prediction by ZEFSAII (Michael W. Deem and Ramdas Pophale) SiO2 
 PCOD9090357
Probable space group: P -1
;
_chemical_formula_sum "Si O2"
_cell_formula_units_Z 12
_cell_length_a 5.313974
_cell_length_b 22.809497
_cell_length_c 10.140306
_cell_angle_alpha 153.211444
_cell_angle_beta 87.338472
_cell_angle_gamma 105.504069
_cell_volume 478.687858
_symmetry_space_group_name_H-M "P -1"
_symmetry_group_IT_number 2
_symmetry_cell_setting 'triclinic'
loop_
_space_group_symop_operation_xyz
x,y,z
-x,-y,-z
loop_
_atom_site_type_symbol
_atom_site_label
_atom_site_fract_x
_atom_site_fract_y
_atom_site_fract_z
Si Si1 0.162246 0.147640 0.385849
Si Si2 0.526883 0.586331 0.808550
Si Si3 0.117093 0.015720 0.677115
Si Si4 0.807280 0.238780 0.893183
Si Si5 0.954265 0.718651 0.729980
Si Si6 0.703171 0.181393 0.344088
O O1 0.115566 0.080189 0.396843
O O2 0.493769 0.239909 0.518383
O O3 0.981346 0.229827 0.526021
O O4 0.000000 0.000000 0.000000
O O5 0.500000 0.500000 0.500000
O O6 0.595454 0.301135 0.988823
O O7 0.869911 0.664945 0.985696
O O8 0.292612 0.452249 0.634811
O O9 0.307306 0.932911 0.495967
O O10 0.000000 0.000000 0.500000
O O11 0.208727 0.183743 0.054880
O O12 0.880193 0.260449 0.092150
O O13 0.184273 0.779640 0.728768
O O14 0.500000 0.000000 0.000000
#
# Coordination Sequence:
#
# PCOD9090357 Si02
#       6
#     2   2   2   2   2   2
#     4  10  20  38  57  87 124 162 200 253 307 363
#     4  10  21  41  60  87 127 171 204 249 309 384
#     4  10  21  40  63  99 126 159 207 269 319 356
#     4  10  23  40  58  93 131 161 194 269 322 359
#     4  10  19  38  65  93 116 165 220 249 298 379
#     4  10  20  35  58  89 118 156 210 258 290 355
#
# _framework density 25.068529000000002
#
# number of rings (size 3 to 8) (size 9 to 14) (size 15 to 20)
#    0.000    2.000    3.333    2.000    0.000    5.333 
#    3.000    9.167    0.000    6.000    0.000    0.000 
#    0.000    0.000    0.000    0.000    0.000    0.000 
#
# Total GULP energy -67075.845936 kJ/mol
# GULP energy per Si atom -5589.653828 kJ/mol
# Density = 2.501147 g / cm^3
# Si number density = 25.068529 Si / 1000 Ang^3
#
#
#
# Elastic Constant Matrix: (Units=GPa)
#
#
# Indices 1 2 3 4 5 6 
#
# 1 194.7536 58.7785 53.9387 1.2148 -29.3893 20.1767
# 2 58.7785 194.8085 41.2667 3.1334 10.8257 20.6194
# 3 53.9387 41.2667 84.6078 -3.4715 -17.3008 -3.5272
# 4 1.2148 3.1334 -3.4715 28.5439 -1.0455 9.6153
# 5 -29.3893 10.8257 -17.3008 -1.0455 37.8303 1.5552
# 6 20.1767 20.6194 -3.5272 9.6153 1.5552 34.2153
#
#
#
# Elastic Compliance Matrix: (Units=1/GPa)
#
#
# Indices 1 2 3 4 5 6 
#
# 1 0.007732 -0.001448 -0.003319 0.001159 0.005124 -0.004588
# 2 -0.001448 0.006946 -0.003555 -0.000139 -0.004600 -0.003451
# 3 -0.003319 -0.003555 0.017183 0.001061 0.006109 0.005295
# 4 0.001159 -0.000139 0.001061 0.039156 0.002986 -0.011630
# 5 0.005124 -0.004600 0.006109 0.002986 0.034691 -0.002035
# 6 -0.004588 -0.003451 0.005295 -0.011630 -0.002035 0.037918
#
#
# Mechanical properties :
#
#
# Convention : Reuss Voigt Hill
#
# Bulk Modulus (GPa) = 65.71708 86.90420 76.31064
# Shear Modulus (GPa) = 30.24016 41.46364 35.85190
#
# Velocity S-wave (km/s) = 3.47695 4.07137 3.78584
# Velocity P-wave (km/s) = 6.51082 7.53945 7.04394
#
# Compressibility (1/GPa) = 0.01521674
#
# Stress axis : x y z
#
# Youngs Moduli (GPa) = 129.32874 143.96145 58.19760
#
# Poissons Ratio (x) = 0.20840 0.19318
# Poissons Ratio (y) = 0.18722 0.20692
# Poissons Ratio (z) = 0.42928 0.51184
#
# Static dielectric constant tensor:
#      x y z
#    x 2.336790 0.061780 0.083540 
#    y 0.061780 2.008820 0.017100 
#    z 0.083540 0.017100 2.052860 
# 
# From -- ./inp_files/370896.got.cif
#   From: 2010.05.17/outbox.cif.g08.bks.cpg/sg2_186_cif.got.tgz:370896.got - 2010.06.03 11:33:40.
