data_PCOD9090941
_publ_section_title
;
Structure prediction by ZEFSAII (Michael W. Deem and Ramdas Pophale) SiO2 
 PCOD9090941
Probable space group: P -1
;
_chemical_formula_sum "Si O2"
_cell_formula_units_Z 16
_cell_length_a 6.699545
_cell_length_b 26.733667
_cell_length_c 21.242004
_cell_angle_alpha 11.683465
_cell_angle_beta 54.820969
_cell_angle_gamma 55.118296
_cell_volume 629.037671
_symmetry_space_group_name_H-M "P -1"
_symmetry_group_IT_number 2
_symmetry_cell_setting 'triclinic'
loop_
_space_group_symop_operation_xyz
x,y,z
-x,-y,-z
loop_
_atom_site_type_symbol
_atom_site_label
_atom_site_fract_x
_atom_site_fract_y
_atom_site_fract_z
Si Si1 0.366014 0.198744 0.220300
Si Si2 0.166065 0.923409 0.283991
Si Si3 0.031982 0.263565 0.701651
Si Si4 0.717447 0.273645 0.956670
Si Si5 0.363939 0.338488 0.666477
Si Si6 0.738999 0.501873 0.310575
Si Si7 0.212880 0.663849 0.731252
Si Si8 0.024498 0.124670 0.261426
O O1 0.134906 0.250547 0.148479
O O2 0.591782 0.163527 0.176323
O O3 0.408938 0.442820 0.952965
O O4 0.244350 0.977652 0.552717
O O5 0.202847 0.718208 0.477113
O O6 0.180937 0.801371 0.500429
O O7 0.356031 0.134431 0.974212
O O8 0.908026 0.072980 0.141263
O O9 0.152910 0.463231 0.386932
O O10 0.229178 0.226003 0.768976
O O11 0.803912 0.417166 0.586776
O O12 0.000000 0.000000 0.000000
O O13 0.497106 0.339474 0.867935
O O14 0.635179 0.397904 0.521830
O O15 0.950791 0.691991 0.027659
O O16 0.208438 0.887023 0.506376
O O17 0.000000 0.500000 0.000000
#
# Coordination Sequence:
#
# PCOD9090941 Si02
#       8
#     2   2   2   2   2   2   2   2
#     4   9  17  37  59  81 113 153 190 244 299 351
#     4  11  20  38  61  84 122 154 199 249 293 352
#     4   9  18  36  59  89 126 157 193 246 291 351
#     4   9  19  35  61  86 114 156 194 236 302 351
#     4   9  20  36  57  88 122 160 197 235 298 352
#     4  10  19  39  62  82 119 163 189 242 302 346
#     4  10  20  36  60  82 115 157 194 249 305 339
#     4   9  18  33  61  82 110 153 198 236 294 354
#
# _framework density 25.435676999999998
#
# number of rings (size 3 to 8) (size 9 to 14) (size 15 to 20)
#    0.000    2.500    2.500    1.125    0.000    1.000 
#    4.500    3.750    0.000    0.000    0.000    0.000 
#    0.000    0.000    0.000    0.000    0.000    0.000 
#
# Total GULP energy -89419.410259 kJ/mol
# GULP energy per Si atom -5588.713141 kJ/mol
# Density = 2.537778 g / cm^3
# Si number density = 25.435677 Si / 1000 Ang^3
#
#
#
# Elastic Constant Matrix: (Units=GPa)
#
#
# Indices 1 2 3 4 5 6 
#
# 1 67.8573 37.1377 43.8920 6.7595 -11.2727 2.4500
# 2 37.1377 154.1330 78.2621 30.2890 -10.7102 -12.6368
# 3 43.8920 78.2621 165.9619 28.6842 -5.0218 -6.2219
# 4 6.7595 30.2890 28.6842 67.0771 3.9829 -8.7379
# 5 -11.2727 -10.7102 -5.0218 3.9829 46.3299 5.2400
# 6 2.4500 -12.6368 -6.2219 -8.7379 5.2400 40.2249
#
#
#
# Elastic Compliance Matrix: (Units=1/GPa)
#
#
# Indices 1 2 3 4 5 6 
#
# 1 0.019524 -0.002754 -0.003913 0.000305 0.004016 -0.003116
# 2 -0.002754 0.009514 -0.003225 -0.002452 0.001167 0.001973
# 3 -0.003913 -0.003225 0.008899 -0.001884 -0.000602 0.000271
# 4 0.000305 -0.002452 -0.001884 0.017333 -0.002528 0.003014
# 5 0.004016 0.001167 -0.000602 -0.002528 0.023387 -0.003567
# 6 -0.003116 0.001973 0.000271 0.003014 -0.003567 0.026831
#
#
# Mechanical properties :
#
#
# Convention : Reuss Voigt Hill
#
# Bulk Modulus (GPa) = 55.08740 78.50398 66.79569
# Shear Modulus (GPa) = 38.07440 45.97042 42.02241
#
# Velocity S-wave (km/s) = 3.87316 4.25587 4.06902
# Velocity P-wave (km/s) = 6.45805 7.42163 6.95655
#
# Compressibility (1/GPa) = 0.01815297
#
# Stress axis : x y z
#
# Youngs Moduli (GPa) = 51.21823 105.11319 112.37647
#
# Poissons Ratio (x) = 0.28946 0.43973
# Poissons Ratio (y) = 0.14105 0.36241
# Poissons Ratio (z) = 0.20042 0.33899
#
# Static dielectric constant tensor:
#      x y z
#    x 2.090990 0.038810 0.006830 
#    y 0.038810 2.037570 0.062730 
#    z 0.006830 0.062730 2.039900 
# 
# From -- ./inp_files/608861.got.cif
#   From: 2010.05.17/outbox.cif.g08.bks.cpg/sg2_305_cif.got.tgz:608861.got - 2010.06.03 11:33:40.
