data_PCOD9090693
_publ_section_title
;
Structure prediction by ZEFSAII (Michael W. Deem and Ramdas Pophale) SiO2 
 PCOD9090693
Probable space group: P -1
;
_chemical_formula_sum "Si O2"
_cell_formula_units_Z 12
_cell_length_a 8.472353
_cell_length_b 9.496344
_cell_length_c 12.073330
_cell_angle_alpha 35.835510
_cell_angle_beta 62.744025
_cell_angle_gamma 77.933677
_cell_volume 480.370954
_symmetry_space_group_name_H-M "P -1"
_symmetry_group_IT_number 2
_symmetry_cell_setting 'triclinic'
loop_
_space_group_symop_operation_xyz
x,y,z
-x,-y,-z
loop_
_atom_site_type_symbol
_atom_site_label
_atom_site_fract_x
_atom_site_fract_y
_atom_site_fract_z
Si Si1 0.990715 0.086768 0.321508
Si Si2 0.510253 0.606800 0.303040
Si Si3 0.857163 0.319257 0.575826
Si Si4 0.756549 0.401549 0.003678
Si Si5 0.613704 0.719156 0.666844
Si Si6 0.927370 0.759996 0.096975
O O1 0.123222 0.372795 0.099198
O O2 0.075252 0.915032 0.327595
O O3 0.000000 0.000000 0.500000
O O4 0.768897 0.991924 0.435570
O O5 0.500000 0.500000 0.500000
O O6 0.352432 0.746446 0.268704
O O7 0.446337 0.396323 0.361471
O O8 0.726553 0.755555 0.118214
O O9 0.877829 0.494334 0.348667
O O10 0.000000 0.500000 0.500000
O O11 0.704682 0.529293 0.826015
O O12 0.896819 0.243931 0.031240
O O13 0.559008 0.272745 0.207251
O O14 0.000000 0.000000 0.000000
#
# Coordination Sequence:
#
# PCOD9090693 Si02
#       6
#     2   2   2   2   2   2
#     4  10  19  38  70  95 127 165 225 282 320 379
#     4  10  23  40  63  92 134 176 217 261 339 405
#     4  11  20  42  69  92 127 175 229 269 323 397
#     4  10  22  41  69  97 131 171 225 277 331 396
#     4  10  20  41  67  99 126 170 230 276 325 390
#     4  11  24  42  61  94 142 170 213 277 340 400
#
# _framework density 24.980695999999998
#
# number of rings (size 3 to 8) (size 9 to 14) (size 15 to 20)
#    0.000    1.667    5.000    0.000    0.000    6.000 
#    3.000    3.333    0.000    0.000    0.000    0.000 
#    0.000    0.000    0.000    0.000    0.000    0.000 
#
# Total GULP energy -67192.524536 kJ/mol
# GULP energy per Si atom -5599.377045 kJ/mol
# Density = 2.492384 g / cm^3
# Si number density = 24.980696 Si / 1000 Ang^3
#
#
#
# Elastic Constant Matrix: (Units=GPa)
#
#
# Indices 1 2 3 4 5 6 
#
# 1 182.1014 72.0957 55.9339 3.8616 -40.3982 -16.6588
# 2 72.0957 178.0248 39.8683 -0.3874 -38.7849 -14.4121
# 3 55.9339 39.8683 115.1845 26.3572 -33.5183 -14.6108
# 4 3.8616 -0.3874 26.3572 45.0959 0.3314 -4.5349
# 5 -40.3982 -38.7849 -33.5183 0.3314 62.0819 9.5867
# 6 -16.6588 -14.4121 -14.6108 -4.5349 9.5867 65.3348
#
#
#
# Elastic Compliance Matrix: (Units=1/GPa)
#
#
# Indices 1 2 3 4 5 6 
#
# 1 0.007566 -0.001968 -0.002430 0.000807 0.002273 0.000674
# 2 -0.001968 0.007242 -0.000879 0.000781 0.002678 0.000560
# 3 -0.002430 -0.000879 0.013503 -0.007635 0.005056 0.000934
# 4 0.000807 0.000781 -0.007635 0.026703 -0.003410 0.001024
# 5 0.002273 0.002678 0.005056 -0.003410 0.022192 -0.001192
# 6 0.000674 0.000560 0.000934 0.001024 -0.001192 0.016056
#
#
# Mechanical properties :
#
#
# Convention : Reuss Voigt Hill
#
# Bulk Modulus (GPa) = 56.32180 90.12296 73.22238
# Shear Modulus (GPa) = 45.56384 54.99672 50.28028
#
# Velocity S-wave (km/s) = 4.27542 4.69718 4.49125
# Velocity P-wave (km/s) = 6.85327 8.09774 7.50136
#
# Compressibility (1/GPa) = 0.01775512
#
# Stress axis : x y z
#
# Youngs Moduli (GPa) = 132.16910 138.08998 74.05689
#
# Poissons Ratio (x) = 0.27179 0.18000
# Poissons Ratio (y) = 0.26014 0.06511
# Poissons Ratio (z) = 0.32124 0.12140
#
# Static dielectric constant tensor:
#      x y z
#    x 2.015700 0.003430 0.084670 
#    y 0.003430 1.877760 0.032670 
#    z 0.084670 0.032670 1.999690 
# 
# From -- ./inp_files/380841.got.cif
#   From: 2010.05.17/outbox.cif.g08.bks.cpg/sg2_191_cif.got.tgz:380841.got - 2010.06.03 11:33:40.
