data_PCOD9090661
_publ_section_title
;
Structure prediction by ZEFSAII (Michael W. Deem and Ramdas Pophale) SiO2 
 PCOD9090661
Probable space group: P -1
;
_chemical_formula_sum "Si O2"
_cell_formula_units_Z 16
_cell_length_a 11.508294
_cell_length_b 14.150378
_cell_length_c 9.528686
_cell_angle_alpha 151.588763
_cell_angle_beta 94.300277
_cell_angle_gamma 94.410164
_cell_volume 702.061695
_symmetry_space_group_name_H-M "P -1"
_symmetry_group_IT_number 2
_symmetry_cell_setting 'triclinic'
loop_
_space_group_symop_operation_xyz
x,y,z
-x,-y,-z
loop_
_atom_site_type_symbol
_atom_site_label
_atom_site_fract_x
_atom_site_fract_y
_atom_site_fract_z
Si Si1 0.331200 0.489851 0.737518
Si Si2 0.636720 0.942035 0.708085
Si Si3 0.364252 0.693654 0.301064
Si Si4 0.016035 0.247278 0.691622
Si Si5 0.269280 0.607588 0.602663
Si Si6 0.610389 0.642211 0.918093
Si Si7 0.195903 0.988245 0.449116
Si Si8 0.141205 0.668013 0.410693
O O1 0.331125 0.254356 0.471458
O O2 0.244577 0.510916 0.629653
O O3 0.467780 0.612643 0.854012
O O4 0.316591 0.614580 0.039038
O O5 0.499904 0.851754 0.518527
O O6 0.728517 0.032810 0.707167
O O7 0.652631 0.147974 0.070301
O O8 0.378498 0.488133 0.111486
O O9 0.276138 0.775865 0.501334
O O10 0.961593 0.226925 0.503112
O O11 0.100411 0.103046 0.534585
O O12 0.896115 0.193356 0.708803
O O13 0.098957 0.465836 0.042762
O O14 0.341683 0.470586 0.349893
O O15 0.155030 0.604116 0.487408
O O16 0.702820 0.868536 0.249637
#
# Coordination Sequence:
#
# PCOD9090661 Si02
#       8
#     2   2   2   2   2   2   2   2
#     4  11  21  38  66  94 137 171 194 265 329 378
#     4  11  23  41  65 101 132 161 211 265 323 388
#     4  10  19  38  69  91 127 168 207 261 319 378
#     4  10  22  39  72  84 118 174 231 254 301 371
#     4  11  25  38  61  99 137 163 208 259 331 380
#     4  10  19  40  63  93 133 166 208 261 315 386
#     4  11  20  41  69  94 117 167 228 259 304 383
#     4  10  22  44  61  93 127 166 217 266 308 376
#
# _framework density 22.790019000000001
#
# number of rings (size 3 to 8) (size 9 to 14) (size 15 to 20)
#    0.000    1.500    5.000    1.125    1.750    7.000 
#    0.000    1.250    0.000    0.000    0.000    0.000 
#    0.000    0.000    0.000    0.000    0.000    0.000 
#
# Total GULP energy -89336.195219 kJ/mol
# GULP energy per Si atom -5583.512201 kJ/mol
# Density = 2.273815 g / cm^3
# Si number density = 22.790019 Si / 1000 Ang^3
#
#
#
# Elastic Constant Matrix: (Units=GPa)
#
#
# Indices 1 2 3 4 5 6 
#
# 1 51.0863 20.6503 6.2579 -1.6955 14.8317 -2.6373
# 2 20.6503 111.7509 31.0177 -24.0378 13.2265 -22.3891
# 3 6.2579 31.0177 56.2048 -13.6816 -2.2256 2.4322
# 4 -1.6955 -24.0378 -13.6816 34.7331 -5.5776 9.4836
# 5 14.8317 13.2265 -2.2256 -5.5776 17.8440 -2.5415
# 6 -2.6373 -22.3891 2.4322 9.4836 -2.5415 48.2950
#
#
#
# Elastic Compliance Matrix: (Units=1/GPa)
#
#
# Indices 1 2 3 4 5 6 
#
# 1 0.027702 -0.002309 -0.004189 -0.005835 -0.023581 0.000558
# 2 -0.002309 0.014268 -0.007125 0.004227 -0.007423 0.005627
# 3 -0.004189 -0.007125 0.025053 0.008505 0.013729 -0.005741
# 4 -0.005835 0.004227 0.008505 0.038570 0.014033 -0.005623
# 5 -0.023581 -0.007423 0.013729 0.014033 0.086728 -0.003612
# 6 0.000558 0.005627 -0.005741 -0.005623 -0.003612 0.024548
#
#
# Mechanical properties :
#
#
# Convention : Reuss Voigt Hill
#
# Bulk Modulus (GPa) = 25.13952 37.21041 31.17497
# Shear Modulus (GPa) = 19.42693 30.91551 25.17122
#
# Velocity S-wave (km/s) = 2.92281 3.68712 3.32698
# Velocity P-wave (km/s) = 4.73765 5.87277 5.33548
#
# Compressibility (1/GPa) = 0.03977800
#
# Stress axis : x y z
#
# Youngs Moduli (GPa) = 36.09789 70.08763 39.91508
#
# Poissons Ratio (x) = 0.16181 0.16719
# Poissons Ratio (y) = 0.08334 0.28441
# Poissons Ratio (z) = 0.15120 0.49941
#
# Static dielectric constant tensor:
#      x y z
#    x 1.892730 -0.091140 -0.024540 
#    y -0.091140 1.943120 0.005420 
#    z -0.024540 0.005420 1.847460 
# 
# From -- ./inp_files/245065.got.cif
#   From: 2010.05.17/outbox.cif.g08.bks.cpg/sg2_123_cif.got.tgz:245065.got - 2010.06.03 11:33:40.
