data_PCOD9090286
_publ_section_title
;
Structure prediction by ZEFSAII (Michael W. Deem and Ramdas Pophale) SiO2 
 PCOD9090286
Probable space group: P -1
;
_chemical_formula_sum "Si O2"
_cell_formula_units_Z 14
_cell_length_a 6.488110
_cell_length_b 12.076428
_cell_length_c 15.267530
_cell_angle_alpha 28.151089
_cell_angle_beta 95.895318
_cell_angle_gamma 101.202993
_cell_volume 547.524526
_symmetry_space_group_name_H-M "P -1"
_symmetry_group_IT_number 2
_symmetry_cell_setting 'triclinic'
loop_
_space_group_symop_operation_xyz
x,y,z
-x,-y,-z
loop_
_atom_site_type_symbol
_atom_site_label
_atom_site_fract_x
_atom_site_fract_y
_atom_site_fract_z
Si Si1 0.455368 0.225517 0.596718
Si Si2 0.763274 0.732472 0.269714
Si Si3 0.312382 0.990044 0.566826
Si Si4 0.300986 0.172362 0.061519
Si Si5 0.753248 0.514652 0.015480
Si Si6 0.755056 0.525243 0.814283
Si Si7 0.077427 0.757990 0.126856
O O1 0.581888 0.500700 0.398312
O O2 0.265644 0.232387 0.652172
O O3 0.385526 0.094409 0.593698
O O4 0.608964 0.067278 0.757733
O O5 0.981194 0.686655 0.268246
O O6 0.748180 0.992506 0.048000
O O7 0.198576 0.188432 0.385558
O O8 0.500000 0.000000 0.500000
O O9 0.221281 0.708602 0.768840
O O10 0.194463 0.235861 0.103699
O O11 0.505715 0.387519 0.898417
O O12 0.122328 0.181519 0.976756
O O13 0.500000 0.500000 0.000000
O O14 0.828451 0.463405 0.957287
O O15 0.851918 0.438940 0.791688
#
# Coordination Sequence:
#
# PCOD9090286 Si02
#       7
#     2   2   2   2   2   2   2
#     4  11  22  44  68 101 131 181 224 275 340 396
#     4  10  24  45  64  94 139 171 235 276 325 403
#     4  12  20  37  73 100 130 175 223 270 336 402
#     4  11  21  40  71  93 139 175 218 276 338 395
#     4  10  19  38  65 103 134 174 218 272 337 406
#     4  11  22  43  67  99 139 177 220 278 333 403
#     4  11  24  45  64  99 131 179 229 276 333 398
#
# _framework density 25.56963
#
# number of rings (size 3 to 8) (size 9 to 14) (size 15 to 20)
#    0.000    1.143    7.143    0.857    0.000    1.714 
#   15.429    0.714    0.000    0.000    0.000    0.000 
#    0.000    0.000    0.000    0.000    0.000    0.000 
#
# Total GULP energy -78256.868915 kJ/mol
# GULP energy per Si atom -5589.776351 kJ/mol
# Density = 2.551143 g / cm^3
# Si number density = 25.569630 Si / 1000 Ang^3
#
#
#
# Elastic Constant Matrix: (Units=GPa)
#
#
# Indices 1 2 3 4 5 6 
#
# 1 76.7513 38.7174 41.2360 11.4051 -11.4539 -30.6405
# 2 38.7174 140.1510 12.0628 4.6354 -15.0119 -56.0531
# 3 41.2360 12.0628 125.2368 -9.0659 -10.3405 -21.4219
# 4 11.4051 4.6354 -9.0659 36.8346 -3.1634 -2.1323
# 5 -11.4539 -15.0119 -10.3405 -3.1634 51.1751 6.4041
# 6 -30.6405 -56.0531 -21.4219 -2.1323 6.4041 67.6724
#
#
#
# Elastic Compliance Matrix: (Units=1/GPa)
#
#
# Indices 1 2 3 4 5 6 
#
# 1 0.021094 -0.002998 -0.006251 -0.007288 0.001538 0.004713
# 2 -0.002998 0.011376 0.001524 0.000525 0.001958 0.008379
# 3 -0.006251 0.001524 0.010644 0.004577 0.001253 0.001827
# 4 -0.007288 0.000525 0.004577 0.030552 0.001410 -0.000587
# 5 0.001538 0.001958 0.001253 0.001410 0.020700 0.000800
# 6 0.004713 0.008379 0.001827 -0.000587 0.000800 0.024335
#
#
# Mechanical properties :
#
#
# Convention : Reuss Voigt Hill
#
# Bulk Modulus (GPa) = 36.14886 58.46349 47.30618
# Shear Modulus (GPa) = 34.87418 47.81130 41.34274
#
# Velocity S-wave (km/s) = 3.69710 4.32886 4.02539
# Velocity P-wave (km/s) = 5.69147 6.92095 6.33610
#
# Compressibility (1/GPa) = 0.02766339
#
# Stress axis : x y z
#
# Youngs Moduli (GPa) = 47.40585 87.90695 93.95283
#
# Poissons Ratio (x) = 0.26359 0.58731
# Poissons Ratio (y) = 0.14215 -0.14323
# Poissons Ratio (z) = 0.29634 -0.13401
#
# Static dielectric constant tensor:
#      x y z
#    x 2.155060 -0.006280 -0.038840 
#    y -0.006280 2.089320 0.039220 
#    z -0.038840 0.039220 2.005130 
# 
# From -- ./inp_files/496021.got.cif
#   From: 2010.05.17/outbox.cif.g08.bks.cpg/sg2_249_cif.got.tgz:496021.got - 2010.06.03 11:33:40.
