data_PCOD9090602
_publ_section_title
;
Structure prediction by ZEFSAII (Michael W. Deem and Ramdas Pophale) SiO2 
 PCOD9090602
Probable space group: P -1
;
_chemical_formula_sum "Si O2"
_cell_formula_units_Z 16
_cell_length_a 8.934055
_cell_length_b 19.557934
_cell_length_c 5.631350
_cell_angle_alpha 60.164104
_cell_angle_beta 71.283150
_cell_angle_gamma 101.814806
_cell_volume 724.547040
_symmetry_space_group_name_H-M "P -1"
_symmetry_group_IT_number 2
_symmetry_cell_setting 'triclinic'
loop_
_space_group_symop_operation_xyz
x,y,z
-x,-y,-z
loop_
_atom_site_type_symbol
_atom_site_label
_atom_site_fract_x
_atom_site_fract_y
_atom_site_fract_z
Si Si1 0.340621 0.652931 0.842231
Si Si2 0.319789 0.190842 0.829897
Si Si3 0.993789 0.159487 0.766231
Si Si4 0.137599 0.992397 0.251632
Si Si5 0.441603 0.780789 0.944437
Si Si6 0.930131 0.521628 0.749230
Si Si7 0.892110 0.295004 0.437678
Si Si8 0.655414 0.080858 0.411334
O O1 0.512467 0.722575 0.498263
O O2 0.385468 0.685042 0.031650
O O3 0.172151 0.669253 0.818042
O O4 0.275374 0.549600 0.021593
O O5 0.152745 0.200672 0.800002
O O6 0.368581 0.185128 0.090235
O O7 0.267776 0.091700 0.937863
O O8 0.979944 0.076991 0.764469
O O9 0.989568 0.233861 0.465202
O O10 0.821085 0.120082 0.084013
O O11 0.268290 0.952670 0.352078
O O12 0.000000 0.000000 0.500000
O O13 0.414200 0.844768 0.657768
O O14 0.296045 0.766524 0.241094
O O15 0.000000 0.500000 0.500000
O O16 0.993618 0.625209 0.578804
O O17 0.000000 0.500000 0.000000
O O18 0.500000 0.000000 0.500000
#
# Coordination Sequence:
#
# PCOD9090602 Si02
#       8
#     2   2   2   2   2   2   2   2
#     4  10  21  36  64  91 120 159 203 260 315 382
#     4  11  24  37  58  85 122 166 203 259 309 383
#     4  11  25  41  58  85 125 162 211 254 319 374
#     4  12  25  41  59  84 120 171 217 249 320 376
#     4  10  20  37  58  88 121 151 209 250 318 363
#     4  10  19  38  68 100 131 165 212 270 331 392
#     4   9  20  40  60  93 119 159 201 264 316 379
#     4  11  23  37  58  85 114 158 203 265 303 369
#
# _framework density 22.082763
#
# number of rings (size 3 to 8) (size 9 to 14) (size 15 to 20)
#    0.000    1.500    3.750    1.125    3.500    0.500 
#    0.000    0.625    0.000    0.750    0.000    0.000 
#    0.000    0.000    0.000    0.000    0.000    0.000 
#
# Total GULP energy -89110.206788 kJ/mol
# GULP energy per Si atom -5569.387924 kJ/mol
# Density = 2.203250 g / cm^3
# Si number density = 22.082763 Si / 1000 Ang^3
#
#
#
# Elastic Constant Matrix: (Units=GPa)
#
#
# Indices 1 2 3 4 5 6 
#
# 1 114.0925 42.9225 26.3355 -10.1236 0.9263 34.6880
# 2 42.9225 110.5930 1.7665 -16.3141 -11.5751 31.6771
# 3 26.3355 1.7665 63.7787 -11.9596 -15.2038 4.9510
# 4 -10.1236 -16.3141 -11.9596 34.4406 8.4528 -5.5840
# 5 0.9263 -11.5751 -15.2038 8.4528 30.7933 -3.3905
# 6 34.6880 31.6771 4.9510 -5.5840 -3.3905 30.0974
#
#
#
# Elastic Compliance Matrix: (Units=1/GPa)
#
#
# Indices 1 2 3 4 5 6 
#
# 1 0.016034 -0.002268 -0.006837 0.000330 -0.006523 -0.015642
# 2 -0.002268 0.014339 0.003356 0.004248 0.004659 -0.011717
# 3 -0.006837 0.003356 0.021764 0.004864 0.011200 0.002932
# 4 0.000330 0.004248 0.004864 0.034168 -0.005382 0.000082
# 5 -0.006523 0.004659 0.011200 -0.005382 0.041925 0.004496
# 6 -0.015642 -0.011717 0.002932 0.000082 0.004496 0.063625
#
#
# Mechanical properties :
#
#
# Convention : Reuss Voigt Hill
#
# Bulk Modulus (GPa) = 24.60631 47.83479 36.22055
# Shear Modulus (GPa) = 23.05235 33.56223 28.30729
#
# Velocity S-wave (km/s) = 3.23446 3.90274 3.58421
# Velocity P-wave (km/s) = 5.01158 6.48206 5.79366
#
# Compressibility (1/GPa) = 0.04063998
#
# Stress axis : x y z
#
# Youngs Moduli (GPa) = 62.36804 69.73948 45.94776
#
# Poissons Ratio (x) = 0.15814 0.31414
# Poissons Ratio (y) = 0.14142 -0.15420
# Poissons Ratio (z) = 0.42640 -0.23404
#
# Static dielectric constant tensor:
#      x y z
#    x 1.855550 -0.023500 0.037580 
#    y -0.023500 1.869080 0.020000 
#    z 0.037580 0.020000 1.943390 
# 
# From -- ./inp_files/38497.got.cif
#   From: 2010.05.17/outbox.cif.g08.bks.cpg/sg2_20_cif.got.tgz:38497.got - 2010.06.03 11:33:40.
