data_PCOD9090444
_publ_section_title
;
Structure prediction by ZEFSAII (Michael W. Deem and Ramdas Pophale) SiO2 
 PCOD9090444
Probable space group: P -1
;
_chemical_formula_sum "Si O2"
_cell_formula_units_Z 14
_cell_length_a 13.273505
_cell_length_b 12.112093
_cell_length_c 7.881176
_cell_angle_alpha 112.735744
_cell_angle_beta 88.026692
_cell_angle_gamma 145.456418
_cell_volume 556.490553
_symmetry_space_group_name_H-M "P -1"
_symmetry_group_IT_number 2
_symmetry_cell_setting 'triclinic'
loop_
_space_group_symop_operation_xyz
x,y,z
-x,-y,-z
loop_
_atom_site_type_symbol
_atom_site_label
_atom_site_fract_x
_atom_site_fract_y
_atom_site_fract_z
Si Si1 0.912688 0.027405 0.100676
Si Si2 0.813128 0.901401 0.410269
Si Si3 0.201338 0.561116 0.421814
Si Si4 0.166703 0.669510 0.837824
Si Si5 0.572620 0.837553 0.957386
Si Si6 0.539301 0.308203 0.742159
Si Si7 0.144896 0.405251 0.839218
O O1 0.077328 0.305476 0.298899
O O2 0.810709 0.886286 0.200783
O O3 0.728039 0.896434 0.924831
O O4 0.000000 0.000000 0.000000
O O5 0.920980 0.130843 0.623862
O O6 0.564780 0.679734 0.320357
O O7 0.000000 0.000000 0.500000
O O8 0.205185 0.635494 0.641869
O O9 0.421428 0.752900 0.435752
O O10 0.051956 0.487350 0.267724
O O11 0.164358 0.568334 0.924036
O O12 0.348289 0.958621 0.009071
O O13 0.588891 0.867725 0.183598
O O14 0.328079 0.549838 0.784606
O O15 0.772535 0.561248 0.968094
#
# Coordination Sequence:
#
# PCOD9090444 Si02
#       7
#     2   2   2   2   2   2   2
#     4  10  21  40  64  89 125 161 208 259 308 363
#     4  11  24  44  63  89 124 169 208 257 309 367
#     4  10  21  38  63  96 126 163 205 257 310 365
#     4  10  19  38  66  89 128 165 203 251 311 373
#     4   8  20  39  62  89 123 163 200 253 309 361
#     4   9  23  41  60  92 124 158 210 255 306 364
#     4  10  21  41  64  89 125 165 206 250 314 362
#
# _framework density 25.157658000000001
#
# number of rings (size 3 to 8) (size 9 to 14) (size 15 to 20)
#    0.857    1.429    1.429    0.429    4.000    2.857 
#    2.571    1.429    0.000    0.000    0.000    0.000 
#    0.000    0.000    0.000    0.000    0.000    0.000 
#
# Total GULP energy -78030.240072 kJ/mol
# GULP energy per Si atom -5573.588577 kJ/mol
# Density = 2.510040 g / cm^3
# Si number density = 25.157658 Si / 1000 Ang^3
#
#
#
# Elastic Constant Matrix: (Units=GPa)
#
#
# Indices 1 2 3 4 5 6 
#
# 1 198.7946 34.1396 35.4855 -6.6360 6.2321 25.1940
# 2 34.1396 34.2510 16.0649 -0.6025 -8.3663 10.8460
# 3 35.4855 16.0649 68.0764 4.1296 8.1993 7.9965
# 4 -6.6360 -0.6025 4.1296 23.1511 4.2211 -6.8760
# 5 6.2321 -8.3663 8.1993 4.2211 38.3111 -0.2704
# 6 25.1940 10.8460 7.9965 -6.8760 -0.2704 38.4010
#
#
#
# Elastic Compliance Matrix: (Units=1/GPa)
#
#
# Indices 1 2 3 4 5 6 
#
# 1 0.006723 -0.005707 -0.001759 0.001862 -0.002184 -0.002114
# 2 -0.005707 0.043949 -0.007791 -0.003650 0.012542 -0.007611
# 3 -0.001759 -0.007791 0.018383 -0.003410 -0.004982 -0.001119
# 4 0.001862 -0.003650 -0.003410 0.047953 -0.005590 0.009066
# 5 -0.002184 0.012542 -0.004982 -0.005590 0.030865 -0.001856
# 6 -0.002114 -0.007611 -0.001119 0.009066 -0.001856 0.031421
#
#
# Mechanical properties :
#
#
# Convention : Reuss Voigt Hill
#
# Bulk Modulus (GPa) = 25.94731 52.50023 39.22377
# Shear Modulus (GPa) = 22.45605 34.33479 28.39542
#
# Velocity S-wave (km/s) = 2.99090 3.69831 3.36326
# Velocity P-wave (km/s) = 4.71843 6.25703 5.54139
#
# Compressibility (1/GPa) = 0.03853964
#
# Stress axis : x y z
#
# Youngs Moduli (GPa) = 148.74208 22.75378 54.39688
#
# Poissons Ratio (x) = 0.12986 0.09570
# Poissons Ratio (y) = 0.84888 0.42383
# Poissons Ratio (z) = 0.26168 0.17728
#
# Static dielectric constant tensor:
#      x y z
#    x 2.076290 0.016710 0.059730 
#    y 0.016710 2.055620 -0.013440 
#    z 0.059730 -0.013440 1.998200 
# 
# From -- ./inp_files/179468.got.cif
#   From: 2010.05.17/outbox.cif.g08.bks.cpg/sg2_90_cif.got.tgz:179468.got - 2010.06.03 11:33:40.
