data_PCOD9090764
_publ_section_title
;
Structure prediction by ZEFSAII (Michael W. Deem and Ramdas Pophale) SiO2 
 PCOD9090764
Probable space group: P -1
;
_chemical_formula_sum "Si O2"
_cell_formula_units_Z 14
_cell_length_a 5.141867
_cell_length_b 20.458911
_cell_length_c 7.424435
_cell_angle_alpha 61.646831
_cell_angle_beta 108.311192
_cell_angle_gamma 111.688191
_cell_volume 629.425981
_symmetry_space_group_name_H-M "P -1"
_symmetry_group_IT_number 2
_symmetry_cell_setting 'triclinic'
loop_
_space_group_symop_operation_xyz
x,y,z
-x,-y,-z
loop_
_atom_site_type_symbol
_atom_site_label
_atom_site_fract_x
_atom_site_fract_y
_atom_site_fract_z
Si Si1 0.126244 0.922612 0.027578
Si Si2 0.716782 0.224765 0.889439
Si Si3 0.265218 0.318659 0.674789
Si Si4 0.796601 0.599138 0.810137
Si Si5 0.531312 0.879998 0.758857
Si Si6 0.566923 0.967316 0.331032
Si Si7 0.602651 0.418828 0.925688
O O1 0.804390 0.891609 0.932883
O O2 0.248800 0.003336 0.844322
O O3 0.282857 0.857602 0.087447
O O4 0.240159 0.938887 0.233053
O O5 0.456827 0.260693 0.746217
O O6 0.001021 0.279936 0.797340
O O7 0.679702 0.201055 0.125047
O O8 0.173603 0.348768 0.428325
O O9 0.460548 0.386469 0.749522
O O10 0.595839 0.616213 0.901556
O O11 0.098633 0.600935 0.959964
O O12 0.659905 0.510920 0.831917
O O13 0.637687 0.900590 0.551919
O O14 0.387450 0.950153 0.668114
#
# Coordination Sequence:
#
# PCOD9090764 Si02
#       7
#     2   2   2   2   2   2   2
#     4  10  19  39  58  87 118 155 204 261 301 366
#     4  11  24  40  61  86 133 166 206 244 307 384
#     4  12  23  44  62  92 132 174 198 256 312 370
#     4  10  22  42  69  98 124 160 214 261 303 363
#     4  10  19  39  58  87 118 155 204 261 301 366
#     4   9  20  34  64  88 107 158 206 260 315 348
#     4  10  22  42  69  98 124 160 214 261 303 363
#
# _framework density 22.24249
#
# number of rings (size 3 to 8) (size 9 to 14) (size 15 to 20)
#    0.000    1.714    1.429    3.000    0.000    0.000 
#    7.714    5.714    0.000    0.000    0.000    0.000 
#    0.000    0.000    0.000    0.000    0.000    0.000 
#
# Total GULP energy -78086.190477 kJ/mol
# GULP energy per Si atom -5577.585034 kJ/mol
# Density = 2.219187 g / cm^3
# Si number density = 22.242490 Si / 1000 Ang^3
#
#
#
# Elastic Constant Matrix: (Units=GPa)
#
#
# Indices 1 2 3 4 5 6 
#
# 1 87.7843 11.2025 18.7754 -8.3570 10.0755 22.2716
# 2 11.2025 19.3588 10.2605 -3.3380 -3.8680 3.8446
# 3 18.7754 10.2605 73.2666 -7.2093 -1.9630 9.4403
# 4 -8.3570 -3.3380 -7.2093 27.6493 0.3115 -1.8731
# 5 10.0755 -3.8680 -1.9630 0.3115 16.4272 -4.6843
# 6 22.2716 3.8446 9.4403 -1.8731 -4.6843 24.1467
#
#
#
# Elastic Compliance Matrix: (Units=1/GPa)
#
#
# Indices 1 2 3 4 5 6 
#
# 1 0.021455 -0.011221 -0.001403 0.003559 -0.022160 -0.021476
# 2 -0.011221 0.065262 -0.006260 0.003078 0.023496 0.007203
# 3 -0.001403 -0.006260 0.015610 0.002647 0.000183 -0.003572
# 4 0.003559 0.003078 0.002647 0.038175 -0.002532 -0.002337
# 5 -0.022160 0.023496 0.000183 -0.002532 0.089717 0.033835
# 6 -0.021476 0.007203 -0.003572 -0.002337 0.033835 0.067854
#
#
# Mechanical properties :
#
#
# Convention : Reuss Voigt Hill
#
# Bulk Modulus (GPa) = 15.48936 28.98739 22.23838
# Shear Modulus (GPa) = 13.99151 22.98940 18.49046
#
# Velocity S-wave (km/s) = 2.51080 3.21842 2.88638
# Velocity P-wave (km/s) = 3.92230 5.18379 4.59653
#
# Compressibility (1/GPa) = 0.06456044
#
# Stress axis : x y z
#
# Youngs Moduli (GPa) = 46.61018 15.32285 64.05972
#
# Poissons Ratio (x) = 0.17193 0.08987
# Poissons Ratio (y) = 0.52300 0.40100
# Poissons Ratio (z) = 0.06539 0.09592
#
# Static dielectric constant tensor:
#      x y z
#    x 1.979300 -0.043120 -0.095780 
#    y -0.043120 1.867140 0.038530 
#    z -0.095780 0.038530 1.851260 
# 
# From -- ./inp_files/142582.got.cif
#   From: 2010.05.17/outbox.cif.g08.bks.cpg/sg2_72_cif.got.tgz:142582.got - 2010.06.03 11:33:40.
