data_PCOD9090202
_publ_section_title
;
Structure prediction by ZEFSAII (Michael W. Deem and Ramdas Pophale) SiO2 
 PCOD9090202
Probable space group: P -1
;
_chemical_formula_sum "Si O2"
_cell_formula_units_Z 16
_cell_length_a 14.781815
_cell_length_b 9.200047
_cell_length_c 19.344840
_cell_angle_alpha 39.132397
_cell_angle_beta 32.249421
_cell_angle_gamma 40.949975
_cell_volume 846.601323
_symmetry_space_group_name_H-M "P -1"
_symmetry_group_IT_number 2
_symmetry_cell_setting 'triclinic'
loop_
_space_group_symop_operation_xyz
x,y,z
-x,-y,-z
loop_
_atom_site_type_symbol
_atom_site_label
_atom_site_fract_x
_atom_site_fract_y
_atom_site_fract_z
Si Si1 0.348700 0.653799 0.592101
Si Si2 0.544997 0.508657 0.888034
Si Si3 0.999709 0.655774 0.873945
Si Si4 0.932280 0.202098 0.708891
Si Si5 0.678361 0.954314 0.643175
Si Si6 0.937733 0.362502 0.490982
Si Si7 0.611778 0.721834 0.042711
Si Si8 0.431519 0.618556 0.336596
O O1 0.500000 0.500000 0.500000
O O2 0.448433 0.616369 0.614645
O O3 0.178030 0.558443 0.748870
O O4 0.292969 0.909436 0.495438
O O5 0.734865 0.315462 0.823258
O O6 0.569569 0.770171 0.762368
O O7 0.411183 0.434791 0.950434
O O8 0.500000 0.500000 0.000000
O O9 0.003206 0.927463 0.787888
O O10 0.817088 0.687985 0.939175
O O11 0.000000 0.500000 0.000000
O O12 0.914299 0.235721 0.625264
O O13 0.045442 0.375044 0.597702
O O14 0.872381 0.795946 0.602536
O O15 0.583410 0.148735 0.690648
O O16 0.769214 0.382467 0.545365
O O17 0.522783 0.641824 0.196890
O O18 0.500000 0.000000 0.000000
#
# Coordination Sequence:
#
# PCOD9090202 Si02
#       8
#     2   2   2   2   2   2   2   2
#     4  10  23  42  61  90 130 169 208 262 316 377
#     4  11  23  41  63  94 129 162 210 271 325 373
#     4  12  23  41  65  91 131 174 213 258 323 384
#     4  10  21  37  61  90 125 160 203 265 318 367
#     4  10  22  39  65  91 127 168 204 267 323 369
#     4  10  19  38  64  91 121 155 214 264 312 369
#     4  12  23  39  65  94 124 167 216 261 313 392
#     4  11  21  39  63  94 123 163 215 259 315 384
#
# _framework density 18.899096
#
# number of rings (size 3 to 8) (size 9 to 14) (size 15 to 20)
#    0.000    1.250    5.000    1.125    0.000    0.000 
#   11.250    1.250    0.000    3.750    0.000    0.000 
#    0.000    0.000    0.000    0.000    0.000    0.000 
#
# Total GULP energy -89301.751071 kJ/mol
# GULP energy per Si atom -5581.359442 kJ/mol
# Density = 1.885608 g / cm^3
# Si number density = 18.899096 Si / 1000 Ang^3
#
#
#
# Elastic Constant Matrix: (Units=GPa)
#
#
# Indices 1 2 3 4 5 6 
#
# 1 120.1135 43.9578 49.2284 -8.5440 -10.8473 -12.0049
# 2 43.9578 61.9580 33.1600 -1.4438 -8.4842 -2.6995
# 3 49.2284 33.1600 113.3614 -4.9859 3.2170 -6.9346
# 4 -8.5440 -1.4438 -4.9859 34.0385 -1.8898 2.3991
# 5 -10.8473 -8.4842 3.2170 -1.8898 36.3141 7.1737
# 6 -12.0049 -2.6995 -6.9346 2.3991 7.1737 28.5994
#
#
#
# Elastic Compliance Matrix: (Units=1/GPa)
#
#
# Indices 1 2 3 4 5 6 
#
# 1 0.012886 -0.006883 -0.003338 0.002337 0.002017 0.003248
# 2 -0.006883 0.023782 -0.004297 -0.000915 0.004368 -0.002705
# 3 -0.003338 -0.004297 0.011755 0.000382 -0.003390 0.001862
# 4 0.002337 -0.000915 0.000382 0.030271 0.002454 -0.002168
# 5 0.002017 0.004368 -0.003390 0.002454 0.031083 -0.007566
# 6 0.003248 -0.002705 0.001862 -0.002168 -0.007566 0.038605
#
#
# Mechanical properties :
#
#
# Convention : Reuss Voigt Hill
#
# Bulk Modulus (GPa) = 51.58487 60.90282 56.24385
# Shear Modulus (GPa) = 27.19151 31.06283 29.12717
#
# Velocity S-wave (km/s) = 3.79723 4.05855 3.93006
# Velocity P-wave (km/s) = 6.82491 7.36598 7.10060
#
# Compressibility (1/GPa) = 0.01938553
#
# Stress axis : x y z
#
# Youngs Moduli (GPa) = 77.60604 42.04784 85.07156
#
# Poissons Ratio (x) = 0.28944 0.28397
# Poissons Ratio (y) = 0.53420 0.36557
# Poissons Ratio (z) = 0.25905 0.18069
#
# Static dielectric constant tensor:
#      x y z
#    x 1.646550 -0.016690 -0.000470 
#    y -0.016690 1.700140 0.008600 
#    z -0.000470 0.008600 1.676340 
# 
# From -- ./inp_files/175208.got.cif
#   From: 2010.05.17/outbox.cif.g08.bks.cpg/sg2_88_cif.got.tgz:175208.got - 2010.06.03 11:33:40.
