data_PCOD9090028
_publ_section_title
;
Structure prediction by ZEFSAII (Michael W. Deem and Ramdas Pophale) SiO2 
 PCOD9090028
Probable space group: P -1
;
_chemical_formula_sum "Si O2"
_cell_formula_units_Z 16
_cell_length_a 11.675829
_cell_length_b 10.837183
_cell_length_c 15.075975
_cell_angle_alpha 120.932971
_cell_angle_beta 80.130439
_cell_angle_gamma 50.495443
_cell_volume 830.666981
_symmetry_space_group_name_H-M "P -1"
_symmetry_group_IT_number 2
_symmetry_cell_setting 'triclinic'
loop_
_space_group_symop_operation_xyz
x,y,z
-x,-y,-z
loop_
_atom_site_type_symbol
_atom_site_label
_atom_site_fract_x
_atom_site_fract_y
_atom_site_fract_z
Si Si1 0.339219 0.026347 0.224918
Si Si2 0.685572 0.704504 0.915955
Si Si3 0.984328 0.131559 0.628315
Si Si4 0.031976 0.389480 0.235660
Si Si5 0.440186 0.038057 0.405417
Si Si6 0.232783 0.813880 0.161863
Si Si7 0.046241 0.857274 0.854201
Si Si8 0.464743 0.782564 0.449355
O O1 0.173893 0.268305 0.262294
O O2 0.385316 0.066985 0.321723
O O3 0.232292 0.985254 0.247109
O O4 0.573423 0.765613 0.042752
O O5 0.888217 0.603015 0.855759
O O6 0.795345 0.455504 0.756567
O O7 0.500000 0.000000 0.000000
O O8 0.892158 0.145476 0.731775
O O9 0.231075 0.943253 0.535099
O O10 0.000000 0.000000 0.500000
O O11 0.786722 0.693318 0.410111
O O12 0.047838 0.205136 0.144264
O O13 0.562545 0.059826 0.416359
O O14 0.524268 0.803185 0.356029
O O15 0.500000 0.500000 0.000000
O O16 0.096420 0.933915 0.133176
O O17 0.313697 0.550555 0.685091
O O18 0.000000 0.000000 0.000000
#
# Coordination Sequence:
#
# PCOD9090028 Si02
#       8
#     2   2   2   2   2   2   2   2
#     4  10  20  36  64  91 126 161 219 268 321 375
#     4  10  21  39  59  97 129 158 213 278 316 381
#     4  12  25  42  68  96 133 178 221 276 330 389
#     4   9  19  38  62  93 125 159 217 268 317 389
#     4  10  19  38  63  88 120 167 206 265 327 383
#     4  11  24  42  65  95 132 170 227 267 316 408
#     4  10  24  42  67  94 133 178 211 271 338 395
#     4  10  23  40  61  91 132 162 221 264 329 396
#
# _framework density 19.26163
#
# number of rings (size 3 to 8) (size 9 to 14) (size 15 to 20)
#    0.000    1.750    2.500    1.125    3.500    0.500 
#    6.750    0.625    0.000    0.000    0.000    0.000 
#    0.000    0.000    0.000    0.000    0.000    0.000 
#
# Total GULP energy -89104.776820 kJ/mol
# GULP energy per Si atom -5569.048551 kJ/mol
# Density = 1.921779 g / cm^3
# Si number density = 19.261630 Si / 1000 Ang^3
#
#
#
# Elastic Constant Matrix: (Units=GPa)
#
#
# Indices 1 2 3 4 5 6 
#
# 1 125.9764 54.8005 61.6245 -14.3544 -2.6296 -14.9028
# 2 54.8005 99.8372 52.8473 8.5150 6.3545 -11.6706
# 3 61.6245 52.8473 98.1113 6.3476 0.3003 -9.7740
# 4 -14.3544 8.5150 6.3476 27.2386 -3.4873 0.9143
# 5 -2.6296 6.3545 0.3003 -3.4873 35.2017 -5.2193
# 6 -14.9028 -11.6706 -9.7740 0.9143 -5.2193 35.9227
#
#
#
# Elastic Compliance Matrix: (Units=1/GPa)
#
#
# Indices 1 2 3 4 5 6 
#
# 1 0.015901 -0.005769 -0.007392 0.012312 0.003953 0.002972
# 2 -0.005769 0.016779 -0.004765 -0.007731 -0.003980 0.001380
# 3 -0.007392 -0.004765 0.017868 -0.006640 -0.000450 0.000350
# 4 0.012312 -0.007731 -0.006640 0.048069 0.007225 0.000616
# 5 0.003953 -0.003980 -0.000450 0.007225 0.030811 0.004517
# 6 0.002972 0.001380 0.000350 0.000616 0.004517 0.030255
#
#
# Mechanical properties :
#
#
# Convention : Reuss Voigt Hill
#
# Bulk Modulus (GPa) = 68.04737 73.60771 70.82754
# Shear Modulus (GPa) = 24.94597 29.98276 27.46436
#
# Velocity S-wave (km/s) = 3.60267 3.94966 3.78015
# Velocity P-wave (km/s) = 7.26018 7.68749 7.47689
#
# Compressibility (1/GPa) = 0.01469565
#
# Stress axis : x y z
#
# Youngs Moduli (GPa) = 62.89026 59.59832 55.96581
#
# Poissons Ratio (x) = 0.34382 0.41373
# Poissons Ratio (y) = 0.36282 0.26665
# Poissons Ratio (z) = 0.46492 0.28396
#
# Static dielectric constant tensor:
#      x y z
#    x 1.810060 -0.011410 -0.121310 
#    y -0.011410 1.733710 0.075190 
#    z -0.121310 0.075190 1.777880 
# 
# From -- ./inp_files/519042.got.cif
#   From: 2010.05.17/outbox.cif.g08.bks.cpg/sg2_260_cif.got.tgz:519042.got - 2010.06.03 11:33:40.
