data_PCOD9090086
_publ_section_title
;
Structure prediction by ZEFSAII (Michael W. Deem and Ramdas Pophale) SiO2 
 PCOD9090086
Probable space group: P -1
;
_chemical_formula_sum "Si O2"
_cell_formula_units_Z 16
_cell_length_a 8.813072
_cell_length_b 8.146523
_cell_length_c 14.887408
_cell_angle_alpha 102.667724
_cell_angle_beta 83.053893
_cell_angle_gamma 50.774800
_cell_volume 758.698470
_symmetry_space_group_name_H-M "P -1"
_symmetry_group_IT_number 2
_symmetry_cell_setting 'triclinic'
loop_
_space_group_symop_operation_xyz
x,y,z
-x,-y,-z
loop_
_atom_site_type_symbol
_atom_site_label
_atom_site_fract_x
_atom_site_fract_y
_atom_site_fract_z
Si Si1 0.715365 0.246673 0.933115
Si Si2 0.147038 0.533935 0.236408
Si Si3 0.954767 0.692500 0.089958
Si Si4 0.788506 0.122279 0.711015
Si Si5 0.577094 0.094710 0.067519
Si Si6 0.042484 0.339156 0.557148
Si Si7 0.199655 0.669111 0.562073
Si Si8 0.404669 0.813954 0.462499
O O1 0.892737 0.258800 0.926649
O O2 0.701452 0.175993 0.825725
O O3 0.500000 0.500000 0.000000
O O4 0.719490 0.104712 0.994048
O O5 0.989484 0.607643 0.177846
O O6 0.141480 0.736105 0.281563
O O7 0.375054 0.328783 0.155137
O O8 0.064751 0.509298 0.328421
O O9 0.722497 0.922736 0.115509
O O10 0.000000 0.500000 0.000000
O O11 0.650101 0.187570 0.639197
O O12 0.996962 0.855221 0.658377
O O13 0.500000 0.000000 0.000000
O O14 0.000000 0.500000 0.500000
O O15 0.893977 0.302164 0.525824
O O16 0.274213 0.085879 0.519308
O O17 0.313930 0.758390 0.540822
O O18 0.351112 0.414126 0.563835
#
# Coordination Sequence:
#
# PCOD9090086 Si02
#       8
#     2   2   2   2   2   2   2   2
#     4  11  22  41  65  97 131 172 222 276 328 396
#     4  11  22  41  67  91 125 172 223 263 338 396
#     4  11  23  44  65  92 130 174 222 280 328 390
#     4  10  19  38  63  93 127 160 215 264 325 384
#     4  12  24  43  67  93 132 178 219 275 335 392
#     4  11  23  41  63  93 135 168 207 272 328 396
#     4  10  20  38  64  91 121 165 208 271 311 391
#     4  10  20  38  65  90 125 159 217 259 322 390
#
# _framework density 21.088747000000001
#
# number of rings (size 3 to 8) (size 9 to 14) (size 15 to 20)
#    0.000    1.250    6.250    1.125    0.000    5.500 
#    2.250    1.250    0.000    0.000    0.000    0.000 
#    0.000    0.000    0.000    0.000    0.000    0.000 
#
# Total GULP energy -89145.686583 kJ/mol
# GULP energy per Si atom -5571.605411 kJ/mol
# Density = 2.104075 g / cm^3
# Si number density = 21.088747 Si / 1000 Ang^3
#
#
#
# Elastic Constant Matrix: (Units=GPa)
#
#
# Indices 1 2 3 4 5 6 
#
# 1 48.0539 25.9999 24.9418 5.6170 5.0456 -8.4115
# 2 25.9999 144.5215 54.9411 4.7812 -7.0559 -22.1528
# 3 24.9418 54.9411 172.2269 -10.5008 1.0460 -10.0092
# 4 5.6170 4.7812 -10.5008 28.7315 3.7735 -1.1556
# 5 5.0456 -7.0559 1.0460 3.7735 22.9871 -2.5556
# 6 -8.4115 -22.1528 -10.0092 -1.1556 -2.5556 43.8836
#
#
#
# Elastic Compliance Matrix: (Units=1/GPa)
#
#
# Indices 1 2 3 4 5 6 
#
# 1 0.025541 -0.003332 -0.002761 -0.004639 -0.005504 0.002141
# 2 -0.003332 0.009304 -0.002433 -0.002225 0.004475 0.003705
# 3 -0.002761 -0.002433 0.007211 0.003720 -0.001088 -0.000078
# 4 -0.004639 -0.002225 0.003720 0.038231 -0.006167 -0.000516
# 5 -0.005504 0.004475 -0.001088 -0.006167 0.047542 0.003562
# 6 0.002141 0.003705 -0.000078 -0.000516 0.003562 0.025244
#
#
# Mechanical properties :
#
#
# Convention : Reuss Voigt Hill
#
# Bulk Modulus (GPa) = 39.99411 64.06311 52.02861
# Shear Modulus (GPa) = 28.01755 36.38175 32.19965
#
# Velocity S-wave (km/s) = 3.64889 4.15803 3.91175
# Velocity P-wave (km/s) = 6.06287 7.31410 6.71768
#
# Compressibility (1/GPa) = 0.02500368
#
# Stress axis : x y z
#
# Youngs Moduli (GPa) = 39.15299 107.48349 138.67583
#
# Poissons Ratio (x) = 0.35818 0.38284
# Poissons Ratio (y) = 0.13048 0.33738
# Poissons Ratio (z) = 0.10809 0.26149
#
# Static dielectric constant tensor:
#      x y z
#    x 1.894670 0.065450 -0.027410 
#    y 0.065450 1.815310 0.010610 
#    z -0.027410 0.010610 1.824360 
# 
# From -- ./inp_files/294063.got.cif
#   From: 2010.05.17/outbox.cif.g08.bks.cpg/sg2_148_cif.got.tgz:294063.got - 2010.06.03 11:33:40.
