data_PCOD9090494
_publ_section_title
;
Structure prediction by ZEFSAII (Michael W. Deem and Ramdas Pophale) SiO2 
 PCOD9090494
Probable space group: P -1
;
_chemical_formula_sum "Si O2"
_cell_formula_units_Z 16
_cell_length_a 22.062914
_cell_length_b 15.725614
_cell_length_c 11.526185
_cell_angle_alpha 28.293635
_cell_angle_beta 154.559755
_cell_angle_gamma 159.430802
_cell_volume 587.035979
_symmetry_space_group_name_H-M "P -1"
_symmetry_group_IT_number 2
_symmetry_cell_setting 'triclinic'
loop_
_space_group_symop_operation_xyz
x,y,z
-x,-y,-z
loop_
_atom_site_type_symbol
_atom_site_label
_atom_site_fract_x
_atom_site_fract_y
_atom_site_fract_z
Si Si1 0.825846 0.484871 0.169559
Si Si2 0.808494 0.174045 0.342315
Si Si3 0.769990 0.265288 0.917531
Si Si4 0.607776 0.825929 0.809319
Si Si5 0.844462 0.047555 0.156340
Si Si6 0.189586 0.284373 0.335839
Si Si7 0.263914 0.647837 0.586007
Si Si8 0.462040 0.301656 0.406765
O O1 0.730207 0.280396 0.149033
O O2 0.702266 0.411816 0.157950
O O3 0.000000 0.500000 0.500000
O O4 0.854632 0.696095 0.895188
O O5 0.745634 0.128739 0.156182
O O6 0.041893 0.398422 0.472771
O O7 0.721761 0.938233 0.551833
O O8 0.711239 0.092722 0.913049
O O9 0.617864 0.289745 0.643672
O O10 0.000000 0.500000 0.000000
O O11 0.401616 0.692060 0.671853
O O12 0.616821 0.721990 0.830963
O O13 0.711106 0.115338 0.631289
O O14 0.729352 0.840381 0.106422
O O15 0.884947 0.968685 0.435792
O O16 0.045960 0.288240 0.157308
O O17 0.406836 0.487031 0.520856
#
# Coordination Sequence:
#
# PCOD9090494 Si02
#       8
#     2   2   2   2   2   2   2   2
#     4  10  19  38  66  94 125 168 217 269 318 390
#     4  11  22  36  63 101 132 166 219 283 331 378
#     4  12  21  40  67  98 130 171 226 279 321 386
#     4  11  22  40  64  98 129 175 223 273 332 385
#     4  11  25  43  67  92 138 179 215 272 335 405
#     4  11  25  44  64 100 133 176 218 269 345 398
#     4  10  21  37  66  99 133 165 224 283 325 385
#     4  12  24  38  68 102 132 168 227 281 323 389
#
# _framework density 27.255568
#
# number of rings (size 3 to 8) (size 9 to 14) (size 15 to 20)
#    0.000    1.000    3.750    4.875    1.750    0.500 
#    0.000    2.500    0.000    3.750    0.000    0.000 
#    0.000    0.000    0.000    0.000    0.000    0.000 
#
# Total GULP energy -89361.129570 kJ/mol
# GULP energy per Si atom -5585.070598 kJ/mol
# Density = 2.719353 g / cm^3
# Si number density = 27.255568 Si / 1000 Ang^3
#
#
#
# Elastic Constant Matrix: (Units=GPa)
#
#
# Indices 1 2 3 4 5 6 
#
# 1 94.9614 22.1700 41.3599 -5.9627 -46.6793 9.6599
# 2 22.1700 127.5047 22.5611 10.6620 -5.1685 29.2797
# 3 41.3599 22.5611 138.4988 -1.3810 -35.6091 13.0419
# 4 -5.9627 10.6620 -1.3810 31.0035 10.5781 -8.0201
# 5 -46.6793 -5.1685 -35.6091 10.5781 50.0805 0.5804
# 6 9.6599 29.2797 13.0419 -8.0201 0.5804 39.4823
#
#
#
# Elastic Compliance Matrix: (Units=1/GPa)
#
#
# Indices 1 2 3 4 5 6 
#
# 1 0.021248 -0.001308 -0.000509 -0.003680 0.020144 -0.005104
# 2 -0.001308 0.010790 -0.000275 -0.006712 0.001220 -0.008972
# 3 -0.000509 -0.000275 0.009485 -0.002828 0.006879 -0.003480
# 4 -0.003680 -0.006712 -0.002828 0.043072 -0.015414 0.015788
# 5 0.020144 0.001220 0.006879 -0.015414 0.047156 -0.011930
# 6 -0.005104 -0.008972 -0.003480 0.015788 -0.011930 0.037762
#
#
# Mechanical properties :
#
#
# Convention : Reuss Voigt Hill
#
# Bulk Modulus (GPa) = 26.78200 59.23854 43.01027
# Shear Modulus (GPa) = 26.86089 42.43819 34.64954
#
# Velocity S-wave (km/s) = 3.14270 3.95022 3.56937
# Velocity P-wave (km/s) = 4.79754 6.52590 5.72729
#
# Compressibility (1/GPa) = 0.03733851
#
# Stress axis : x y z
#
# Youngs Moduli (GPa) = 47.06305 92.67818 105.42573
#
# Poissons Ratio (x) = 0.12123 0.05366
# Poissons Ratio (y) = 0.06156 0.02903
# Poissons Ratio (z) = 0.02395 0.02552
#
# Static dielectric constant tensor:
#      x y z
#    x 2.144440 -0.057190 0.006980 
#    y -0.057190 2.262160 -0.009650 
#    z 0.006980 -0.009650 2.281400 
# 
# From -- ./inp_files/475430.got.cif
#   From: 2010.05.17/outbox.cif.g08.bks.cpg/sg2_238_cif.got.tgz:475430.got - 2010.06.03 11:33:40.
