data_PCOD9090419
_publ_section_title
;
Structure prediction by ZEFSAII (Michael W. Deem and Ramdas Pophale) SiO2 
 PCOD9090419
Probable space group: P -1
;
_chemical_formula_sum "Si O2"
_cell_formula_units_Z 14
_cell_length_a 8.218500
_cell_length_b 20.158356
_cell_length_c 7.060716
_cell_angle_alpha 39.804427
_cell_angle_beta 74.960968
_cell_angle_gamma 55.425091
_cell_volume 580.999504
_symmetry_space_group_name_H-M "P -1"
_symmetry_group_IT_number 2
_symmetry_cell_setting 'triclinic'
loop_
_space_group_symop_operation_xyz
x,y,z
-x,-y,-z
loop_
_atom_site_type_symbol
_atom_site_label
_atom_site_fract_x
_atom_site_fract_y
_atom_site_fract_z
Si Si1 0.157546 0.982226 0.226932
Si Si2 0.269989 0.980539 0.608291
Si Si3 0.353232 0.478659 0.708401
Si Si4 0.648196 0.301841 0.345496
Si Si5 0.112189 0.183605 0.500433
Si Si6 0.404603 0.307472 0.736764
Si Si7 0.083794 0.368470 0.372392
O O1 0.935757 0.012421 0.286906
O O2 0.261052 0.992649 0.359215
O O3 0.293644 0.837127 0.425858
O O4 0.124708 0.081379 0.863178
O O5 0.240574 0.099691 0.463394
O O6 0.463234 0.841982 0.922913
O O7 0.442614 0.671125 0.475101
O O8 0.324970 0.390650 0.769503
O O9 0.126327 0.608409 0.535839
O O10 0.473763 0.404623 0.026585
O O11 0.865440 0.285596 0.298973
O O12 0.188271 0.254775 0.436913
O O13 0.500000 0.500000 0.500000
O O14 0.227258 0.344994 0.556361
O O15 0.000000 0.500000 0.000000
#
# Coordination Sequence:
#
# PCOD9090419 Si02
#       7
#     2   2   2   2   2   2   2
#     4  10  19  38  66 109 135 165 232 290 345 394
#     4  10  20  37  71 103 135 175 222 296 344 399
#     4  12  28  46  74 102 132 189 244 280 330 412
#     4  11  21  42  75 103 135 178 232 294 339 400
#     4  11  23  41  68 103 135 177 233 279 340 416
#     4  12  23  46  70  97 143 182 223 285 355 400
#     4  12  29  48  66  98 149 189 222 282 348 416
#
# _framework density 24.096406000000002
#
# number of rings (size 3 to 8) (size 9 to 14) (size 15 to 20)
#    0.000    0.857    5.714    2.143    2.000    1.714 
#    2.571    0.714    0.000    0.000    0.000    0.000 
#    0.000    0.000    0.000    0.000    0.000    0.000 
#
# Total GULP energy -78505.318622 kJ/mol
# GULP energy per Si atom -5607.522759 kJ/mol
# Density = 2.404156 g / cm^3
# Si number density = 24.096406 Si / 1000 Ang^3
#
#
#
# Elastic Constant Matrix: (Units=GPa)
#
#
# Indices 1 2 3 4 5 6 
#
# 1 68.9966 12.1541 28.8522 6.4585 12.8638 14.6314
# 2 12.1541 139.8203 21.6294 1.9268 8.3200 16.2988
# 3 28.8522 21.6294 57.8079 9.5163 24.6345 8.1391
# 4 6.4585 1.9268 9.5163 41.7623 6.1597 0.6907
# 5 12.8638 8.3200 24.6345 6.1597 39.8710 8.3552
# 6 14.6314 16.2988 8.1391 0.6907 8.3552 27.9909
#
#
#
# Elastic Compliance Matrix: (Units=1/GPa)
#
#
# Indices 1 2 3 4 5 6 
#
# 1 0.019945 0.000633 -0.009313 -0.001015 0.001102 -0.008390
# 2 0.000633 0.008035 -0.003139 0.000179 0.000950 -0.004385
# 3 -0.009313 -0.003139 0.029494 -0.003020 -0.014634 0.002562
# 4 -0.001015 0.000179 -0.003020 0.025053 -0.001982 0.001278
# 5 0.001102 0.000950 -0.014634 -0.001982 0.035425 -0.007399
# 6 -0.008390 -0.004385 0.002562 0.001278 -0.007399 0.044097
#
#
# Mechanical properties :
#
#
# Convention : Reuss Voigt Hill
#
# Bulk Modulus (GPa) = 29.55426 43.54404 36.54915
# Shear Modulus (GPa) = 25.38522 35.52411 30.45466
#
# Velocity S-wave (km/s) = 3.24927 3.84376 3.55895
# Velocity P-wave (km/s) = 5.13504 6.14893 5.66471
#
# Compressibility (1/GPa) = 0.03383606
#
# Stress axis : x y z
#
# Youngs Moduli (GPa) = 50.13774 124.45925 33.90567
#
# Poissons Ratio (x) = -0.07883 0.31575
# Poissons Ratio (y) = -0.03176 0.10644
# Poissons Ratio (z) = 0.46692 0.39072
#
# Static dielectric constant tensor:
#      x y z
#    x 1.987040 0.002910 -0.036760 
#    y 0.002910 1.911370 -0.019800 
#    z -0.036760 -0.019800 1.848890 
# 
# From -- ./inp_files/211709.got.cif
#   From: 2010.05.17/outbox.cif.g08.bks.cpg/sg2_106_cif.got.tgz:211709.got - 2010.06.03 11:33:40.
