data_PCOD9090599
_publ_section_title
;
Structure prediction by ZEFSAII (Michael W. Deem and Ramdas Pophale) SiO2 
 PCOD9090599
Probable space group: P -1
;
_chemical_formula_sum "Si O2"
_cell_formula_units_Z 14
_cell_length_a 12.017424
_cell_length_b 9.309227
_cell_length_c 9.041312
_cell_angle_alpha 72.949259
_cell_angle_beta 93.685291
_cell_angle_gamma 138.193810
_cell_volume 625.451417
_symmetry_space_group_name_H-M "P -1"
_symmetry_group_IT_number 2
_symmetry_cell_setting 'triclinic'
loop_
_space_group_symop_operation_xyz
x,y,z
-x,-y,-z
loop_
_atom_site_type_symbol
_atom_site_label
_atom_site_fract_x
_atom_site_fract_y
_atom_site_fract_z
Si Si1 0.710440 0.806363 0.527493
Si Si2 0.963853 0.314672 0.145869
Si Si3 0.890168 0.902434 0.221746
Si Si4 0.537478 0.591718 0.139921
Si Si5 0.054710 0.783413 0.351728
Si Si6 0.206031 0.633693 0.335111
Si Si7 0.570841 0.877918 0.266729
O O1 0.828062 0.840298 0.408184
O O2 0.617442 0.618816 0.703358
O O3 0.569138 0.745372 0.432009
O O4 0.831252 0.046811 0.551227
O O5 0.105812 0.455766 0.243939
O O6 0.962873 0.144889 0.128836
O O7 0.763734 0.134757 0.228162
O O8 0.000000 0.500000 0.000000
O O9 0.717831 0.704966 0.172706
O O10 0.015619 0.891234 0.221105
O O11 0.560115 0.789262 0.130486
O O12 0.500000 0.500000 0.000000
O O13 0.157567 0.758656 0.286736
O O14 0.880558 0.527949 0.477017
O O15 0.408612 0.816021 0.292997
#
# Coordination Sequence:
#
# PCOD9090599 Si02
#       7
#     2   2   2   2   2   2   2
#     4  10  19  38  67  99 131 171 225 278 333 402
#     4  10  23  45  68  94 133 178 226 271 344 409
#     4  10  21  42  69  96 130 178 225 279 336 400
#     4  10  21  38  63 101 135 168 225 282 339 402
#     4  11  22  38  69 105 130 171 232 281 330 395
#     4  11  23  42  65 101 139 173 222 281 336 398
#     4  10  22  43  70  95 131 184 225 271 341 400
#
# _framework density 22.383834
#
# number of rings (size 3 to 8) (size 9 to 14) (size 15 to 20)
#    0.000    2.000    2.857    3.857    2.000    3.429 
#    5.143    1.429    0.000    0.000    0.000    0.000 
#    0.000    0.000    0.000    0.000    0.000    0.000 
#
# Total GULP energy -78193.128817 kJ/mol
# GULP energy per Si atom -5585.223487 kJ/mol
# Density = 2.233289 g / cm^3
# Si number density = 22.383834 Si / 1000 Ang^3
#
#
#
# Elastic Constant Matrix: (Units=GPa)
#
#
# Indices 1 2 3 4 5 6 
#
# 1 155.8033 42.6083 9.8754 -6.0437 7.8979 -6.6010
# 2 42.6083 74.4872 20.8878 6.7195 4.8574 8.8850
# 3 9.8754 20.8878 71.4402 1.5818 -1.1258 0.1156
# 4 -6.0437 6.7195 1.5818 44.7493 -6.2445 4.6426
# 5 7.8979 4.8574 -1.1258 -6.2445 17.1150 -3.5525
# 6 -6.6010 8.8850 0.1156 4.6426 -3.5525 24.2675
#
#
#
# Elastic Compliance Matrix: (Units=1/GPa)
#
#
# Indices 1 2 3 4 5 6 
#
# 1 0.008083 -0.005226 0.000360 0.001344 -0.000962 0.003712
# 2 -0.005226 0.019629 -0.005029 -0.003475 -0.006602 -0.008886
# 3 0.000360 -0.005029 0.015451 0.000433 0.002894 0.002207
# 4 0.001344 -0.003475 0.000433 0.024465 0.008961 -0.001733
# 5 -0.000962 -0.006602 0.002894 0.008961 0.066310 0.010135
# 6 0.003712 -0.008886 0.002207 -0.001733 0.010135 0.047275
#
#
# Mechanical properties :
#
#
# Convention : Reuss Voigt Hill
#
# Bulk Modulus (GPa) = 42.78719 49.83041 46.30880
# Shear Modulus (GPa) = 23.94708 32.45028 28.19868
#
# Velocity S-wave (km/s) = 3.27439 3.81165 3.55319
# Velocity P-wave (km/s) = 5.78379 6.45613 6.12919
#
# Compressibility (1/GPa) = 0.02337148
#
# Stress axis : x y z
#
# Youngs Moduli (GPa) = 123.71870 50.94592 64.72082
#
# Poissons Ratio (x) = 0.26623 -0.02328
# Poissons Ratio (y) = 0.64652 0.32551
# Poissons Ratio (z) = -0.04450 0.25623
#
# Static dielectric constant tensor:
#      x y z
#    x 1.817580 -0.037810 0.009290 
#    y -0.037810 1.868210 -0.057780 
#    z 0.009290 -0.057780 1.932100 
# 
# From -- ./inp_files/238510.got.cif
#   From: 2010.05.17/outbox.cif.g08.bks.cpg/sg2_120_cif.got.tgz:238510.got - 2010.06.03 11:33:40.
