data_PCOD9090343
_publ_section_title
;
Structure prediction by ZEFSAII (Michael W. Deem and Ramdas Pophale) SiO2 
 PCOD9090343
Probable space group: P -1
;
_chemical_formula_sum "Si O2"
_cell_formula_units_Z 16
_cell_length_a 8.986416
_cell_length_b 20.073721
_cell_length_c 8.088580
_cell_angle_alpha 51.288188
_cell_angle_beta 114.315492
_cell_angle_gamma 77.464955
_cell_volume 772.688871
_symmetry_space_group_name_H-M "P -1"
_symmetry_group_IT_number 2
_symmetry_cell_setting 'triclinic'
loop_
_space_group_symop_operation_xyz
x,y,z
-x,-y,-z
loop_
_atom_site_type_symbol
_atom_site_label
_atom_site_fract_x
_atom_site_fract_y
_atom_site_fract_z
Si Si1 0.417418 0.936041 0.110522
Si Si2 0.736954 0.679571 0.717913
Si Si3 0.286787 0.044579 0.236471
Si Si4 0.957734 0.029097 0.737395
Si Si5 0.087728 0.694947 0.432940
Si Si6 0.575195 0.493521 0.359931
Si Si7 0.594584 0.289207 0.231544
Si Si8 0.157718 0.544753 0.982753
O O1 0.597472 0.800644 0.376591
O O2 0.375870 0.962321 0.246109
O O3 0.500000 0.000000 0.000000
O O4 0.189073 0.985092 0.849807
O O5 0.588281 0.700759 0.768997
O O6 0.988584 0.624259 0.930974
O O7 0.781600 0.575978 0.802077
O O8 0.500000 0.000000 0.500000
O O9 0.127542 0.031764 0.274044
O O10 0.134165 0.175900 0.904012
O O11 0.768249 0.165073 0.421076
O O12 0.000000 0.000000 0.000000
O O13 0.198608 0.621670 0.429279
O O14 0.254934 0.704256 0.586116
O O15 0.055153 0.624284 0.647998
O O16 0.500000 0.500000 0.500000
O O17 0.534477 0.605542 0.117854
O O18 0.389519 0.509086 0.148625
#
# Coordination Sequence:
#
# PCOD9090343 Si02
#       8
#     2   2   2   2   2   2   2   2
#     4  11  22  38  65  93 123 167 214 257 305 375
#     4  11  19  35  64  92 119 151 218 261 289 365
#     4  11  23  39  62  94 127 162 204 259 323 369
#     4  10  19  38  65  91 120 164 216 251 303 381
#     4  11  19  40  64  85 122 166 206 252 306 381
#     4  11  24  39  59  90 125 162 200 257 319 371
#     4  11  18  40  69  87 115 166 215 249 305 377
#     4  10  22  36  63  93 116 158 214 254 300 371
#
# _framework density 20.706910000000001
#
# number of rings (size 3 to 8) (size 9 to 14) (size 15 to 20)
#    0.000    1.250    7.500    1.500    1.750    1.000 
#    0.000    5.000    0.000    0.000    0.000    0.000 
#    0.000    0.000    0.000    0.000    0.000    0.000 
#
# Total GULP energy -89150.371246 kJ/mol
# GULP energy per Si atom -5571.898203 kJ/mol
# Density = 2.065978 g / cm^3
# Si number density = 20.706910 Si / 1000 Ang^3
#
#
#
# Elastic Constant Matrix: (Units=GPa)
#
#
# Indices 1 2 3 4 5 6 
#
# 1 119.3641 20.8672 41.7626 -13.5171 0.8477 17.0346
# 2 20.8672 51.9289 54.1553 -22.5921 -4.9436 3.0327
# 3 41.7626 54.1553 109.2087 -38.4770 -0.6231 3.8180
# 4 -13.5171 -22.5921 -38.4770 42.0647 5.5436 0.7590
# 5 0.8477 -4.9436 -0.6231 5.5436 36.9445 -5.4533
# 6 17.0346 3.0327 3.8180 0.7590 -5.4533 29.6204
#
#
#
# Elastic Compliance Matrix: (Units=1/GPa)
#
#
# Indices 1 2 3 4 5 6 
#
# 1 0.010557 0.000006 -0.003770 0.000209 -0.001194 -0.005811
# 2 0.000006 0.041355 -0.018912 0.004354 0.004399 -0.001102
# 3 -0.003770 -0.018912 0.023781 0.010865 -0.003660 0.000087
# 4 0.000209 0.004354 0.010865 0.036892 -0.005350 -0.003897
# 5 -0.001194 0.004399 -0.003660 -0.005350 0.029347 0.006248
# 6 -0.005811 -0.001102 0.000087 -0.003897 0.006248 0.038454
#
#
# Mechanical properties :
#
#
# Convention : Reuss Voigt Hill
#
# Bulk Modulus (GPa) = 32.95894 57.11910 45.03902
# Shear Modulus (GPa) = 21.19977 32.64037 26.92007
#
# Velocity S-wave (km/s) = 3.20316 3.97458 3.60954
# Velocity P-wave (km/s) = 5.44351 6.97907 6.25856
#
# Compressibility (1/GPa) = 0.03034078
#
# Stress axis : x y z
#
# Youngs Moduli (GPa) = 94.72145 24.18099 42.05082
#
# Poissons Ratio (x) = -0.00015 0.15854
# Poissons Ratio (y) = -0.00060 0.79527
# Poissons Ratio (z) = 0.35712 0.45731
#
# Static dielectric constant tensor:
#      x y z
#    x 1.889170 0.021630 0.004190 
#    y 0.021630 1.778690 0.056470 
#    z 0.004190 0.056470 1.759810 
# 
# From -- ./inp_files/207975.got.cif
#   From: 2010.05.17/outbox.cif.g08.bks.cpg/sg2_104_cif.got.tgz:207975.got - 2010.06.03 11:33:40.
