data_PCOD9090785
_publ_section_title
;
Structure prediction by ZEFSAII (Michael W. Deem and Ramdas Pophale) SiO2 
 PCOD9090785
Probable space group: P -1
;
_chemical_formula_sum "Si O2"
_cell_formula_units_Z 16
_cell_length_a 16.110198
_cell_length_b 15.015607
_cell_length_c 15.121508
_cell_angle_alpha 160.697255
_cell_angle_beta 138.114571
_cell_angle_gamma 40.571422
_cell_volume 779.940256
_symmetry_space_group_name_H-M "P -1"
_symmetry_group_IT_number 2
_symmetry_cell_setting 'triclinic'
loop_
_space_group_symop_operation_xyz
x,y,z
-x,-y,-z
loop_
_atom_site_type_symbol
_atom_site_label
_atom_site_fract_x
_atom_site_fract_y
_atom_site_fract_z
Si Si1 0.365532 0.293668 0.622003
Si Si2 0.825619 0.372372 0.723197
Si Si3 0.477706 0.265786 0.860021
Si Si4 0.135660 0.121653 0.045143
Si Si5 0.078316 0.114871 0.787623
Si Si6 0.561322 0.985768 0.838731
Si Si7 0.472319 0.476860 0.353391
Si Si8 0.901063 0.422717 0.416722
O O1 0.359983 0.303841 0.733929
O O2 0.237847 0.451025 0.618994
O O3 0.412245 0.977697 0.328812
O O4 0.474293 0.454687 0.835417
O O5 0.680585 0.413079 0.677284
O O6 0.931433 0.216442 0.732087
O O7 0.856101 0.185377 0.483484
O O8 0.850343 0.669348 0.997563
O O9 0.469566 0.149120 0.841457
O O10 0.090411 0.124353 0.910930
O O11 0.083486 0.900131 0.853009
O O12 0.291478 0.027031 0.079137
O O13 0.094922 0.418315 0.338841
O O14 0.543728 0.677894 0.547199
O O15 0.522483 0.165042 0.064494
O O16 0.500000 0.500000 0.500000
O O17 0.000000 0.500000 0.500000
#
# Coordination Sequence:
#
# PCOD9090785 Si02
#       8
#     2   2   2   2   2   2   2   2
#     4  10  19  39  59  85 114 148 194 237 297 347
#     4  10  21  41  61  89 124 154 201 238 296 353
#     4  10  20  36  63  83 113 153 193 239 282 355
#     4  12  23  41  63  88 116 155 210 236 291 364
#     4  10  21  40  67  85 115 168 197 240 286 351
#     4  12  22  38  62  87 119 156 197 243 290 350
#     4  12  24  38  58  92 126 152 190 246 303 341
#     4  12  24  41  61  87 123 153 195 254 297 348
#
# _framework density 20.514392999999998
#
# number of rings (size 3 to 8) (size 9 to 14) (size 15 to 20)
#    0.000    1.000    2.500    5.250    0.000    0.000 
#    4.500    0.000    0.000    0.000    0.000    0.000 
#    0.000    0.000    0.000    0.000    0.000    0.000 
#
# Total GULP energy -89477.660954 kJ/mol
# GULP energy per Si atom -5592.353810 kJ/mol
# Density = 2.046770 g / cm^3
# Si number density = 20.514393 Si / 1000 Ang^3
#
#
#
# Elastic Constant Matrix: (Units=GPa)
#
#
# Indices 1 2 3 4 5 6 
#
# 1 51.7788 7.5755 0.8151 -16.9140 4.8150 0.6768
# 2 7.5755 35.8068 6.2998 -14.9369 0.9291 15.1620
# 3 0.8151 6.2998 68.5476 -6.6417 0.1176 -10.9399
# 4 -16.9140 -14.9369 -6.6417 30.3932 10.7203 -6.3482
# 5 4.8150 0.9291 0.1176 10.7203 36.1675 -3.7200
# 6 0.6768 15.1620 -10.9399 -6.3482 -3.7200 31.8881
#
#
#
# Elastic Compliance Matrix: (Units=1/GPa)
#
#
# Indices 1 2 3 4 5 6 
#
# 1 0.026199 0.001571 0.001773 0.019375 -0.009060 0.002105
# 2 0.001571 0.046844 -0.005549 0.021827 -0.010028 -0.021035
# 3 0.001773 -0.005549 0.016929 0.004012 -0.000395 0.009161
# 4 0.019375 0.021827 0.004012 0.063102 -0.021795 0.000607
# 5 -0.009060 -0.010028 -0.000395 -0.021795 0.036057 0.004692
# 6 0.002105 -0.021035 0.009161 0.000607 0.004692 0.045127
#
#
# Mechanical properties :
#
#
# Convention : Reuss Voigt Hill
#
# Bulk Modulus (GPa) = 11.68735 20.61266 16.15001
# Shear Modulus (GPa) = 18.71339 29.11930 23.91634
#
# Velocity S-wave (km/s) = 3.02355 3.77166 3.41813
# Velocity P-wave (km/s) = 4.23068 5.38859 4.84436
#
# Compressibility (1/GPa) = 0.08556258
#
# Stress axis : x y z
#
# Youngs Moduli (GPa) = 38.16906 21.34758 59.07125
#
# Poissons Ratio (x) = -0.03354 -0.10473
# Poissons Ratio (y) = -0.05998 0.32777
# Poissons Ratio (z) = -0.06767 0.11845
#
# Static dielectric constant tensor:
#      x y z
#    x 1.710000 0.023530 -0.006700 
#    y 0.023530 1.745790 -0.015780 
#    z -0.006700 -0.015780 1.715460 
# 
# From -- ./inp_files/534357.got.cif
#   From: 2010.05.17/outbox.cif.g08.bks.cpg/sg2_268_cif.got.tgz:534357.got - 2010.06.03 11:33:40.
