data_PCOD9090337
_publ_section_title
;
Structure prediction by ZEFSAII (Michael W. Deem and Ramdas Pophale) SiO2 
 PCOD9090337
Probable space group: P -1
;
_chemical_formula_sum "Si O2"
_cell_formula_units_Z 16
_cell_length_a 10.843676
_cell_length_b 11.658014
_cell_length_c 10.392674
_cell_angle_alpha 129.795241
_cell_angle_beta 131.576935
_cell_angle_gamma 42.837820
_cell_volume 637.110198
_symmetry_space_group_name_H-M "P -1"
_symmetry_group_IT_number 2
_symmetry_cell_setting 'triclinic'
loop_
_space_group_symop_operation_xyz
x,y,z
-x,-y,-z
loop_
_atom_site_type_symbol
_atom_site_label
_atom_site_fract_x
_atom_site_fract_y
_atom_site_fract_z
Si Si1 0.797631 0.538370 0.322511
Si Si2 0.864233 0.420981 0.876543
Si Si3 0.690443 0.015129 0.283090
Si Si4 0.594864 0.736544 0.068568
Si Si5 0.007996 0.199003 0.072801
Si Si6 0.682487 0.705696 0.615873
Si Si7 0.081319 0.694884 0.432698
Si Si8 0.810802 0.121670 0.175628
O O1 0.727901 0.660882 0.233696
O O2 0.643838 0.654010 0.410871
O O3 0.000000 0.500000 0.500000
O O4 0.847704 0.349983 0.165047
O O5 0.839995 0.322373 0.669803
O O6 0.661419 0.580916 0.901148
O O7 0.000000 0.500000 0.000000
O O8 0.965227 0.293463 0.972953
O O9 0.511777 0.185496 0.353702
O O10 0.764091 0.053116 0.228409
O O11 0.615918 0.882664 0.115724
O O12 0.874389 0.883349 0.408482
O O13 0.373500 0.811043 0.995145
O O14 0.212114 0.182928 0.243032
O O15 0.018736 0.024121 0.902334
O O16 0.845766 0.513089 0.650301
O O17 0.165449 0.728226 0.641110
#
# Coordination Sequence:
#
# PCOD9090337 Si02
#       8
#     2   2   2   2   2   2   2   2
#     4   9  21  42  66  97 123 167 228 273 311 368
#     4  11  18  34  64  91 128 166 208 256 327 378
#     4  12  23  39  69  96 130 171 212 266 326 386
#     4  11  22  39  67  97 125 172 217 269 319 385
#     4  10  19  38  65  90 129 165 209 272 313 378
#     4  11  23  42  67  93 128 170 224 269 313 382
#     4  12  25  42  62  99 138 172 205 270 329 391
#     4  12  25  40  61 102 136 161 214 264 337 391
#
# _framework density 25.113396000000002
#
# number of rings (size 3 to 8) (size 9 to 14) (size 15 to 20)
#    0.000    1.000    5.000    3.000    0.000    2.500 
#    4.500    1.250    0.000    0.000    0.000    0.000 
#    0.000    0.000    0.000    0.000    0.000    0.000 
#
# Total GULP energy -89170.538559 kJ/mol
# GULP energy per Si atom -5573.158660 kJ/mol
# Density = 2.505624 g / cm^3
# Si number density = 25.113396 Si / 1000 Ang^3
#
#
#
# Elastic Constant Matrix: (Units=GPa)
#
#
# Indices 1 2 3 4 5 6 
#
# 1 64.5414 11.1676 19.8623 6.3376 -43.6444 -6.8977
# 2 11.1676 95.8867 37.1802 12.5999 -21.4876 -14.9884
# 3 19.8623 37.1802 129.5616 30.9171 -45.5667 -1.0528
# 4 6.3376 12.5999 30.9171 54.6754 -6.8793 -14.6555
# 5 -43.6444 -21.4876 -45.5667 -6.8793 49.8209 8.9959
# 6 -6.8977 -14.9884 -1.0528 -14.6555 8.9959 22.1533
#
#
#
# Elastic Compliance Matrix: (Units=1/GPa)
#
#
# Indices 1 2 3 4 5 6 
#
# 1 0.051118 0.000600 0.016035 -0.011570 0.060869 -0.015287
# 2 0.000600 0.013424 -0.003833 0.001777 0.001297 0.009737
# 3 0.016035 -0.003833 0.021326 -0.014041 0.033476 -0.019470
# 4 -0.011570 0.001777 -0.014041 0.031547 -0.022737 0.027036
# 5 0.060869 0.001297 0.033476 -0.022737 0.108214 -0.037565
# 6 -0.015287 0.009737 -0.019470 0.027036 -0.037565 0.079182
#
#
# Mechanical properties :
#
#
# Convention : Reuss Voigt Hill
#
# Bulk Modulus (GPa) = 8.97084 47.37888 28.17486
# Shear Modulus (GPa) = 15.80445 40.11522 27.95983
#
# Velocity S-wave (km/s) = 2.51135 4.00104 3.34030
# Velocity P-wave (km/s) = 3.46253 6.34440 5.11079
#
# Compressibility (1/GPa) = 0.11147234
#
# Stress axis : x y z
#
# Youngs Moduli (GPa) = 19.56243 74.49073 46.89106
#
# Poissons Ratio (x) = -0.04467 -0.75192
# Poissons Ratio (y) = -0.01173 0.17975
# Poissons Ratio (z) = -0.31369 0.28555
#
# Static dielectric constant tensor:
#      x y z
#    x 2.163210 0.013980 0.040650 
#    y 0.013980 2.066870 0.005270 
#    z 0.040650 0.005270 1.989900 
# 
# From -- ./inp_files/274080.got.cif
#   From: 2010.05.17/outbox.cif.g08.bks.cpg/sg2_138_cif.got.tgz:274080.got - 2010.06.03 11:33:40.
