data_PCOD9090516
_publ_section_title
;
Structure prediction by ZEFSAII (Michael W. Deem and Ramdas Pophale) SiO2 
 PCOD9090516
Probable space group: P -1
;
_chemical_formula_sum "Si O2"
_cell_formula_units_Z 16
_cell_length_a 11.185850
_cell_length_b 22.785806
_cell_length_c 11.428139
_cell_angle_alpha 40.102249
_cell_angle_beta 124.823480
_cell_angle_gamma 154.144368
_cell_volume 743.539988
_symmetry_space_group_name_H-M "P -1"
_symmetry_group_IT_number 2
_symmetry_cell_setting 'triclinic'
loop_
_space_group_symop_operation_xyz
x,y,z
-x,-y,-z
loop_
_atom_site_type_symbol
_atom_site_label
_atom_site_fract_x
_atom_site_fract_y
_atom_site_fract_z
Si Si1 0.921217 0.516103 0.318223
Si Si2 0.629574 0.513497 0.889558
Si Si3 0.695614 0.894838 0.484212
Si Si4 0.888264 0.882107 0.225443
Si Si5 0.212644 0.365005 0.465392
Si Si6 0.995133 0.757722 0.940838
Si Si7 0.720259 0.398841 0.797370
Si Si8 0.425892 0.203835 0.180133
O O1 0.562882 0.308198 0.411458
O O2 0.000000 0.500000 0.500000
O O3 0.074511 0.556683 0.227214
O O4 0.043006 0.686189 0.137483
O O5 0.686648 0.589122 0.681740
O O6 0.903311 0.683899 0.868764
O O7 0.316267 0.376470 0.974703
O O8 0.577059 0.379037 0.041743
O O9 0.585865 0.860166 0.608734
O O10 0.000000 0.000000 0.500000
O O11 0.769033 0.030012 0.252713
O O12 0.993582 0.835982 0.329144
O O13 0.533350 0.706168 0.279310
O O14 0.071512 0.017971 0.231448
O O15 0.000000 0.000000 0.000000
O O16 0.500000 0.500000 0.500000
O O17 0.120404 0.418212 0.356081
O O18 0.588268 0.281929 0.023220
#
# Coordination Sequence:
#
# PCOD9090516 Si02
#       8
#     2   2   2   2   2   2   2   2
#     4  12  29  47  65  98 146 185 218 280 354 406
#     4  10  19  38  66  96 127 167 226 289 324 390
#     4  12  24  45  73 102 129 177 236 282 329 406
#     4   9  18  34  61  99 126 167 225 278 329 392
#     4   9  18  34  61  91 126 174 224 272 338 394
#     4  11  23  42  66  96 133 177 229 270 341 404
#     4   9  22  41  61  93 138 177 216 277 340 404
#     4  10  19  39  69  99 128 165 223 286 328 387
#
# _framework density 21.518681000000001
#
# number of rings (size 3 to 8) (size 9 to 14) (size 15 to 20)
#    0.000    1.750    2.500    2.250    5.250    1.000 
#    4.500    0.625    0.000    0.000    0.000    0.000 
#    0.000    0.000    0.000    0.000    0.000    0.000 
#
# Total GULP energy -89108.902680 kJ/mol
# GULP energy per Si atom -5569.306418 kJ/mol
# Density = 2.146970 g / cm^3
# Si number density = 21.518681 Si / 1000 Ang^3
#
#
#
# Elastic Constant Matrix: (Units=GPa)
#
#
# Indices 1 2 3 4 5 6 
#
# 1 49.2592 3.4509 32.8180 -7.3045 -11.0650 5.2494
# 2 3.4509 55.3862 7.4291 5.9083 -4.9375 -2.8796
# 3 32.8180 7.4291 142.8880 6.5088 21.8332 -2.5786
# 4 -7.3045 5.9083 6.5088 38.5282 -12.8409 -1.4040
# 5 -11.0650 -4.9375 21.8332 -12.8409 22.6934 2.9353
# 6 5.2494 -2.8796 -2.5786 -1.4040 2.9353 22.9239
#
#
#
# Elastic Compliance Matrix: (Units=1/GPa)
#
#
# Indices 1 2 3 4 5 6 
#
# 1 0.101804 0.003237 -0.050033 0.074393 0.146095 -0.042684
# 2 0.003237 0.019005 -0.003278 0.001488 0.009693 0.000127
# 3 -0.050033 -0.003278 0.033903 -0.042030 -0.084497 0.023104
# 4 0.074393 0.001488 -0.042030 0.089752 0.132087 -0.032992
# 5 0.146095 0.009693 -0.084497 0.132087 0.282475 -0.069821
# 6 -0.042684 0.000127 0.023104 -0.032992 -0.069821 0.062931
#
#
# Mechanical properties :
#
#
# Convention : Reuss Voigt Hill
#
# Bulk Modulus (GPa) = 18.32689 37.21438 27.77063
# Shear Modulus (GPa) = 7.06010 30.41811 18.73911
#
# Velocity S-wave (km/s) = 1.81329 3.76382 2.95418
# Velocity P-wave (km/s) = 3.59434 6.01831 4.95678
#
# Compressibility (1/GPa) = 0.05456463
#
# Stress axis : x y z
#
# Youngs Moduli (GPa) = 9.82277 52.61766 29.49608
#
# Poissons Ratio (x) = -0.17031 1.47576
# Poissons Ratio (y) = -0.03179 0.09669
# Poissons Ratio (z) = 0.49146 0.17248
#
# Static dielectric constant tensor:
#      x y z
#    x 1.803460 0.009070 0.007810 
#    y 0.009070 1.910760 0.018010 
#    z 0.007810 0.018010 1.854070 
# 
# From -- ./inp_files/439118.got.cif
#   From: 2010.05.17/outbox.cif.g08.bks.cpg/sg2_220_cif.got.tgz:439118.got - 2010.06.03 11:33:40.
