data_PCOD9090119
_publ_section_title
;
Structure prediction by ZEFSAII (Michael W. Deem and Ramdas Pophale) SiO2 
 PCOD9090119
Probable space group: P -1
;
_chemical_formula_sum "Si O2"
_cell_formula_units_Z 16
_cell_length_a 12.084898
_cell_length_b 11.871683
_cell_length_c 9.196359
_cell_angle_alpha 38.690651
_cell_angle_beta 51.910442
_cell_angle_gamma 63.710566
_cell_volume 647.130093
_symmetry_space_group_name_H-M "P -1"
_symmetry_group_IT_number 2
_symmetry_cell_setting 'triclinic'
loop_
_space_group_symop_operation_xyz
x,y,z
-x,-y,-z
loop_
_atom_site_type_symbol
_atom_site_label
_atom_site_fract_x
_atom_site_fract_y
_atom_site_fract_z
Si Si1 0.548654 0.391876 0.840349
Si Si2 0.742249 0.860623 0.173492
Si Si3 0.248963 0.877415 0.578228
Si Si4 0.515689 0.762254 0.652024
Si Si5 0.967762 0.177272 0.935740
Si Si6 0.992129 0.220154 0.315921
Si Si7 0.693120 0.749105 0.020709
Si Si8 0.842140 0.274170 0.657344
O O1 0.559443 0.572620 0.743937
O O2 0.696151 0.365370 0.669822
O O3 0.513531 0.244807 0.146230
O O4 0.420796 0.378638 0.843939
O O5 0.652374 0.885502 0.366165
O O6 0.879017 0.750739 0.202771
O O7 0.653822 0.780999 0.188080
O O8 0.798596 0.061135 0.879287
O O9 0.381209 0.806080 0.624018
O O10 0.154925 0.746735 0.677222
O O11 0.297842 0.060225 0.267787
O O12 0.134084 0.893015 0.782435
O O13 0.894973 0.299456 0.755010
O O14 0.000000 0.000000 0.000000
O O15 0.969639 0.299412 0.415060
O O16 0.144765 0.301030 0.058805
O O17 0.000000 0.000000 0.500000
#
# Coordination Sequence:
#
# PCOD9090119 Si02
#       8
#     2   2   2   2   2   2   2   2
#     4  11  27  45  58  85 126 167 210 250 297 357
#     4  11  22  39  64  97 124 153 201 255 304 362
#     4  11  20  40  66  90 123 161 194 253 308 359
#     4  11  27  45  59  83 126 170 208 251 295 355
#     4  10  20  35  63  98 123 150 200 254 306 360
#     4  10  19  38  63  98 128 150 187 259 314 358
#     4  11  22  39  65  96 124 155 198 254 308 362
#     4  11  21  39  67  95 122 158 201 251 305 361
#
# _framework density 24.724550000000001
#
# number of rings (size 3 to 8) (size 9 to 14) (size 15 to 20)
#    0.000    1.250    5.000    3.000    7.000    2.500 
#    0.000    2.500    0.000    0.000    0.000    0.000 
#    0.000    0.000    0.000    0.000    0.000    0.000 
#
# Total GULP energy -89426.924621 kJ/mol
# GULP energy per Si atom -5589.182789 kJ/mol
# Density = 2.466828 g / cm^3
# Si number density = 24.724550 Si / 1000 Ang^3
#
#
#
# Elastic Constant Matrix: (Units=GPa)
#
#
# Indices 1 2 3 4 5 6 
#
# 1 115.7804 7.0768 2.6669 1.7814 -12.8116 9.8160
# 2 7.0768 60.0597 22.5034 16.3651 -2.9062 2.9673
# 3 2.6669 22.5034 65.8027 30.2518 3.4591 -4.7033
# 4 1.7814 16.3651 30.2518 29.1959 4.3933 -4.7966
# 5 -12.8116 -2.9062 3.4591 4.3933 32.6889 13.3529
# 6 9.8160 2.9673 -4.7033 -4.7966 13.3529 36.9847
#
#
#
# Elastic Compliance Matrix: (Units=1/GPa)
#
#
# Indices 1 2 3 4 5 6 
#
# 1 0.009809 0.000072 -0.000005 -0.002437 0.006303 -0.005202
# 2 0.000072 0.021245 -0.003189 -0.010430 0.005957 -0.005633
# 3 -0.000005 -0.003189 0.029548 -0.028872 0.000420 0.000119
# 4 -0.002437 -0.010430 -0.028872 0.074304 -0.013907 0.012469
# 5 0.006303 0.005957 0.000420 -0.013907 0.043412 -0.019575
# 6 -0.005202 -0.005633 0.000119 0.012469 -0.019575 0.037570
#
#
# Mechanical properties :
#
#
# Convention : Reuss Voigt Hill
#
# Bulk Modulus (GPa) = 18.39671 34.01521 26.20596
# Shear Modulus (GPa) = 20.81162 33.73362 27.27262
#
# Velocity S-wave (km/s) = 2.90442 3.69776 3.32484
# Velocity P-wave (km/s) = 4.32486 5.65851 5.03603
#
# Compressibility (1/GPa) = 0.05435753
#
# Stress axis : x y z
#
# Youngs Moduli (GPa) = 101.94981 47.06982 33.84375
#
# Poissons Ratio (x) = -0.00339 0.00017
# Poissons Ratio (y) = -0.00735 0.10792
# Poissons Ratio (z) = 0.00052 0.15010
#
# Static dielectric constant tensor:
#      x y z
#    x 2.017750 0.001280 0.054970 
#    y 0.001280 1.944490 -0.063550 
#    z 0.054970 -0.063550 2.066690 
# 
# From -- ./inp_files/186711.got.cif
#   From: 2010.05.17/outbox.cif.g08.bks.cpg/sg2_94_cif.got.tgz:186711.got - 2010.06.03 11:33:40.
