data_PCOD9090740
_publ_section_title
;
Structure prediction by ZEFSAII (Michael W. Deem and Ramdas Pophale) SiO2 
 PCOD9090740
Probable space group: P -1
;
_chemical_formula_sum "Si O2"
_cell_formula_units_Z 14
_cell_length_a 16.790869
_cell_length_b 19.357631
_cell_length_c 7.143012
_cell_angle_alpha 57.810568
_cell_angle_beta 126.731854
_cell_angle_gamma 161.018319
_cell_volume 600.408029
_symmetry_space_group_name_H-M "P -1"
_symmetry_group_IT_number 2
_symmetry_cell_setting 'triclinic'
loop_
_space_group_symop_operation_xyz
x,y,z
-x,-y,-z
loop_
_atom_site_type_symbol
_atom_site_label
_atom_site_fract_x
_atom_site_fract_y
_atom_site_fract_z
Si Si1 0.290754 0.667617 0.837826
Si Si2 0.163860 0.295127 0.697295
Si Si3 0.210333 0.624168 0.368690
Si Si4 0.341312 0.270340 0.457072
Si Si5 0.662659 0.929391 0.291636
Si Si6 0.211675 0.155353 0.851968
Si Si7 0.737965 0.496735 0.203687
O O1 0.297862 0.713444 0.575670
O O2 0.210562 0.512409 0.903408
O O3 0.054252 0.528473 0.818996
O O4 0.565883 0.881080 0.019479
O O5 0.438453 0.523313 0.657598
O O6 0.141211 0.180586 0.839155
O O7 0.158859 0.337664 0.827308
O O8 0.943007 0.159143 0.440949
O O9 0.448919 0.809502 0.296995
O O10 0.157880 0.487476 0.517418
O O11 0.357102 0.184385 0.574628
O O12 0.362712 0.300914 0.665779
O O13 0.053694 0.081237 0.264172
O O14 0.421019 0.259233 0.102625
#
# Coordination Sequence:
#
# PCOD9090740 Si02
#       7
#     2   2   2   2   2   2   2
#     4   9  19  38  67  85 111 161 197 233 299 346
#     4  11  23  36  56  92 119 147 199 241 284 354
#     4   9  19  38  66  85 113 155 200 239 287 351
#     4  10  19  39  57  83 119 154 195 242 279 355
#     4  11  20  39  63  86 119 157 190 240 298 342
#     4  10  21  35  60  84 115 159 195 230 298 342
#     4  10  19  39  57  84 121 151 192 246 287 341
#
# _framework density 23.317477
#
# number of rings (size 3 to 8) (size 9 to 14) (size 15 to 20)
#    0.857    1.143    2.857    1.286    0.000    0.571 
#    5.143    1.429    0.000    0.000    0.000    0.000 
#    0.000    0.000    0.000    0.000    0.000    0.000 
#
# Total GULP energy -78115.656864 kJ/mol
# GULP energy per Si atom -5579.689776 kJ/mol
# Density = 2.326441 g / cm^3
# Si number density = 23.317477 Si / 1000 Ang^3
#
#
#
# Elastic Constant Matrix: (Units=GPa)
#
#
# Indices 1 2 3 4 5 6 
#
# 1 119.8803 12.3173 37.6209 20.0214 8.0272 0.1574
# 2 12.3173 31.3251 21.6446 15.8514 6.3826 -5.6343
# 3 37.6209 21.6446 94.7626 33.7071 5.2124 -4.5841
# 4 20.0214 15.8514 33.7071 30.3601 8.6215 -6.9828
# 5 8.0272 6.3826 5.2124 8.6215 42.6036 1.9431
# 6 0.1574 -5.6343 -4.5841 -6.9828 1.9431 18.9041
#
#
#
# Elastic Compliance Matrix: (Units=1/GPa)
#
#
# Indices 1 2 3 4 5 6 
#
# 1 0.009859 -0.000488 -0.002539 -0.003751 -0.000616 -0.002165
# 2 -0.000488 0.044895 -0.003643 -0.016653 -0.003123 0.006671
# 3 -0.002539 -0.003643 0.018795 -0.018935 0.002729 -0.003782
# 4 -0.003751 -0.016653 -0.018935 0.072111 -0.009901 0.018130
# 5 -0.000616 -0.003123 0.002729 -0.009901 0.026027 -0.006596
# 6 -0.002165 0.006671 -0.003782 0.018130 -0.006596 0.061363
#
#
# Mechanical properties :
#
#
# Convention : Reuss Voigt Hill
#
# Bulk Modulus (GPa) = 16.60873 43.23708 29.92291
# Shear Modulus (GPa) = 18.76452 29.99925 24.38188
#
# Velocity S-wave (km/s) = 2.83987 3.59075 3.23716
# Velocity P-wave (km/s) = 4.22983 5.98117 5.18005
#
# Compressibility (1/GPa) = 0.06020928
#
# Stress axis : x y z
#
# Youngs Moduli (GPa) = 101.42790 22.27407 53.20524
#
# Poissons Ratio (x) = 0.01087 0.13511
# Poissons Ratio (y) = 0.04951 0.19381
# Poissons Ratio (z) = 0.25756 0.08114
#
# Static dielectric constant tensor:
#      x y z
#    x 1.919600 0.009550 -0.027010 
#    y 0.009550 1.872790 -0.042590 
#    z -0.027010 -0.042590 1.917500 
# 
# From -- ./inp_files/36841.got.cif
#   From: 2010.05.17/outbox.cif.g08.bks.cpg/sg2_19_cif.got.tgz:36841.got - 2010.06.03 11:33:40.
