data_PCOD9090341
_publ_section_title
;
Structure prediction by ZEFSAII (Michael W. Deem and Ramdas Pophale) SiO2 
 PCOD9090341
Probable space group: P -1
;
_chemical_formula_sum "Si O2"
_cell_formula_units_Z 16
_cell_length_a 14.216169
_cell_length_b 11.795188
_cell_length_c 14.576215
_cell_angle_alpha 66.867905
_cell_angle_beta 145.091563
_cell_angle_gamma 138.695015
_cell_volume 744.853320
_symmetry_space_group_name_H-M "P -1"
_symmetry_group_IT_number 2
_symmetry_cell_setting 'triclinic'
loop_
_space_group_symop_operation_xyz
x,y,z
-x,-y,-z
loop_
_atom_site_type_symbol
_atom_site_label
_atom_site_fract_x
_atom_site_fract_y
_atom_site_fract_z
Si Si1 0.782953 0.411413 0.711145
Si Si2 0.701066 0.287805 0.890522
Si Si3 0.643425 0.197381 0.426455
Si Si4 0.488496 0.092307 0.131612
Si Si5 0.784509 0.047365 0.689013
Si Si6 0.723004 0.752347 0.092042
Si Si7 0.045188 0.374092 0.392773
Si Si8 0.965471 0.085227 0.517907
O O1 0.750694 0.390452 0.801736
O O2 0.498078 0.176487 0.518551
O O3 0.843654 0.560538 0.643253
O O4 0.093383 0.533727 0.922317
O O5 0.737527 0.159224 0.964080
O O6 0.368212 0.095123 0.695280
O O7 0.645592 0.170710 0.330027
O O8 0.326940 0.008651 0.278076
O O9 0.789743 0.415013 0.493696
O O10 0.815225 0.200280 0.619812
O O11 0.711497 0.200888 0.193938
O O12 0.395950 0.179589 0.028122
O O13 0.062401 0.140709 0.855859
O O14 0.915915 0.865718 0.302009
O O15 0.500000 0.500000 0.000000
O O16 0.115847 0.295564 0.528936
O O17 0.000000 0.000000 0.500000
#
# Coordination Sequence:
#
# PCOD9090341 Si02
#       8
#     2   2   2   2   2   2   2   2
#     4  10  20  40  65  92 117 169 209 261 304 374
#     4  10  22  42  67  88 131 161 218 257 314 380
#     4  10  19  38  65  91 119 166 213 258 311 374
#     4  11  22  37  63  95 125 167 208 260 314 378
#     4  10  20  40  65  91 129 162 210 263 314 375
#     4  12  25  42  63  94 135 167 209 266 324 372
#     4  10  22  38  68  89 125 162 220 251 313 381
#     4  11  25  44  64  94 131 170 208 269 317 375
#
# _framework density 21.480740000000001
#
# number of rings (size 3 to 8) (size 9 to 14) (size 15 to 20)
#    0.000    1.500    2.500    2.625    3.500    1.500 
#    0.000    6.250    0.000    0.000    0.000    0.000 
#    0.000    0.000    0.000    0.000    0.000    0.000 
#
# Total GULP energy -89096.654658 kJ/mol
# GULP energy per Si atom -5568.540916 kJ/mol
# Density = 2.143185 g / cm^3
# Si number density = 21.480740 Si / 1000 Ang^3
#
#
#
# Elastic Constant Matrix: (Units=GPa)
#
#
# Indices 1 2 3 4 5 6 
#
# 1 46.5552 29.8754 3.9545 -7.6768 14.7531 6.5510
# 2 29.8754 126.9159 12.1343 -6.6306 18.5808 6.4363
# 3 3.9545 12.1343 37.2492 10.3684 1.3925 -6.8069
# 4 -7.6768 -6.6306 10.3684 31.1329 -7.6137 -0.5808
# 5 14.7531 18.5808 1.3925 -7.6137 24.7765 -10.5014
# 6 6.5510 6.4363 -6.8069 -0.5808 -10.5014 25.8638
#
#
#
# Elastic Compliance Matrix: (Units=1/GPa)
#
#
# Indices 1 2 3 4 5 6 
#
# 1 0.035735 -0.002601 -0.006776 0.003587 -0.026729 -0.020959
# 2 -0.002601 0.010542 -0.004254 0.000777 -0.008672 -0.006588
# 3 -0.006776 -0.004254 0.034686 -0.011918 0.007905 0.014846
# 4 0.003587 0.000777 -0.011918 0.039740 0.010563 0.000943
# 5 -0.026729 -0.008672 0.007905 0.010563 0.084971 0.045746
# 6 -0.020959 -0.006588 0.014846 0.000943 0.045746 0.068115
#
#
# Mechanical properties :
#
#
# Convention : Reuss Voigt Hill
#
# Bulk Modulus (GPa) = 18.62106 33.62763 26.12434
# Shear Modulus (GPa) = 15.67630 27.33839 21.50734
#
# Velocity S-wave (km/s) = 2.70438 3.57135 3.16767
# Velocity P-wave (km/s) = 4.29408 5.71794 5.05638
#
# Compressibility (1/GPa) = 0.05370264
#
# Stress axis : x y z
#
# Youngs Moduli (GPa) = 27.98356 94.85448 28.82979
#
# Poissons Ratio (x) = 0.24668 0.19535
# Poissons Ratio (y) = 0.07277 0.12265
# Poissons Ratio (z) = 0.18961 0.40353
#
# Static dielectric constant tensor:
#      x y z
#    x 1.735650 0.018790 0.061610 
#    y 0.018790 1.875050 0.038360 
#    z 0.061610 0.038360 1.884120 
# 
# From -- ./inp_files/521281.got.cif
#   From: 2010.05.17/outbox.cif.g08.bks.cpg/sg2_261_cif.got.tgz:521281.got - 2010.06.03 11:33:40.
