data_PCOD9090288
_publ_section_title
;
Structure prediction by ZEFSAII (Michael W. Deem and Ramdas Pophale) SiO2 
 PCOD9090288
Probable space group: P -1
;
_chemical_formula_sum "Si O2"
_cell_formula_units_Z 13
_cell_length_a 4.912513
_cell_length_b 16.041903
_cell_length_c 7.214710
_cell_angle_alpha 81.340620
_cell_angle_beta 115.994363
_cell_angle_gamma 72.865537
_cell_volume 461.748582
_symmetry_space_group_name_H-M "P -1"
_symmetry_group_IT_number 2
_symmetry_cell_setting 'triclinic'
loop_
_space_group_symop_operation_xyz
x,y,z
-x,-y,-z
loop_
_atom_site_type_symbol
_atom_site_label
_atom_site_fract_x
_atom_site_fract_y
_atom_site_fract_z
Si Si1 0.550086 0.991823 0.240691
Si Si2 0.889788 0.807771 0.933436
Si Si3 0.215096 0.559738 0.582012
Si Si4 0.623737 0.667824 0.519709
Si Si5 0.218352 0.868299 0.362374
Si Si6 0.500000 0.500000 0.000000
Si Si7 0.432090 0.315900 0.949022
O O1 0.344891 0.939300 0.284068
O O2 0.931946 0.923882 0.402087
O O3 0.406752 0.095425 0.241943
O O4 0.500000 0.000000 0.000000
O O5 0.781689 0.730260 0.000848
O O6 0.048188 0.836353 0.151572
O O7 0.191730 0.760426 0.900574
O O8 0.642135 0.375539 0.504184
O O9 0.000000 0.500000 0.500000
O O10 0.015753 0.605791 0.700857
O O11 0.555729 0.486563 0.793857
O O12 0.497543 0.769039 0.534291
O O13 0.662476 0.675370 0.303812
O O14 0.616112 0.588587 0.006195
#
# Coordination Sequence:
#
# PCOD9090288 Si02
#       7
#     2   2   2   2   2   1   2
#     4  10  16  28  50  89 128 164 207 258 314 379
#     4  10  19  33  55  88 133 169 207 269 320 368
#     4  12  26  45  67  94 128 171 218 272 326 381
#     4  11  22  42  64  94 130 171 212 268 328 378
#     4  10  18  29  56  88 124 167 209 254 317 386
#     4  12  30  44  70  96 128 172 230 260 330 392
#     4  11  23  39  61  91 127 173 217 264 320 381
#
# _framework density 28.153853000000002
#
# number of rings (size 3 to 8) (size 9 to 14) (size 15 to 20)
#    0.000    1.231    1.538    9.692    0.000    2.462 
#    0.000    0.000    0.000    0.000    0.000   21.538 
#    0.000    0.000    0.000    0.000    0.000    0.000 
#
# Total GULP energy -72515.892466 kJ/mol
# GULP energy per Si atom -5578.145574 kJ/mol
# Density = 2.808977 g / cm^3
# Si number density = 28.153853 Si / 1000 Ang^3
#
#
#
# Elastic Constant Matrix: (Units=GPa)
#
#
# Indices 1 2 3 4 5 6 
#
# 1 170.7959 56.0847 -0.5003 -16.3383 9.6300 28.6622
# 2 56.0847 197.0412 2.9284 -4.5879 -10.1889 26.7826
# 3 -0.5003 2.9284 45.9903 10.3184 -16.0785 28.0350
# 4 -16.3383 -4.5879 10.3184 41.9087 0.4268 0.1741
# 5 9.6300 -10.1889 -16.0785 0.4268 28.4744 -11.4160
# 6 28.6622 26.7826 28.0350 0.1741 -11.4160 66.3608
#
#
#
# Elastic Compliance Matrix: (Units=1/GPa)
#
#
# Indices 1 2 3 4 5 6 
#
# 1 0.007551 -0.001874 -0.000032 0.002807 -0.004603 -0.003291
# 2 -0.001874 0.005987 0.001992 -0.000590 0.003146 -0.001906
# 3 -0.000032 0.001992 0.038073 -0.009281 0.016761 -0.013967
# 4 0.002807 -0.000590 -0.009281 0.027230 -0.006075 0.001830
# 5 -0.004603 0.003146 0.016761 -0.006075 0.048133 0.001934
# 6 -0.003291 -0.001906 -0.013967 0.001830 0.001934 0.023488
#
#
# Mechanical properties :
#
#
# Convention : Reuss Voigt Hill
#
# Bulk Modulus (GPa) = 19.31133 58.98367 39.14750
# Shear Modulus (GPa) = 29.84199 51.03643 40.43921
#
# Velocity S-wave (km/s) = 3.25924 4.26228 3.79405
# Velocity P-wave (km/s) = 4.58668 6.72448 5.75571
#
# Compressibility (1/GPa) = 0.05178308
#
# Stress axis : x y z
#
# Youngs Moduli (GPa) = 132.44101 167.03226 26.26555
#
# Poissons Ratio (x) = 0.31303 0.00083
# Poissons Ratio (y) = 0.24820 -0.05233
# Poissons Ratio (z) = 0.00420 -0.33277
#
# Static dielectric constant tensor:
#      x y z
#    x 2.107460 -0.010250 0.001510 
#    y -0.010250 2.109600 0.111450 
#    z 0.001510 0.111450 2.259040 
# 
# From -- ./inp_files/133158.got.cif
#   From: 2010.05.17/outbox.cif.g08.bks.cpg/sg2_67_cif.got.tgz:133158.got - 2010.06.03 11:33:40.
