data_PCOD9090784
_publ_section_title
;
Structure prediction by ZEFSAII (Michael W. Deem and Ramdas Pophale) SiO2 
 PCOD9090784
Probable space group: P -1
;
_chemical_formula_sum "Si O2"
_cell_formula_units_Z 16
_cell_length_a 14.261122
_cell_length_b 11.708627
_cell_length_c 16.040557
_cell_angle_alpha 144.745920
_cell_angle_beta 152.525784
_cell_angle_gamma 46.598198
_cell_volume 706.176869
_symmetry_space_group_name_H-M "P -1"
_symmetry_group_IT_number 2
_symmetry_cell_setting 'triclinic'
loop_
_space_group_symop_operation_xyz
x,y,z
-x,-y,-z
loop_
_atom_site_type_symbol
_atom_site_label
_atom_site_fract_x
_atom_site_fract_y
_atom_site_fract_z
Si Si1 0.507667 0.857651 0.000705
Si Si2 0.888225 0.453002 0.505994
Si Si3 0.527735 0.194134 0.882469
Si Si4 0.279386 0.455739 0.401403
Si Si5 0.122137 0.026643 0.026379
Si Si6 0.286351 0.370924 0.674478
Si Si7 0.285555 0.392893 0.101789
Si Si8 0.990395 0.285628 0.940680
O O1 0.277966 0.741017 0.755997
O O2 0.661245 0.705071 0.001453
O O3 0.553923 0.934327 0.177144
O O4 0.500000 0.000000 0.000000
O O5 0.873836 0.496772 0.617849
O O6 0.804137 0.628176 0.489646
O O7 0.100286 0.408351 0.610188
O O8 0.388355 0.192848 0.689586
O O9 0.750716 0.146360 0.003221
O O10 0.552132 0.424354 0.071107
O O11 0.296048 0.221835 0.287685
O O12 0.499079 0.583508 0.663721
O O13 0.159039 0.455317 0.219922
O O14 0.983865 0.098312 0.885338
O O15 0.000000 0.000000 0.000000
O O16 0.104330 0.256127 0.926672
O O17 0.209614 0.607902 0.160530
#
# Coordination Sequence:
#
# PCOD9090784 Si02
#       8
#     2   2   2   2   2   2   2   2
#     4  10  21  35  57  81 114 145 178 231 276 328
#     4   9  18  36  55  81 104 143 185 227 272 324
#     4  10  20  35  56  81 110 147 180 225 278 327
#     4   9  20  34  59  80 110 143 184 232 273 325
#     4  10  21  35  53  82 114 147 177 228 283 324
#     4   9  19  34  58  78 109 142 187 223 269 335
#     4  10  19  39  59  85 104 147 196 224 275 329
#     4   9  21  35  60  81 110 146 186 231 276 328
#
# _framework density 22.657212000000001
#
# number of rings (size 3 to 8) (size 9 to 14) (size 15 to 20)
#    0.750    1.750    0.000    1.875    1.750    3.000 
#    0.000    9.375    0.000    0.000    0.000    0.000 
#    0.000    0.000    0.000    0.000    0.000    0.000 
#
# Total GULP energy -89165.105788 kJ/mol
# GULP energy per Si atom -5572.819112 kJ/mol
# Density = 2.260564 g / cm^3
# Si number density = 22.657212 Si / 1000 Ang^3
#
#
#
# Elastic Constant Matrix: (Units=GPa)
#
#
# Indices 1 2 3 4 5 6 
#
# 1 118.7926 27.1335 5.7754 -18.4034 8.3098 3.6879
# 2 27.1335 80.5368 9.6152 -21.0055 7.8805 18.5264
# 3 5.7754 9.6152 29.4243 -11.6041 2.8893 2.8914
# 4 -18.4034 -21.0055 -11.6041 27.7082 1.5681 -2.2569
# 5 8.3098 7.8805 2.8893 1.5681 21.2254 2.4974
# 6 3.6879 18.5264 2.8914 -2.2569 2.4974 35.5291
#
#
#
# Elastic Compliance Matrix: (Units=1/GPa)
#
#
# Indices 1 2 3 4 5 6 
#
# 1 0.009948 -0.001578 0.001384 0.006246 -0.004000 0.000356
# 2 -0.001578 0.018903 0.000856 0.013319 -0.006505 -0.008459
# 3 0.001384 0.000856 0.042087 0.019451 -0.007763 -0.002234
# 4 0.006246 0.013319 0.019451 0.058904 -0.013865 -0.004460
# 5 -0.004000 -0.006505 -0.007763 -0.013865 0.053197 -0.000181
# 6 0.000356 -0.008459 -0.002234 -0.004460 -0.000181 0.032431
#
#
# Mechanical properties :
#
#
# Convention : Reuss Voigt Hill
#
# Bulk Modulus (GPa) = 13.83875 34.86690 24.35283
# Shear Modulus (GPa) = 20.98787 29.30783 25.14785
#
# Velocity S-wave (km/s) = 3.04686 3.60047 3.33517
# Velocity P-wave (km/s) = 4.30104 5.71899 5.05993
#
# Compressibility (1/GPa) = 0.07226085
#
# Stress axis : x y z
#
# Youngs Moduli (GPa) = 100.52703 52.90286 23.76025
#
# Poissons Ratio (x) = 0.08348 -0.03289
# Poissons Ratio (y) = 0.15863 -0.02033
# Poissons Ratio (z) = -0.13915 -0.04527
#
# Static dielectric constant tensor:
#      x y z
#    x 1.857000 0.035580 -0.057150 
#    y 0.035580 1.889070 0.040990 
#    z -0.057150 0.040990 1.891950 
# 
# From -- ./inp_files/573483.got.cif
#   From: 2010.05.17/outbox.cif.g08.bks.cpg/sg2_287_cif.got.tgz:573483.got - 2010.06.03 11:33:40.
