data_PCOD9090128
_publ_section_title
;
Structure prediction by ZEFSAII (Michael W. Deem and Ramdas Pophale) SiO2 
 PCOD9090128
Probable space group: P -1
;
_chemical_formula_sum "Si O2"
_cell_formula_units_Z 16
_cell_length_a 17.313302
_cell_length_b 9.032776
_cell_length_c 8.122737
_cell_angle_alpha 83.771088
_cell_angle_beta 52.765356
_cell_angle_gamma 124.131916
_cell_volume 613.955932
_symmetry_space_group_name_H-M "P -1"
_symmetry_group_IT_number 2
_symmetry_cell_setting 'triclinic'
loop_
_space_group_symop_operation_xyz
x,y,z
-x,-y,-z
loop_
_atom_site_type_symbol
_atom_site_label
_atom_site_fract_x
_atom_site_fract_y
_atom_site_fract_z
Si Si1 0.726250 0.758666 0.187144
Si Si2 0.367834 0.505520 0.996615
Si Si3 0.691311 0.838705 0.713074
Si Si4 0.967696 0.613653 0.723320
Si Si5 0.011285 0.312593 0.684000
Si Si6 0.489099 0.284505 0.704511
Si Si7 0.159396 0.592269 0.769288
Si Si8 0.496096 0.028257 0.196866
O O1 0.295602 0.360453 0.938256
O O2 0.661604 0.570667 0.433497
O O3 0.607062 0.753455 0.313123
O O4 0.893079 0.044535 0.940350
O O5 0.554294 0.689935 0.771242
O O6 0.374289 0.689653 0.974158
O O7 0.278355 0.299473 0.275443
O O8 0.857039 0.127444 0.465322
O O9 0.602111 0.788644 0.000088
O O10 0.948160 0.409656 0.747878
O O11 0.957774 0.677766 0.549647
O O12 0.849265 0.508895 0.037389
O O13 0.146571 0.488072 0.626644
O O14 0.482668 0.100865 0.722237
O O15 0.325433 0.876192 0.500248
O O16 0.000000 0.500000 0.000000
O O17 0.500000 0.000000 0.000000
#
# Coordination Sequence:
#
# PCOD9090128 Si02
#       8
#     2   2   2   2   2   2   2   2
#     4  10  22  41  64 107 132 182 232 279 352 424
#     4  10  20  36  63  95 136 172 221 282 339 408
#     4  10  19  38  64 101 127 178 231 279 337 413
#     4  10  20  37  66 100 131 173 239 278 337 399
#     4  10  20  39  67  98 135 173 236 286 323 419
#     4  10  22  39  67  96 141 170 230 289 349 401
#     4  10  24  41  68 101 134 185 233 277 341 424
#     4  12  25  44  69 104 139 178 234 296 353 397
#
# _framework density 26.060500000000001
#
# number of rings (size 3 to 8) (size 9 to 14) (size 15 to 20)
#    0.000    1.750    3.750    1.500    0.000   10.500 
#    0.000    1.875    0.000    1.500    0.000    0.000 
#    0.000    0.000    0.000    0.000    0.000    0.000 
#
# Total GULP energy -89402.618394 kJ/mol
# GULP energy per Si atom -5587.663650 kJ/mol
# Density = 2.600119 g / cm^3
# Si number density = 26.060500 Si / 1000 Ang^3
#
#
#
# Elastic Constant Matrix: (Units=GPa)
#
#
# Indices 1 2 3 4 5 6 
#
# 1 62.4946 26.3111 15.1265 -2.5603 13.9623 -12.8944
# 2 26.3111 120.1498 45.1029 -44.4710 10.3519 -10.5758
# 3 15.1265 45.1029 142.6903 -23.5461 6.9802 1.2990
# 4 -2.5603 -44.4710 -23.5461 54.0213 7.7930 17.1444
# 5 13.9623 10.3519 6.9802 7.7930 39.9332 -4.0841
# 6 -12.8944 -10.5758 1.2990 17.1444 -4.0841 46.1746
#
#
#
# Elastic Compliance Matrix: (Units=1/GPa)
#
#
# Indices 1 2 3 4 5 6 
#
# 1 0.020343 -0.004955 -0.001280 -0.005031 -0.003999 0.006096
# 2 -0.004955 0.015046 -0.001820 0.013035 -0.004715 -0.003143
# 3 -0.001280 -0.001820 0.008292 0.002953 -0.001333 -0.002222
# 4 -0.005031 0.013035 0.002953 0.035836 -0.010432 -0.012731
# 5 -0.003999 -0.004715 -0.001333 -0.010432 0.030381 0.004401
# 6 0.006096 -0.003143 -0.002222 -0.012731 0.004401 0.027818
#
#
# Mechanical properties :
#
#
# Convention : Reuss Voigt Hill
#
# Bulk Modulus (GPa) = 36.27248 55.37954 45.82601
# Shear Modulus (GPa) = 30.67196 43.94544 37.30870
#
# Velocity S-wave (km/s) = 3.43440 4.11090 3.78778
# Velocity P-wave (km/s) = 5.44753 6.62036 6.06237
#
# Compressibility (1/GPa) = 0.02756911
#
# Stress axis : x y z
#
# Youngs Moduli (GPa) = 49.15810 66.46462 120.59927
#
# Poissons Ratio (x) = 0.32933 0.15440
# Poissons Ratio (y) = 0.24358 0.21951
# Poissons Ratio (z) = 0.06294 0.12098
#
# Static dielectric constant tensor:
#      x y z
#    x 2.174650 -0.066530 0.000550 
#    y -0.066530 2.067300 0.046560 
#    z 0.000550 0.046560 2.069910 
# 
# From -- ./inp_files/271836.got.cif
#   From: 2010.05.17/outbox.cif.g08.bks.cpg/sg2_136_cif.got.tgz:271836.got - 2010.06.03 11:33:40.
