data_PCOD9090261
_publ_section_title
;
Structure prediction by ZEFSAII (Michael W. Deem and Ramdas Pophale) SiO2 
 PCOD9090261
Probable space group: P -1
;
_chemical_formula_sum "Si O2"
_cell_formula_units_Z 14
_cell_length_a 9.948525
_cell_length_b 12.606543
_cell_length_c 17.402073
_cell_angle_alpha 136.218642
_cell_angle_beta 26.214394
_cell_angle_gamma 127.832450
_cell_volume 662.824246
_symmetry_space_group_name_H-M "P -1"
_symmetry_group_IT_number 2
_symmetry_cell_setting 'triclinic'
loop_
_space_group_symop_operation_xyz
x,y,z
-x,-y,-z
loop_
_atom_site_type_symbol
_atom_site_label
_atom_site_fract_x
_atom_site_fract_y
_atom_site_fract_z
Si Si1 0.631792 0.900610 0.307779
Si Si2 0.597100 0.411831 0.695020
Si Si3 0.629067 0.388043 0.945137
Si Si4 0.640095 0.052526 0.697595
Si Si5 0.250893 0.835258 0.881428
Si Si6 0.138918 0.535910 0.704521
Si Si7 0.761370 0.599256 0.575159
O O1 0.604238 0.723756 0.253221
O O2 0.436870 0.934934 0.347157
O O3 0.500000 0.000000 0.500000
O O4 0.983368 0.920126 0.115870
O O5 0.583659 0.482299 0.654288
O O6 0.955018 0.350678 0.495239
O O7 0.497706 0.552203 0.877312
O O8 0.579541 0.218254 0.856614
O O9 0.985058 0.417529 0.775059
O O10 0.500000 0.500000 0.000000
O O11 0.419650 0.940874 0.792489
O O12 0.000000 0.000000 0.500000
O O13 0.078497 0.709866 0.856256
O O14 0.521240 0.737723 0.740329
O O15 0.500000 0.500000 0.500000
O O16 0.071814 0.495389 0.630470
#
# Coordination Sequence:
#
# PCOD9090261 Si02
#       7
#     2   2   2   2   2   2   2
#     4  12  27  45  67 101 146 182 231 294 355 405
#     4  11  23  43  67  99 137 183 231 282 346 416
#     4  12  21  42  71  94 133 181 236 272 330 417
#     4  12  26  46  74 104 139 187 235 284 349 422
#     4  11  24  44  67 101 140 178 231 286 352 409
#     4  10  19  38  64  95 130 169 221 275 328 405
#     4  10  23  40  68  99 136 178 229 286 342 418
#
# _framework density 21.121737
#
# number of rings (size 3 to 8) (size 9 to 14) (size 15 to 20)
#    0.000    0.857    4.286    3.000    2.000    4.000 
#    0.000    2.143    0.000    0.000    0.000    0.000 
#    0.000    0.000    0.000    0.000    0.000    0.000 
#
# Total GULP energy -78195.447019 kJ/mol
# GULP energy per Si atom -5585.389073 kJ/mol
# Density = 2.107366 g / cm^3
# Si number density = 21.121737 Si / 1000 Ang^3
#
#
#
# Elastic Constant Matrix: (Units=GPa)
#
#
# Indices 1 2 3 4 5 6 
#
# 1 48.6444 29.9713 42.9477 4.0765 12.3833 -6.5798
# 2 29.9713 110.2446 28.0955 -11.3024 9.7956 -8.9023
# 3 42.9477 28.0955 126.3412 -8.7547 23.2136 -5.7469
# 4 4.0765 -11.3024 -8.7547 43.3754 5.6704 5.0216
# 5 12.3833 9.7956 23.2136 5.6704 30.4751 -5.8188
# 6 -6.5798 -8.9023 -5.7469 5.0216 -5.8188 31.2683
#
#
#
# Elastic Compliance Matrix: (Units=1/GPa)
#
#
# Indices 1 2 3 4 5 6 
#
# 1 0.036285 -0.007409 -0.010664 -0.007754 -0.001947 0.004449
# 2 -0.007409 0.011567 0.000575 0.003947 -0.001710 0.000888
# 3 -0.010664 0.000575 0.012949 0.004882 -0.006963 -0.001780
# 4 -0.007754 0.003947 0.004882 0.027482 -0.008003 -0.005513
# 5 -0.001947 -0.001710 -0.006963 -0.008003 0.042280 0.006977
# 6 0.004449 0.000888 -0.001780 -0.005513 0.006977 0.035027
#
#
# Mechanical properties :
#
#
# Convention : Reuss Voigt Hill
#
# Bulk Modulus (GPa) = 38.75484 54.13992 46.44738
# Shear Modulus (GPa) = 23.90197 33.30479 28.60338
#
# Velocity S-wave (km/s) = 3.36762 3.97520 3.68396
# Velocity P-wave (km/s) = 5.78872 6.83796 6.33510
#
# Compressibility (1/GPa) = 0.02580323
#
# Stress axis : x y z
#
# Youngs Moduli (GPa) = 27.55968 86.45341 77.22545
#
# Poissons Ratio (x) = 0.64057 0.82353
# Poissons Ratio (y) = 0.20420 -0.04437
# Poissons Ratio (z) = 0.29389 -0.04967
#
# Static dielectric constant tensor:
#      x y z
#    x 1.861350 0.067480 -0.060760 
#    y 0.067480 1.794770 -0.024040 
#    z -0.060760 -0.024040 1.808390 
# 
# From -- ./inp_files/158882.got.cif
#   From: 2010.05.17/outbox.cif.g08.bks.cpg/sg2_80_cif.got.tgz:158882.got - 2010.06.03 11:33:40.
