data_PCOD9090127
_publ_section_title
;
Structure prediction by ZEFSAII (Michael W. Deem and Ramdas Pophale) SiO2 
 PCOD9090127
Probable space group: P -1
;
_chemical_formula_sum "Si O2"
_cell_formula_units_Z 15
_cell_length_a 7.068787
_cell_length_b 14.110004
_cell_length_c 14.124683
_cell_angle_alpha 30.113516
_cell_angle_beta 71.473393
_cell_angle_gamma 87.292109
_cell_volume 588.494004
_symmetry_space_group_name_H-M "P -1"
_symmetry_group_IT_number 2
_symmetry_cell_setting 'triclinic'
loop_
_space_group_symop_operation_xyz
x,y,z
-x,-y,-z
loop_
_atom_site_type_symbol
_atom_site_label
_atom_site_fract_x
_atom_site_fract_y
_atom_site_fract_z
Si Si1 0.378360 0.229495 0.211705
Si Si2 0.219805 0.101519 0.599008
Si Si3 0.500000 0.000000 0.500000
Si Si4 0.422240 0.560277 0.201169
Si Si5 0.090878 0.571036 0.625851
Si Si6 0.534412 0.976743 0.905162
Si Si7 0.041250 0.883048 0.005218
Si Si8 0.025123 0.762977 0.639969
O O1 0.173162 0.282695 0.214683
O O2 0.528249 0.250497 0.260587
O O3 0.508257 0.340298 0.001413
O O4 0.260997 0.960942 0.469209
O O5 0.420114 0.333739 0.402536
O O6 0.063599 0.137968 0.514851
O O7 0.319775 0.964815 0.649675
O O8 0.058910 0.991480 0.808288
O O9 0.155875 0.481056 0.329640
O O10 0.561660 0.765078 0.067453
O O11 0.276726 0.801505 0.360165
O O12 0.064766 0.587745 0.729720
O O13 0.121600 0.372570 0.756172
O O14 0.298366 0.922714 0.939889
O O15 0.500000 0.000000 0.000000
O O16 0.000000 0.000000 0.000000
#
# Coordination Sequence:
#
# PCOD9090127 Si02
#       8
#     2   2   1   2   2   2   2   2
#     4  10  19  38  64 101 127 172 210 263 318 379
#     4  10  23  41  61  97 129 172 210 270 321 380
#     4  10  20  36  66  92 138 162 208 264 324 376
#     4  10  22  40  70  92 130 169 218 265 315 390
#     4  10  22  42  66  92 122 173 209 269 312 387
#     4  11  25  43  68  93 122 172 221 266 320 391
#     4  11  27  44  64  95 136 166 212 275 327 380
#     4   9  20  38  67  92 130 167 219 255 311 398
#
# _framework density 25.488790999999999
#
# number of rings (size 3 to 8) (size 9 to 14) (size 15 to 20)
#    0.000    1.867    1.333    1.600    5.600    7.467 
#    2.400    0.000    0.000   11.200    0.000    0.000 
#    0.000    0.000    0.000    0.000    0.000    0.000 
#
# Total GULP energy -83648.789617 kJ/mol
# GULP energy per Si atom -5576.585974 kJ/mol
# Density = 2.543078 g / cm^3
# Si number density = 25.488791 Si / 1000 Ang^3
#
#
#
# Elastic Constant Matrix: (Units=GPa)
#
#
# Indices 1 2 3 4 5 6 
#
# 1 76.9827 5.5183 17.6631 -5.1432 -15.1520 -14.2041
# 2 5.5183 179.7215 57.7657 -25.7430 -15.1379 -15.0384
# 3 17.6631 57.7657 118.7904 -21.0314 -34.2977 -1.4630
# 4 -5.1432 -25.7430 -21.0314 50.7583 4.8841 -1.5409
# 5 -15.1520 -15.1379 -34.2977 4.8841 20.1685 5.6187
# 6 -14.2041 -15.0384 -1.4630 -1.5409 5.6187 29.8542
#
#
#
# Elastic Compliance Matrix: (Units=1/GPa)
#
#
# Indices 1 2 3 4 5 6 
#
# 1 0.016421 0.000922 0.001246 0.001567 0.013110 0.005952
# 2 0.000922 0.007322 -0.003813 0.002572 -0.002166 0.004481
# 3 0.001246 -0.003813 0.020258 0.003159 0.033567 -0.006489
# 4 0.001567 0.002572 0.003159 0.022345 0.002254 0.002925
# 5 0.013110 -0.002166 0.033567 0.002254 0.118637 -0.015420
# 6 0.005952 0.004481 -0.006489 0.002925 -0.015420 0.041320
#
#
# Mechanical properties :
#
#
# Convention : Reuss Voigt Hill
#
# Bulk Modulus (GPa) = 24.56305 59.70986 42.13646
# Shear Modulus (GPa) = 20.56225 39.79272 30.17748
#
# Velocity S-wave (km/s) = 2.84336 3.95547 3.44459
# Velocity P-wave (km/s) = 4.52076 6.65866 5.69101
#
# Compressibility (1/GPa) = 0.04071156
#
# Stress axis : x y z
#
# Youngs Moduli (GPa) = 60.89688 136.57188 49.36330
#
# Poissons Ratio (x) = -0.12594 -0.06149
# Poissons Ratio (y) = -0.05615 0.18821
# Poissons Ratio (z) = -0.07586 0.52070
#
# Static dielectric constant tensor:
#      x y z
#    x 1.237740 -0.265920 -0.126930 
#    y -0.265920 2.026340 -0.109740 
#    z -0.126930 -0.109740 2.026000 
# 
# From -- ./inp_files/503577.got.cif
#   From: 2010.05.17/outbox.cif.g08.bks.cpg/sg2_252_cif.got.tgz:503577.got - 2010.06.03 11:33:40.
