data_PCOD9090744
_publ_section_title
;
Structure prediction by ZEFSAII (Michael W. Deem and Ramdas Pophale) SiO2 
 PCOD9090744
Probable space group: P -1
;
_chemical_formula_sum "Si O2"
_cell_formula_units_Z 12
_cell_length_a 9.088399
_cell_length_b 9.142777
_cell_length_c 18.163673
_cell_angle_alpha 49.591385
_cell_angle_beta 80.052415
_cell_angle_gamma 119.172816
_cell_volume 680.312016
_symmetry_space_group_name_H-M "P -1"
_symmetry_group_IT_number 2
_symmetry_cell_setting 'triclinic'
loop_
_space_group_symop_operation_xyz
x,y,z
-x,-y,-z
loop_
_atom_site_type_symbol
_atom_site_label
_atom_site_fract_x
_atom_site_fract_y
_atom_site_fract_z
Si Si1 0.971967 0.662218 0.402836
Si Si2 0.429188 0.723384 0.563904
Si Si3 0.937216 0.635803 0.922783
Si Si4 0.005348 0.953442 0.100076
Si Si5 0.593276 0.802487 0.920994
Si Si6 0.761748 0.839734 0.400041
O O1 0.736627 0.407889 0.451656
O O2 0.930749 0.821954 0.397317
O O3 0.000000 0.500000 0.500000
O O4 0.214257 0.927568 0.244621
O O5 0.675579 0.859713 0.474433
O O6 0.246918 0.412928 0.733324
O O7 0.500000 0.000000 0.500000
O O8 0.962150 0.827393 0.920910
O O9 0.658757 0.336673 0.011370
O O10 0.112005 0.887210 0.758830
O O11 0.000000 0.500000 0.000000
O O12 0.241757 0.061491 0.064944
O O13 0.000000 0.000000 0.000000
O O14 0.500000 0.500000 0.000000
O O15 0.500000 0.500000 0.500000
#
# Coordination Sequence:
#
# PCOD9090744 Si02
#       6
#     2   2   2   2   2   2
#     4  10  20  35  63  85 114 155 192 245 293 343
#     4  10  22  38  59  84 119 156 192 241 296 350
#     4  11  22  36  64  89 111 158 199 244 294 350
#     4  10  21  39  58  84 120 154 191 243 296 346
#     4   9  18  37  55  85 117 145 199 234 286 350
#     4  10  19  39  57  84 122 146 202 246 279 355
#
# _framework density 17.638966
#
# number of rings (size 3 to 8) (size 9 to 14) (size 15 to 20)
#    0.000    2.000    6.667    0.000    7.000    1.333 
#    0.000    1.667    0.000    0.000    0.000    0.000 
#    0.000    0.000    0.000    0.000    0.000    0.000 
#
# Total GULP energy -66842.564506 kJ/mol
# GULP energy per Si atom -5570.213709 kJ/mol
# Density = 1.759882 g / cm^3
# Si number density = 17.638966 Si / 1000 Ang^3
#
#
#
# Elastic Constant Matrix: (Units=GPa)
#
#
# Indices 1 2 3 4 5 6 
#
# 1 128.1406 33.6021 97.2644 9.6684 11.7484 7.3511
# 2 33.6021 73.0745 57.5768 9.9178 2.8173 -6.6017
# 3 97.2644 57.5768 129.0577 7.7398 5.1685 15.3601
# 4 9.6684 9.9178 7.7398 24.4400 3.1703 8.8653
# 5 11.7484 2.8173 5.1685 3.1703 36.0041 -0.1106
# 6 7.3511 -6.6017 15.3601 8.8653 -0.1106 28.2151
#
#
#
# Elastic Compliance Matrix: (Units=1/GPa)
#
#
# Indices 1 2 3 4 5 6 
#
# 1 0.021792 0.008731 -0.020878 -0.008841 -0.003986 0.010493
# 2 0.008731 0.031785 -0.022412 -0.017478 -0.000510 0.022853
# 3 -0.020878 -0.022412 0.035335 0.014433 0.002151 -0.023567
# 4 -0.008841 -0.017478 0.014433 0.057359 -0.002955 -0.027677
# 5 -0.003986 -0.000510 0.002151 -0.002955 0.029069 0.000791
# 6 0.010493 0.022853 -0.023567 -0.027677 0.000791 0.059584
#
#
# Mechanical properties :
#
#
# Convention : Reuss Voigt Hill
#
# Bulk Modulus (GPa) = 50.51831 78.57326 64.54578
# Shear Modulus (GPa) = 16.09583 27.18712 21.64147
#
# Velocity S-wave (km/s) = 3.02406 3.93021 3.50653
# Velocity P-wave (km/s) = 6.39497 8.07697 7.28468
#
# Compressibility (1/GPa) = 0.01979480
#
# Stress axis : x y z
#
# Youngs Moduli (GPa) = 45.88781 31.46165 28.30075
#
# Poissons Ratio (x) = -0.27469 0.59086
# Poissons Ratio (y) = -0.40064 0.63426
# Poissons Ratio (z) = 0.95804 0.70510
#
# Static dielectric constant tensor:
#      x y z
#    x 1.657840 0.007430 -0.009040 
#    y 0.007430 1.218480 -0.158370 
#    z -0.009040 -0.158370 1.522400 
# 
# From -- ./inp_files/146413.got.cif
#   From: 2010.05.17/outbox.cif.g08.bks.cpg/sg2_74_cif.got.tgz:146413.got - 2010.06.03 11:33:40.
