data_PCOD9090669
_publ_section_title
;
Structure prediction by ZEFSAII (Michael W. Deem and Ramdas Pophale) SiO2 
 PCOD9090669
Probable space group: P -1
;
_chemical_formula_sum "Si O2"
_cell_formula_units_Z 16
_cell_length_a 9.131269
_cell_length_b 10.847446
_cell_length_c 9.292019
_cell_angle_alpha 102.084058
_cell_angle_beta 99.196198
_cell_angle_gamma 47.353870
_cell_volume 661.781493
_symmetry_space_group_name_H-M "P -1"
_symmetry_group_IT_number 2
_symmetry_cell_setting 'triclinic'
loop_
_space_group_symop_operation_xyz
x,y,z
-x,-y,-z
loop_
_atom_site_type_symbol
_atom_site_label
_atom_site_fract_x
_atom_site_fract_y
_atom_site_fract_z
Si Si1 0.039613 0.227650 0.759732
Si Si2 0.787755 0.172666 0.568302
Si Si3 0.857568 0.802483 0.829421
Si Si4 0.577904 0.372322 0.295866
Si Si5 0.718101 0.931605 0.533021
Si Si6 0.330661 0.512414 0.892155
Si Si7 0.757862 0.591889 0.881751
Si Si8 0.193640 0.952681 0.948538
O O1 0.156423 0.169537 0.615301
O O2 0.165767 0.076724 0.855162
O O3 0.850903 0.240216 0.710968
O O4 0.969480 0.401653 0.849885
O O5 0.671784 0.303195 0.450311
O O6 0.692657 0.096976 0.585870
O O7 0.000000 0.000000 0.500000
O O8 0.838436 0.807738 0.656399
O O9 0.765796 0.730715 0.869837
O O10 0.091471 0.678748 0.883859
O O11 0.733399 0.998587 0.899987
O O12 0.595182 0.503535 0.264053
O O13 0.373458 0.412076 0.256280
O O14 0.704738 0.216852 0.163268
O O15 0.500000 0.000000 0.500000
O O16 0.500000 0.500000 0.000000
O O17 0.323824 0.394513 0.967884
O O18 0.000000 0.000000 0.000000
#
# Coordination Sequence:
#
# PCOD9090669 Si02
#       8
#     2   2   2   2   2   2   2   2
#     4  11  23  42  69  91 136 176 225 271 337 394
#     4  10  19  38  69  93 128 172 221 279 332 377
#     4  12  24  41  69  93 141 178 219 273 351 382
#     4  11  21  41  66  98 132 166 230 281 329 397
#     4  11  24  44  67 101 136 175 225 284 327 401
#     4  10  21  39  63  93 130 172 216 269 330 401
#     4  11  25  42  62  96 139 178 215 276 335 407
#     4  12  22  39  72 101 123 174 231 279 334 395
#
# _framework density 24.177164000000001
#
# number of rings (size 3 to 8) (size 9 to 14) (size 15 to 20)
#    0.000    1.000    5.000    3.375    0.000    1.500 
#    0.000    2.500    0.000    0.000    0.000    0.000 
#    0.000    0.000    0.000    0.000    0.000    0.000 
#
# Total GULP energy -89283.086443 kJ/mol
# GULP energy per Si atom -5580.192903 kJ/mol
# Density = 2.412214 g / cm^3
# Si number density = 24.177164 Si / 1000 Ang^3
#
#
#
# Elastic Constant Matrix: (Units=GPa)
#
#
# Indices 1 2 3 4 5 6 
#
# 1 130.4941 16.9311 17.6721 -6.5327 -16.4257 21.7394
# 2 16.9311 60.0292 10.0661 1.2331 -11.1638 9.6551
# 3 17.6721 10.0661 113.6411 -34.5156 -23.3265 4.2530
# 4 -6.5327 1.2331 -34.5156 50.6398 4.2897 4.2917
# 5 -16.4257 -11.1638 -23.3265 4.2897 37.4445 -12.7247
# 6 21.7394 9.6551 4.2530 4.2917 -12.7247 43.6331
#
#
#
# Elastic Compliance Matrix: (Units=1/GPa)
#
#
# Indices 1 2 3 4 5 6 
#
# 1 0.008792 -0.001520 -0.000410 0.001041 0.001813 -0.003578
# 2 -0.001520 0.018284 -0.001005 -0.001468 0.003654 -0.001981
# 3 -0.000410 -0.001005 0.012759 0.008076 0.006656 0.000330
# 4 0.001041 -0.001468 0.008076 0.025606 0.001030 -0.003199
# 5 0.001813 0.003654 0.006656 0.001030 0.035279 0.007827
# 6 -0.003578 -0.001981 0.000330 -0.003199 0.007827 0.027704
#
#
# Mechanical properties :
#
#
# Convention : Reuss Voigt Hill
#
# Bulk Modulus (GPa) = 29.44178 43.72253 36.58215
# Shear Modulus (GPa) = 34.33669 43.64317 38.98993
#
# Velocity S-wave (km/s) = 3.77266 4.25330 4.02017
# Velocity P-wave (km/s) = 5.58401 6.49956 6.05910
#
# Compressibility (1/GPa) = 0.03396534
#
# Stress axis : x y z
#
# Youngs Moduli (GPa) = 113.73528 54.69282 78.37412
#
# Poissons Ratio (x) = 0.08312 0.03216
# Poissons Ratio (y) = 0.17285 0.07876
# Poissons Ratio (z) = 0.04667 0.05496
#
# Static dielectric constant tensor:
#      x y z
#    x 1.764540 -0.463840 -0.387580 
#    y -0.463840 1.089410 -0.925630 
#    z -0.387580 -0.925630 1.032090 
# 
# From -- ./inp_files/187620.got.cif
#   From: 2010.05.17/outbox.cif.g08.bks.cpg/sg2_94_cif.got.tgz:187620.got - 2010.06.03 11:33:40.
