data_PCOD9090495
_publ_section_title
;
Structure prediction by ZEFSAII (Michael W. Deem and Ramdas Pophale) SiO2 
 PCOD9090495
Probable space group: P -1
;
_chemical_formula_sum "Si O2"
_cell_formula_units_Z 16
_cell_length_a 11.750570
_cell_length_b 16.589829
_cell_length_c 22.321933
_cell_angle_alpha 153.607528
_cell_angle_beta 150.651258
_cell_angle_gamma 25.217805
_cell_volume 779.830424
_symmetry_space_group_name_H-M "P -1"
_symmetry_group_IT_number 2
_symmetry_cell_setting 'triclinic'
loop_
_space_group_symop_operation_xyz
x,y,z
-x,-y,-z
loop_
_atom_site_type_symbol
_atom_site_label
_atom_site_fract_x
_atom_site_fract_y
_atom_site_fract_z
Si Si1 0.329230 0.396451 0.081111
Si Si2 0.099612 0.453426 0.755059
Si Si3 0.751357 0.304113 0.445259
Si Si4 0.164318 0.224186 0.348943
Si Si5 0.486077 0.060423 0.190615
Si Si6 0.501717 0.165267 0.838878
Si Si7 0.696394 0.434057 0.368356
Si Si8 0.670927 0.421256 0.156685
O O1 0.453966 0.429800 0.220477
O O2 0.407066 0.500294 0.131785
O O3 0.000000 0.500000 0.000000
O O4 0.491969 0.135190 0.967250
O O5 0.225209 0.387442 0.835234
O O6 0.318147 0.437807 0.796886
O O7 0.017932 0.288933 0.585311
O O8 0.820733 0.706164 0.795112
O O9 0.500000 0.500000 0.500000
O O10 0.714058 0.105908 0.303103
O O11 0.714206 0.379112 0.409470
O O12 0.334022 0.336711 0.503557
O O13 0.992643 0.262658 0.356185
O O14 0.926803 0.350129 0.271722
O O15 0.353428 0.978541 0.248976
O O16 0.553015 0.970004 0.229122
O O17 0.698696 0.220091 0.999820
#
# Coordination Sequence:
#
# PCOD9090495 Si02
#       8
#     2   2   2   2   2   2   2   2
#     4  10  24  41  64  94 130 175 210 255 322 384
#     4  11  22  39  66 100 123 161 223 263 319 369
#     4  10  21  40  62  90 127 168 215 260 309 384
#     4  10  19  38  66  94 128 168 208 262 327 370
#     4  10  23  42  65  91 133 171 206 267 315 379
#     4  11  22  37  65 100 125 163 212 266 323 374
#     4  10  21  38  65  90 127 176 210 258 320 378
#     4  10  20  40  66  92 134 160 210 272 309 376
#
# _framework density 20.517281000000001
#
# number of rings (size 3 to 8) (size 9 to 14) (size 15 to 20)
#    0.000    1.750    2.500    1.500    3.500    6.000 
#    2.250    0.625    0.000    0.000    0.000    0.000 
#    0.000    0.000    0.000    0.000    0.000    0.000 
#
# Total GULP energy -89277.609297 kJ/mol
# GULP energy per Si atom -5579.850581 kJ/mol
# Density = 2.047058 g / cm^3
# Si number density = 20.517281 Si / 1000 Ang^3
#
#
#
# Elastic Constant Matrix: (Units=GPa)
#
#
# Indices 1 2 3 4 5 6 
#
# 1 85.7909 29.9405 29.6966 -0.8381 -4.1561 15.5279
# 2 29.9405 66.6184 9.0332 -11.5684 -0.9225 17.2735
# 3 29.6966 9.0332 111.3664 -10.3323 -1.9167 -0.4152
# 4 -0.8381 -11.5684 -10.3323 18.6438 2.9824 -1.7856
# 5 -4.1561 -0.9225 -1.9167 2.9824 39.1159 1.3156
# 6 15.5279 17.2735 -0.4152 -1.7856 1.3156 20.1879
#
#
#
# Elastic Compliance Matrix: (Units=1/GPa)
#
#
# Indices 1 2 3 4 5 6 
#
# 1 0.016947 -0.005796 -0.004658 -0.006627 0.002240 -0.008904
# 2 -0.005796 0.023605 0.000824 0.013545 -0.000564 -0.014487
# 3 -0.004658 0.000824 0.010783 0.006729 -0.000586 0.003733
# 4 -0.006627 0.013545 0.006729 0.066274 -0.005103 -0.000159
# 5 0.002240 -0.000564 -0.000586 -0.005103 0.026265 -0.003415
# 6 -0.008904 -0.014487 0.003733 -0.000159 -0.003415 0.069064
#
#
# Mechanical properties :
#
#
# Convention : Reuss Voigt Hill
#
# Bulk Modulus (GPa) = 31.17835 44.56849 37.87342
# Shear Modulus (GPa) = 20.58545 28.59653 24.59099
#
# Velocity S-wave (km/s) = 3.17096 3.73738 3.46576
# Velocity P-wave (km/s) = 5.35124 6.35560 5.87492
#
# Compressibility (1/GPa) = 0.03207354
#
# Stress axis : x y z
#
# Youngs Moduli (GPa) = 59.00800 42.36426 92.73978
#
# Poissons Ratio (x) = 0.24554 0.43202
# Poissons Ratio (y) = 0.34201 -0.07641
# Poissons Ratio (z) = 0.27488 -0.03490
#
# Static dielectric constant tensor:
#      x y z
#    x 1.750060 -0.015520 0.015800 
#    y -0.015520 1.741860 0.008530 
#    z 0.015800 0.008530 1.755010 
# 
# From -- ./inp_files/461991.got.cif
#   From: 2010.05.17/outbox.cif.g08.bks.cpg/sg2_231_cif.got.tgz:461991.got - 2010.06.03 11:33:40.
