data_PCOD9090631
_publ_section_title
;
Structure prediction by ZEFSAII (Michael W. Deem and Ramdas Pophale) SiO2 
 PCOD9090631
Probable space group: P -1
;
_chemical_formula_sum "Si O2"
_cell_formula_units_Z 14
_cell_length_a 7.694797
_cell_length_b 20.556961
_cell_length_c 17.464996
_cell_angle_alpha 20.200857
_cell_angle_beta 42.720635
_cell_angle_gamma 34.595691
_cell_volume 531.447338
_symmetry_space_group_name_H-M "P -1"
_symmetry_group_IT_number 2
_symmetry_cell_setting 'triclinic'
loop_
_space_group_symop_operation_xyz
x,y,z
-x,-y,-z
loop_
_atom_site_type_symbol
_atom_site_label
_atom_site_fract_x
_atom_site_fract_y
_atom_site_fract_z
Si Si1 0.334469 0.162219 0.042765
Si Si2 0.161317 0.259856 0.257738
Si Si3 0.652712 0.786209 0.246682
Si Si4 0.603244 0.094868 0.547755
Si Si5 0.060694 0.665130 0.579854
Si Si6 0.354292 0.471217 0.335694
Si Si7 0.815714 0.143622 0.137656
O O1 0.035668 0.180756 0.079146
O O2 0.639919 0.933845 0.160720
O O3 0.340769 0.105246 0.192371
O O4 0.298628 0.397884 0.778742
O O5 0.998373 0.308281 0.338852
O O6 0.524964 0.173712 0.243399
O O7 0.176598 0.060120 0.423046
O O8 0.000000 0.500000 0.000000
O O9 0.554152 0.634125 0.492580
O O10 0.982347 0.584851 0.327981
O O11 0.500000 0.000000 0.000000
O O12 0.270261 0.261808 0.430086
O O13 0.568012 0.276076 0.420785
O O14 0.041417 0.889575 0.310369
O O15 0.336763 0.688322 0.070497
#
# Coordination Sequence:
#
# PCOD9090631 Si02
#       7
#     2   2   2   2   2   2   2
#     4  11  22  41  69  96 126 179 212 264 329 384
#     4  11  24  44  64  93 135 175 214 274 324 372
#     4  10  19  38  68  94 131 165 211 267 331 373
#     4  10  20  41  64  89 131 169 209 263 332 363
#     4  11  23  45  62  93 139 170 212 278 315 375
#     4  10  21  38  65  99 126 169 214 267 317 394
#     4  11  23  41  67  97 130 172 224 261 319 394
#
# _framework density 26.343153999999998
#
# number of rings (size 3 to 8) (size 9 to 14) (size 15 to 20)
#    0.000    1.429    4.286    1.714    0.000    2.857 
#    2.571    2.857    3.143   14.571    0.000    0.000 
#    0.000    0.000    0.000    0.000    0.000    0.000 
#
# Total GULP energy -78044.844887 kJ/mol
# GULP energy per Si atom -5574.631778 kJ/mol
# Density = 2.628320 g / cm^3
# Si number density = 26.343154 Si / 1000 Ang^3
#
#
#
# Elastic Constant Matrix: (Units=GPa)
#
#
# Indices 1 2 3 4 5 6 
#
# 1 149.6251 -69.9256 53.2841 32.9608 -11.9937 74.0243
# 2 -69.9256 262.0188 2.9991 -72.5043 21.9348 -90.4632
# 3 53.2841 2.9991 218.7940 -11.8411 0.0161 18.1225
# 4 32.9608 -72.5043 -11.8411 90.8268 -0.7133 49.4717
# 5 -11.9937 21.9348 0.0161 -0.7133 53.0849 -19.1496
# 6 74.0243 -90.4632 18.1225 49.4717 -19.1496 83.4887
#
#
#
# Elastic Compliance Matrix: (Units=1/GPa)
#
#
# Indices 1 2 3 4 5 6 
#
# 1 0.013166 -0.000332 -0.002031 0.001754 -0.001549 -0.012987
# 2 -0.000332 0.006391 -0.000413 0.001837 -0.000487 0.006108
# 3 -0.002031 -0.000413 0.005221 0.001527 -0.000563 -0.000814
# 4 0.001754 0.001837 0.001527 0.018451 -0.004385 -0.011834
# 5 -0.001549 -0.000487 -0.000563 -0.004385 0.021713 0.008546
# 6 -0.012987 0.006108 -0.000814 -0.011834 0.008546 0.039260
#
#
# Mechanical properties :
#
#
# Convention : Reuss Voigt Hill
#
# Bulk Modulus (GPa) = 52.01498 67.01703 59.51601
# Shear Modulus (GPa) = 43.04328 88.41877 65.73103
#
# Velocity S-wave (km/s) = 4.04659 5.79975 5.00060
# Velocity P-wave (km/s) = 6.45145 8.38718 7.48218
#
# Compressibility (1/GPa) = 0.01922523
#
# Stress axis : x y z
#
# Youngs Moduli (GPa) = 75.95306 156.47681 191.53706
#
# Poissons Ratio (x) = 0.05193 0.38904
# Poissons Ratio (y) = 0.02520 0.07915
# Poissons Ratio (z) = 0.15427 0.06466
#
# Static dielectric constant tensor:
#      x y z
#    x 2.294290 -0.193980 -0.096700 
#    y -0.193980 2.159920 0.079460 
#    z -0.096700 0.079460 2.108130 
# 
# From -- ./inp_files/562491.got.cif
#   From: 2010.05.17/outbox.cif.g08.bks.cpg/sg2_282_cif.got.tgz:562491.got - 2010.06.03 11:33:40.
