data_PCOD9090139
_publ_section_title
;
Structure prediction by ZEFSAII (Michael W. Deem and Ramdas Pophale) SiO2 
 PCOD9090139
Probable space group: P -1
;
_chemical_formula_sum "Si O2"
_cell_formula_units_Z 16
_cell_length_a 9.215884
_cell_length_b 16.830088
_cell_length_c 9.217096
_cell_angle_alpha 114.246089
_cell_angle_beta 47.142539
_cell_angle_gamma 127.445946
_cell_volume 832.003811
_symmetry_space_group_name_H-M "P -1"
_symmetry_group_IT_number 2
_symmetry_cell_setting 'triclinic'
loop_
_space_group_symop_operation_xyz
x,y,z
-x,-y,-z
loop_
_atom_site_type_symbol
_atom_site_label
_atom_site_fract_x
_atom_site_fract_y
_atom_site_fract_z
Si Si1 0.318193 0.886341 0.399697
Si Si2 0.825191 0.042458 0.165035
Si Si3 0.990713 0.736330 0.284146
Si Si4 0.512134 0.610458 0.408451
Si Si5 0.294668 0.708238 0.468104
Si Si6 0.992568 0.560579 0.328816
Si Si7 0.297867 0.460357 0.996538
Si Si8 0.085111 0.760344 0.903453
O O1 0.220698 0.932714 0.620664
O O2 0.355493 0.801345 0.391847
O O3 0.129611 0.830702 0.363892
O O4 0.566737 0.966265 0.232727
O O5 0.920586 0.144366 0.085194
O O6 0.000000 0.000000 0.000000
O O7 0.717844 0.692267 0.426057
O O8 0.016299 0.646018 0.267588
O O9 0.096682 0.762943 0.071023
O O10 0.470906 0.669167 0.347945
O O11 0.607630 0.540595 0.227500
O O12 0.260221 0.534059 0.577075
O O13 0.071961 0.615427 0.474367
O O14 0.267166 0.746450 0.673654
O O15 0.163888 0.520826 0.142528
O O16 0.500000 0.500000 0.000000
O O17 0.134732 0.344943 0.058449
#
# Coordination Sequence:
#
# PCOD9090139 Si02
#       8
#     2   2   2   2   2   2   2   2
#     4   9  22  44  63  90 119 150 199 255 302 358
#     4  10  22  42  71  88 112 154 206 249 301 364
#     4  10  24  40  59  91 130 158 192 251 308 360
#     4  11  21  35  58  88 124 165 203 241 299 353
#     4  10  19  38  64  84 119 164 205 248 287 351
#     4  11  21  40  59  87 125 167 207 246 287 350
#     4  11  21  34  60  90 120 160 211 244 286 353
#     4  10  22  38  59  90 122 156 198 246 306 347
#
# _framework density 19.23068
#
# number of rings (size 3 to 8) (size 9 to 14) (size 15 to 20)
#    0.000    1.750    2.500    1.500    3.500    2.500 
#    4.500    0.625    0.000    0.000    0.000    0.000 
#    0.000    0.000    0.000    0.000    0.000    0.000 
#
# Total GULP energy -89195.232699 kJ/mol
# GULP energy per Si atom -5574.702044 kJ/mol
# Density = 1.918691 g / cm^3
# Si number density = 19.230680 Si / 1000 Ang^3
#
#
#
# Elastic Constant Matrix: (Units=GPa)
#
#
# Indices 1 2 3 4 5 6 
#
# 1 107.0638 51.8058 43.2973 7.8499 -7.4215 15.3984
# 2 51.8058 18.8596 -33.2952 29.8685 9.9269 3.6423
# 3 43.2973 -33.2952 29.5756 32.1201 -1.2170 -8.4423
# 4 7.8499 29.8685 32.1201 17.2974 -6.2637 1.4252
# 5 -7.4215 9.9269 -1.2170 -6.2637 23.0434 5.8825
# 6 15.3984 3.6423 -8.4423 1.4252 5.8825 41.3752
#
#
#
# Elastic Compliance Matrix: (Units=1/GPa)
#
#
# Indices 1 2 3 4 5 6 
#
# 1 0.008456 0.002012 0.002685 -0.012404 -0.000802 -0.002235
# 2 0.002012 0.005527 -0.011961 0.012949 0.002290 -0.004447
# 3 0.002685 -0.011961 0.007600 0.008466 0.008701 0.000076
# 4 -0.012404 0.012949 0.008466 0.023501 -0.004005 0.004964
# 5 -0.000802 0.002290 0.008701 -0.004005 0.042553 -0.004040
# 6 -0.002235 -0.004447 0.000076 0.004964 -0.004040 0.025811
#
#
# Mechanical properties :
#
#
# Convention : Reuss Voigt Hill
#
# Bulk Modulus (GPa) = 141.72260 31.01276 86.36768
# Shear Modulus (GPa) = 38.36433 22.58925 30.47679
#
# Velocity S-wave (km/s) = 4.47134 3.43103 3.98527
# Velocity P-wave (km/s) = 10.02563 5.64426 8.13544
#
# Compressibility (1/GPa) = 0.00705604
#
# Stress axis : x y z
#
# Youngs Moduli (GPa) = 118.25715 180.92121 131.57134
#
# Poissons Ratio (x) = -0.36392 -0.35333
# Poissons Ratio (y) = -0.23787 1.57371
# Poissons Ratio (z) = -0.31758 2.16398
#
# Static dielectric constant tensor:
#      x y z
#    x 1.693240 0.035260 -0.000080 
#    y 0.035260 1.711130 -0.012870 
#    z -0.000080 -0.012870 1.741520 
# 
# From -- ./inp_files/217992.got.cif
#   From: 2010.05.17/outbox.cif.g08.bks.cpg/sg2_109_cif.got.tgz:217992.got - 2010.06.03 11:33:40.
