data_PCOD9090946
_publ_section_title
;
Structure prediction by ZEFSAII (Michael W. Deem and Ramdas Pophale) SiO2 
 PCOD9090946
Probable space group: P -1
;
_chemical_formula_sum "Si O2"
_cell_formula_units_Z 14
_cell_length_a 13.037493
_cell_length_b 7.366062
_cell_length_c 18.578574
_cell_angle_alpha 65.491015
_cell_angle_beta 32.400973
_cell_angle_gamma 90.551612
_cell_volume 586.888826
_symmetry_space_group_name_H-M "P -1"
_symmetry_group_IT_number 2
_symmetry_cell_setting 'triclinic'
loop_
_space_group_symop_operation_xyz
x,y,z
-x,-y,-z
loop_
_atom_site_type_symbol
_atom_site_label
_atom_site_fract_x
_atom_site_fract_y
_atom_site_fract_z
Si Si1 0.524452 0.783354 0.639562
Si Si2 0.462100 0.427003 0.617494
Si Si3 0.275859 0.880347 0.873754
Si Si4 0.110398 0.509741 0.571278
Si Si5 0.565934 0.607529 0.861913
Si Si6 0.887336 0.738479 0.525179
Si Si7 0.959604 0.540655 0.800215
O O1 0.285128 0.707936 0.840223
O O2 0.397924 0.562186 0.685100
O O3 0.717299 0.782838 0.574903
O O4 0.735453 0.120261 0.431946
O O5 0.500000 0.500000 0.500000
O O6 0.260739 0.082387 0.810380
O O7 0.766958 0.584126 0.440899
O O8 0.604145 0.139812 0.665602
O O9 0.078407 0.681806 0.090888
O O10 0.031637 0.365888 0.564085
O O11 0.913814 0.462388 0.754914
O O12 0.676585 0.530832 0.751001
O O13 0.278771 0.490934 0.025553
O O14 0.500000 0.500000 0.000000
O O15 0.825682 0.960138 0.659488
#
# Coordination Sequence:
#
# PCOD9090946 Si02
#       7
#     2   2   2   2   2   2   2
#     4  10  19  39  62  83 120 160 190 240 300 356
#     4   9  20  41  64  86 117 155 194 241 298 356
#     4   9  20  37  60  86 116 159 187 245 296 354
#     4   8  21  38  59  80 120 153 192 240 298 351
#     4  11  22  32  59  86 118 154 205 247 279 347
#     4  10  20  38  54  86 116 158 199 237 292 341
#     4  11  20  38  60  86 119 156 201 239 299 344
#
# _framework density 23.854603999999998
#
# number of rings (size 3 to 8) (size 9 to 14) (size 15 to 20)
#    0.857    1.429    2.857    0.000    0.000    2.286 
#    5.143    2.857    0.000    0.000    0.000    0.000 
#    0.000    0.000    0.000    0.000    0.000    0.000 
#
# Total GULP energy -78129.333436 kJ/mol
# GULP energy per Si atom -5580.666674 kJ/mol
# Density = 2.380031 g / cm^3
# Si number density = 23.854604 Si / 1000 Ang^3
#
#
#
# Elastic Constant Matrix: (Units=GPa)
#
#
# Indices 1 2 3 4 5 6 
#
# 1 76.7286 21.3133 38.0896 -1.8535 31.4028 5.4241
# 2 21.3133 129.8952 49.3793 42.8314 25.3677 4.3537
# 3 38.0896 49.3793 146.8486 25.9369 36.1340 -4.8597
# 4 -1.8535 42.8314 25.9369 37.1062 -4.5181 2.6005
# 5 31.4028 25.3677 36.1340 -4.5181 51.3858 -0.5576
# 6 5.4241 4.3537 -4.8597 2.6005 -0.5576 20.1589
#
#
#
# Elastic Compliance Matrix: (Units=1/GPa)
#
#
# Indices 1 2 3 4 5 6 
#
# 1 0.019069 -0.001521 -0.003455 0.004584 -0.008140 -0.006452
# 2 -0.001521 0.016302 0.000900 -0.020653 -0.009572 -0.000495
# 3 -0.003455 0.000900 0.011041 -0.010089 -0.006935 0.004506
# 4 0.004584 -0.020653 -0.010089 0.060935 0.019775 -0.006519
# 5 -0.008140 -0.009572 -0.006935 0.019775 0.035787 0.001025
# 6 -0.006452 -0.000495 0.004506 -0.006519 0.001025 0.053404
#
#
# Mechanical properties :
#
#
# Convention : Reuss Voigt Hill
#
# Bulk Modulus (GPa) = 26.13776 63.44854 44.79315
# Shear Modulus (GPa) = 22.99440 38.04283 30.51861
#
# Velocity S-wave (km/s) = 3.10811 3.99780 3.58069
# Velocity P-wave (km/s) = 4.88481 6.92572 5.99279
#
# Compressibility (1/GPa) = 0.03825882
#
# Stress axis : x y z
#
# Youngs Moduli (GPa) = 52.44166 61.34102 90.57385
#
# Poissons Ratio (x) = 0.09332 0.31292
# Poissons Ratio (y) = 0.07978 -0.08148
# Poissons Ratio (z) = 0.18118 -0.05518
#
# Static dielectric constant tensor:
#      x y z
#    x 1.579380 -0.105560 0.636840 
#    y -0.105560 1.928920 0.105520 
#    z 0.636840 0.105520 0.933520 
# 
# From -- ./inp_files/528474.got.cif
#   From: 2010.05.17/outbox.cif.g08.bks.cpg/sg2_265_cif.got.tgz:528474.got - 2010.06.03 11:33:40.
