data_PCOD9090979
_publ_section_title
;
Structure prediction by ZEFSAII (Michael W. Deem and Ramdas Pophale) SiO2 
 PCOD9090979
Probable space group: P -1
;
_chemical_formula_sum "Si O2"
_cell_formula_units_Z 16
_cell_length_a 23.243397
_cell_length_b 9.140810
_cell_length_c 8.722097
_cell_angle_alpha 114.810532
_cell_angle_beta 29.814058
_cell_angle_gamma 119.206010
_cell_volume 804.189961
_symmetry_space_group_name_H-M "P -1"
_symmetry_group_IT_number 2
_symmetry_cell_setting 'triclinic'
loop_
_space_group_symop_operation_xyz
x,y,z
-x,-y,-z
loop_
_atom_site_type_symbol
_atom_site_label
_atom_site_fract_x
_atom_site_fract_y
_atom_site_fract_z
Si Si1 0.420582 0.616013 0.309153
Si Si2 0.954025 0.850550 0.665140
Si Si3 0.469860 0.509890 0.746423
Si Si4 0.847042 0.591506 0.246084
Si Si5 0.923525 0.282812 0.412886
Si Si6 0.832407 0.935840 0.295814
Si Si7 0.189588 0.457492 0.344340
Si Si8 0.448876 0.141311 0.115108
O O1 0.460195 0.609609 0.387144
O O2 0.280755 0.534408 0.563255
O O3 0.500000 0.500000 0.000000
O O4 0.476692 0.793440 0.182066
O O5 0.868240 0.698858 0.700592
O O6 0.052073 0.775668 0.497514
O O7 0.885178 0.908538 0.994306
O O8 0.000000 0.000000 0.500000
O O9 0.500000 0.500000 0.500000
O O10 0.522989 0.696774 0.769517
O O11 0.326269 0.463358 0.074511
O O12 0.836744 0.780379 0.327079
O O13 0.872186 0.559892 0.351563
O O14 0.954010 0.589047 0.880399
O O15 0.823565 0.378353 0.644670
O O16 0.898813 0.113599 0.294277
O O17 0.692677 0.924075 0.604723
O O18 0.500000 0.000000 0.000000
#
# Coordination Sequence:
#
# PCOD9090979 Si02
#       8
#     2   2   2   2   2   2   2   2
#     4  10  19  39  62  89 116 166 203 248 293 367
#     4  11  24  42  59  87 126 164 206 242 304 369
#     4  11  22  39  63  92 121 161 207 240 305 369
#     4  11  20  39  65  87 122 158 213 243 297 374
#     4  11  25  39  62  95 123 159 204 257 307 353
#     4  11  21  40  64  87 120 163 205 249 294 368
#     4  12  22  39  62  92 124 157 197 261 311 350
#     4  11  21  39  62  93 122 153 205 257 302 348
#
# _framework density 19.895799
#
# number of rings (size 3 to 8) (size 9 to 14) (size 15 to 20)
#    0.000    1.000    5.000    5.250    1.750    0.000 
#    0.000    0.625    0.000    0.000    0.000    0.000 
#    0.000    0.000    0.000    0.000    0.000    0.000 
#
# Total GULP energy -89260.719066 kJ/mol
# GULP energy per Si atom -5578.794942 kJ/mol
# Density = 1.985052 g / cm^3
# Si number density = 19.895799 Si / 1000 Ang^3
#
#
#
# Elastic Constant Matrix: (Units=GPa)
#
#
# Indices 1 2 3 4 5 6 
#
# 1 153.5281 46.4264 41.4277 -19.3415 4.0691 -15.5738
# 2 46.4264 31.9155 42.2579 -10.4670 -7.4888 -41.9311
# 3 41.4277 42.2579 53.0162 -23.9937 -1.8853 8.5759
# 4 -19.3415 -10.4670 -23.9937 19.6197 -3.4147 4.3940
# 5 4.0691 -7.4888 -1.8853 -3.4147 41.1822 -10.3805
# 6 -15.5738 -41.9311 8.5759 4.3940 -10.3805 27.5452
#
#
#
# Elastic Compliance Matrix: (Units=1/GPa)
#
#
# Indices 1 2 3 4 5 6 
#
# 1 0.009069 -0.002489 -0.005541 0.000070 -0.000914 0.002708
# 2 -0.002489 -0.004354 0.016833 0.019242 -0.002541 -0.017304
# 3 -0.005541 0.016833 0.018120 0.023712 0.010716 0.017106
# 4 0.000070 0.019242 0.023712 0.089983 0.015417 0.013405
# 5 -0.000914 -0.002541 0.010716 0.015417 0.025539 -0.000557
# 6 0.002708 -0.017304 0.017106 0.013405 -0.000557 0.003820
#
#
# Mechanical properties :
#
#
# Convention : Reuss Voigt Hill
#
# Bulk Modulus (GPa) = 24.72795 55.40929 40.06862
# Shear Modulus (GPa) = 36.21814 24.89262 30.55538
#
# Velocity S-wave (km/s) = 4.27123 3.54100 3.92314
# Velocity P-wave (km/s) = 6.06468 6.68045 6.38000
#
# Compressibility (1/GPa) = 0.04044008
#
# Stress axis : x y z
#
# Youngs Moduli (GPa) = 110.26226 -229.64942 55.18638
#
# Poissons Ratio (x) = -0.57167 0.30581
# Poissons Ratio (y) = 0.27448 -0.92896
# Poissons Ratio (z) = 0.61102 3.86574
#
# Static dielectric constant tensor:
#      x y z
#    x 1.721030 -0.024790 0.017840 
#    y -0.024790 1.681640 -0.005660 
#    z 0.017840 -0.005660 1.758940 
# 
# From -- ./inp_files/240511.got.cif
#   From: 2010.05.17/outbox.cif.g08.bks.cpg/sg2_121_cif.got.tgz:240511.got - 2010.06.03 11:33:40.
