data_PCOD9090767
_publ_section_title
;
Structure prediction by ZEFSAII (Michael W. Deem and Ramdas Pophale) SiO2 
 PCOD9090767
Probable space group: P -1
;
_chemical_formula_sum "Si O2"
_cell_formula_units_Z 14
_cell_length_a 10.767398
_cell_length_b 11.269395
_cell_length_c 13.039314
_cell_angle_alpha 77.243613
_cell_angle_beta 55.028110
_cell_angle_gamma 123.007725
_cell_volume 686.165584
_symmetry_space_group_name_H-M "P -1"
_symmetry_group_IT_number 2
_symmetry_cell_setting 'triclinic'
loop_
_space_group_symop_operation_xyz
x,y,z
-x,-y,-z
loop_
_atom_site_type_symbol
_atom_site_label
_atom_site_fract_x
_atom_site_fract_y
_atom_site_fract_z
Si Si1 0.188948 0.536080 0.341630
Si Si2 0.695864 0.665713 0.634913
Si Si3 0.789047 0.912195 0.971132
Si Si4 0.826088 0.834277 0.746372
Si Si5 0.805408 0.251989 0.167080
Si Si6 0.854453 0.718609 0.122458
Si Si7 0.160719 0.809814 0.601804
O O1 0.230620 0.426972 0.386079
O O2 0.506033 0.796251 0.144856
O O3 0.000000 0.500000 0.500000
O O4 0.036790 0.410642 0.329770
O O5 0.609445 0.650446 0.794434
O O6 0.458133 0.543781 0.690523
O O7 0.981206 0.926988 0.429785
O O8 0.827960 0.820991 0.043576
O O9 0.738158 0.822186 0.900652
O O10 0.044893 0.170914 0.834170
O O11 0.016416 0.843873 0.667107
O O12 0.831975 0.236365 0.277780
O O13 0.466561 0.032835 0.361625
O O14 0.000000 0.500000 0.000000
O O15 0.926939 0.225195 0.044275
#
# Coordination Sequence:
#
# PCOD9090767 Si02
#       7
#     2   2   2   2   2   2   2
#     4  10  21  40  57  82 116 154 191 239 296 349
#     4   9  21  35  62  84 115 152 191 246 283 343
#     4  10  21  35  62  82 113 152 190 239 289 346
#     4  10  19  39  58  88 112 150 201 234 289 347
#     4  11  22  38  59  88 119 154 197 240 291 355
#     4  10  20  37  56  86 113 152 191 239 288 340
#     4  10  22  38  61  84 117 161 191 242 295 341
#
# _framework density 20.403238999999999
#
# number of rings (size 3 to 8) (size 9 to 14) (size 15 to 20)
#    0.000    2.000    1.429    1.714    2.000    2.286 
#    2.571    0.714    0.000    0.000    0.000    0.000 
#    0.000    0.000    0.000    0.000    0.000    0.000 
#
# Total GULP energy -78003.786202 kJ/mol
# GULP energy per Si atom -5571.699014 kJ/mol
# Density = 2.035680 g / cm^3
# Si number density = 20.403239 Si / 1000 Ang^3
#
#
#
# Elastic Constant Matrix: (Units=GPa)
#
#
# Indices 1 2 3 4 5 6 
#
# 1 33.6543 25.8032 15.4221 0.6406 -12.9484 5.5553
# 2 25.8032 114.7819 26.3042 1.1138 -16.2121 9.0244
# 3 15.4221 26.3042 48.3277 2.7694 -16.1062 -3.0674
# 4 0.6406 1.1138 2.7694 36.4224 -6.8497 -10.6297
# 5 -12.9484 -16.2121 -16.1062 -6.8497 34.0352 -0.3677
# 6 5.5553 9.0244 -3.0674 -10.6297 -0.3677 13.2496
#
#
#
# Elastic Compliance Matrix: (Units=1/GPa)
#
#
# Indices 1 2 3 4 5 6 
#
# 1 0.044975 -0.004905 -0.009746 -0.004320 0.009066 -0.020987
# 2 -0.004905 0.011817 -0.005037 -0.002381 0.000802 -0.009046
# 3 -0.009746 -0.005037 0.030694 0.005440 0.009721 0.019257
# 4 -0.004320 -0.002381 0.005440 0.039370 0.008114 0.036503
# 5 0.009066 0.000802 0.009721 0.008114 0.039505 0.005509
# 6 -0.020987 -0.009046 0.019257 0.036503 0.005509 0.124331
#
#
# Mechanical properties :
#
#
# Convention : Reuss Voigt Hill
#
# Bulk Modulus (GPa) = 20.78535 36.86923 28.82729
# Shear Modulus (GPa) = 14.44657 25.35706 19.90182
#
# Velocity S-wave (km/s) = 2.66381 3.52916 3.12657
# Velocity P-wave (km/s) = 4.43515 5.89204 5.21472
#
# Compressibility (1/GPa) = 0.04811080
#
# Stress axis : x y z
#
# Youngs Moduli (GPa) = 22.23465 84.62611 32.57987
#
# Poissons Ratio (x) = 0.41505 0.31752
# Poissons Ratio (y) = 0.10905 0.16410
# Poissons Ratio (z) = 0.21669 0.42626
#
# Static dielectric constant tensor:
#      x y z
#    x 1.723770 0.046520 0.029410 
#    y 0.046520 1.818790 -0.017510 
#    z 0.029410 -0.017510 1.812380 
# 
# From -- ./inp_files/276490.got.cif
#   From: 2010.05.17/outbox.cif.g08.bks.cpg/sg2_139_cif.got.tgz:276490.got - 2010.06.03 11:33:40.
