data_PCOD9090772
_publ_section_title
;
Structure prediction by ZEFSAII (Michael W. Deem and Ramdas Pophale) SiO2 
 PCOD9090772
Probable space group: P -1
;
_chemical_formula_sum "Si O2"
_cell_formula_units_Z 16
_cell_length_a 18.635698
_cell_length_b 7.069633
_cell_length_c 10.524968
_cell_angle_alpha 57.504759
_cell_angle_beta 59.792394
_cell_angle_gamma 35.285100
_cell_volume 669.614916
_symmetry_space_group_name_H-M "P -1"
_symmetry_group_IT_number 2
_symmetry_cell_setting 'triclinic'
loop_
_space_group_symop_operation_xyz
x,y,z
-x,-y,-z
loop_
_atom_site_type_symbol
_atom_site_label
_atom_site_fract_x
_atom_site_fract_y
_atom_site_fract_z
Si Si1 0.447778 0.669025 0.622853
Si Si2 0.239207 0.712558 0.097817
Si Si3 0.717133 0.909080 0.016988
Si Si4 0.609615 0.714874 0.100450
Si Si5 0.716622 0.121307 0.662801
Si Si6 0.240604 0.335929 0.433866
Si Si7 0.972220 0.152698 0.111063
Si Si8 0.035395 0.181137 0.535117
O O1 0.500000 0.500000 0.500000
O O2 0.403565 0.511281 0.761796
O O3 0.572937 0.496730 0.646233
O O4 0.333975 0.073963 0.558055
O O5 0.272814 0.495992 0.268531
O O6 0.313457 0.795040 0.995643
O O7 0.268969 0.520563 0.011966
O O8 0.090890 0.044733 0.102191
O O9 0.726813 0.970041 0.840453
O O10 0.623619 0.889302 0.123657
O O11 0.850821 0.551089 0.071196
O O12 0.500000 0.000000 0.000000
O O13 0.738642 0.898830 0.608574
O O14 0.831371 0.063886 0.566014
O O15 0.092008 0.636263 0.490556
O O16 0.950728 0.996844 0.287189
O O17 0.000000 0.000000 0.000000
O O18 0.000000 0.500000 0.500000
#
# Coordination Sequence:
#
# PCOD9090772 Si02
#       8
#     2   2   2   2   2   2   2   2
#     4  10  21  36  66  92 122 166 219 260 318 384
#     4  11  24  43  64  98 132 163 218 264 321 386
#     4  12  24  40  67  96 131 169 211 269 322 382
#     4  12  23  43  67  92 127 174 216 261 325 381
#     4  10  19  39  58  92 125 167 213 262 319 381
#     4   9  18  39  61  90 124 168 210 267 313 381
#     4  11  21  40  67  97 128 169 212 268 322 384
#     4   9  19  32  61  93 121 164 219 254 320 382
#
# _framework density 23.89433
#
# number of rings (size 3 to 8) (size 9 to 14) (size 15 to 20)
#    0.000    1.500    3.750    2.625    5.250    1.500 
#    0.000    4.375    0.000    0.000    0.000    0.000 
#    0.000    0.000    0.000    0.000    0.000    0.000 
#
# Total GULP energy -89384.575036 kJ/mol
# GULP energy per Si atom -5586.535940 kJ/mol
# Density = 2.383995 g / cm^3
# Si number density = 23.894330 Si / 1000 Ang^3
#
#
#
# Elastic Constant Matrix: (Units=GPa)
#
#
# Indices 1 2 3 4 5 6 
#
# 1 94.9490 41.8054 40.0612 -11.6480 -27.2467 -9.3872
# 2 41.8054 111.4535 64.6904 -34.9069 -8.1617 -36.6876
# 3 40.0612 64.6904 132.1755 -19.9097 -13.3907 -20.3920
# 4 -11.6480 -34.9069 -19.9097 42.1295 -2.2401 10.8309
# 5 -27.2467 -8.1617 -13.3907 -2.2401 28.7560 -0.9761
# 6 -9.3872 -36.6876 -20.3920 10.8309 -0.9761 38.6508
#
#
#
# Elastic Compliance Matrix: (Units=1/GPa)
#
#
# Indices 1 2 3 4 5 6 
#
# 1 0.017401 -0.004347 -0.001567 0.001442 0.014611 -0.000761
# 2 -0.004347 0.021708 -0.005507 0.010711 0.000776 0.013662
# 3 -0.001567 -0.005507 0.011020 0.000277 0.002112 0.000182
# 4 0.001442 0.010711 0.000277 0.033120 0.007168 0.001563
# 5 0.014611 0.000776 0.002112 0.007168 0.050540 0.004667
# 6 -0.000761 0.013662 0.000182 0.001563 0.004667 0.038432
#
#
# Mechanical properties :
#
#
# Convention : Reuss Voigt Hill
#
# Bulk Modulus (GPa) = 36.64687 70.18800 53.41744
# Shear Modulus (GPa) = 24.49082 34.70866 29.59974
#
# Velocity S-wave (km/s) = 3.20498 3.81542 3.52344
# Velocity P-wave (km/s) = 5.39131 6.98914 6.24156
#
# Compressibility (1/GPa) = 0.02728746
#
# Stress axis : x y z
#
# Youngs Moduli (GPa) = 57.46690 46.06568 90.74713
#
# Poissons Ratio (x) = 0.20024 0.14218
# Poissons Ratio (y) = 0.24980 0.49976
# Poissons Ratio (z) = 0.09004 0.25369
#
# Static dielectric constant tensor:
#      x y z
#    x 1.945580 0.035820 -0.003580 
#    y 0.035820 1.694380 -0.054160 
#    z -0.003580 -0.054160 1.885400 
# 
# From -- ./inp_files/469841.got.cif
#   From: 2010.05.17/outbox.cif.g08.bks.cpg/sg2_235_cif.got.tgz:469841.got - 2010.06.03 11:33:40.
