data_PCOD9090816
_publ_section_title
;
Structure prediction by ZEFSAII (Michael W. Deem and Ramdas Pophale) SiO2 
 PCOD9090816
Probable space group: P -1
;
_chemical_formula_sum "Si O2"
_cell_formula_units_Z 16
_cell_length_a 12.086649
_cell_length_b 19.078342
_cell_length_c 27.957736
_cell_angle_alpha 17.669721
_cell_angle_beta 149.223589
_cell_angle_gamma 150.430638
_cell_volume 945.484534
_symmetry_space_group_name_H-M "P -1"
_symmetry_group_IT_number 2
_symmetry_cell_setting 'triclinic'
loop_
_space_group_symop_operation_xyz
x,y,z
-x,-y,-z
loop_
_atom_site_type_symbol
_atom_site_label
_atom_site_fract_x
_atom_site_fract_y
_atom_site_fract_z
Si Si1 0.167398 0.981360 0.180828
Si Si2 0.281223 0.781217 0.000003
Si Si3 0.874668 0.550230 0.180995
Si Si4 0.775127 0.160692 0.948261
Si Si5 0.475902 0.047212 0.343512
Si Si6 0.881151 0.966823 0.696606
Si Si7 0.424591 0.338908 0.303402
Si Si8 0.063884 0.492586 0.656477
O O1 0.358981 0.998536 0.280039
O O2 0.102190 0.741742 0.280044
O O3 0.226597 0.228030 0.010624
O O4 0.936428 0.988195 0.117960
O O5 0.520983 0.003078 0.940780
O O6 0.230406 0.748301 0.059222
O O7 0.316319 0.542606 0.145756
O O8 0.078201 0.851902 0.854253
O O9 0.940519 0.544851 0.264027
O O10 0.096346 0.625692 0.179818
O O11 0.690374 0.294724 0.264013
O O12 0.288155 0.075430 0.293364
O O13 0.546752 0.822391 0.536162
O O14 0.981683 0.257309 0.536174
O O15 0.728697 0.842680 0.675165
O O16 0.676563 0.463823 0.293376
#
# Coordination Sequence:
#
# PCOD9090816 Si02
#       8
#     2   2   2   2   2   2   2   2
#     4  10  21  33  59  91 109 151 188 235 288 333
#     4  11  21  40  56  84 117 153 198 224 292 344
#     4  10  19  39  60  83 123 147 191 233 295 335
#     4   9  22  36  60  81 114 160 181 241 277 344
#     4  11  20  37  61  90 116 144 196 243 287 330
#     4  11  21  36  61  86 115 153 188 246 283 336
#     4  11  21  36  61  86 115 153 188 246 283 336
#     4  11  20  37  61  90 116 144 196 243 287 330
#
# _framework density 16.922540000000001
#
# number of rings (size 3 to 8) (size 9 to 14) (size 15 to 20)
#    0.750    0.750    5.000    1.875    0.000    4.000 
#    0.000    1.250    2.750    0.000    0.000    0.000 
#    0.000    0.000    0.000    0.000    0.000    0.000 
#
# Total GULP energy -89229.413855 kJ/mol
# GULP energy per Si atom -5576.838366 kJ/mol
# Density = 1.688402 g / cm^3
# Si number density = 16.922540 Si / 1000 Ang^3
#
#
#
# Elastic Constant Matrix: (Units=GPa)
#
#
# Indices 1 2 3 4 5 6 
#
# 1 76.2805 47.7428 46.7863 -12.4331 -15.7694 5.6638
# 2 47.7428 86.5783 30.7499 2.0331 -14.8328 -10.0775
# 3 46.7863 30.7499 98.4747 -1.2355 4.2426 8.8064
# 4 -12.4331 2.0331 -1.2355 0.8238 12.7532 2.1062
# 5 -15.7694 -14.8328 4.2426 12.7532 26.3085 -5.6760
# 6 5.6638 -10.0775 8.8064 2.1062 -5.6760 18.1346
#
#
#
# Elastic Compliance Matrix: (Units=1/GPa)
#
#
# Indices 1 2 3 4 5 6 
#
# 1 0.025146 -0.004294 -0.012349 -0.017412 0.024242 0.005367
# 2 -0.004294 0.012591 -0.001415 0.029039 -0.008691 0.002933
# 3 -0.012349 -0.001415 0.017349 -0.008418 -0.008430 -0.007015
# 4 -0.017412 0.029039 -0.008418 -0.070402 0.052250 0.050194
# 5 0.024242 -0.008691 -0.008430 0.052250 0.022060 -0.007470
# 6 0.005367 0.002933 -0.007015 0.050194 -0.007470 0.050336
#
#
# Mechanical properties :
#
#
# Convention : Reuss Voigt Hill
#
# Bulk Modulus (GPa) = 52.71511 56.87682 54.79597
# Shear Modulus (GPa) = 50.24059 18.12367 34.18213
#
# Velocity S-wave (km/s) = 5.45463 3.27613 4.49922
# Velocity P-wave (km/s) = 8.41957 6.92775 7.70983
#
# Compressibility (1/GPa) = 0.01896989
#
# Stress axis : x y z
#
# Youngs Moduli (GPa) = 39.76702 79.41995 57.64025
#
# Poissons Ratio (x) = 0.34103 0.71181
# Poissons Ratio (y) = 0.17076 0.08157
# Poissons Ratio (z) = 0.49109 0.11239
#
# Static dielectric constant tensor:
#      x y z
#    x 1.558950 0.005270 -0.002790 
#    y 0.005270 1.548980 -0.001680 
#    z -0.002790 -0.001680 1.560130 
# 
# From -- ./inp_files/279286.got.cif
#   From: 2010.05.17/outbox.cif.g08.bks.cpg/sg2_140_cif.got.tgz:279286.got - 2010.06.03 11:33:40.
