data_PCOD9090931
_publ_section_title
;
Structure prediction by ZEFSAII (Michael W. Deem and Ramdas Pophale) SiO2 
 PCOD9090931
Probable space group: P -1
;
_chemical_formula_sum "Si O2"
_cell_formula_units_Z 14
_cell_length_a 8.645223
_cell_length_b 7.753135
_cell_length_c 9.476301
_cell_angle_alpha 69.810202
_cell_angle_beta 80.775990
_cell_angle_gamma 67.772645
_cell_volume 551.522135
_symmetry_space_group_name_H-M "P -1"
_symmetry_group_IT_number 2
_symmetry_cell_setting 'triclinic'
loop_
_space_group_symop_operation_xyz
x,y,z
-x,-y,-z
loop_
_atom_site_type_symbol
_atom_site_label
_atom_site_fract_x
_atom_site_fract_y
_atom_site_fract_z
Si Si1 0.788528 0.802433 0.217368
Si Si2 0.190777 0.766078 0.635309
Si Si3 0.324707 0.728240 0.918597
Si Si4 0.656789 0.570607 0.485302
Si Si5 0.173843 0.650005 0.233113
Si Si6 0.807426 0.991809 0.689014
Si Si7 0.625656 0.801092 0.966264
O O1 0.655582 0.767776 0.355397
O O2 0.977713 0.700396 0.268771
O O3 0.756613 0.032278 0.139884
O O4 0.759340 0.718127 0.093971
O O5 0.314291 0.679963 0.770537
O O6 0.196347 0.593934 0.576295
O O7 0.004988 0.871622 0.689527
O O8 0.238583 0.920061 0.486056
O O9 0.507022 0.684458 0.971088
O O10 0.213537 0.653944 0.061800
O O11 0.500000 0.500000 0.500000
O O12 0.714324 0.542650 0.645596
O O13 0.220753 0.826222 0.250480
O O14 0.710139 0.860899 0.803265
O O15 0.500000 0.000000 0.000000
#
# Coordination Sequence:
#
# PCOD9090931 Si02
#       7
#     2   2   2   2   2   2   2
#     4  11  21  38  66  93 120 167 213 251 311 378
#     4  10  23  39  63  91 129 163 207 265 312 364
#     4  11  21  38  68  98 119 161 221 260 302 361
#     4  11  26  44  61  89 135 169 203 257 329 375
#     4  11  20  40  69  91 125 168 212 254 306 388
#     4  10  19  39  61  95 125 162 207 261 305 369
#     4  10  20  34  63  97 127 157 209 259 311 361
#
# _framework density 25.384295000000002
#
# number of rings (size 3 to 8) (size 9 to 14) (size 15 to 20)
#    0.000    1.429    4.286    2.571    6.000    0.571 
#    0.000    5.714    0.000    0.000    0.000    0.000 
#    0.000    0.000    0.000    0.000    0.000    0.000 
#
# Total GULP energy -78436.144210 kJ/mol
# GULP energy per Si atom -5602.581729 kJ/mol
# Density = 2.532652 g / cm^3
# Si number density = 25.384295 Si / 1000 Ang^3
#
#
#
# Elastic Constant Matrix: (Units=GPa)
#
#
# Indices 1 2 3 4 5 6 
#
# 1 100.5872 2.8950 57.6827 -8.9382 -3.6499 9.4634
# 2 2.8950 49.3015 14.3323 4.4708 -3.6058 4.6414
# 3 57.6827 14.3323 169.0870 -16.2827 -0.4200 8.2648
# 4 -8.9382 4.4708 -16.2827 33.4417 1.9339 -0.4025
# 5 -3.6499 -3.6058 -0.4200 1.9339 53.9857 -0.2292
# 6 9.4634 4.6414 8.2648 -0.4025 -0.2292 34.2649
#
#
#
# Elastic Compliance Matrix: (Units=1/GPa)
#
#
# Indices 1 2 3 4 5 6 
#
# 1 0.012673 0.000650 -0.004134 0.001209 0.000814 -0.002571
# 2 0.000650 0.021636 -0.002307 -0.003966 0.001602 -0.002590
# 3 -0.004134 -0.002307 0.007831 0.003040 -0.000483 -0.000402
# 4 0.001209 -0.003966 0.003040 0.032310 -0.001318 -0.000159
# 5 0.000814 0.001602 -0.000483 -0.001318 0.018728 -0.000215
# 6 -0.002571 -0.002590 -0.000402 -0.000159 -0.000215 0.030339
#
#
# Mechanical properties :
#
#
# Convention : Reuss Voigt Hill
#
# Bulk Modulus (GPa) = 32.72538 52.08841 42.40690
# Shear Modulus (GPa) = 34.41487 40.60951 37.51219
#
# Velocity S-wave (km/s) = 3.68605 4.00408 3.84835
# Velocity P-wave (km/s) = 5.57099 6.47621 6.04058
#
# Compressibility (1/GPa) = 0.03055732
#
# Stress axis : x y z
#
# Youngs Moduli (GPa) = 78.91098 46.21823 127.69592
#
# Poissons Ratio (x) = -0.03002 0.52790
# Poissons Ratio (y) = -0.05126 0.29459
# Poissons Ratio (z) = 0.32622 0.10662
#
# Static dielectric constant tensor:
#      x y z
#    x 1.949960 -0.008740 0.024650 
#    y -0.008740 2.099700 -0.056300 
#    z 0.024650 -0.056300 2.008980 
# 
# From -- ./inp_files/155985.got.cif
#   From: 2010.05.17/outbox.cif.g08.bks.cpg/sg2_78_cif.got.tgz:155985.got - 2010.06.03 11:33:40.
