data_PCOD9090100
_publ_section_title
;
Structure prediction by ZEFSAII (Michael W. Deem and Ramdas Pophale) SiO2 
 PCOD9090100
Probable space group: P -1
;
_chemical_formula_sum "Si O2"
_cell_formula_units_Z 16
_cell_length_a 20.700702
_cell_length_b 18.117907
_cell_length_c 11.913550
_cell_angle_alpha 37.120885
_cell_angle_beta 151.296666
_cell_angle_gamma 159.066017
_cell_volume 760.492567
_symmetry_space_group_name_H-M "P -1"
_symmetry_group_IT_number 2
_symmetry_cell_setting 'triclinic'
loop_
_space_group_symop_operation_xyz
x,y,z
-x,-y,-z
loop_
_atom_site_type_symbol
_atom_site_label
_atom_site_fract_x
_atom_site_fract_y
_atom_site_fract_z
Si Si1 0.647861 0.816328 0.145795
Si Si2 0.641786 0.477925 0.375645
Si Si3 0.064884 0.692322 0.359433
Si Si4 0.669538 0.525257 0.098606
Si Si5 0.965940 0.586871 0.087810
Si Si6 0.252473 0.711118 0.177520
Si Si7 0.840852 0.715731 0.609577
Si Si8 0.604201 0.148569 0.160363
O O1 0.664168 0.696791 0.377495
O O2 0.535154 0.707455 0.984977
O O3 0.498545 0.803953 0.999897
O O4 0.907575 0.054470 0.249984
O O5 0.709210 0.529920 0.284628
O O6 0.620092 0.323152 0.570317
O O7 0.825318 0.672030 0.506410
O O8 0.417823 0.399511 0.138569
O O9 0.299420 0.865698 0.574828
O O10 0.000000 0.500000 0.500000
O O11 0.885680 0.645018 0.209046
O O12 0.052129 0.706552 0.191059
O O13 0.818506 0.354971 0.164902
O O14 0.184153 0.720352 0.181452
O O15 0.804078 0.565197 0.804798
O O16 0.399332 0.916274 0.081663
O O17 0.000000 0.500000 0.000000
#
# Coordination Sequence:
#
# PCOD9090100 Si02
#       8
#     2   2   2   2   2   2   2   2
#     4  10  19  38  63  94 125 163 215 257 316 374
#     4  10  21  39  62  90 128 176 202 261 321 375
#     4  10  20  38  61  95 125 157 212 268 314 370
#     4  10  20  39  67  90 126 168 217 260 313 379
#     4  11  22  39  64  94 130 164 208 270 313 373
#     4  12  24  42  61  92 134 167 211 256 319 389
#     4  10  21  38  61  95 129 164 213 258 317 384
#     4  11  23  39  64  95 123 169 212 262 319 369
#
# _framework density 21.038996000000001
#
# number of rings (size 3 to 8) (size 9 to 14) (size 15 to 20)
#    0.000    1.500    5.000    1.500    0.000    2.500 
#    0.000    1.875    0.000    1.500    0.000    0.000 
#    0.000    0.000    0.000    0.000    0.000    0.000 
#
# Total GULP energy -89244.314692 kJ/mol
# GULP energy per Si atom -5577.769668 kJ/mol
# Density = 2.099111 g / cm^3
# Si number density = 21.038996 Si / 1000 Ang^3
#
#
#
# Elastic Constant Matrix: (Units=GPa)
#
#
# Indices 1 2 3 4 5 6 
#
# 1 90.9067 8.2026 40.5602 -3.0730 8.3007 -3.6666
# 2 8.2026 78.5286 24.9049 -1.8617 -0.8508 -2.0116
# 3 40.5602 24.9049 102.1262 -6.2693 -4.8026 -6.8281
# 4 -3.0730 -1.8617 -6.2693 34.2443 -8.9570 3.3703
# 5 8.3007 -0.8508 -4.8026 -8.9570 40.6928 -0.8528
# 6 -3.6666 -2.0116 -6.8281 3.3703 -0.8528 24.1107
#
#
#
# Elastic Compliance Matrix: (Units=1/GPa)
#
#
# Indices 1 2 3 4 5 6 
#
# 1 0.013878 0.000338 -0.005784 -0.000803 -0.003673 0.000483
# 2 0.000338 0.013812 -0.003493 0.000078 -0.000171 0.000198
# 3 -0.005784 -0.003493 0.013400 0.002359 0.003258 0.002409
# 4 -0.000803 0.000078 0.002359 0.031854 0.007379 -0.003639
# 5 -0.003673 -0.000171 0.003258 0.007379 0.027335 0.000285
# 6 0.000483 0.000198 0.002409 -0.003639 0.000285 0.042766
#
#
# Mechanical properties :
#
#
# Convention : Reuss Voigt Hill
#
# Bulk Modulus (GPa) = 43.07953 46.54412 44.81182
# Shear Modulus (GPa) = 29.64553 33.00249 31.32401
#
# Velocity S-wave (km/s) = 3.75784 3.96490 3.86275
# Velocity P-wave (km/s) = 6.27287 6.56745 6.42185
#
# Compressibility (1/GPa) = 0.02321288
#
# Stress axis : x y z
#
# Youngs Moduli (GPa) = 72.05549 72.40301 74.62769
#
# Poissons Ratio (x) = -0.02449 0.43165
# Poissons Ratio (y) = -0.02438 0.26064
# Poissons Ratio (z) = 0.41678 0.25287
#
# Static dielectric constant tensor:
#      x y z
#    x 1.771850 -0.039190 -0.029180 
#    y -0.039190 1.788180 0.010160 
#    z -0.029180 0.010160 1.803520 
# 
# From -- ./inp_files/472400.got.cif
#   From: 2010.05.17/outbox.cif.g08.bks.cpg/sg2_237_cif.got.tgz:472400.got - 2010.06.03 11:33:40.
