data_PCOD9090094
_publ_section_title
;
Structure prediction by ZEFSAII (Michael W. Deem and Ramdas Pophale) SiO2 
 PCOD9090094
Probable space group: P -1
;
_chemical_formula_sum "Si O2"
_cell_formula_units_Z 15
_cell_length_a 10.820668
_cell_length_b 13.258807
_cell_length_c 10.883249
_cell_angle_alpha 78.661365
_cell_angle_beta 111.322368
_cell_angle_gamma 40.422014
_cell_volume 585.727248
_symmetry_space_group_name_H-M "P -1"
_symmetry_group_IT_number 2
_symmetry_cell_setting 'triclinic'
loop_
_space_group_symop_operation_xyz
x,y,z
-x,-y,-z
loop_
_atom_site_type_symbol
_atom_site_label
_atom_site_fract_x
_atom_site_fract_y
_atom_site_fract_z
Si Si1 0.131604 0.665664 0.953224
Si Si2 0.671948 0.069973 0.041909
Si Si3 0.500000 0.500000 0.500000
Si Si4 0.059710 0.436938 0.391000
Si Si5 0.580216 0.340076 0.820530
Si Si6 0.760846 0.101005 0.308933
Si Si7 0.855098 0.848020 0.551203
Si Si8 0.867284 0.419230 0.769751
O O1 0.204221 0.727870 0.015337
O O2 0.471657 0.378955 0.097285
O O3 0.049611 0.646569 0.040217
O O4 0.893693 0.834994 0.712803
O O5 0.879251 0.964972 0.257763
O O6 0.290506 0.329351 0.858009
O O7 0.702932 0.137859 0.937314
O O8 0.823966 0.854353 0.115731
O O9 0.553414 0.379932 0.658578
O O10 0.588396 0.532473 0.621942
O O11 0.241055 0.200309 0.502445
O O12 0.000000 0.500000 0.500000
O O13 0.205982 0.426457 0.368560
O O14 0.215893 0.605650 0.680619
O O15 0.000000 0.000000 0.500000
O O16 0.653508 0.080713 0.358899
#
# Coordination Sequence:
#
# PCOD9090094 Si02
#       8
#     2   2   1   2   2   2   2   2
#     4  11  23  42  61 101 139 170 216 285 333 397
#     4  11  23  42  71  97 130 180 232 273 328 413
#     4  10  22  38  60  96 136 164 214 282 338 382
#     4  11  23  45  71  93 132 179 232 279 330 404
#     4  10  19  38  63  93 133 169 219 276 329 386
#     4  12  22  39  73 101 131 181 228 268 336 407
#     4  11  22  41  65  95 130 178 226 272 327 403
#     4  11  25  42  64  99 136 176 218 287 341 391
#
# _framework density 25.609189000000001
#
# number of rings (size 3 to 8) (size 9 to 14) (size 15 to 20)
#    0.000    1.067    4.000    4.800    1.867    2.667 
#    7.200    0.667    0.000    0.000    0.000    0.000 
#    0.000    0.000    0.000    0.000    0.000    0.000 
#
# Total GULP energy -83800.093048 kJ/mol
# GULP energy per Si atom -5586.672870 kJ/mol
# Density = 2.555090 g / cm^3
# Si number density = 25.609189 Si / 1000 Ang^3
#
#
#
# Elastic Constant Matrix: (Units=GPa)
#
#
# Indices 1 2 3 4 5 6 
#
# 1 117.5818 15.6837 35.6316 5.2060 -36.9316 20.1847
# 2 15.6837 48.1931 16.4322 0.8848 -10.4139 11.8939
# 3 35.6316 16.4322 103.7429 16.5245 -26.7111 -1.9946
# 4 5.2060 0.8848 16.5245 51.3128 -12.7782 -11.6479
# 5 -36.9316 -10.4139 -26.7111 -12.7782 54.8398 -4.7731
# 6 20.1847 11.8939 -1.9946 -11.6479 -4.7731 42.1462
#
#
#
# Elastic Compliance Matrix: (Units=1/GPa)
#
#
# Indices 1 2 3 4 5 6 
#
# 1 0.012257 -0.000448 -0.002576 0.000045 0.006480 -0.005119
# 2 -0.000448 0.024063 -0.003203 -0.000319 0.002061 -0.006583
# 3 -0.002576 -0.003203 0.012297 -0.002250 0.003337 0.002476
# 4 0.000045 -0.000319 -0.002250 0.022971 0.004823 0.006857
# 5 0.006480 0.002061 0.003337 0.004823 0.025803 0.000728
# 6 -0.005119 -0.006583 0.002476 0.006857 0.000728 0.030131
#
#
# Mechanical properties :
#
#
# Convention : Reuss Voigt Hill
#
# Bulk Modulus (GPa) = 27.65209 45.00143 36.32676
# Shear Modulus (GPa) = 32.88812 43.11112 37.99962
#
# Velocity S-wave (km/s) = 3.58751 4.10741 3.85623
# Velocity P-wave (km/s) = 5.28975 6.33284 5.83465
#
# Compressibility (1/GPa) = 0.03616363
#
# Stress axis : x y z
#
# Youngs Moduli (GPa) = 81.58491 41.55689 81.32285
#
# Poissons Ratio (x) = 0.01861 0.20951
# Poissons Ratio (y) = 0.03653 0.26046
# Poissons Ratio (z) = 0.21018 0.13310
#
# Static dielectric constant tensor:
#      x y z
#    x 2.092950 -0.173080 0.098520 
#    y -0.173080 2.187570 -0.095830 
#    z 0.098520 -0.095830 1.994150 
# 
# From -- ./inp_files/428217.got.cif
#   From: 2010.05.17/outbox.cif.g08.bks.cpg/sg2_215_cif.got.tgz:428217.got - 2010.06.03 11:33:40.
