data_PCOD9090130
_publ_section_title
;
Structure prediction by ZEFSAII (Michael W. Deem and Ramdas Pophale) SiO2 
 PCOD9090130
Probable space group: P -1
;
_chemical_formula_sum "Si O2"
_cell_formula_units_Z 16
_cell_length_a 17.079265
_cell_length_b 13.607743
_cell_length_c 6.896670
_cell_angle_alpha 104.353297
_cell_angle_beta 101.376672
_cell_angle_gamma 143.361433
_cell_volume 674.889127
_symmetry_space_group_name_H-M "P -1"
_symmetry_group_IT_number 2
_symmetry_cell_setting 'triclinic'
loop_
_space_group_symop_operation_xyz
x,y,z
-x,-y,-z
loop_
_atom_site_type_symbol
_atom_site_label
_atom_site_fract_x
_atom_site_fract_y
_atom_site_fract_z
Si Si1 0.668123 0.239086 0.310167
Si Si2 0.093917 0.837773 0.182483
Si Si3 0.701001 0.077574 0.395604
Si Si4 0.955151 0.277567 0.332399
Si Si5 0.422421 0.653987 0.817716
Si Si6 0.958660 0.849386 0.652789
Si Si7 0.456097 0.336090 0.455653
Si Si8 0.162098 0.281678 0.016807
O O1 0.689191 0.184584 0.471553
O O2 0.626769 0.310983 0.340591
O O3 0.853418 0.456459 0.387356
O O4 0.500000 0.000000 0.000000
O O5 0.173868 0.841525 0.358738
O O6 0.927946 0.718637 0.111764
O O7 0.265809 0.106357 0.355255
O O8 0.042683 0.728076 0.900544
O O9 0.800243 0.171927 0.284712
O O10 0.512614 0.807694 0.124509
O O11 0.945724 0.149979 0.337485
O O12 0.241585 0.386823 0.650218
O O13 0.548615 0.727489 0.784026
O O14 0.913219 0.801301 0.837738
O O15 0.077213 0.083172 0.785376
O O16 0.500000 0.500000 0.500000
O O17 0.623897 0.485949 0.737730
#
# Coordination Sequence:
#
# PCOD9090130 Si02
#       8
#     2   2   2   2   2   2   2   2
#     4   9  20  39  64  89 117 161 202 248 304 361
#     4  11  23  39  60  92 125 157 204 255 295 361
#     4  11  22  38  60  90 121 156 204 249 304 359
#     4  10  19  38  64  81 120 158 197 246 307 355
#     4   9  18  36  62  83 119 158 200 246 305 358
#     4   8  15  32  59  80 109 160 191 244 296 352
#     4  11  20  37  67  89 119 167 204 245 307 362
#     4   9  18  34  55  89 120 149 204 245 295 356
#
# _framework density 23.707598999999998
#
# number of rings (size 3 to 8) (size 9 to 14) (size 15 to 20)
#    0.000    2.250    1.250    4.125    0.000    0.500 
#    6.750    3.750    0.000    0.000    0.000    0.000 
#    0.000    0.000    0.000    0.000    0.000    0.000 
#
# Total GULP energy -89330.493900 kJ/mol
# GULP energy per Si atom -5583.155869 kJ/mol
# Density = 2.365364 g / cm^3
# Si number density = 23.707599 Si / 1000 Ang^3
#
#
#
# Elastic Constant Matrix: (Units=GPa)
#
#
# Indices 1 2 3 4 5 6 
#
# 1 60.3806 27.4188 16.5676 -2.1630 11.8536 -12.9488
# 2 27.4188 63.9644 29.1947 1.4064 0.0951 -21.4936
# 3 16.5676 29.1947 107.0383 10.1612 23.4066 -1.1822
# 4 -2.1630 1.4064 10.1612 42.1389 -3.7439 9.5920
# 5 11.8536 0.0951 23.4066 -3.7439 38.3092 2.0786
# 6 -12.9488 -21.4936 -1.1822 9.5920 2.0786 27.6287
#
#
#
# Elastic Compliance Matrix: (Units=1/GPa)
#
#
# Indices 1 2 3 4 5 6 
#
# 1 0.022734 -0.008285 0.000515 -0.000493 -0.007647 0.004978
# 2 -0.008285 0.029042 -0.007313 -0.003505 0.005576 0.019194
# 3 0.000515 -0.007313 0.013342 -0.002961 -0.008408 -0.003216
# 4 -0.000493 -0.003505 -0.002961 0.028029 0.005427 -0.013224
# 5 -0.007647 0.005576 -0.008408 0.005427 0.034344 -0.004074
# 6 0.004978 0.019194 -0.003216 -0.013224 -0.004074 0.058219
#
#
# Mechanical properties :
#
#
# Convention : Reuss Voigt Hill
#
# Bulk Modulus (GPa) = 28.61249 41.97174 35.29212
# Shear Modulus (GPa) = 21.97557 32.16218 27.06888
#
# Velocity S-wave (km/s) = 3.04788 3.68723 3.38269
# Velocity P-wave (km/s) = 4.94784 5.98915 5.49323
#
# Compressibility (1/GPa) = 0.03494977
#
# Stress axis : x y z
#
# Youngs Moduli (GPa) = 43.98785 34.43342 74.95349
#
# Poissons Ratio (x) = 0.28528 -0.03859
# Poissons Ratio (y) = 0.36444 0.54816
# Poissons Ratio (z) = -0.02265 0.25182
#
# Static dielectric constant tensor:
#      x y z
#    x 1.879080 -0.016090 0.014730 
#    y -0.016090 1.937860 -0.044370 
#    z 0.014730 -0.044370 1.971200 
# 
# From -- ./inp_files/332204.got.cif
#   From: 2010.05.17/outbox.cif.g08.bks.cpg/sg2_167_cif.got.tgz:332204.got - 2010.06.03 11:33:40.
