data_PCOD9090417
_publ_section_title
;
Structure prediction by ZEFSAII (Michael W. Deem and Ramdas Pophale) SiO2 
 PCOD9090417
Probable space group: P -1
;
_chemical_formula_sum "Si O2"
_cell_formula_units_Z 16
_cell_length_a 9.192408
_cell_length_b 10.406446
_cell_length_c 7.573557
_cell_angle_alpha 117.298343
_cell_angle_beta 69.863595
_cell_angle_gamma 92.413879
_cell_volume 598.603635
_symmetry_space_group_name_H-M "P -1"
_symmetry_group_IT_number 2
_symmetry_cell_setting 'triclinic'
loop_
_space_group_symop_operation_xyz
x,y,z
-x,-y,-z
loop_
_atom_site_type_symbol
_atom_site_label
_atom_site_fract_x
_atom_site_fract_y
_atom_site_fract_z
Si Si1 0.131419 0.866409 0.313374
Si Si2 0.660992 0.390187 0.495237
Si Si3 0.337532 0.271698 0.205014
Si Si4 0.098282 0.296702 0.864754
Si Si5 0.402226 0.384156 0.870467
Si Si6 0.319958 0.987682 0.599390
Si Si7 0.652907 0.147492 0.116295
Si Si8 0.001953 0.335094 0.333014
O O1 0.264717 0.878054 0.409019
O O2 0.038164 0.726378 0.232883
O O3 0.220454 0.892189 0.111175
O O4 0.000000 0.000000 0.500000
O O5 0.659498 0.563615 0.617690
O O6 0.697480 0.060377 0.221348
O O7 0.000000 0.500000 0.500000
O O8 0.654528 0.321249 0.262084
O O9 0.469495 0.152688 0.153174
O O10 0.159139 0.243367 0.285225
O O11 0.375900 0.284343 0.988563
O O12 0.225764 0.411077 0.878141
O O13 0.212011 0.142313 0.712372
O O14 0.020223 0.320084 0.104887
O O15 0.516793 0.341265 0.632223
O O16 0.500000 0.500000 0.000000
O O17 0.500000 0.000000 0.500000
O O18 0.829314 0.313486 0.444371
#
# Coordination Sequence:
#
# PCOD9090417 Si02
#       8
#     2   2   2   2   2   2   2   2
#     4  10  25  47  70 104 149 196 256 311 359 434
#     4  10  19  38  66 102 141 184 242 301 361 431
#     4   9  21  38  66 103 143 188 241 297 366 443
#     4  10  20  44  69 102 149 190 239 308 365 436
#     4   9  19  38  71 103 140 185 238 302 366 434
#     4  11  27  47  72 107 148 190 256 306 364 445
#     4  12  24  42  73 104 144 198 243 304 375 438
#     4   9  18  37  66 103 138 181 237 299 361 435
#
# _framework density 26.728871999999999
#
# number of rings (size 3 to 8) (size 9 to 14) (size 15 to 20)
#    0.000    2.000    1.250    1.875    5.250    2.500 
#    0.000    2.500    0.000    3.000    0.000    0.000 
#    0.000    0.000    0.000    0.000    0.000    0.000 
#
# Total GULP energy -89448.175701 kJ/mol
# GULP energy per Si atom -5590.510981 kJ/mol
# Density = 2.666804 g / cm^3
# Si number density = 26.728872 Si / 1000 Ang^3
#
#
#
# Elastic Constant Matrix: (Units=GPa)
#
#
# Indices 1 2 3 4 5 6 
#
# 1 216.4322 55.7334 55.6503 -0.4079 3.7824 32.1961
# 2 55.7334 85.3380 48.8273 -14.8914 -4.2075 18.2856
# 3 55.6503 48.8273 170.5996 -18.8480 -4.3039 11.8450
# 4 -0.4079 -14.8914 -18.8480 44.1690 7.0514 -1.6839
# 5 3.7824 -4.2075 -4.3039 7.0514 50.9718 -3.7321
# 6 32.1961 18.2856 11.8450 -1.6839 -3.7321 32.2717
#
#
#
# Elastic Compliance Matrix: (Units=1/GPa)
#
#
# Indices 1 2 3 4 5 6 
#
# 1 0.006311 -0.002811 -0.001121 -0.001390 -0.000930 -0.004473
# 2 -0.002811 0.017317 -0.003181 0.004182 0.000383 -0.005578
# 3 -0.001121 -0.003181 0.007343 0.002034 0.000185 0.000353
# 4 -0.001390 0.004182 0.002034 0.025346 -0.002941 -0.000747
# 5 -0.000930 0.000383 0.000185 -0.002941 0.020350 0.002843
# 6 -0.004473 -0.005578 0.000353 -0.000747 0.002843 0.038770
#
#
# Mechanical properties :
#
#
# Convention : Reuss Voigt Hill
#
# Bulk Modulus (GPa) = 59.71132 88.08798 73.89965
# Shear Modulus (GPa) = 36.97015 46.29309 41.63162
#
# Velocity S-wave (km/s) = 3.72311 4.16619 3.95087
# Velocity P-wave (km/s) = 6.39298 7.49470 6.96565
#
# Compressibility (1/GPa) = 0.01674724
#
# Stress axis : x y z
#
# Youngs Moduli (GPa) = 158.44579 57.74566 136.19228
#
# Poissons Ratio (x) = 0.16229 0.15265
# Poissons Ratio (y) = 0.44531 0.43318
# Poissons Ratio (z) = 0.17759 0.18367
#
# Static dielectric constant tensor:
#      x y z
#    x 2.217290 0.018400 0.085330 
#    y 0.018400 2.093570 0.064570 
#    z 0.085330 0.064570 2.095990 
# 
# From -- ./inp_files/285521.got.cif
#   From: 2010.05.17/outbox.cif.g08.bks.cpg/sg2_143_cif.got.tgz:285521.got - 2010.06.03 11:33:40.
