data_PCOD9090566
_publ_section_title
;
Structure prediction by ZEFSAII (Michael W. Deem and Ramdas Pophale) SiO2 
 PCOD9090566
Probable space group: P -1
;
_chemical_formula_sum "Si O2"
_cell_formula_units_Z 12
_cell_length_a 8.892799
_cell_length_b 15.685097
_cell_length_c 11.731517
_cell_angle_alpha 44.962765
_cell_angle_beta 138.229060
_cell_angle_gamma 146.009179
_cell_volume 591.680097
_symmetry_space_group_name_H-M "P -1"
_symmetry_group_IT_number 2
_symmetry_cell_setting 'triclinic'
loop_
_space_group_symop_operation_xyz
x,y,z
-x,-y,-z
loop_
_atom_site_type_symbol
_atom_site_label
_atom_site_fract_x
_atom_site_fract_y
_atom_site_fract_z
Si Si1 0.603023 0.217136 0.919045
Si Si2 0.155219 0.677420 0.466780
Si Si3 0.637176 0.731209 0.833983
Si Si4 0.271724 0.486688 0.046142
Si Si5 0.260596 0.899005 0.112459
Si Si6 0.638523 0.614983 0.362902
O O1 0.633073 0.154120 0.877733
O O2 0.372243 0.246104 0.751673
O O3 0.924923 0.382180 0.966139
O O4 0.505566 0.086680 0.082281
O O5 0.470728 0.757453 0.624766
O O6 0.184726 0.786821 0.280786
O O7 0.000000 0.500000 0.500000
O O8 0.947647 0.662747 0.459817
O O9 0.678767 0.618697 0.897838
O O10 0.422130 0.638770 0.907813
O O11 0.963837 0.866680 0.935930
O O12 0.441451 0.531423 0.217429
O O13 0.500000 0.500000 0.500000
#
# Coordination Sequence:
#
# PCOD9090566 Si02
#       6
#     2   2   2   2   2   2
#     4  10  23  40  62  88 131 162 198 260 312 358
#     4  12  21  38  66  91 120 164 210 248 296 373
#     4  10  19  38  67  91 115 162 214 246 297 372
#     4  10  19  39  63  90 121 162 205 255 305 358
#     4  10  22  44  61  90 127 167 201 248 314 368
#     4  12  23  37  62  98 124 158 210 260 301 358
#
# _framework density 20.281229
#
# number of rings (size 3 to 8) (size 9 to 14) (size 15 to 20)
#    0.000    1.333    3.333    4.500    0.000    0.667 
#    3.000    3.333    0.000    0.000    0.000    0.000 
#    0.000    0.000    0.000    0.000    0.000    0.000 
#
# Total GULP energy -66997.051468 kJ/mol
# GULP energy per Si atom -5583.087622 kJ/mol
# Density = 2.023507 g / cm^3
# Si number density = 20.281229 Si / 1000 Ang^3
#
#
#
# Elastic Constant Matrix: (Units=GPa)
#
#
# Indices 1 2 3 4 5 6 
#
# 1 67.6739 38.7503 32.3748 -10.0648 7.6780 25.8252
# 2 38.7503 50.7413 13.9958 -13.9758 0.6876 10.9390
# 3 32.3748 13.9958 90.1979 -7.1390 -3.8332 7.9091
# 4 -10.0648 -13.9758 -7.1390 37.7342 8.9608 -2.9861
# 5 7.6780 0.6876 -3.8332 8.9608 42.8702 3.8022
# 6 25.8252 10.9390 7.9091 -2.9861 3.8022 15.9036
#
#
#
# Elastic Compliance Matrix: (Units=1/GPa)
#
#
# Indices 1 2 3 4 5 6 
#
# 1 0.080233 -0.036575 -0.015032 -0.001106 -0.006351 -0.096343
# 2 -0.036575 0.042444 0.004769 0.008710 0.001903 0.029007
# 3 -0.015032 0.004769 0.014757 0.001004 0.002539 0.013373
# 4 -0.001106 0.008710 0.001004 0.031428 -0.006669 0.002801
# 5 -0.006351 0.001903 0.002539 -0.006669 0.026031 0.000266
# 6 -0.096343 0.029007 0.013373 0.002801 0.000266 0.193187
#
#
# Mechanical properties :
#
#
# Convention : Reuss Voigt Hill
#
# Bulk Modulus (GPa) = 22.85343 42.09498 32.47421
# Shear Modulus (GPa) = 10.07371 27.53441 18.80406
#
# Velocity S-wave (km/s) = 2.23110 3.68860 3.04824
# Velocity P-wave (km/s) = 4.23436 6.24033 5.33252
#
# Compressibility (1/GPa) = 0.04375711
#
# Stress axis : x y z
#
# Youngs Moduli (GPa) = 12.46374 23.56051 67.76398
#
# Poissons Ratio (x) = 0.86172 1.01864
# Poissons Ratio (y) = 0.45586 -0.32314
# Poissons Ratio (z) = 0.18736 -0.11235
#
# Static dielectric constant tensor:
#      x y z
#    x 1.736350 0.001630 0.018380 
#    y 0.001630 1.748100 0.000850 
#    z 0.018380 0.000850 1.715850 
# 
# From -- ./inp_files/151164.got.cif
#   From: 2010.05.17/outbox.cif.g08.bks.cpg/sg2_76_cif.got.tgz:151164.got - 2010.06.03 11:33:40.
