data_PCOD9090875
_publ_section_title
;
Structure prediction by ZEFSAII (Michael W. Deem and Ramdas Pophale) SiO2 
 PCOD9090875
Probable space group: P -1
;
_chemical_formula_sum "Si O2"
_cell_formula_units_Z 14
_cell_length_a 13.234586
_cell_length_b 9.593367
_cell_length_c 13.019383
_cell_angle_alpha 58.443424
_cell_angle_beta 33.566161
_cell_angle_gamma 81.957391
_cell_volume 605.681511
_symmetry_space_group_name_H-M "P -1"
_symmetry_group_IT_number 2
_symmetry_cell_setting 'triclinic'
loop_
_space_group_symop_operation_xyz
x,y,z
-x,-y,-z
loop_
_atom_site_type_symbol
_atom_site_label
_atom_site_fract_x
_atom_site_fract_y
_atom_site_fract_z
Si Si1 0.974141 0.476923 0.866036
Si Si2 0.187786 0.743595 0.215277
Si Si3 0.655717 0.437166 0.975633
Si Si4 0.778134 0.918346 0.417803
Si Si5 0.642068 0.213593 0.429596
Si Si6 0.902401 0.100755 0.973177
Si Si7 0.981114 0.893276 0.451742
O O1 0.872121 0.506786 0.840493
O O2 0.986846 0.291231 0.903466
O O3 0.222112 0.677121 0.621396
O O4 0.784788 0.388770 0.152703
O O5 0.389202 0.740966 0.996486
O O6 0.097637 0.799880 0.174684
O O7 0.000000 0.500000 0.500000
O O8 0.189302 0.881018 0.250863
O O9 0.749810 0.648460 0.756136
O O10 0.436796 0.323869 0.281419
O O11 0.942550 0.995268 0.349859
O O12 0.921442 0.946246 0.185427
O O13 0.668262 0.035215 0.454188
O O14 0.369458 0.100253 0.707142
O O15 0.000000 0.000000 0.500000
#
# Coordination Sequence:
#
# PCOD9090875 Si02
#       7
#     2   2   2   2   2   2   2
#     4  10  22  41  64  89 121 160 203 253 303 353
#     4   8  16  33  59  77 113 157 193 234 290 353
#     4  10  19  39  61  83 120 163 199 244 300 363
#     4  11  22  38  64  88 120 164 198 249 304 362
#     4  11  22  42  63  90 122 158 205 253 299 358
#     4  10  21  40  60  88 122 161 200 247 301 361
#     4  10  20  35  57  90 121 151 203 251 296 357
#
# _framework density 23.114457000000002
#
# number of rings (size 3 to 8) (size 9 to 14) (size 15 to 20)
#    0.000    2.000    2.857    1.714    0.000    0.571 
#    7.714    2.143    0.000    0.000    0.000    0.000 
#    0.000    0.000    0.000    0.000    0.000    0.000 
#
# Total GULP energy -78163.651791 kJ/mol
# GULP energy per Si atom -5583.117985 kJ/mol
# Density = 2.306185 g / cm^3
# Si number density = 23.114457 Si / 1000 Ang^3
#
#
#
# Elastic Constant Matrix: (Units=GPa)
#
#
# Indices 1 2 3 4 5 6 
#
# 1 76.3298 18.0651 14.4199 3.0765 -11.0989 4.8332
# 2 18.0651 97.3911 37.9719 23.8402 -19.0844 22.2567
# 3 14.4199 37.9719 102.7859 22.0500 -14.8428 5.2642
# 4 3.0765 23.8402 22.0500 37.6491 -0.2386 7.9136
# 5 -11.0989 -19.0844 -14.8428 -0.2386 26.7298 0.0512
# 6 4.8332 22.2567 5.2642 7.9136 0.0512 43.2025
#
#
#
# Elastic Compliance Matrix: (Units=1/GPa)
#
#
# Indices 1 2 3 4 5 6 
#
# 1 0.014276 -0.001309 -0.000914 0.000414 0.004491 -0.000892
# 2 -0.001309 0.016927 -0.002652 -0.007549 0.010015 -0.006880
# 3 -0.000914 -0.002652 0.012733 -0.005881 0.004743 0.000988
# 4 0.000414 -0.007549 -0.005881 0.035091 -0.008167 -0.001859
# 5 0.004491 0.010015 0.004743 -0.008167 0.048997 -0.004802
# 6 -0.000892 -0.006880 0.000988 -0.001859 -0.004802 0.027017
#
#
# Mechanical properties :
#
#
# Convention : Reuss Voigt Hill
#
# Bulk Modulus (GPa) = 29.25029 46.38006 37.81518
# Shear Modulus (GPa) = 28.37907 35.25293 31.81600
#
# Velocity S-wave (km/s) = 3.50775 3.90955 3.71408
# Velocity P-wave (km/s) = 5.39330 6.36305 5.89814
#
# Compressibility (1/GPa) = 0.03418769
#
# Stress axis : x y z
#
# Youngs Moduli (GPa) = 70.04573 59.07585 78.53780
#
# Poissons Ratio (x) = 0.07733 0.07176
# Poissons Ratio (y) = 0.09169 0.20826
# Poissons Ratio (z) = 0.06400 0.15665
#
# Static dielectric constant tensor:
#      x y z
#    x 1.994430 -0.031770 0.004170 
#    y -0.031770 1.921040 0.063380 
#    z 0.004170 0.063380 1.876730 
# 
# From -- ./inp_files/200667.got.cif
#   From: 2010.05.17/outbox.cif.g08.bks.cpg/sg2_101_cif.got.tgz:200667.got - 2010.06.03 11:33:40.
