data_PCOD9090995
_publ_section_title
;
Structure prediction by ZEFSAII (Michael W. Deem and Ramdas Pophale) SiO2 
 PCOD9090995
Probable space group: P -1
;
_chemical_formula_sum "Si O2"
_cell_formula_units_Z 16
_cell_length_a 6.926441
_cell_length_b 7.735883
_cell_length_c 14.200992
_cell_angle_alpha 55.629108
_cell_angle_beta 76.512489
_cell_angle_gamma 94.631471
_cell_volume 588.965481
_symmetry_space_group_name_H-M "P -1"
_symmetry_group_IT_number 2
_symmetry_cell_setting 'triclinic'
loop_
_space_group_symop_operation_xyz
x,y,z
-x,-y,-z
loop_
_atom_site_type_symbol
_atom_site_label
_atom_site_fract_x
_atom_site_fract_y
_atom_site_fract_z
Si Si1 0.203480 0.468550 0.106439
Si Si2 0.027933 0.325012 0.625803
Si Si3 0.589664 0.319445 0.153261
Si Si4 0.719670 0.758701 0.124243
Si Si5 0.571375 0.519780 0.378175
Si Si6 0.346403 0.115989 0.403715
Si Si7 0.076799 0.901168 0.651777
Si Si8 0.816128 0.170291 0.872784
O O1 0.376840 0.336892 0.121602
O O2 0.249598 0.624802 0.142984
O O3 0.985426 0.293758 0.205411
O O4 0.241743 0.636374 0.962848
O O5 0.189279 0.467250 0.637448
O O6 0.000000 0.500000 0.500000
O O7 0.106472 0.132550 0.628657
O O8 0.838560 0.196778 0.750427
O O9 0.663502 0.532913 0.144301
O O10 0.507791 0.121235 0.297991
O O11 0.590359 0.730160 0.244997
O O12 0.956158 0.806702 0.115872
O O13 0.693545 0.943326 0.000000
O O14 0.500000 0.500000 0.500000
O O15 0.435780 0.325291 0.393273
O O16 0.261427 0.924718 0.548230
O O17 0.135412 0.134045 0.372621
#
# Coordination Sequence:
#
# PCOD9090995 Si02
#       8
#     2   2   2   2   2   2   2   2
#     4  10  21  36  63  88 121 164 214 257 308 373
#     4  11  24  37  63  95 128 161 212 262 316 381
#     4   9  19  37  58  85 121 161 206 260 307 365
#     4   9  20  39  62  85 126 160 205 261 314 373
#     4  10  19  39  62  90 123 167 202 257 317 369
#     4   9  19  35  65  84 122 167 205 252 315 369
#     4  10  20  37  63  91 122 170 208 253 316 379
#     4  10  22  39  61  92 121 163 212 257 312 378
#
# _framework density 27.166278999999999
#
# number of rings (size 3 to 8) (size 9 to 14) (size 15 to 20)
#    0.000    2.250    1.250    0.750    5.250    1.000 
#    0.000    4.375    5.500    0.000    0.000    0.000 
#    0.000    0.000    0.000    0.000    0.000    0.000 
#
# Total GULP energy -89428.269499 kJ/mol
# GULP energy per Si atom -5589.266844 kJ/mol
# Density = 2.710445 g / cm^3
# Si number density = 27.166279 Si / 1000 Ang^3
#
#
#
# Elastic Constant Matrix: (Units=GPa)
#
#
# Indices 1 2 3 4 5 6 
#
# 1 77.3526 4.8715 36.6547 -10.8220 -6.1847 10.2164
# 2 4.8715 101.9550 44.1366 -3.2571 -13.9349 7.3643
# 3 36.6547 44.1366 287.9609 15.9925 -35.4424 -14.8546
# 4 -10.8220 -3.2571 15.9925 43.3622 2.3955 -2.9891
# 5 -6.1847 -13.9349 -35.4424 2.3955 48.8418 2.2698
# 6 10.2164 7.3643 -14.8546 -2.9891 2.2698 38.7723
#
#
#
# Elastic Compliance Matrix: (Units=1/GPa)
#
#
# Indices 1 2 3 4 5 6 
#
# 1 0.015383 0.000917 -0.002556 0.004494 0.000361 -0.004881
# 2 0.000917 0.011088 -0.001799 0.001402 0.002047 -0.003049
# 3 -0.002556 -0.001799 0.004650 -0.002459 0.002544 0.002458
# 4 0.004494 0.001402 -0.002459 0.025286 -0.002040 -0.000324
# 5 0.000361 0.002047 0.002544 -0.002040 0.023097 -0.001019
# 6 -0.004881 -0.003049 0.002458 -0.000324 -0.001019 0.028633
#
#
# Mechanical properties :
#
#
# Convention : Reuss Voigt Hill
#
# Bulk Modulus (GPa) = 41.24471 70.95489 56.09980
# Shear Modulus (GPa) = 40.61840 51.63563 46.12701
#
# Velocity S-wave (km/s) = 3.87095 4.36446 4.12509
# Velocity P-wave (km/s) = 5.93247 7.18147 6.58664
#
# Compressibility (1/GPa) = 0.02424554
#
# Stress axis : x y z
#
# Youngs Moduli (GPa) = 65.00490 90.18608 215.04019
#
# Poissons Ratio (x) = -0.08269 0.54956
# Poissons Ratio (y) = -0.05960 0.38695
# Poissons Ratio (z) = 0.16613 0.16229
#
# Static dielectric constant tensor:
#      x y z
#    x 2.222730 0.029540 -0.077230 
#    y 0.029540 2.019400 0.003100 
#    z -0.077230 0.003100 2.273650 
# 
# From -- ./inp_files/494375.got.cif
#   From: 2010.05.17/outbox.cif.g08.bks.cpg/sg2_248_cif.got.tgz:494375.got - 2010.06.03 11:33:40.
