data_PCOD9090948
_publ_section_title
;
Structure prediction by ZEFSAII (Michael W. Deem and Ramdas Pophale) SiO2 
 PCOD9090948
Probable space group: P -1
;
_chemical_formula_sum "Si O2"
_cell_formula_units_Z 14
_cell_length_a 6.323012
_cell_length_b 13.020067
_cell_length_c 12.843296
_cell_angle_alpha 34.074869
_cell_angle_beta 87.432294
_cell_angle_gamma 97.705588
_cell_volume 563.445485
_symmetry_space_group_name_H-M "P -1"
_symmetry_group_IT_number 2
_symmetry_cell_setting 'triclinic'
loop_
_space_group_symop_operation_xyz
x,y,z
-x,-y,-z
loop_
_atom_site_type_symbol
_atom_site_label
_atom_site_fract_x
_atom_site_fract_y
_atom_site_fract_z
Si Si1 0.510988 0.338540 0.276903
Si Si2 0.787845 0.691578 0.858204
Si Si3 0.722801 0.375451 0.730713
Si Si4 0.405982 0.982423 0.327783
Si Si5 0.128959 0.804306 0.931635
Si Si6 0.898269 0.294657 0.591734
Si Si7 0.281092 0.378882 0.778129
O O1 0.260177 0.290665 0.278134
O O2 0.582916 0.154821 0.461130
O O3 0.573003 0.481837 0.252778
O O4 0.674438 0.469381 0.077316
O O5 0.021532 0.752282 0.862869
O O6 0.648381 0.826768 0.795175
O O7 0.822419 0.257668 0.743404
O O8 0.460816 0.307730 0.774856
O O9 0.839435 0.602433 0.514149
O O10 0.780626 0.339324 0.878750
O O11 0.213963 0.871273 0.346189
O O12 0.646631 0.023031 0.233781
O O13 0.913118 0.788444 0.021746
O O14 0.809121 0.472861 0.408631
#
# Coordination Sequence:
#
# PCOD9090948 Si02
#       7
#     2   2   2   2   2   2   2
#     4   9  20  39  62  85 115 158 205 237 288 358
#     4  10  21  41  60  84 122 158 196 247 292 343
#     4  10  19  39  62  84 119 158 196 248 294 345
#     4  11  22  39  60  89 123 154 193 249 296 346
#     4  10  21  35  55  86 121 153 195 238 290 358
#     4   9  21  36  60  91 114 152 207 241 292 360
#     4   9  18  37  59  84 119 156 194 246 293 342
#
# _framework density 24.847124000000001
#
# number of rings (size 3 to 8) (size 9 to 14) (size 15 to 20)
#    0.000    2.286    0.000    3.429    0.000    3.429 
#    0.000   18.571    0.000    0.000    0.000    0.000 
#    0.000    0.000    0.000    0.000    0.000    0.000 
#
# Total GULP energy -78074.028441 kJ/mol
# GULP energy per Si atom -5576.716317 kJ/mol
# Density = 2.479057 g / cm^3
# Si number density = 24.847124 Si / 1000 Ang^3
#
#
#
# Elastic Constant Matrix: (Units=GPa)
#
#
# Indices 1 2 3 4 5 6 
#
# 1 75.4677 9.1399 48.7137 6.5885 0.0433 -0.9558
# 2 9.1399 82.4785 29.1359 1.6338 5.6598 22.9419
# 3 48.7137 29.1359 95.5917 -12.0069 12.3940 -2.9220
# 4 6.5885 1.6338 -12.0069 19.4394 12.3643 6.7836
# 5 0.0433 5.6598 12.3940 12.3643 48.5443 7.2855
# 6 -0.9558 22.9419 -2.9220 6.7836 7.2855 39.2253
#
#
#
# Elastic Compliance Matrix: (Units=1/GPa)
#
#
# Indices 1 2 3 4 5 6 
#
# 1 0.030391 0.004544 -0.022894 -0.033513 0.013885 -0.000406
# 2 0.004544 0.017755 -0.009525 -0.007776 0.003893 -0.010361
# 3 -0.022894 -0.009525 0.032197 0.038100 -0.017402 0.004055
# 4 -0.033513 -0.007776 0.038100 0.112314 -0.036485 -0.006077
# 5 0.013885 0.003893 -0.017402 -0.036485 0.034366 -0.003308
# 6 -0.000406 -0.010361 0.004055 -0.006077 -0.003308 0.033512
#
#
# Mechanical properties :
#
#
# Convention : Reuss Voigt Hill
#
# Bulk Modulus (GPa) = 40.66506 47.50188 44.08347
# Shear Modulus (GPa) = 15.40911 32.54502 23.97707
#
# Velocity S-wave (km/s) = 2.49300 3.62306 3.10979
# Velocity P-wave (km/s) = 4.96874 6.05485 5.53848
#
# Compressibility (1/GPa) = 0.02459113
#
# Stress axis : x y z
#
# Youngs Moduli (GPa) = 32.90430 56.32325 31.05856
#
# Poissons Ratio (x) = -0.25591 0.71106
# Poissons Ratio (y) = -0.14950 0.29584
# Poissons Ratio (z) = 0.75332 0.53649
#
# Static dielectric constant tensor:
#      x y z
#    x 2.080150 0.028600 -0.024260 
#    y 0.028600 2.001810 0.054620 
#    z -0.024260 0.054620 1.977880 
# 
# From -- ./inp_files/484092.got.cif
#   From: 2010.05.17/outbox.cif.g08.bks.cpg/sg2_243_cif.got.tgz:484092.got - 2010.06.03 11:33:40.
