data_PCOD9090360
_publ_section_title
;
Structure prediction by ZEFSAII (Michael W. Deem and Ramdas Pophale) SiO2 
 PCOD9090360
Probable space group: P -1
;
_chemical_formula_sum "Si O2"
_cell_formula_units_Z 16
_cell_length_a 7.585701
_cell_length_b 14.658763
_cell_length_c 9.828334
_cell_angle_alpha 93.029456
_cell_angle_beta 71.976837
_cell_angle_gamma 46.966764
_cell_volume 702.731738
_symmetry_space_group_name_H-M "P -1"
_symmetry_group_IT_number 2
_symmetry_cell_setting 'triclinic'
loop_
_space_group_symop_operation_xyz
x,y,z
-x,-y,-z
loop_
_atom_site_type_symbol
_atom_site_label
_atom_site_fract_x
_atom_site_fract_y
_atom_site_fract_z
Si Si1 0.918548 0.623700 0.936096
Si Si2 0.034959 0.225158 0.258029
Si Si3 0.894148 0.294596 0.584549
Si Si4 0.796899 0.943235 0.051129
Si Si5 0.217250 0.213135 0.773807
Si Si6 0.415967 0.778784 0.919250
Si Si7 0.397748 0.407179 0.385659
Si Si8 0.390587 0.340016 0.677201
O O1 0.601916 0.708340 0.003700
O O2 0.940755 0.684506 0.807001
O O3 0.142099 0.466153 0.840778
O O4 0.970606 0.668844 0.057136
O O5 0.090806 0.202488 0.402508
O O6 0.713373 0.318349 0.331446
O O7 0.190055 0.100978 0.108886
O O8 0.760932 0.442084 0.596293
O O9 0.654965 0.305270 0.643970
O O10 0.050152 0.243650 0.684836
O O11 0.675398 0.913077 0.180436
O O12 0.646959 0.094207 0.098202
O O13 0.115388 0.843290 0.009993
O O14 0.421408 0.220392 0.681248
O O15 0.585381 0.664552 0.753817
O O16 0.304779 0.391169 0.544844
#
# Coordination Sequence:
#
# PCOD9090360 Si02
#       8
#     2   2   2   2   2   2   2   2
#     4  11  21  38  60  95 122 158 212 250 305 373
#     4   9  18  37  63  87 120 162 208 249 299 365
#     4  11  21  39  66  92 134 163 192 262 312 369
#     4   9  22  46  61  91 121 161 221 255 306 366
#     4  11  26  36  60  96 128 164 205 250 321 368
#     4  10  22  39  73  84 118 170 215 261 296 364
#     4  10  19  38  65  93 120 167 211 245 308 373
#     4  11  22  39  61  96 134 161 201 251 316 381
#
# _framework density 22.768293
#
# number of rings (size 3 to 8) (size 9 to 14) (size 15 to 20)
#    0.000    1.750    2.500    1.875    3.500    3.500 
#    0.000    0.625    2.750    3.000    0.000    0.000 
#    0.000    0.000    0.000    0.000    0.000    0.000 
#
# Total GULP energy -89489.147019 kJ/mol
# GULP energy per Si atom -5593.071689 kJ/mol
# Density = 2.271647 g / cm^3
# Si number density = 22.768293 Si / 1000 Ang^3
#
#
#
# Elastic Constant Matrix: (Units=GPa)
#
#
# Indices 1 2 3 4 5 6 
#
# 1 108.6507 71.4297 52.8637 -12.3918 20.2494 13.5109
# 2 71.4297 93.7697 50.0595 -9.9168 -10.7053 21.9000
# 3 52.8637 50.0595 105.9454 -16.2428 14.2535 -6.3183
# 4 -12.3918 -9.9168 -16.2428 33.3115 -3.7181 1.8903
# 5 20.2494 -10.7053 14.2535 -3.7181 32.6764 -9.2175
# 6 13.5109 21.9000 -6.3183 1.8903 -9.2175 38.3891
#
#
#
# Elastic Compliance Matrix: (Units=1/GPa)
#
#
# Indices 1 2 3 4 5 6 
#
# 1 0.035429 -0.030725 0.001320 0.001122 -0.033248 -0.002763
# 2 -0.030725 0.047263 -0.012394 0.001305 0.037468 -0.009257
# 3 0.001320 -0.012394 0.016925 0.003558 -0.009929 0.006832
# 4 0.001122 0.001305 0.003558 0.032820 0.001397 -0.001834
# 5 -0.033248 0.037468 -0.009929 0.001397 0.069468 0.005304
# 6 -0.002763 -0.009257 0.006832 -0.001834 0.005304 0.034790
#
#
# Mechanical properties :
#
#
# Convention : Reuss Voigt Hill
#
# Bulk Modulus (GPa) = 62.42355 73.00797 67.71576
# Shear Modulus (GPa) = 15.35463 29.80959 22.58211
#
# Velocity S-wave (km/s) = 2.59971 3.62229 3.15274
# Velocity P-wave (km/s) = 6.04051 7.04485 6.56192
#
# Compressibility (1/GPa) = 0.01601960
#
# Stress axis : x y z
#
# Youngs Moduli (GPa) = 28.22553 21.15803 59.08325
#
# Poissons Ratio (x) = 0.65008 -0.07799
# Poissons Ratio (y) = 0.86722 0.73228
# Poissons Ratio (z) = -0.03726 0.26223
#
# Static dielectric constant tensor:
#      x y z
#    x 1.908620 0.006630 -0.020200 
#    y 0.006630 1.807310 -0.035310 
#    z -0.020200 -0.035310 1.872920 
# 
# From -- ./inp_files/201966.got.cif
#   From: 2010.05.17/outbox.cif.g08.bks.cpg/sg2_101_cif.got.tgz:201966.got - 2010.06.03 11:33:40.
