data_PCOD9090611
_publ_section_title
;
Structure prediction by ZEFSAII (Michael W. Deem and Ramdas Pophale) SiO2 
 PCOD9090611
Probable space group: P -1
;
_chemical_formula_sum "Si O2"
_cell_formula_units_Z 16
_cell_length_a 12.193989
_cell_length_b 18.961619
_cell_length_c 21.689663
_cell_angle_alpha 26.873349
_cell_angle_beta 158.817079
_cell_angle_gamma 141.004598
_cell_volume 772.120182
_symmetry_space_group_name_H-M "P -1"
_symmetry_group_IT_number 2
_symmetry_cell_setting 'triclinic'
loop_
_space_group_symop_operation_xyz
x,y,z
-x,-y,-z
loop_
_atom_site_type_symbol
_atom_site_label
_atom_site_fract_x
_atom_site_fract_y
_atom_site_fract_z
Si Si1 0.277216 0.172317 0.781133
Si Si2 0.342633 0.717265 0.200728
Si Si3 0.356345 0.043184 0.223195
Si Si4 0.213886 0.817992 0.728473
Si Si5 0.243575 0.773950 0.300950
Si Si6 0.755854 0.052162 0.632058
Si Si7 0.216469 0.405939 0.353124
Si Si8 0.208397 0.309193 0.773476
O O1 0.400450 0.297874 0.707999
O O2 0.324198 0.204687 0.852827
O O3 0.898666 0.185658 0.572439
O O4 0.500000 0.000000 0.000000
O O5 0.127173 0.599240 0.169591
O O6 0.561174 0.674686 0.409064
O O7 0.085164 0.898145 0.929121
O O8 0.611345 0.135817 0.275529
O O9 0.384230 0.932120 0.384581
O O10 0.373023 0.924334 0.266138
O O11 0.004509 0.177670 0.923768
O O12 0.027240 0.692902 0.709704
O O13 0.484179 0.726066 0.992805
O O14 0.000000 0.000000 0.500000
O O15 0.552056 0.623541 0.562040
O O16 0.040331 0.751714 0.269790
O O17 0.500000 0.000000 0.500000
O O18 0.000000 0.500000 0.500000
#
# Coordination Sequence:
#
# PCOD9090611 Si02
#       8
#     2   2   2   2   2   2   2   2
#     4  10  23  41  66  92 132 175 219 259 330 403
#     4  10  24  42  63  90 129 173 207 259 330 390
#     4  10  20  37  61  94 120 159 219 264 310 369
#     4  11  25  38  70 100 126 165 228 279 317 382
#     4  10  19  38  68  86 123 168 210 264 316 384
#     4  11  23  39  62  92 125 170 213 259 316 389
#     4  11  22  43  66  92 127 164 217 271 320 385
#     4  11  24  43  65  99 134 172 214 273 344 389
#
# _framework density 20.722161
#
# number of rings (size 3 to 8) (size 9 to 14) (size 15 to 20)
#    0.000    1.500    3.750    0.750    5.250    2.000 
#    0.000    1.875    0.000    0.000    0.000    0.000 
#    0.000    0.000    0.000    0.000    0.000    0.000 
#
# Total GULP energy -89080.190511 kJ/mol
# GULP energy per Si atom -5567.511907 kJ/mol
# Density = 2.067500 g / cm^3
# Si number density = 20.722161 Si / 1000 Ang^3
#
#
#
# Elastic Constant Matrix: (Units=GPa)
#
#
# Indices 1 2 3 4 5 6 
#
# 1 119.1707 38.0583 9.8823 16.7993 5.5257 7.4170
# 2 38.0583 145.4132 23.2040 23.3629 3.5156 11.6380
# 3 9.8823 23.2040 37.2265 -3.4023 -3.2484 -2.4100
# 4 16.7993 23.3629 -3.4023 28.8245 1.8224 1.1738
# 5 5.5257 3.5156 -3.2484 1.8224 19.8025 1.1923
# 6 7.4170 11.6380 -2.4100 1.1738 1.1923 27.0530
#
#
#
# Elastic Compliance Matrix: (Units=1/GPa)
#
#
# Indices 1 2 3 4 5 6 
#
# 1 0.009924 -0.001136 -0.002729 -0.004944 -0.002431 -0.002154
# 2 -0.001136 0.009951 -0.007040 -0.007961 -0.001620 -0.004179
# 3 -0.002729 -0.007040 0.033885 0.010656 0.006225 0.006059
# 4 -0.004944 -0.007961 0.010656 0.045121 0.000162 0.003765
# 5 -0.002431 -0.001620 0.006225 0.000162 0.052495 -0.000403
# 6 -0.002154 -0.004179 0.006059 0.003765 -0.000403 0.039747
#
#
# Mechanical properties :
#
#
# Convention : Reuss Voigt Hill
#
# Bulk Modulus (GPa) = 31.30158 49.34440 40.32299
# Shear Modulus (GPa) = 22.36294 30.51372 26.43833
#
# Velocity S-wave (km/s) = 3.28865 3.84150 3.57578
# Velocity P-wave (km/s) = 5.43677 6.59850 6.04561
#
# Compressibility (1/GPa) = 0.03194727
#
# Stress axis : x y z
#
# Youngs Moduli (GPa) = 100.76329 100.49649 29.51168
#
# Poissons Ratio (x) = 0.11421 0.08055
# Poissons Ratio (y) = 0.11452 0.20777
# Poissons Ratio (z) = 0.27503 0.70752
#
# Static dielectric constant tensor:
#      x y z
#    x 1.809720 0.028620 0.012040 
#    y 0.028620 1.829440 -0.043540 
#    z 0.012040 -0.043540 1.756310 
# 
# From -- ./inp_files/399628.got.cif
#   From: 2010.05.17/outbox.cif.g08.bks.cpg/sg2_200_cif.got.tgz:399628.got - 2010.06.03 11:33:40.
