data_PCOD9090535
_publ_section_title
;
Structure prediction by ZEFSAII (Michael W. Deem and Ramdas Pophale) SiO2 
 PCOD9090535
Probable space group: P -1
;
_chemical_formula_sum "Si O2"
_cell_formula_units_Z 12
_cell_length_a 9.031206
_cell_length_b 20.462514
_cell_length_c 8.159270
_cell_angle_alpha 44.752469
_cell_angle_beta 148.144712
_cell_angle_gamma 137.898393
_cell_volume 519.746786
_symmetry_space_group_name_H-M "P -1"
_symmetry_group_IT_number 2
_symmetry_cell_setting 'triclinic'
loop_
_space_group_symop_operation_xyz
x,y,z
-x,-y,-z
loop_
_atom_site_type_symbol
_atom_site_label
_atom_site_fract_x
_atom_site_fract_y
_atom_site_fract_z
Si Si1 0.953857 0.105231 0.134573
Si Si2 0.708775 0.399695 0.429041
Si Si3 0.581728 0.888235 0.178257
Si Si4 0.367609 0.306265 0.587926
Si Si5 0.111504 0.316818 0.804617
Si Si6 0.908215 0.383262 0.161636
O O1 0.255730 0.105628 0.503675
O O2 0.760890 0.996958 0.072914
O O3 0.752277 0.119573 0.072274
O O4 0.051089 0.200222 0.937526
O O5 0.557856 0.386677 0.487427
O O6 0.000000 0.500000 0.500000
O O7 0.858412 0.317539 0.697073
O O8 0.439816 0.378125 0.082304
O O9 0.632129 0.799262 0.286007
O O10 0.061903 0.326017 0.288827
O O11 0.551886 0.333094 0.883585
O O12 0.020942 0.366352 0.475202
O O13 0.000000 0.500000 0.000000
#
# Coordination Sequence:
#
# PCOD9090535 Si02
#       6
#     2   2   2   2   2   2
#     4  10  19  38  67 100 128 164 208 272 332 381
#     4  12  25  41  68  96 125 167 230 279 310 376
#     4  10  20  37  68 100 128 161 213 271 330 378
#     4  12  23  45  66  96 130 172 222 268 324 385
#     4  12  23  45  64  96 132 174 216 267 333 381
#     4  12  28  44  63  90 138 185 212 262 336 389
#
# _framework density 23.088166000000001
#
# number of rings (size 3 to 8) (size 9 to 14) (size 15 to 20)
#    0.000    0.667    3.333    5.000    0.000    2.667 
#    0.000    1.667    0.000    0.000    0.000    0.000 
#    0.000    0.000    0.000    0.000    0.000    0.000 
#
# Total GULP energy -67095.585517 kJ/mol
# GULP energy per Si atom -5591.298793 kJ/mol
# Density = 2.303562 g / cm^3
# Si number density = 23.088166 Si / 1000 Ang^3
#
#
#
# Elastic Constant Matrix: (Units=GPa)
#
#
# Indices 1 2 3 4 5 6 
#
# 1 49.9797 12.7795 17.2328 0.3118 1.1030 -2.4935
# 2 12.7795 125.3186 46.7995 -21.0155 -27.9577 0.3194
# 3 17.2328 46.7995 130.8605 5.4344 -8.9737 7.6975
# 4 0.3118 -21.0155 5.4344 48.5480 0.4867 4.2771
# 5 1.1030 -27.9577 -8.9737 0.4867 48.5366 -6.1046
# 6 -2.4935 0.3194 7.6975 4.2771 -6.1046 30.4094
#
#
#
# Elastic Compliance Matrix: (Units=1/GPa)
#
#
# Indices 1 2 3 4 5 6 
#
# 1 0.021445 -0.001821 -0.002381 -0.000833 -0.001697 0.002157
# 2 -0.001821 0.011933 -0.003893 0.005443 0.006292 0.001208
# 3 -0.002381 -0.003893 0.009543 -0.002524 -0.000695 -0.002355
# 4 -0.000833 0.005443 -0.002524 0.023428 0.002157 -0.002349
# 5 -0.001697 0.006292 -0.000695 0.002157 0.024698 0.004625
# 6 0.002157 0.001208 -0.002355 -0.002349 0.004625 0.034904
#
#
# Mechanical properties :
#
#
# Convention : Reuss Voigt Hill
#
# Bulk Modulus (GPa) = 37.41206 51.08694 44.24950
# Shear Modulus (GPa) = 33.10112 40.78861 36.94486
#
# Velocity S-wave (km/s) = 3.79051 4.20771 4.00455
# Velocity P-wave (km/s) = 5.94949 6.76619 6.37094
#
# Compressibility (1/GPa) = 0.02672935
#
# Stress axis : x y z
#
# Youngs Moduli (GPa) = 46.63058 83.80178 104.78482
#
# Poissons Ratio (x) = 0.15263 0.24953
# Poissons Ratio (y) = 0.08493 0.40796
# Poissons Ratio (z) = 0.11105 0.32627
#
# Static dielectric constant tensor:
#      x y z
#    x 1.895660 -0.022300 0.004500 
#    y -0.022300 1.918210 -0.037070 
#    z 0.004500 -0.037070 1.839880 
# 
# From -- ./inp_files/138612.got.cif
#   From: 2010.05.17/outbox.cif.g08.bks.cpg/sg2_70_cif.got.tgz:138612.got - 2010.06.03 11:33:40.
