data_PCOD9090427
_publ_section_title
;
Structure prediction by ZEFSAII (Michael W. Deem and Ramdas Pophale) SiO2 
 PCOD9090427
Probable space group: P -1
;
_chemical_formula_sum "Si O2"
_cell_formula_units_Z 16
_cell_length_a 15.331852
_cell_length_b 24.216888
_cell_length_c 17.298400
_cell_angle_alpha 21.676653
_cell_angle_beta 28.909426
_cell_angle_gamma 19.197677
_cell_volume 779.964751
_symmetry_space_group_name_H-M "P -1"
_symmetry_group_IT_number 2
_symmetry_cell_setting 'triclinic'
loop_
_space_group_symop_operation_xyz
x,y,z
-x,-y,-z
loop_
_atom_site_type_symbol
_atom_site_label
_atom_site_fract_x
_atom_site_fract_y
_atom_site_fract_z
Si Si1 0.914412 0.352997 0.899994
Si Si2 0.544062 0.061825 0.150254
Si Si3 0.564921 0.631887 0.297313
Si Si4 0.534117 0.213867 0.230543
Si Si5 0.685839 0.035243 0.803204
Si Si6 0.140281 0.714269 0.140051
Si Si7 0.597639 0.748711 0.408110
Si Si8 0.809135 0.752746 0.670460
O O1 0.639366 0.596670 0.816949
O O2 0.894037 0.265934 0.952294
O O3 0.138401 0.339947 0.721355
O O4 0.026399 0.192574 0.094794
O O5 0.328381 0.208730 0.192805
O O6 0.518718 0.917602 0.314276
O O7 0.513963 0.209853 0.917352
O O8 0.843471 0.884340 0.182233
O O9 0.500000 0.500000 0.500000
O O10 0.415664 0.782463 0.293304
O O11 0.878085 0.456938 0.296409
O O12 0.323339 0.262220 0.275485
O O13 0.725895 0.973892 0.430209
O O14 0.706187 0.230034 0.029803
O O15 0.633172 0.122360 0.644275
O O16 0.500000 0.000000 0.000000
O O17 0.310164 0.465322 0.352457
#
# Coordination Sequence:
#
# PCOD9090427 Si02
#       8
#     2   2   2   2   2   2   2   2
#     4  10  19  38  66  86 126 164 216 262 318 372
#     4  11  22  41  63  91 130 171 212 258 322 385
#     4  12  24  42  67  94 128 171 217 260 318 389
#     4  11  24  40  62  94 125 170 213 263 318 382
#     4  10  19  39  66  91 122 169 211 260 317 374
#     4  11  21  38  64  96 127 158 217 273 313 368
#     4  10  20  36  66  96 121 166 211 268 323 369
#     4  11  25  41  62  89 132 173 207 255 328 389
#
# _framework density 20.513748
#
# number of rings (size 3 to 8) (size 9 to 14) (size 15 to 20)
#    0.000    1.250    3.750    6.000    0.000    2.500 
#    0.000    0.625    0.000    0.000    0.000    0.000 
#    0.000    0.000    0.000    0.000    0.000    0.000 
#
# Total GULP energy -89454.387135 kJ/mol
# GULP energy per Si atom -5590.899196 kJ/mol
# Density = 2.046706 g / cm^3
# Si number density = 20.513748 Si / 1000 Ang^3
#
#
#
# Elastic Constant Matrix: (Units=GPa)
#
#
# Indices 1 2 3 4 5 6 
#
# 1 15.8333 -1.6623 16.2285 -0.2854 3.0234 -9.0890
# 2 -1.6623 27.8547 16.7849 -12.9511 -0.5905 5.0023
# 3 16.2285 16.7849 73.2180 -17.3800 -7.0205 -22.2260
# 4 -0.2854 -12.9511 -17.3800 23.6880 -3.2527 5.4945
# 5 3.0234 -0.5905 -7.0205 -3.2527 32.7071 -10.2655
# 6 -9.0890 5.0023 -22.2260 5.4945 -10.2655 23.6347
#
#
#
# Elastic Compliance Matrix: (Units=1/GPa)
#
#
# Indices 1 2 3 4 5 6 
#
# 1 0.100263 0.015893 -0.029718 -0.014966 -0.015610 0.003946
# 2 0.015893 0.086114 -0.038934 0.030702 -0.026343 -0.067307
# 3 -0.029718 -0.038934 0.051195 0.007026 0.031643 0.057066
# 4 -0.014966 0.030702 0.007026 0.069163 0.004059 -0.019962
# 5 -0.015610 -0.026343 0.031643 0.004059 0.055167 0.052347
# 6 0.003946 -0.067307 0.057066 -0.019962 0.052347 0.139116
#
#
# Mechanical properties :
#
#
# Convention : Reuss Voigt Hill
#
# Bulk Modulus (GPa) = 7.57261 19.95645 13.76453
# Shear Modulus (GPa) = 7.68578 21.70962 14.69770
#
# Velocity S-wave (km/s) = 1.93773 3.25668 2.67962
# Velocity P-wave (km/s) = 2.95057 4.88781 4.03711
#
# Compressibility (1/GPa) = 0.13205482
#
# Stress axis : x y z
#
# Youngs Moduli (GPa) = 9.97382 11.61253 19.53326
#
# Poissons Ratio (x) = -0.18456 0.58048
# Poissons Ratio (y) = -0.15852 0.76050
# Poissons Ratio (z) = 0.29640 0.45212
#
# Static dielectric constant tensor:
#      x y z
#    x 1.731040 -0.009380 0.013980 
#    y -0.009380 1.704490 0.008120 
#    z 0.013980 0.008120 1.709800 
# 
# From -- ./inp_files/332394.got.cif
#   From: 2010.05.17/outbox.cif.g08.bks.cpg/sg2_167_cif.got.tgz:332394.got - 2010.06.03 11:33:40.
