data_PCOD9090520
_publ_section_title
;
Structure prediction by ZEFSAII (Michael W. Deem and Ramdas Pophale) SiO2 
 PCOD9090520
Probable space group: P -1
;
_chemical_formula_sum "Si O2"
_cell_formula_units_Z 16
_cell_length_a 8.320885
_cell_length_b 22.704926
_cell_length_c 15.301482
_cell_angle_alpha 28.593929
_cell_angle_beta 131.579835
_cell_angle_gamma 147.672561
_cell_volume 704.405575
_symmetry_space_group_name_H-M "P -1"
_symmetry_group_IT_number 2
_symmetry_cell_setting 'triclinic'
loop_
_space_group_symop_operation_xyz
x,y,z
-x,-y,-z
loop_
_atom_site_type_symbol
_atom_site_label
_atom_site_fract_x
_atom_site_fract_y
_atom_site_fract_z
Si Si1 0.196175 0.407121 0.668023
Si Si2 0.790234 0.026114 0.054684
Si Si3 0.739391 0.337969 0.739933
Si Si4 0.767067 0.276220 0.028989
Si Si5 0.697505 0.395854 0.106435
Si Si6 0.221042 0.333463 0.335581
Si Si7 0.830934 0.797576 0.690776
Si Si8 0.256740 0.059210 0.267429
O O1 0.192219 0.489985 0.473535
O O2 0.535293 0.554343 0.643740
O O3 0.974537 0.372225 0.710339
O O4 0.050906 0.212707 0.853376
O O5 0.979413 0.046781 0.177870
O O6 0.615917 0.841574 0.184824
O O7 0.500000 0.000000 0.000000
O O8 0.774760 0.299741 0.898344
O O9 0.429211 0.132893 0.140368
O O10 0.924686 0.211426 0.194920
O O11 0.983236 0.474601 0.891015
O O12 0.438234 0.331008 0.167001
O O13 0.522374 0.211898 0.233483
O O14 0.772937 0.532208 0.884530
O O15 0.310824 0.279706 0.357074
O O16 0.901455 0.136286 0.511182
O O17 0.000000 0.000000 0.500000
#
# Coordination Sequence:
#
# PCOD9090520 Si02
#       8
#     2   2   2   2   2   2   2   2
#     4  10  19  38  66  97 119 174 223 274 321 388
#     4  10  22  39  65  98 126 174 226 269 321 389
#     4  10  21  40  63  92 135 166 220 275 330 382
#     4  11  26  44  64 100 140 177 215 277 340 393
#     4  11  23  45  69  97 133 174 226 273 327 401
#     4  11  21  39  69  93 134 169 226 270 331 391
#     4  11  23  42  68  99 128 172 223 279 323 388
#     4  12  24  43  67  98 138 177 220 274 335 397
#
# _framework density 22.714188
#
# number of rings (size 3 to 8) (size 9 to 14) (size 15 to 20)
#    0.000    1.250    3.750    3.375    1.750    2.500 
#    4.500    0.625    0.000    0.000    0.000    0.000 
#    0.000    0.000    0.000    0.000    0.000    0.000 
#
# Total GULP energy -89371.423948 kJ/mol
# GULP energy per Si atom -5585.713997 kJ/mol
# Density = 2.266249 g / cm^3
# Si number density = 22.714188 Si / 1000 Ang^3
#
#
#
# Elastic Constant Matrix: (Units=GPa)
#
#
# Indices 1 2 3 4 5 6 
#
# 1 61.1377 11.8594 25.7533 2.0616 -12.3578 10.5979
# 2 11.8594 73.0215 51.8507 -20.8321 3.0140 12.0446
# 3 25.7533 51.8507 156.4919 -22.1066 -7.1829 7.4648
# 4 2.0616 -20.8321 -22.1066 47.5807 -3.3885 2.3595
# 5 -12.3578 3.0140 -7.1829 -3.3885 30.0290 -0.8551
# 6 10.5979 12.0446 7.4648 2.3595 -0.8551 17.0298
#
#
#
# Elastic Compliance Matrix: (Units=1/GPa)
#
#
# Indices 1 2 3 4 5 6 
#
# 1 0.021046 -0.000372 -0.002629 -0.001202 0.007617 -0.011133
# 2 -0.000372 0.022587 -0.005802 0.007687 -0.003352 -0.014433
# 3 -0.002629 -0.005802 0.009011 0.001815 0.001907 0.001634
# 4 -0.001202 0.007687 0.001815 0.025853 0.001830 -0.008974
# 5 0.007617 -0.003352 0.001907 0.001830 0.037390 -0.001582
# 6 -0.011133 -0.014433 0.001634 -0.008974 -0.001582 0.076305
#
#
# Mechanical properties :
#
#
# Convention : Reuss Voigt Hill
#
# Bulk Modulus (GPa) = 28.54095 52.17533 40.35814
# Shear Modulus (GPa) = 22.57562 32.34042 27.45802
#
# Velocity S-wave (km/s) = 3.15604 3.77742 3.48062
# Velocity P-wave (km/s) = 5.08658 6.48424 5.82747
#
# Compressibility (1/GPa) = 0.03503737
#
# Stress axis : x y z
#
# Youngs Moduli (GPa) = 47.51446 44.27352 110.97302
#
# Poissons Ratio (x) = 0.01647 0.29179
# Poissons Ratio (y) = 0.01768 0.64387
# Poissons Ratio (z) = 0.12493 0.25688
#
# Static dielectric constant tensor:
#      x y z
#    x 1.917380 0.022170 0.040030 
#    y 0.022170 1.846920 0.001280 
#    z 0.040030 0.001280 1.832180 
# 
# From -- ./inp_files/447580.got.cif
#   From: 2010.05.17/outbox.cif.g08.bks.cpg/sg2_224_cif.got.tgz:447580.got - 2010.06.03 11:33:40.
