data_PCOD9090420
_publ_section_title
;
Structure prediction by ZEFSAII (Michael W. Deem and Ramdas Pophale) SiO2 
 PCOD9090420
Probable space group: P -1
;
_chemical_formula_sum "Si O2"
_cell_formula_units_Z 14
_cell_length_a 11.817348
_cell_length_b 18.190164
_cell_length_c 9.136616
_cell_angle_alpha 39.539658
_cell_angle_beta 39.338921
_cell_angle_gamma 48.296194
_cell_volume 780.961741
_symmetry_space_group_name_H-M "P -1"
_symmetry_group_IT_number 2
_symmetry_cell_setting 'triclinic'
loop_
_space_group_symop_operation_xyz
x,y,z
-x,-y,-z
loop_
_atom_site_type_symbol
_atom_site_label
_atom_site_fract_x
_atom_site_fract_y
_atom_site_fract_z
Si Si1 0.210463 0.444546 0.010323
Si Si2 0.511213 0.408085 0.000412
Si Si3 0.263796 0.021906 0.808993
Si Si4 0.607358 0.131635 0.355070
Si Si5 0.819876 0.413050 0.451912
Si Si6 0.883450 0.792690 0.581391
Si Si7 0.943001 0.995227 0.395928
O O1 0.233012 0.311466 0.130174
O O2 0.994964 0.475675 0.210551
O O3 0.327897 0.439457 0.043625
O O4 0.259751 0.531881 0.704815
O O5 0.676004 0.424742 0.704218
O O6 0.500000 0.500000 0.000000
O O7 0.542038 0.270308 0.220603
O O8 0.438759 0.061404 0.648428
O O9 0.184095 0.123953 0.615692
O O10 0.322625 0.910023 0.815191
O O11 0.111243 0.006522 0.102533
O O12 0.770949 0.089476 0.369033
O O13 0.916582 0.279164 0.539237
O O14 0.885540 0.871426 0.600508
O O15 0.000000 0.000000 0.500000
#
# Coordination Sequence:
#
# PCOD9090420 Si02
#       7
#     2   2   2   2   2   2   2
#     4   9  20  38  58  83 110 149 198 218 273 337
#     4  12  23  36  57  88 117 147 187 235 281 326
#     4  10  19  38  66  80 108 150 195 227 267 348
#     4  10  21  39  59  83 109 154 191 225 276 335
#     4   9  19  38  60  80 112 152 190 226 270 331
#     4   9  17  39  61  81 108 150 193 224 268 344
#     4  11  23  36  56  91 115 138 183 240 295 327
#
# _framework density 17.926614000000001
#
# number of rings (size 3 to 8) (size 9 to 14) (size 15 to 20)
#    0.857    1.143    1.429    3.857    0.000    2.286 
#    2.571    1.429    0.000    0.000    0.000    0.000 
#    0.000    0.000    0.000    0.000    0.000    0.000 
#
# Total GULP energy -77999.517921 kJ/mol
# GULP energy per Si atom -5571.394137 kJ/mol
# Density = 1.788581 g / cm^3
# Si number density = 17.926614 Si / 1000 Ang^3
#
#
#
# Elastic Constant Matrix: (Units=GPa)
#
#
# Indices 1 2 3 4 5 6 
#
# 1 147.2950 57.0647 21.0446 2.1054 -2.0984 2.8779
# 2 57.0647 116.2123 11.1751 -3.4681 8.2867 1.2233
# 3 21.0446 11.1751 22.9474 -5.6490 -7.2617 -0.3572
# 4 2.1054 -3.4681 -5.6490 16.2737 1.6104 -3.1320
# 5 -2.0984 8.2867 -7.2617 1.6104 15.7043 -0.9775
# 6 2.8779 1.2233 -0.3572 -3.1320 -0.9775 21.3201
#
#
#
# Elastic Compliance Matrix: (Units=1/GPa)
#
#
# Indices 1 2 3 4 5 6 
#
# 1 0.009666 -0.004105 -0.008184 -0.005359 0.000099 -0.001989
# 2 -0.004105 0.011736 -0.004189 0.002416 -0.008941 -0.000244
# 3 -0.008184 -0.004189 0.068514 0.022268 0.030962 0.007184
# 4 -0.005359 0.002416 0.022268 0.072476 0.001601 0.011678
# 5 0.000099 -0.008941 0.030962 0.001601 0.082876 0.005053
# 6 -0.001989 -0.000244 0.007184 0.011678 0.005053 0.049254
#
#
# Mechanical properties :
#
#
# Convention : Reuss Voigt Hill
#
# Bulk Modulus (GPa) = 17.55608 51.66927 34.61267
# Shear Modulus (GPa) = 14.43152 23.80431 19.11791
#
# Velocity S-wave (km/s) = 2.84039 3.64796 3.26920
# Velocity P-wave (km/s) = 4.53560 6.82852 5.79656
#
# Compressibility (1/GPa) = 0.05696034
#
# Stress axis : x y z
#
# Youngs Moduli (GPa) = 103.45886 85.20890 14.59548
#
# Poissons Ratio (x) = 0.34981 0.11944
# Poissons Ratio (y) = 0.42473 0.06114
# Poissons Ratio (z) = 0.84667 0.35693
#
# Static dielectric constant tensor:
#      x y z
#    x 1.614820 -0.022900 -0.029780 
#    y -0.022900 1.619580 -0.015660 
#    z -0.029780 -0.015660 1.628120 
# 
# From -- ./inp_files/276047.got.cif
#   From: 2010.05.17/outbox.cif.g08.bks.cpg/sg2_139_cif.got.tgz:276047.got - 2010.06.03 11:33:40.
