data_PCOD9090492
_publ_section_title
;
Structure prediction by ZEFSAII (Michael W. Deem and Ramdas Pophale) SiO2 
 PCOD9090492
Probable space group: P -1
;
_chemical_formula_sum "Si O2"
_cell_formula_units_Z 16
_cell_length_a 10.663055
_cell_length_b 13.843816
_cell_length_c 11.575286
_cell_angle_alpha 31.405824
_cell_angle_beta 82.412906
_cell_angle_gamma 62.773891
_cell_volume 657.158767
_symmetry_space_group_name_H-M "P -1"
_symmetry_group_IT_number 2
_symmetry_cell_setting 'triclinic'
loop_
_space_group_symop_operation_xyz
x,y,z
-x,-y,-z
loop_
_atom_site_type_symbol
_atom_site_label
_atom_site_fract_x
_atom_site_fract_y
_atom_site_fract_z
Si Si1 0.132034 0.648564 0.298603
Si Si2 0.413238 0.154010 0.234804
Si Si3 0.944471 0.398292 0.269780
Si Si4 0.827609 0.063704 0.423174
Si Si5 0.636400 0.265606 0.019298
Si Si6 0.598466 0.189214 0.544215
Si Si7 0.852170 0.739043 0.403432
Si Si8 0.138885 0.872149 0.283743
O O1 0.224581 0.374991 0.521141
O O2 0.210419 0.699846 0.336608
O O3 0.966902 0.723537 0.308043
O O4 0.045735 0.862548 0.994318
O O5 0.486778 0.284659 0.069833
O O6 0.500000 0.000000 0.500000
O O7 0.459685 0.959422 0.328585
O O8 0.211495 0.372274 0.017955
O O9 0.883612 0.267242 0.475359
O O10 0.020736 0.442066 0.321481
O O11 0.101397 0.195701 0.375474
O O12 0.736135 0.244758 0.140054
O O13 0.698611 0.154753 0.449691
O O14 0.000000 0.000000 0.500000
O O15 0.735875 0.015949 0.186335
O O16 0.553518 0.520814 0.706494
O O17 0.738021 0.086995 0.729598
#
# Coordination Sequence:
#
# PCOD9090492 Si02
#       8
#     2   2   2   2   2   2   2   2
#     4   9  19  39  68  95 121 156 221 276 329 368
#     4  12  25  42  62  94 136 181 212 254 317 387
#     4  10  21  39  63  93 132 163 217 261 312 382
#     4  11  21  38  66  96 123 173 214 262 312 376
#     4  11  24  45  61  95 135 172 213 260 325 385
#     4  12  24  41  66  90 137 177 208 262 324 380
#     4   9  20  42  67  92 124 166 212 279 317 379
#     4  10  19  38  66  94 123 164 209 269 325 380
#
# _framework density 24.347235999999999
#
# number of rings (size 3 to 8) (size 9 to 14) (size 15 to 20)
#    0.000    1.500    3.750    1.125    1.750    0.500 
#   11.250    1.250    0.000    0.000    0.000    0.000 
#    0.000    0.000    0.000    0.000    0.000    0.000 
#
# Total GULP energy -89443.930900 kJ/mol
# GULP energy per Si atom -5590.245681 kJ/mol
# Density = 2.429182 g / cm^3
# Si number density = 24.347236 Si / 1000 Ang^3
#
#
#
# Elastic Constant Matrix: (Units=GPa)
#
#
# Indices 1 2 3 4 5 6 
#
# 1 68.0513 24.1004 13.0640 9.0172 -11.6803 31.3370
# 2 24.1004 85.8202 30.7484 -2.8715 9.4165 19.4858
# 3 13.0640 30.7484 98.4282 -4.7102 7.5265 7.9771
# 4 9.0172 -2.8715 -4.7102 34.6229 -1.2517 -3.6766
# 5 -11.6803 9.4165 7.5265 -1.2517 35.0610 -3.9371
# 6 31.3370 19.4858 7.9771 -3.6766 -3.9371 45.6442
#
#
#
# Elastic Compliance Matrix: (Units=1/GPa)
#
#
# Indices 1 2 3 4 5 6 
#
# 1 0.026637 -0.004344 -0.001940 -0.008970 0.008329 -0.016098
# 2 -0.004344 0.015517 -0.003536 0.001393 -0.005183 -0.003359
# 3 -0.001940 -0.003536 0.011704 0.001811 -0.002059 0.000764
# 4 -0.008970 0.001393 0.001811 0.032336 -0.001732 0.007702
# 5 0.008329 -0.005183 -0.002059 -0.001732 0.033020 -0.000437
# 6 -0.016098 -0.003359 0.000764 0.007702 -0.000437 0.034844
#
#
# Mechanical properties :
#
#
# Convention : Reuss Voigt Hill
#
# Bulk Modulus (GPa) = 29.22404 43.12503 36.17453
# Shear Modulus (GPa) = 27.01215 35.35808 31.18512
#
# Velocity S-wave (km/s) = 3.33446 3.81496 3.58278
# Velocity P-wave (km/s) = 5.18208 6.09559 5.65730
#
# Compressibility (1/GPa) = 0.03421841
#
# Stress axis : x y z
#
# Youngs Moduli (GPa) = 37.54208 64.44573 85.44223
#
# Poissons Ratio (x) = 0.27996 0.16574
# Poissons Ratio (y) = 0.16309 0.30209
# Poissons Ratio (z) = 0.07282 0.22785
#
# Static dielectric constant tensor:
#      x y z
#    x 1.973730 -0.033260 -0.004220 
#    y -0.033260 2.015130 0.001720 
#    z -0.004220 0.001720 1.946470 
# 
# From -- ./inp_files/433668.got.cif
#   From: 2010.05.17/outbox.cif.g08.bks.cpg/sg2_217_cif.got.tgz:433668.got - 2010.06.03 11:33:40.
