data_PCOD9090423
_publ_section_title
;
Structure prediction by ZEFSAII (Michael W. Deem and Ramdas Pophale) SiO2 
 PCOD9090423
Probable space group: P -1
;
_chemical_formula_sum "Si O2"
_cell_formula_units_Z 16
_cell_length_a 10.650883
_cell_length_b 13.912793
_cell_length_c 8.463470
_cell_angle_alpha 33.783197
_cell_angle_beta 77.700046
_cell_angle_gamma 86.502068
_cell_volume 665.638021
_symmetry_space_group_name_H-M "P -1"
_symmetry_group_IT_number 2
_symmetry_cell_setting 'triclinic'
loop_
_space_group_symop_operation_xyz
x,y,z
-x,-y,-z
loop_
_atom_site_type_symbol
_atom_site_label
_atom_site_fract_x
_atom_site_fract_y
_atom_site_fract_z
Si Si1 0.937592 0.984654 0.710415
Si Si2 0.986911 0.342856 0.841241
Si Si3 0.748766 0.468917 0.348438
Si Si4 0.469368 0.791784 0.638550
Si Si5 0.373827 0.891168 0.985514
Si Si6 0.475004 0.482229 0.274258
Si Si7 0.656828 0.841576 0.097015
Si Si8 0.820143 0.283582 0.276403
O O1 0.923783 0.185425 0.470976
O O2 0.018400 0.856261 0.953127
O O3 0.783283 0.897980 0.879847
O O4 0.000000 0.000000 0.500000
O O5 0.127359 0.388479 0.826913
O O6 0.000000 0.500000 0.500000
O O7 0.881038 0.344617 0.005689
O O8 0.608501 0.518674 0.289326
O O9 0.789087 0.417384 0.231803
O O10 0.724130 0.298291 0.707179
O O11 0.504731 0.654557 0.684596
O O12 0.328098 0.824257 0.579067
O O13 0.581869 0.971886 0.358979
O O14 0.453712 0.669384 0.964195
O O15 0.326679 0.017222 0.956486
O O16 0.513613 0.849866 0.058339
O O17 0.354657 0.358731 0.565282
#
# Coordination Sequence:
#
# PCOD9090423 Si02
#       8
#     2   2   2   2   2   2   2   2
#     4  10  20  36  57  81 113 161 195 228 290 353
#     4  11  26  41  56  81 120 159 195 243 295 343
#     4  10  19  39  61  88 114 150 200 240 287 344
#     4   9  15  29  54  95 118 136 184 241 298 328
#     4   9  15  28  59  88 114 139 188 249 283 335
#     4   8  17  27  54  92 118 140 177 248 292 333
#     4   9  14  29  53  84 114 147 189 230 294 343
#     4  10  19  38  66  83 111 159 201 236 273 352
#
# _framework density 24.037087
#
# number of rings (size 3 to 8) (size 9 to 14) (size 15 to 20)
#    0.000    2.500    2.500    1.875    1.750    0.000 
#    0.000    6.875    0.000    1.500    0.000    0.000 
#    0.000    0.000    0.000    0.000    0.000    0.000 
#
# Total GULP energy -89177.782497 kJ/mol
# GULP energy per Si atom -5573.611406 kJ/mol
# Density = 2.398238 g / cm^3
# Si number density = 24.037087 Si / 1000 Ang^3
#
#
#
# Elastic Constant Matrix: (Units=GPa)
#
#
# Indices 1 2 3 4 5 6 
#
# 1 37.5583 20.2135 24.2849 7.1307 -8.4963 -22.2449
# 2 20.2135 64.0379 26.2788 3.0176 -2.1796 -22.9263
# 3 24.2849 26.2788 140.6223 6.5416 4.7856 -27.2474
# 4 7.1307 3.0176 6.5416 23.9659 -12.3297 -6.8128
# 5 -8.4963 -2.1796 4.7856 -12.3297 53.6940 1.3346
# 6 -22.2449 -22.9263 -27.2474 -6.8128 1.3346 29.2654
#
#
#
# Elastic Compliance Matrix: (Units=1/GPa)
#
#
# Indices 1 2 3 4 5 6 
#
# 1 0.051813 -0.002806 -0.001860 -0.000946 0.007166 0.034907
# 2 -0.002806 0.022142 -0.000911 0.003006 0.000853 0.015026
# 3 -0.001860 -0.000911 0.008850 -0.000790 -0.001450 0.005995
# 4 -0.000946 0.003006 -0.000790 0.051265 0.011509 0.012310
# 5 0.007166 0.000853 -0.001450 0.011509 0.022405 0.006422
# 6 0.034907 0.015026 0.005995 0.012310 0.006422 0.080629
#
#
# Mechanical properties :
#
#
# Convention : Reuss Voigt Hill
#
# Bulk Modulus (GPa) = 13.95617 42.64143 28.29880
# Shear Modulus (GPa) = 18.37282 32.81448 25.59365
#
# Velocity S-wave (km/s) = 2.76769 3.69882 3.26660
# Velocity P-wave (km/s) = 4.00402 6.00167 5.10158
#
# Compressibility (1/GPa) = 0.07165291
#
# Stress axis : x y z
#
# Youngs Moduli (GPa) = 19.30011 45.16302 112.98969
#
# Poissons Ratio (x) = 0.12673 0.21013
# Poissons Ratio (y) = 0.05416 0.10288
# Poissons Ratio (z) = 0.03589 0.04112
#
# Static dielectric constant tensor:
#      x y z
#    x 1.862170 -0.003750 0.051040 
#    y -0.003750 1.999510 -0.020250 
#    z 0.051040 -0.020250 2.046970 
# 
# From -- ./inp_files/271341.got.cif
#   From: 2010.05.17/outbox.cif.g08.bks.cpg/sg2_136_cif.got.tgz:271341.got - 2010.06.03 11:33:40.
