data_PCOD9090637
_publ_section_title
;
Structure prediction by ZEFSAII (Michael W. Deem and Ramdas Pophale) SiO2 
 PCOD9090637
Probable space group: P -1
;
_chemical_formula_sum "Si O2"
_cell_formula_units_Z 16
_cell_length_a 9.895253
_cell_length_b 11.444077
_cell_length_c 20.393178
_cell_angle_alpha 39.162623
_cell_angle_beta 71.946611
_cell_angle_gamma 42.543008
_cell_volume 779.807595
_symmetry_space_group_name_H-M "P -1"
_symmetry_group_IT_number 2
_symmetry_cell_setting 'triclinic'
loop_
_space_group_symop_operation_xyz
x,y,z
-x,-y,-z
loop_
_atom_site_type_symbol
_atom_site_label
_atom_site_fract_x
_atom_site_fract_y
_atom_site_fract_z
Si Si1 0.029518 0.384628 0.748485
Si Si2 0.089491 0.082462 0.232309
Si Si3 0.535608 0.809830 0.231117
Si Si4 0.400026 0.315133 0.874440
Si Si5 0.170072 0.802015 0.468598
Si Si6 0.902657 0.927070 0.008136
Si Si7 0.883504 0.181614 0.779205
Si Si8 0.716197 0.090937 0.465166
O O1 0.003518 0.235639 0.769784
O O2 0.315703 0.157302 0.802690
O O3 0.988703 0.360724 0.840639
O O4 0.828997 0.760200 0.594649
O O5 0.855932 0.407626 0.167374
O O6 0.245289 0.078292 0.174765
O O7 0.238004 0.815293 0.383620
O O8 0.030463 0.984948 0.231554
O O9 0.600202 0.655830 0.216814
O O10 0.673034 0.542250 0.382218
O O11 0.500000 0.000000 0.000000
O O12 0.601259 0.226184 0.920133
O O13 0.211093 0.904912 0.476123
O O14 0.883221 0.029504 0.414924
O O15 0.952683 0.930930 0.924161
O O16 0.000000 0.000000 0.000000
O O17 0.581691 0.556596 0.656359
#
# Coordination Sequence:
#
# PCOD9090637 Si02
#       8
#     2   2   2   2   2   2   2   2
#     4  10  22  39  65  94 133 167 211 269 311 375
#     4  12  24  39  68  93 127 166 211 266 319 377
#     4  11  22  43  65  96 127 164 216 263 314 380
#     4  12  24  43  66  94 124 163 216 266 316 373
#     4  10  20  36  65  97 126 164 211 263 319 376
#     4  10  21  42  66  92 130 172 209 253 322 388
#     4  11  22  40  64  95 129 171 217 252 322 389
#     4  10  19  38  68  95 126 170 214 261 317 372
#
# _framework density 20.517882
#
# number of rings (size 3 to 8) (size 9 to 14) (size 15 to 20)
#    0.000    1.250    3.750    3.750    0.000    0.500 
#    0.000    6.250    5.500    0.000    0.000    0.000 
#    0.000    0.000    0.000    0.000    0.000    0.000 
#
# Total GULP energy -89129.625405 kJ/mol
# GULP energy per Si atom -5570.601588 kJ/mol
# Density = 2.047118 g / cm^3
# Si number density = 20.517882 Si / 1000 Ang^3
#
#
#
# Elastic Constant Matrix: (Units=GPa)
#
#
# Indices 1 2 3 4 5 6 
#
# 1 129.1029 51.5859 32.0974 8.1841 12.1083 -12.1803
# 2 51.5859 117.8906 38.7077 16.6881 5.1274 -0.9185
# 3 32.0974 38.7077 75.7320 15.8794 -0.5071 -0.7983
# 4 8.1841 16.6881 15.8794 23.8140 -5.7995 0.1272
# 5 12.1083 5.1274 -0.5071 -5.7995 36.4035 4.4184
# 6 -12.1803 -0.9185 -0.7983 0.1272 4.4184 22.2693
#
#
#
# Elastic Compliance Matrix: (Units=1/GPa)
#
#
# Indices 1 2 3 4 5 6 
#
# 1 0.010852 -0.003597 -0.002621 -0.000471 -0.004002 0.006490
# 2 -0.003597 0.011984 -0.003560 -0.005070 -0.001187 -0.001336
# 3 -0.002621 -0.003560 0.017896 -0.008436 0.000396 -0.000969
# 4 -0.000471 -0.005070 -0.008436 0.053704 0.009672 -0.002995
# 5 -0.004002 -0.001187 0.000396 0.009672 0.031551 -0.008539
# 6 0.006490 -0.001336 -0.000969 -0.002995 -0.008539 0.050076
#
#
# Mechanical properties :
#
#
# Convention : Reuss Voigt Hill
#
# Bulk Modulus (GPa) = 47.21977 63.05639 55.13808
# Shear Modulus (GPa) = 24.66987 29.85301 27.26144
#
# Velocity S-wave (km/s) = 3.47127 3.81855 3.64904
# Velocity P-wave (km/s) = 6.25541 7.08808 6.68472
#
# Compressibility (1/GPa) = 0.02117757
#
# Stress axis : x y z
#
# Youngs Moduli (GPa) = 92.14898 83.44462 55.87859
#
# Poissons Ratio (x) = 0.30014 0.14644
# Poissons Ratio (y) = 0.33144 0.19891
# Poissons Ratio (z) = 0.24149 0.29704
#
# Static dielectric constant tensor:
#      x y z
#    x 1.739120 -0.048400 0.002040 
#    y -0.048400 1.694010 0.038280 
#    z 0.002040 0.038280 1.762900 
# 
# From -- ./inp_files/589472.got.cif
#   From: 2010.05.17/outbox.cif.g08.bks.cpg/sg2_295_cif.got.tgz:589472.got - 2010.06.03 11:33:40.
