data_PCOD9090252
_publ_section_title
;
Structure prediction by ZEFSAII (Michael W. Deem and Ramdas Pophale) SiO2 
 PCOD9090252
Probable space group: P -1
;
_chemical_formula_sum "Si O2"
_cell_formula_units_Z 14
_cell_length_a 9.358268
_cell_length_b 14.469804
_cell_length_c 7.703258
_cell_angle_alpha 42.435201
_cell_angle_beta 66.175408
_cell_angle_gamma 74.637085
_cell_volume 642.939670
_symmetry_space_group_name_H-M "P -1"
_symmetry_group_IT_number 2
_symmetry_cell_setting 'triclinic'
loop_
_space_group_symop_operation_xyz
x,y,z
-x,-y,-z
loop_
_atom_site_type_symbol
_atom_site_label
_atom_site_fract_x
_atom_site_fract_y
_atom_site_fract_z
Si Si1 0.338558 0.342484 0.413318
Si Si2 0.355307 0.664000 0.950418
Si Si3 0.756309 0.849871 0.952074
Si Si4 0.140442 0.936670 0.128728
Si Si5 0.001651 0.346006 0.493863
Si Si6 0.448312 0.904013 0.816972
Si Si7 0.987943 0.340580 0.933047
O O1 0.495975 0.312956 0.278266
O O2 0.310569 0.248623 0.723762
O O3 0.183608 0.322400 0.399053
O O4 0.344186 0.504280 0.231754
O O5 0.381121 0.760661 0.968575
O O6 0.193954 0.692956 0.892523
O O7 0.888023 0.762851 0.916717
O O8 0.606373 0.885914 0.868811
O O9 0.842328 0.983507 0.810251
O O10 0.102420 0.773870 0.377850
O O11 0.307170 0.961941 0.915860
O O12 0.000000 0.000000 0.000000
O O13 0.968011 0.502653 0.252447
O O14 0.990205 0.333497 0.728452
O O15 0.500000 0.000000 0.500000
#
# Coordination Sequence:
#
# PCOD9090252 Si02
#       7
#     2   2   2   2   2   2   2
#     4   9  19  36  68  92 126 159 205 252 306 375
#     4  10  19  38  64  95 123 168 196 251 318 360
#     4  11  23  41  64  93 125 164 214 254 303 375
#     4  12  21  40  66  93 122 168 204 248 318 376
#     4   9  17  33  64  93 125 161 200 247 311 372
#     4  12  27  42  61  88 128 167 212 264 310 359
#     4   9  17  36  64  93 121 159 208 252 299 374
#
# _framework density 21.774981
#
# number of rings (size 3 to 8) (size 9 to 14) (size 15 to 20)
#    0.000    1.714    4.286    2.143    0.000    0.571 
#    0.000    4.286    0.000    2.571    0.000    0.000 
#    0.000    0.000    0.000    0.000    0.000    0.000 
#
# Total GULP energy -78287.612340 kJ/mol
# GULP energy per Si atom -5591.972310 kJ/mol
# Density = 2.172542 g / cm^3
# Si number density = 21.774981 Si / 1000 Ang^3
#
#
#
# Elastic Constant Matrix: (Units=GPa)
#
#
# Indices 1 2 3 4 5 6 
#
# 1 163.9571 61.6959 51.7678 -15.1677 -1.9124 -29.9068
# 2 61.6959 68.9760 40.5114 -20.1487 0.6911 -20.0985
# 3 51.7678 40.5114 61.8411 -16.3145 -14.9583 3.0924
# 4 -15.1677 -20.1487 -16.3145 22.0164 -0.6613 -13.0006
# 5 -1.9124 0.6911 -14.9583 -0.6613 31.4152 3.3046
# 6 -29.9068 -20.0985 3.0924 -13.0006 3.3046 42.1469
#
#
#
# Elastic Compliance Matrix: (Units=1/GPa)
#
#
# Indices 1 2 3 4 5 6 
#
# 1 0.012554 0.006543 -0.013485 0.015225 -0.007404 0.018294
# 2 0.006543 0.102526 -0.056946 0.111038 -0.036610 0.094834
# 3 -0.013485 -0.056946 0.063786 -0.047897 0.036001 -0.059001
# 4 0.015225 0.111038 -0.047897 0.198457 -0.033940 0.131145
# 5 -0.007404 -0.036610 0.036001 -0.033940 0.052818 -0.039964
# 6 0.018294 0.094834 -0.059001 0.131145 -0.039964 0.129846
#
#
# Mechanical properties :
#
#
# Convention : Reuss Voigt Hill
#
# Bulk Modulus (GPa) = 19.57249 66.96937 43.27093
# Shear Modulus (GPa) = 7.09431 28.50232 17.79831
#
# Velocity S-wave (km/s) = 1.80695 3.62186 2.86208
# Velocity P-wave (km/s) = 3.65534 6.95072 5.55311
#
# Compressibility (1/GPa) = 0.05109212
#
# Stress axis : x y z
#
# Youngs Moduli (GPa) = 79.65833 9.75361 15.67751
#
# Poissons Ratio (x) = -0.06382 0.21140
# Poissons Ratio (y) = -0.52124 0.89276
# Poissons Ratio (z) = 1.07416 0.55542
#
# Static dielectric constant tensor:
#      x y z
#    x 1.790280 -0.026500 -0.012950 
#    y -0.026500 1.829610 -0.011210 
#    z -0.012950 -0.011210 1.816260 
# 
# From -- ./inp_files/205047.got.cif
#   From: 2010.05.17/outbox.cif.g08.bks.cpg/sg2_103_cif.got.tgz:205047.got - 2010.06.03 11:33:40.
