data_PCOD9090889
_publ_section_title
;
Structure prediction by ZEFSAII (Michael W. Deem and Ramdas Pophale) SiO2 
 PCOD9090889
Probable space group: P -1
;
_chemical_formula_sum "Si O2"
_cell_formula_units_Z 16
_cell_length_a 9.247336
_cell_length_b 15.370757
_cell_length_c 22.158125
_cell_angle_alpha 19.152219
_cell_angle_beta 128.401929
_cell_angle_gamma 128.966442
_cell_volume 798.847603
_symmetry_space_group_name_H-M "P -1"
_symmetry_group_IT_number 2
_symmetry_cell_setting 'triclinic'
loop_
_space_group_symop_operation_xyz
x,y,z
-x,-y,-z
loop_
_atom_site_type_symbol
_atom_site_label
_atom_site_fract_x
_atom_site_fract_y
_atom_site_fract_z
Si Si1 0.959441 0.344974 0.315954
Si Si2 0.275540 0.215024 0.396074
Si Si3 0.467318 0.346978 0.901023
Si Si4 0.481346 0.850266 0.389194
Si Si5 0.043285 0.310703 0.792717
Si Si6 0.844855 0.535779 0.485322
Si Si7 0.613585 0.809704 0.323206
Si Si8 0.634998 0.617623 0.011645
O O1 0.999638 0.509942 0.279425
O O2 0.824670 0.498828 0.139996
O O3 0.140182 0.325301 0.336549
O O4 0.845756 0.046212 0.494677
O O5 0.372364 0.447068 0.225148
O O6 0.429586 0.116014 0.544362
O O7 0.268239 0.369472 0.803540
O O8 0.449270 0.434582 0.908779
O O9 0.507736 0.039267 0.116367
O O10 0.350080 0.567061 0.531789
O O11 0.630609 0.886501 0.348705
O O12 0.344155 0.064207 0.201060
O O13 0.909636 0.362386 0.670186
O O14 0.000000 0.000000 0.000000
O O15 0.797824 0.794581 0.340765
O O16 0.000000 0.500000 0.500000
O O17 0.500000 0.500000 0.500000
O O18 0.500000 0.500000 0.000000
#
# Coordination Sequence:
#
# PCOD9090889 Si02
#       8
#     2   2   2   2   2   2   2   2
#     4  10  23  40  66  88 129 168 204 257 326 373
#     4  11  22  41  62  95 126 161 212 260 315 373
#     4  10  23  38  63  94 121 161 214 257 305 370
#     4  10  20  38  63  84 119 163 203 245 310 370
#     4  11  22  41  63  89 124 164 209 254 312 372
#     4  11  22  37  57  90 120 153 200 251 302 357
#     4   9  19  38  59  83 120 163 200 241 309 371
#     4  10  19  39  61  86 115 162 202 245 309 369
#
# _framework density 20.028852000000001
#
# number of rings (size 3 to 8) (size 9 to 14) (size 15 to 20)
#    0.000    1.750    1.250    4.500    0.000    5.000 
#    2.250    4.375    0.000    0.000    0.000    0.000 
#    0.000    0.000    0.000    0.000    0.000    0.000 
#
# Total GULP energy -89159.943560 kJ/mol
# GULP energy per Si atom -5572.496473 kJ/mol
# Density = 1.998327 g / cm^3
# Si number density = 20.028852 Si / 1000 Ang^3
#
#
#
# Elastic Constant Matrix: (Units=GPa)
#
#
# Indices 1 2 3 4 5 6 
#
# 1 82.3893 7.5261 25.4393 -10.1682 9.0562 8.6700
# 2 7.5261 69.8838 6.1511 -1.9437 -10.8531 -5.4827
# 3 25.4393 6.1511 81.3195 -0.3988 5.5652 -0.0380
# 4 -10.1682 -1.9437 -0.3988 31.2715 1.2743 4.0065
# 5 9.0562 -10.8531 5.5652 1.2743 29.0161 -3.2890
# 6 8.6700 -5.4827 -0.0380 4.0065 -3.2890 19.1402
#
#
#
# Elastic Compliance Matrix: (Units=1/GPa)
#
#
# Indices 1 2 3 4 5 6 
#
# 1 0.016585 -0.003172 -0.004436 0.006846 -0.007068 -0.011077
# 2 -0.003172 0.016598 -0.000835 -0.001362 0.008314 0.007903
# 3 -0.004436 -0.000835 0.013831 -0.001507 -0.001300 0.001890
# 4 0.006846 -0.001362 -0.001507 0.035841 -0.005280 -0.011904
# 5 -0.007068 0.008314 -0.001300 -0.005280 0.041833 0.013875
# 6 -0.011077 0.007903 0.001890 -0.011904 0.013875 0.064407
#
#
# Mechanical properties :
#
#
# Convention : Reuss Voigt Hill
#
# Bulk Modulus (GPa) = 33.19330 34.64730 33.92030
# Shear Modulus (GPa) = 23.14569 28.85064 25.99816
#
# Velocity S-wave (km/s) = 3.40313 3.79945 3.60673
# Velocity P-wave (km/s) = 5.66131 6.04847 5.85809
#
# Compressibility (1/GPa) = 0.03012656
#
# Stress axis : x y z
#
# Youngs Moduli (GPa) = 60.29717 60.24841 72.30361
#
# Poissons Ratio (x) = 0.19110 0.32075
# Poissons Ratio (y) = 0.19126 0.06039
# Poissons Ratio (z) = 0.26749 0.05032
#
# Static dielectric constant tensor:
#      x y z
#    x 1.765240 0.004700 0.025380 
#    y 0.004700 1.763650 -0.014130 
#    z 0.025380 -0.014130 1.728860 
# 
# From -- ./inp_files/285026.got.cif
#   From: 2010.05.17/outbox.cif.g08.bks.cpg/sg2_143_cif.got.tgz:285026.got - 2010.06.03 11:33:40.
