data_PCOD9090651
_publ_section_title
;
Structure prediction by ZEFSAII (Michael W. Deem and Ramdas Pophale) SiO2 
 PCOD9090651
Probable space group: P -1
;
_chemical_formula_sum "Si O2"
_cell_formula_units_Z 14
_cell_length_a 15.655698
_cell_length_b 11.969719
_cell_length_c 7.100386
_cell_angle_alpha 65.063234
_cell_angle_beta 57.391423
_cell_angle_gamma 28.461352
_cell_volume 529.626501
_symmetry_space_group_name_H-M "P -1"
_symmetry_group_IT_number 2
_symmetry_cell_setting 'triclinic'
loop_
_space_group_symop_operation_xyz
x,y,z
-x,-y,-z
loop_
_atom_site_type_symbol
_atom_site_label
_atom_site_fract_x
_atom_site_fract_y
_atom_site_fract_z
Si Si1 0.080772 0.473149 0.633166
Si Si2 0.258331 0.833958 0.672609
Si Si3 0.263416 0.255395 0.959876
Si Si4 0.146179 0.666193 0.235903
Si Si5 0.399223 0.951929 0.470727
Si Si6 0.445270 0.815399 0.932349
Si Si7 0.665215 0.330849 0.708152
O O1 0.137987 0.438460 0.805756
O O2 0.073586 0.612918 0.447471
O O3 0.242953 0.213016 0.544144
O O4 0.879964 0.604665 0.793307
O O5 0.433905 0.599440 0.758200
O O6 0.251590 0.766143 0.533350
O O7 0.328140 0.900418 0.497931
O O8 0.038644 0.083612 0.828544
O O9 0.459509 0.128036 0.786888
O O10 0.322558 0.053929 0.989548
O O11 0.341062 0.428029 0.060233
O O12 0.223960 0.682784 0.289057
O O13 0.486002 0.814387 0.666894
O O14 0.329498 0.808623 0.101632
#
# Coordination Sequence:
#
# PCOD9090651 Si02
#       7
#     2   2   2   2   2   2   2
#     4  10  20  37  70 105 132 177 229 269 349 411
#     4  11  26  43  69  98 136 177 236 276 342 405
#     4  10  19  38  69 102 136 179 221 279 342 407
#     4  12  22  43  71  97 135 182 225 281 337 410
#     4  11  21  45  67 103 141 174 222 292 333 408
#     4  11  21  42  71  96 137 182 223 276 352 393
#     4  11  25  47  65  97 138 182 225 290 332 400
#
# _framework density 26.433720999999998
#
# number of rings (size 3 to 8) (size 9 to 14) (size 15 to 20)
#    0.000    1.143    4.286    2.571    0.000    1.143 
#    2.571    1.429    0.000    0.000    0.000    0.000 
#    0.000    0.000    0.000    0.000    0.000    0.000 
#
# Total GULP energy -78378.748407 kJ/mol
# GULP energy per Si atom -5598.482029 kJ/mol
# Density = 2.637356 g / cm^3
# Si number density = 26.433721 Si / 1000 Ang^3
#
#
#
# Elastic Constant Matrix: (Units=GPa)
#
#
# Indices 1 2 3 4 5 6 
#
# 1 93.2672 28.3859 34.1326 -12.4265 -22.4511 4.3363
# 2 28.3859 146.7680 33.5905 2.4715 -28.2507 -3.2542
# 3 34.1326 33.5905 117.4220 -21.4869 -38.4465 8.0568
# 4 -12.4265 2.4715 -21.4869 48.7345 6.6235 -14.2447
# 5 -22.4511 -28.2507 -38.4465 6.6235 38.0252 -13.8070
# 6 4.3363 -3.2542 8.0568 -14.2447 -13.8070 30.9163
#
#
#
# Elastic Compliance Matrix: (Units=1/GPa)
#
#
# Indices 1 2 3 4 5 6 
#
# 1 0.013232 -0.001092 -0.001155 0.002772 0.006216 0.002383
# 2 -0.001092 0.008521 -0.000200 -0.000595 0.007027 0.003967
# 3 -0.001155 -0.000200 0.014407 0.005700 0.014781 0.005614
# 4 0.002772 -0.000595 0.005700 0.026769 0.007245 0.013633
# 5 0.006216 0.007027 0.014781 0.007245 0.058051 0.025279
# 6 0.002383 0.003967 0.005614 0.013633 0.025279 0.048536
#
#
# Mechanical properties :
#
#
# Convention : Reuss Voigt Hill
#
# Bulk Modulus (GPa) = 31.98458 61.07502 46.52980
# Shear Modulus (GPa) = 27.05144 40.95842 34.00493
#
# Velocity S-wave (km/s) = 3.20248 3.94061 3.59056
# Velocity P-wave (km/s) = 5.07944 6.62266 5.90171
#
# Compressibility (1/GPa) = 0.03126506
#
# Stress axis : x y z
#
# Youngs Moduli (GPa) = 75.57607 117.35495 69.41168
#
# Poissons Ratio (x) = 0.12817 0.08017
# Poissons Ratio (y) = 0.08254 0.01389
# Poissons Ratio (z) = 0.08729 0.02349
#
# Static dielectric constant tensor:
#      x y z
#    x 2.092290 -0.092000 0.010400 
#    y -0.092000 2.102830 0.027260 
#    z 0.010400 0.027260 2.067910 
# 
# From -- ./inp_files/306695.got.cif
#   From: 2010.05.17/outbox.cif.g08.bks.cpg/sg2_154_cif.got.tgz:306695.got - 2010.06.03 11:33:40.
