data_PCOD9090032
_publ_section_title
;
Structure prediction by ZEFSAII (Michael W. Deem and Ramdas Pophale) SiO2 
 PCOD9090032
Probable space group: P -1
;
_chemical_formula_sum "Si O2"
_cell_formula_units_Z 14
_cell_length_a 5.452850
_cell_length_b 16.698992
_cell_length_c 10.025959
_cell_angle_alpha 64.709376
_cell_angle_beta 127.360538
_cell_angle_gamma 94.293456
_cell_volume 634.120061
_symmetry_space_group_name_H-M "P -1"
_symmetry_group_IT_number 2
_symmetry_cell_setting 'triclinic'
loop_
_space_group_symop_operation_xyz
x,y,z
-x,-y,-z
loop_
_atom_site_type_symbol
_atom_site_label
_atom_site_fract_x
_atom_site_fract_y
_atom_site_fract_z
Si Si1 0.100090 0.272747 0.672460
Si Si2 0.302534 0.541054 0.036124
Si Si3 0.128346 0.304943 0.354908
Si Si4 0.358951 0.911619 0.041617
Si Si5 0.131789 0.998467 0.394355
Si Si6 0.388608 0.562129 0.546034
Si Si7 0.688637 0.145313 0.647740
O O1 0.003667 0.295271 0.469567
O O2 0.432787 0.194415 0.833329
O O3 0.971791 0.372780 0.624642
O O4 0.881793 0.215590 0.710514
O O5 0.544703 0.507936 0.259392
O O6 0.500000 0.500000 0.000000
O O7 0.000000 0.500000 0.000000
O O8 0.143139 0.646912 0.872514
O O9 0.371087 0.371067 0.402774
O O10 0.335610 0.204541 0.454595
O O11 0.300029 0.919289 0.176216
O O12 0.079212 0.926896 0.828808
O O13 0.500000 0.000000 0.000000
O O14 0.500000 0.000000 0.500000
O O15 0.135972 0.903048 0.390222
O O16 0.000000 0.000000 0.500000
O O17 0.500000 0.500000 0.500000
#
# Coordination Sequence:
#
# PCOD9090032 Si02
#       7
#     2   2   2   2   2   2   2
#     4  10  20  38  68  90 127 167 238 265 317 407
#     4  10  19  38  63  88 122 167 211 255 321 392
#     4   9  20  38  63  93 121 172 221 266 317 404
#     4  11  22  42  72  95 124 184 235 265 327 420
#     4  12  27  43  65 100 139 167 214 291 347 381
#     4  10  21  38  62  95 130 168 216 281 333 380
#     4  10  22  41  69  91 126 176 230 262 323 415
#
# _framework density 22.077839000000001
#
# number of rings (size 3 to 8) (size 9 to 14) (size 15 to 20)
#    0.000    1.714    2.857    1.286    4.000    0.571 
#    2.571    0.000    0.000    0.000    0.000    0.000 
#    0.000    0.000    0.000    0.000    0.000    0.000 
#
# Total GULP energy -77979.758178 kJ/mol
# GULP energy per Si atom -5569.982727 kJ/mol
# Density = 2.202759 g / cm^3
# Si number density = 22.077839 Si / 1000 Ang^3
#
#
#
# Elastic Constant Matrix: (Units=GPa)
#
#
# Indices 1 2 3 4 5 6 
#
# 1 106.9518 35.0517 54.3137 -2.6200 -20.3003 -17.7575
# 2 35.0517 92.0260 69.2695 -13.2489 -0.6891 -42.3219
# 3 54.3137 69.2695 165.1923 -28.5346 -14.2911 -23.0053
# 4 -2.6200 -13.2489 -28.5346 31.5464 -6.6853 3.6609
# 5 -20.3003 -0.6891 -14.2911 -6.6853 44.9480 0.1229
# 6 -17.7575 -42.3219 -23.0053 3.6609 0.1229 55.9298
#
#
#
# Elastic Compliance Matrix: (Units=1/GPa)
#
#
# Indices 1 2 3 4 5 6 
#
# 1 0.012582 -0.002247 -0.002949 -0.001762 0.004445 0.001187
# 2 -0.002247 0.024030 -0.007436 0.000895 -0.002917 0.014359
# 3 -0.002949 -0.007436 0.011492 0.008024 0.003408 -0.002368
# 4 -0.001762 0.000895 0.008024 0.040762 0.007830 0.000733
# 5 0.004445 -0.002917 0.003408 0.007830 0.026459 0.000035
# 6 0.001187 0.014359 -0.002368 0.000733 0.000035 0.028100
#
#
# Mechanical properties :
#
#
# Convention : Reuss Voigt Hill
#
# Bulk Modulus (GPa) = 43.78138 75.71554 59.74846
# Shear Modulus (GPa) = 28.36064 40.18718 34.27391
#
# Velocity S-wave (km/s) = 3.58798 4.27107 3.94434
# Velocity P-wave (km/s) = 6.08591 7.66107 6.91846
#
# Compressibility (1/GPa) = 0.02284076
#
# Stress axis : x y z
#
# Youngs Moduli (GPa) = 79.48107 41.61458 87.01571
#
# Poissons Ratio (x) = 0.09351 0.25661
# Poissons Ratio (y) = 0.17859 0.64701
# Poissons Ratio (z) = 0.23439 0.30943
#
# Static dielectric constant tensor:
#      x y z
#    x 1.875190 0.031690 0.079810 
#    y 0.031690 1.905440 -0.021870 
#    z 0.079810 -0.021870 1.829840 
# 
# From -- ./inp_files/43921.got.cif
#   From: 2010.05.17/outbox.cif.g08.bks.cpg/sg2_22_cif.got.tgz:43921.got - 2010.06.03 11:33:40.
