data_PCOD9090608
_publ_section_title
;
Structure prediction by ZEFSAII (Michael W. Deem and Ramdas Pophale) SiO2 
 PCOD9090608
Probable space group: P -1
;
_chemical_formula_sum "Si O2"
_cell_formula_units_Z 16
_cell_length_a 14.545618
_cell_length_b 8.472673
_cell_length_c 11.786266
_cell_angle_alpha 97.169802
_cell_angle_beta 147.747892
_cell_angle_gamma 65.190882
_cell_volume 619.195947
_symmetry_space_group_name_H-M "P -1"
_symmetry_group_IT_number 2
_symmetry_cell_setting 'triclinic'
loop_
_space_group_symop_operation_xyz
x,y,z
-x,-y,-z
loop_
_atom_site_type_symbol
_atom_site_label
_atom_site_fract_x
_atom_site_fract_y
_atom_site_fract_z
Si Si1 0.700836 0.602358 0.942590
Si Si2 0.085257 0.822691 0.964916
Si Si3 0.087355 0.873997 0.390030
Si Si4 0.529589 0.299232 0.498238
Si Si5 0.732849 0.181081 0.192572
Si Si6 0.254467 0.459589 0.761695
Si Si7 0.289983 0.195667 0.358392
Si Si8 0.143930 0.481052 0.414185
O O1 0.682332 0.641833 0.059653
O O2 0.769498 0.381107 0.973590
O O3 0.910319 0.586343 0.123821
O O4 0.494859 0.742959 0.661453
O O5 0.918618 0.799060 0.855455
O O6 0.960895 0.002792 0.762790
O O7 0.751874 0.163512 0.786831
O O8 0.217393 0.885260 0.629753
O O9 0.190135 0.642904 0.460624
O O10 0.853426 0.995584 0.218314
O O11 0.500000 0.500000 0.500000
O O12 0.310320 0.348314 0.325736
O O13 0.815848 0.318093 0.277226
O O14 0.483279 0.332400 0.923688
O O15 0.113876 0.459623 0.515118
O O16 0.298747 0.264754 0.500804
O O17 0.500000 0.000000 0.500000
#
# Coordination Sequence:
#
# PCOD9090608 Si02
#       8
#     2   2   2   2   2   2   2   2
#     4  10  21  43  68 105 147 188 239 300 359 435
#     4  10  23  44  76 104 145 197 241 300 367 431
#     4  10  20  41  68 106 144 186 244 291 367 434
#     4  10  25  45  76 104 143 192 248 297 362 425
#     4   9  20  35  66 104 143 188 236 298 348 440
#     4  10  19  38  68 103 143 188 237 287 368 431
#     4  11  27  49  70 105 145 187 251 305 356 430
#     4  10  24  41  72 103 143 192 236 303 365 435
#
# _framework density 25.839960000000001
#
# number of rings (size 3 to 8) (size 9 to 14) (size 15 to 20)
#    0.000    2.000    1.250    0.375    1.750   11.000 
#    0.000    0.625    0.000    0.000    0.000    0.000 
#    0.000    0.000    0.000    0.000    0.000    0.000 
#
# Total GULP energy -89214.150823 kJ/mol
# GULP energy per Si atom -5575.884426 kJ/mol
# Density = 2.578115 g / cm^3
# Si number density = 25.839960 Si / 1000 Ang^3
#
#
#
# Elastic Constant Matrix: (Units=GPa)
#
#
# Indices 1 2 3 4 5 6 
#
# 1 111.9241 18.9203 71.9864 12.4410 -17.3515 -5.9085
# 2 18.9203 77.7764 9.4221 -1.4898 1.9414 -28.5097
# 3 71.9864 9.4221 162.5169 14.6951 -19.2378 -7.7244
# 4 12.4410 -1.4898 14.6951 38.3453 -6.2626 -1.2126
# 5 -17.3515 1.9414 -19.2378 -6.2626 32.7987 -4.4493
# 6 -5.9085 -28.5097 -7.7244 -1.2126 -4.4493 37.6259
#
#
#
# Elastic Compliance Matrix: (Units=1/GPa)
#
#
# Indices 1 2 3 4 5 6 
#
# 1 0.013607 -0.003150 -0.005265 -0.001929 0.003801 -0.000944
# 2 -0.003150 0.018639 0.000796 0.001868 -0.000068 0.013844
# 3 -0.005265 0.000796 0.008925 -0.001227 0.002419 0.001855
# 4 -0.001929 0.001868 -0.001227 0.027935 0.003783 0.002208
# 5 0.003801 -0.000068 0.002419 0.003783 0.035370 0.005346
# 6 -0.000944 0.013844 0.001855 0.002208 0.005346 0.038003
#
#
# Mechanical properties :
#
#
# Convention : Reuss Voigt Hill
#
# Bulk Modulus (GPa) = 38.56189 61.43055 49.99622
# Shear Modulus (GPa) = 30.05460 38.54656 34.30058
#
# Velocity S-wave (km/s) = 3.41413 3.86650 3.64734
# Velocity P-wave (km/s) = 5.52245 6.61499 6.09326
#
# Compressibility (1/GPa) = 0.02593234
#
# Stress axis : x y z
#
# Youngs Moduli (GPa) = 73.48957 53.64954 112.04659
#
# Poissons Ratio (x) = 0.16900 0.58996
# Poissons Ratio (y) = 0.23150 -0.08915
# Poissons Ratio (z) = 0.38694 -0.04269
#
# Static dielectric constant tensor:
#      x y z
#    x 2.286350 0.034340 0.018100 
#    y 0.034340 2.141160 0.014590 
#    z 0.018100 0.014590 2.130230 
# 
# From -- ./inp_files/447679.got.cif
#   From: 2010.05.17/outbox.cif.g08.bks.cpg/sg2_224_cif.got.tgz:447679.got - 2010.06.03 11:33:40.
