data_PCOD9090096
_publ_section_title
;
Structure prediction by ZEFSAII (Michael W. Deem and Ramdas Pophale) SiO2 
 PCOD9090096
Probable space group: P -1
;
_chemical_formula_sum "Si O2"
_cell_formula_units_Z 16
_cell_length_a 13.491215
_cell_length_b 11.682028
_cell_length_c 13.842786
_cell_angle_alpha 67.653400
_cell_angle_beta 141.939529
_cell_angle_gamma 137.665172
_cell_volume 791.579065
_symmetry_space_group_name_H-M "P -1"
_symmetry_group_IT_number 2
_symmetry_cell_setting 'triclinic'
loop_
_space_group_symop_operation_xyz
x,y,z
-x,-y,-z
loop_
_atom_site_type_symbol
_atom_site_label
_atom_site_fract_x
_atom_site_fract_y
_atom_site_fract_z
Si Si1 0.972295 0.415170 0.865707
Si Si2 0.620290 0.188610 0.851358
Si Si3 0.592726 0.190992 0.383575
Si Si4 0.492830 0.136855 0.095987
Si Si5 0.860831 0.136895 0.724793
Si Si6 0.271477 0.274522 0.863742
Si Si7 0.050898 0.417849 0.365175
Si Si8 0.972820 0.117994 0.488159
O O1 0.771403 0.264487 0.842781
O O2 0.994067 0.314687 0.841176
O O3 0.869026 0.472077 0.708814
O O4 0.237084 0.614630 0.049656
O O5 0.648370 0.075826 0.967267
O O6 0.322325 0.035327 0.662801
O O7 0.532693 0.154495 0.236669
O O8 0.727848 0.145016 0.539092
O O9 0.776226 0.414038 0.475653
O O10 0.348282 0.053949 0.308892
O O11 0.765370 0.293100 0.205576
O O12 0.359651 0.185194 0.953079
O O13 0.055833 0.163087 0.814866
O O14 0.146335 0.235472 0.678175
O O15 0.500000 0.500000 0.000000
O O16 0.052227 0.272520 0.424882
O O17 0.000000 0.000000 0.500000
#
# Coordination Sequence:
#
# PCOD9090096 Si02
#       8
#     2   2   2   2   2   2   2   2
#     4  10  21  41  69  96 119 174 217 269 307 392
#     4  10  23  43  68  90 132 166 221 259 325 384
#     4  10  19  38  63  94 122 165 213 263 322 379
#     4  11  22  39  64  94 128 168 213 263 321 386
#     4  10  21  37  68  92 133 162 216 265 326 374
#     4  12  26  41  64  97 136 170 214 270 322 376
#     4  10  22  38  69  89 126 164 223 259 322 385
#     4  11  27  44  65  94 133 173 211 269 322 382
#
# _framework density 20.212761
#
# number of rings (size 3 to 8) (size 9 to 14) (size 15 to 20)
#    0.000    1.500    1.250    4.125    8.750    1.500 
#    0.000    1.875    0.000    0.000    0.000    0.000 
#    0.000    0.000    0.000    0.000    0.000    0.000 
#
# Total GULP energy -89440.277530 kJ/mol
# GULP energy per Si atom -5590.017346 kJ/mol
# Density = 2.016676 g / cm^3
# Si number density = 20.212761 Si / 1000 Ang^3
#
#
#
# Elastic Constant Matrix: (Units=GPa)
#
#
# Indices 1 2 3 4 5 6 
#
# 1 54.8599 25.3381 16.1976 -5.0119 11.1008 -6.3582
# 2 25.3381 114.9161 25.5706 1.3990 18.3901 -4.0329
# 3 16.1976 25.5706 68.7812 1.8899 0.0253 -9.0456
# 4 -5.0119 1.3990 1.8899 30.0954 -4.2272 -0.5519
# 5 11.1008 18.3901 0.0253 -4.2272 34.6128 -5.4560
# 6 -6.3582 -4.0329 -9.0456 -0.5519 -5.4560 27.0672
#
#
#
# Elastic Compliance Matrix: (Units=1/GPa)
#
#
# Indices 1 2 3 4 5 6 
#
# 1 0.022440 -0.003320 -0.003796 0.003535 -0.004580 0.002657
# 2 -0.003320 0.011002 -0.003443 -0.001602 -0.005190 -0.001370
# 3 -0.003796 -0.003443 0.017414 -0.000948 0.003729 0.005147
# 4 0.003535 -0.001602 -0.000948 0.034578 0.004230 0.001833
# 5 -0.004580 -0.005190 0.003729 0.004230 0.034651 0.006468
# 6 0.002657 -0.001370 0.005147 0.001833 0.006468 0.040426
#
#
# Mechanical properties :
#
#
# Convention : Reuss Voigt Hill
#
# Bulk Modulus (GPa) = 33.62629 41.41886 37.52258
# Shear Modulus (GPa) = 26.10390 29.78515 27.94452
#
# Velocity S-wave (km/s) = 3.59758 3.84289 3.72226
# Velocity P-wave (km/s) = 5.82487 6.34242 6.08915
#
# Compressibility (1/GPa) = 0.02973863
#
# Stress axis : x y z
#
# Youngs Moduli (GPa) = 44.56309 90.89243 57.42412
#
# Poissons Ratio (x) = 0.30177 0.21800
# Poissons Ratio (y) = 0.14795 0.19769
# Poissons Ratio (z) = 0.16917 0.31290
#
# Static dielectric constant tensor:
#      x y z
#    x 1.704420 -0.011990 -0.035680 
#    y -0.011990 1.720910 0.011370 
#    z -0.035680 0.011370 1.731690 
# 
# From -- ./inp_files/262148.got.cif
#   From: 2010.05.17/outbox.cif.g08.bks.cpg/sg2_132_cif.got.tgz:262148.got - 2010.06.03 11:33:40.
