data_PCOD9090724
_publ_section_title
;
Structure prediction by ZEFSAII (Michael W. Deem and Ramdas Pophale) SiO2 
 PCOD9090724
Probable space group: P -1
;
_chemical_formula_sum "Si O2"
_cell_formula_units_Z 15
_cell_length_a 6.919222
_cell_length_b 16.209530
_cell_length_c 8.365590
_cell_angle_alpha 82.569748
_cell_angle_beta 126.070845
_cell_angle_gamma 69.446924
_cell_volume 636.286072
_symmetry_space_group_name_H-M "P -1"
_symmetry_group_IT_number 2
_symmetry_cell_setting 'triclinic'
loop_
_space_group_symop_operation_xyz
x,y,z
-x,-y,-z
loop_
_atom_site_type_symbol
_atom_site_label
_atom_site_fract_x
_atom_site_fract_y
_atom_site_fract_z
Si Si1 0.000000 0.500000 0.500000
Si Si2 0.435325 0.834498 0.591613
Si Si3 0.119240 0.830268 0.757889
Si Si4 0.185879 0.379983 0.297018
Si Si5 0.569611 0.984250 0.304395
Si Si6 0.534673 0.620635 0.088059
Si Si7 0.110189 0.009838 0.857735
Si Si8 0.583445 0.521682 0.810776
O O1 0.895791 0.588331 0.568954
O O2 0.856124 0.589409 0.261872
O O3 0.317562 0.813219 0.703597
O O4 0.671707 0.732781 0.655884
O O5 0.487737 0.920917 0.647454
O O6 0.182641 0.888149 0.328219
O O7 0.097301 0.915725 0.833457
O O8 0.281201 0.729842 0.961613
O O9 0.802171 0.880528 0.522517
O O10 0.393933 0.416872 0.334061
O O11 0.900406 0.437518 0.036887
O O12 0.720517 0.987263 0.215601
O O13 0.284232 0.995265 0.104514
O O14 0.586517 0.534853 0.266514
O O15 0.470852 0.590240 0.895299
#
# Coordination Sequence:
#
# PCOD9090724 Si02
#       8
#     1   2   2   2   2   2   2   2
#     4  10  24  38  58  82 126 146 204 260 302 338
#     4   9  16  30  57  84 119 157 197 240 299 358
#     4   9  16  30  57  84 121 161 190 236 304 354
#     4  10  19  39  58  87 113 162 194 255 298 355
#     4   8  15  29  50  86 121 153 196 240 293 363
#     4  10  19  39  55  89 117 160 193 248 297 367
#     4   8  15  29  49  88 123 149 195 248 287 362
#     4   9  20  36  63  78 119 153 207 236 297 368
#
# _framework density 23.574304000000001
#
# number of rings (size 3 to 8) (size 9 to 14) (size 15 to 20)
#    0.000    2.933    1.333    1.600    0.000    0.533 
#    9.600    1.333    0.000    6.400    0.000    0.000 
#    0.000    4.267    0.000    1.200    0.000    0.000 
#
# Total GULP energy -83552.085218 kJ/mol
# GULP energy per Si atom -5570.139015 kJ/mol
# Density = 2.352065 g / cm^3
# Si number density = 23.574304 Si / 1000 Ang^3
#
#
#
# Elastic Constant Matrix: (Units=GPa)
#
#
# Indices 1 2 3 4 5 6 
#
# 1 70.0659 20.1261 7.3141 -1.7645 -19.5174 -7.4787
# 2 20.1261 130.8643 61.5100 -33.5228 10.2462 -21.7841
# 3 7.3141 61.5100 109.2385 -6.8527 19.8261 -3.4605
# 4 -1.7645 -33.5228 -6.8527 38.1015 -1.6690 -3.2003
# 5 -19.5174 10.2462 19.8261 -1.6690 33.3776 -0.2500
# 6 -7.4787 -21.7841 -3.4605 -3.2003 -0.2500 31.8325
#
#
#
# Elastic Compliance Matrix: (Units=1/GPa)
#
#
# Indices 1 2 3 4 5 6 
#
# 1 0.019278 -0.003059 -0.002010 -0.001392 0.013352 0.002182
# 2 -0.003059 0.018128 -0.008379 0.015267 -0.001521 0.012299
# 3 -0.002010 -0.008379 0.014904 -0.005563 -0.007773 -0.005206
# 4 -0.001392 0.015267 -0.005563 0.039743 -0.000108 0.013511
# 5 0.013352 -0.001521 -0.007773 -0.000108 0.042858 0.001577
# 6 0.002182 0.012299 -0.005206 0.013511 0.001577 0.041148
#
#
# Mechanical properties :
#
#
# Convention : Reuss Voigt Hill
#
# Bulk Modulus (GPa) = 39.34889 54.22990 46.78939
# Shear Modulus (GPa) = 23.64891 35.41021 29.52956
#
# Velocity S-wave (km/s) = 3.17071 3.87986 3.54307
# Velocity P-wave (km/s) = 5.48928 6.56695 6.05215
#
# Compressibility (1/GPa) = 0.02541368
#
# Stress axis : x y z
#
# Youngs Moduli (GPa) = 51.87249 55.16477 67.09664
#
# Poissons Ratio (x) = 0.16873 0.13486
# Poissons Ratio (y) = 0.15866 0.56221
# Poissons Ratio (z) = 0.10426 0.46223
#
# Static dielectric constant tensor:
#      x y z
#    x 1.099430 -0.057400 -0.829790 
#    y -0.057400 1.814620 -0.112330 
#    z -0.829790 -0.112330 1.150350 
# 
# From -- ./inp_files/215203.got.cif
#   From: 2010.05.17/outbox.cif.g08.bks.cpg/sg2_108_cif.got.tgz:215203.got - 2010.06.03 11:33:40.
