data_PCOD9090110
_publ_section_title
;
Structure prediction by ZEFSAII (Michael W. Deem and Ramdas Pophale) SiO2 
 PCOD9090110
Probable space group: P -1
;
_chemical_formula_sum "Si O2"
_cell_formula_units_Z 16
_cell_length_a 13.101326
_cell_length_b 19.745986
_cell_length_c 10.328184
_cell_angle_alpha 43.179137
_cell_angle_beta 127.063268
_cell_angle_gamma 154.096219
_cell_volume 785.946109
_symmetry_space_group_name_H-M "P -1"
_symmetry_group_IT_number 2
_symmetry_cell_setting 'triclinic'
loop_
_space_group_symop_operation_xyz
x,y,z
-x,-y,-z
loop_
_atom_site_type_symbol
_atom_site_label
_atom_site_fract_x
_atom_site_fract_y
_atom_site_fract_z
Si Si1 0.246510 0.762592 0.436074
Si Si2 0.296279 0.649666 0.396443
Si Si3 0.241279 0.094959 0.721629
Si Si4 0.001348 0.131075 0.417410
Si Si5 0.597178 0.854453 0.711379
Si Si6 0.715281 0.547838 0.960145
Si Si7 0.138089 0.916305 0.148973
Si Si8 0.310894 0.448408 0.783991
O O1 0.299861 0.743419 0.366697
O O2 0.425956 0.835179 0.576614
O O3 0.259510 0.888591 0.255781
O O4 0.978179 0.553056 0.561169
O O5 0.494333 0.780169 0.255580
O O6 0.387322 0.610141 0.593926
O O7 0.203900 0.188625 0.546058
O O8 0.095058 0.962018 0.669211
O O9 0.141808 0.993528 0.923740
O O10 0.108211 0.309694 0.220311
O O11 0.786088 0.978113 0.565883
O O12 0.744433 0.961321 0.806090
O O13 0.429883 0.648607 0.880285
O O14 0.525487 0.513232 0.864733
O O15 0.827105 0.630519 0.074174
O O16 0.863444 0.704985 0.245599
#
# Coordination Sequence:
#
# PCOD9090110 Si02
#       8
#     2   2   2   2   2   2   2   2
#     4  10  22  41  65  89 126 180 214 264 323 369
#     4  10  19  38  67  93 125 163 221 275 305 381
#     4  11  21  41  63 103 126 162 219 269 319 385
#     4  11  23  39  70  98 133 164 212 268 322 393
#     4  12  25  46  62  97 137 172 211 266 328 386
#     4  11  21  38  68  95 129 170 209 262 321 391
#     4  11  25  41  65  90 135 174 212 268 323 376
#     4  10  19  38  63  96 125 165 213 262 324 379
#
# _framework density 20.357628999999999
#
# number of rings (size 3 to 8) (size 9 to 14) (size 15 to 20)
#    0.000    1.250    5.000    1.125    3.500    2.500 
#    6.750    1.875    0.000    0.000    0.000    0.000 
#    0.000    0.000    0.000    0.000    0.000    0.000 
#
# Total GULP energy -89180.755999 kJ/mol
# GULP energy per Si atom -5573.797250 kJ/mol
# Density = 2.031129 g / cm^3
# Si number density = 20.357629 Si / 1000 Ang^3
#
#
#
# Elastic Constant Matrix: (Units=GPa)
#
#
# Indices 1 2 3 4 5 6 
#
# 1 18.7560 8.4556 12.8685 3.9939 4.8619 8.9824
# 2 8.4556 77.1821 22.8671 8.2096 -9.8517 -12.6922
# 3 12.8685 22.8671 105.8437 -5.5618 2.7360 -15.5812
# 4 3.9939 8.2096 -5.5618 35.4275 -0.2554 -2.9678
# 5 4.8619 -9.8517 2.7360 -0.2554 17.9805 -1.1370
# 6 8.9824 -12.6922 -15.5812 -2.9678 -1.1370 29.3468
#
#
#
# Elastic Compliance Matrix: (Units=1/GPa)
#
#
# Indices 1 2 3 4 5 6 
#
# 1 0.118408 -0.021169 -0.018134 -0.016508 -0.044786 -0.058429
# 2 -0.021169 0.020234 0.000031 -0.000841 0.017796 0.015851
# 3 -0.018134 0.000031 0.013833 0.005375 0.003752 0.013597
# 4 -0.016508 -0.000841 0.005375 0.032075 0.004333 0.010954
# 5 -0.044786 0.017796 0.003752 0.004333 0.078667 0.026882
# 6 -0.058429 0.015851 0.013597 0.010954 0.026882 0.068183
#
#
# Mechanical properties :
#
#
# Convention : Reuss Voigt Hill
#
# Bulk Modulus (GPa) = 13.52582 32.24045 22.88314
# Shear Modulus (GPa) = 11.50522 27.05700 19.28111
#
# Velocity S-wave (km/s) = 2.37988 3.64962 3.08087
# Velocity P-wave (km/s) = 3.76965 5.79923 4.89087
#
# Compressibility (1/GPa) = 0.07393268
#
# Stress axis : x y z
#
# Youngs Moduli (GPa) = 8.44540 49.42230 72.29154
#
# Poissons Ratio (x) = 1.04620 1.31092
# Poissons Ratio (y) = 0.17878 -0.00228
# Poissons Ratio (z) = 0.15315 -0.00156
#
# Static dielectric constant tensor:
#      x y z
#    x 1.747640 0.029380 -0.019920 
#    y 0.029380 1.750670 -0.035820 
#    z -0.019920 -0.035820 1.761500 
# 
# From -- ./inp_files/202075.got.cif
#   From: 2010.05.17/outbox.cif.g08.bks.cpg/sg2_102_cif.got.tgz:202075.got - 2010.06.03 11:33:40.
