data_PCOD9090083
_publ_section_title
;
Structure prediction by ZEFSAII (Michael W. Deem and Ramdas Pophale) SiO2 
 PCOD9090083
Probable space group: P -1
;
_chemical_formula_sum "Si O2"
_cell_formula_units_Z 12
_cell_length_a 17.435879
_cell_length_b 9.865504
_cell_length_c 7.902348
_cell_angle_alpha 62.301040
_cell_angle_beta 63.301926
_cell_angle_gamma 25.534789
_cell_volume 517.205140
_symmetry_space_group_name_H-M "P -1"
_symmetry_group_IT_number 2
_symmetry_cell_setting 'triclinic'
loop_
_space_group_symop_operation_xyz
x,y,z
-x,-y,-z
loop_
_atom_site_type_symbol
_atom_site_label
_atom_site_fract_x
_atom_site_fract_y
_atom_site_fract_z
Si Si1 0.830385 0.696543 0.453354
Si Si2 0.341341 0.718020 0.668517
Si Si3 0.542174 0.157649 0.946741
Si Si4 0.813188 0.211462 0.529246
Si Si5 0.479103 0.099768 0.693242
Si Si6 0.100379 0.230699 0.184052
O O1 0.000000 0.500000 0.500000
O O2 0.934167 0.454968 0.339749
O O3 0.723244 0.021569 0.342838
O O4 0.683191 0.812835 0.606344
O O5 0.500000 0.500000 0.500000
O O6 0.412180 0.505557 0.875906
O O7 0.202098 0.847566 0.607725
O O8 0.460734 0.195266 0.845490
O O9 0.734672 0.920064 0.835545
O O10 0.555983 0.025627 0.171073
O O11 0.655915 0.585334 0.465637
O O12 0.806839 0.080561 0.746228
O O13 0.000000 0.000000 0.500000
O O14 0.000000 0.500000 0.000000
#
# Coordination Sequence:
#
# PCOD9090083 Si02
#       6
#     2   2   2   2   2   2
#     4  12  20  40  69  95 123 172 224 257 314 392
#     4  11  18  40  70  92 122 175 217 258 318 388
#     4  10  19  38  63  93 124 166 215 258 315 381
#     4  11  21  39  63  93 132 170 207 261 331 372
#     4  10  20  37  65  92 123 171 213 261 311 384
#     4  12  24  40  63  96 133 168 212 269 325 375
#
# _framework density 23.201626999999998
#
# number of rings (size 3 to 8) (size 9 to 14) (size 15 to 20)
#    0.000    1.000    8.333    1.000    0.000    0.000 
#    0.000   10.833    0.000    0.000    0.000    0.000 
#    0.000    0.000    0.000    0.000    0.000    0.000 
#
# Total GULP energy -66837.627115 kJ/mol
# GULP energy per Si atom -5569.802260 kJ/mol
# Density = 2.314882 g / cm^3
# Si number density = 23.201627 Si / 1000 Ang^3
#
#
#
# Elastic Constant Matrix: (Units=GPa)
#
#
# Indices 1 2 3 4 5 6 
#
# 1 77.5920 29.2676 23.2078 -9.9470 -25.4537 -16.0545
# 2 29.2676 128.1843 77.6368 -27.5651 -24.5034 -9.8833
# 3 23.2078 77.6368 114.7074 -34.8871 -40.0990 4.8614
# 4 -9.9470 -27.5651 -34.8871 51.3811 1.1502 -4.8917
# 5 -25.4537 -24.5034 -40.0990 1.1502 35.5915 -3.1957
# 6 -16.0545 -9.8833 4.8614 -4.8917 -3.1957 37.9933
#
#
#
# Elastic Compliance Matrix: (Units=1/GPa)
#
#
# Indices 1 2 3 4 5 6 
#
# 1 0.022841 -0.002526 0.007661 0.008795 0.023945 0.011161
# 2 -0.002526 0.014491 -0.010364 0.000686 -0.003183 0.003849
# 3 0.007661 -0.010364 0.030013 0.015723 0.031775 0.001398
# 4 0.008795 0.000686 0.015723 0.032438 0.024155 0.008091
# 5 0.023945 -0.003183 0.031775 0.024155 0.079397 0.015013
# 6 0.011161 0.003849 0.001398 0.008091 0.015013 0.034163
#
#
# Mechanical properties :
#
#
# Convention : Reuss Voigt Hill
#
# Bulk Modulus (GPa) = 17.57866 64.52313 41.05089
# Shear Modulus (GPa) = 20.59605 37.68462 29.14033
#
# Velocity S-wave (km/s) = 2.98266 4.03454 3.54780
# Velocity P-wave (km/s) = 4.41074 7.04084 5.87486
#
# Compressibility (1/GPa) = 0.05688717
#
# Stress axis : x y z
#
# Youngs Moduli (GPa) = 43.78035 69.00887 33.31849
#
# Poissons Ratio (x) = 0.17432 -0.25526
# Poissons Ratio (y) = 0.11059 0.34532
# Poissons Ratio (z) = -0.33540 0.71522
#
# Static dielectric constant tensor:
#      x y z
#    x 1.965670 0.020570 0.000330 
#    y 0.020570 1.928580 -0.104230 
#    z 0.000330 -0.104230 2.006540 
# 
# From -- ./inp_files/166642.got.cif
#   From: 2010.05.17/outbox.cif.g08.bks.cpg/sg2_84_cif.got.tgz:166642.got - 2010.06.03 11:33:40.
