data_PCOD9090101
_publ_section_title
;
Structure prediction by ZEFSAII (Michael W. Deem and Ramdas Pophale) SiO2 
 PCOD9090101
Probable space group: P -1
;
_chemical_formula_sum "Si O2"
_cell_formula_units_Z 14
_cell_length_a 9.020549
_cell_length_b 7.710881
_cell_length_c 26.241787
_cell_angle_alpha 151.967426
_cell_angle_beta 136.270581
_cell_angle_gamma 49.893900
_cell_volume 592.867435
_symmetry_space_group_name_H-M "P -1"
_symmetry_group_IT_number 2
_symmetry_cell_setting 'triclinic'
loop_
_space_group_symop_operation_xyz
x,y,z
-x,-y,-z
loop_
_atom_site_type_symbol
_atom_site_label
_atom_site_fract_x
_atom_site_fract_y
_atom_site_fract_z
Si Si1 0.284375 0.956307 0.969006
Si Si2 0.540379 0.824914 0.198046
Si Si3 0.901953 0.118787 0.422872
Si Si4 0.712921 0.213856 0.623481
Si Si5 0.418477 0.277694 0.190797
Si Si6 0.139364 0.027346 0.195071
Si Si7 0.910037 0.427611 0.324401
O O1 0.296693 0.509110 0.860284
O O2 0.062082 0.058206 0.912862
O O3 0.500000 0.000000 0.000000
O O4 0.303411 0.138871 0.076027
O O5 0.682426 0.132021 0.340582
O O6 0.430473 0.957509 0.153257
O O7 0.340755 0.749051 0.166529
O O8 0.960382 0.432813 0.558653
O O9 0.892160 0.755682 0.362945
O O10 0.090685 0.054137 0.412418
O O11 0.684873 0.370831 0.714361
O O12 0.760760 0.582092 0.697387
O O13 0.500000 0.000000 0.500000
O O14 0.666906 0.346236 0.257236
O O15 0.037130 0.094636 0.242190
#
# Coordination Sequence:
#
# PCOD9090101 Si02
#       7
#     2   2   2   2   2   2   2
#     4  12  23  46  69  88 129 175 213 265 320 375
#     4  11  24  42  63  96 131 163 215 270 315 376
#     4  10  20  39  67  89 134 172 207 263 318 380
#     4  10  19  38  63  94 128 166 207 254 323 377
#     4  11  23  38  65  98 127 165 219 264 316 375
#     4  10  23  42  67  94 132 166 216 261 314 384
#     4  10  19  40  65  93 128 173 211 256 321 382
#
# _framework density 23.614045999999998
#
# number of rings (size 3 to 8) (size 9 to 14) (size 15 to 20)
#    0.000    1.429    5.714    0.429    0.000    4.000 
#    2.571    1.429    0.000    0.000    0.000    0.000 
#    0.000    0.000    0.000    0.000    0.000    0.000 
#
# Total GULP energy -78308.096299 kJ/mol
# GULP energy per Si atom -5593.435450 kJ/mol
# Density = 2.356030 g / cm^3
# Si number density = 23.614046 Si / 1000 Ang^3
#
#
#
# Elastic Constant Matrix: (Units=GPa)
#
#
# Indices 1 2 3 4 5 6 
#
# 1 141.3993 18.0681 48.9944 -10.4386 -27.5126 -36.7408
# 2 18.0681 58.9706 23.4333 -14.5842 -17.1509 -14.1368
# 3 48.9944 23.4333 158.1270 -27.6095 -35.2618 -23.7282
# 4 -10.4386 -14.5842 -27.6095 22.4742 -0.8457 12.4846
# 5 -27.5126 -17.1509 -35.2618 -0.8457 59.2771 4.6919
# 6 -36.7408 -14.1368 -23.7282 12.4846 4.6919 43.9219
#
#
#
# Elastic Compliance Matrix: (Units=1/GPa)
#
#
# Indices 1 2 3 4 5 6 
#
# 1 0.010108 -0.000078 -0.001502 -0.001339 0.003150 0.007663
# 2 -0.000078 0.023088 0.001374 0.015261 0.007443 0.002975
# 3 -0.001502 0.001374 0.010183 0.012674 0.005903 0.000454
# 4 -0.001339 0.015261 0.012674 0.076878 0.013431 -0.012649
# 5 0.003150 0.007443 0.005903 0.013431 0.024043 0.001833
# 6 0.007663 0.002975 0.000454 -0.012649 0.001833 0.033780
#
#
# Mechanical properties :
#
#
# Convention : Reuss Voigt Hill
#
# Bulk Modulus (GPa) = 23.27438 59.94318 41.60878
# Shear Modulus (GPa) = 25.93163 43.00139 34.46651
#
# Velocity S-wave (km/s) = 3.31742 4.27196 3.82459
# Velocity P-wave (km/s) = 4.95492 7.05496 6.09605
#
# Compressibility (1/GPa) = 0.04296570
#
# Stress axis : x y z
#
# Youngs Moduli (GPa) = 98.93588 43.31265 98.20177
#
# Poissons Ratio (x) = 0.00339 0.14748
# Poissons Ratio (y) = 0.00775 -0.13490
# Poissons Ratio (z) = 0.14858 -0.05950
#
# Static dielectric constant tensor:
#      x y z
#    x 1.898090 0.023440 0.014660 
#    y 0.023440 1.994730 0.100390 
#    z 0.014660 0.100390 1.879120 
# 
# From -- ./inp_files/186352.got.cif
#   From: 2010.05.17/outbox.cif.g08.bks.cpg/sg2_94_cif.got.tgz:186352.got - 2010.06.03 11:33:40.
