data_PCOD9090673
_publ_section_title
;
Structure prediction by ZEFSAII (Michael W. Deem and Ramdas Pophale) SiO2 
 PCOD9090673
Probable space group: P -1
;
_chemical_formula_sum "Si O2"
_cell_formula_units_Z 16
_cell_length_a 16.707651
_cell_length_b 11.399342
_cell_length_c 8.195370
_cell_angle_alpha 80.583642
_cell_angle_beta 109.462160
_cell_angle_gamma 40.045828
_cell_volume 685.222860
_symmetry_space_group_name_H-M "P -1"
_symmetry_group_IT_number 2
_symmetry_cell_setting 'triclinic'
loop_
_space_group_symop_operation_xyz
x,y,z
-x,-y,-z
loop_
_atom_site_type_symbol
_atom_site_label
_atom_site_fract_x
_atom_site_fract_y
_atom_site_fract_z
Si Si1 0.072812 0.095567 0.605481
Si Si2 0.470767 0.508635 0.663144
Si Si3 0.078863 0.536173 0.044705
Si Si4 0.270075 0.620503 0.743437
Si Si5 0.332282 0.188741 0.603960
Si Si6 0.270108 0.230091 0.932801
Si Si7 0.382258 0.856216 0.718124
Si Si8 0.827868 0.920328 0.022917
O O1 0.032509 0.189417 0.737354
O O2 0.886296 0.280534 0.366893
O O3 0.203230 0.819050 0.751320
O O4 0.187544 0.056640 0.605964
O O5 0.500000 0.500000 0.500000
O O6 0.306748 0.629080 0.586527
O O7 0.446681 0.666267 0.695380
O O8 0.648767 0.211361 0.881767
O O9 0.219649 0.375309 0.328644
O O10 0.906770 0.828136 0.914600
O O11 0.166602 0.439333 0.948647
O O12 0.000000 0.500000 0.000000
O O13 0.458716 0.337057 0.996388
O O14 0.250289 0.282509 0.713430
O O15 0.368154 0.007634 0.613594
O O16 0.521884 0.018754 0.809982
O O17 0.201124 0.181000 0.925886
#
# Coordination Sequence:
#
# PCOD9090673 Si02
#       8
#     2   2   2   2   2   2   2   2
#     4  10  19  38  69  95 127 176 221 269 339 400
#     4  11  23  40  67  97 132 177 215 272 344 403
#     4  10  25  42  63  96 137 179 224 283 334 400
#     4  10  20  40  67  97 132 175 219 269 339 406
#     4  11  23  44  72 101 131 183 233 277 346 408
#     4  10  23  44  69  99 132 182 231 280 338 405
#     4  11  21  43  69  98 136 168 221 285 330 409
#     4  11  21  43  65  91 139 178 215 280 342 393
#
# _framework density 23.350069000000001
#
# number of rings (size 3 to 8) (size 9 to 14) (size 15 to 20)
#    0.000    1.500    3.750    1.125    3.500    5.000 
#    6.750    1.875    0.000    0.000    0.000    0.000 
#    0.000    0.000    0.000    0.000    0.000    0.000 
#
# Total GULP energy -89278.085224 kJ/mol
# GULP energy per Si atom -5579.880327 kJ/mol
# Density = 2.329692 g / cm^3
# Si number density = 23.350069 Si / 1000 Ang^3
#
#
#
# Elastic Constant Matrix: (Units=GPa)
#
#
# Indices 1 2 3 4 5 6 
#
# 1 60.9122 25.7564 24.1187 -3.0576 8.5029 0.8979
# 2 25.7564 164.9547 22.8019 7.7375 -4.1605 -17.8536
# 3 24.1187 22.8019 77.6237 -5.1096 7.1484 -5.1181
# 4 -3.0576 7.7375 -5.1096 23.9557 1.6731 -1.0024
# 5 8.5029 -4.1605 7.1484 1.6731 30.0639 0.2771
# 6 0.8979 -17.8536 -5.1181 -1.0024 0.2771 32.7555
#
#
#
# Elastic Compliance Matrix: (Units=1/GPa)
#
#
# Indices 1 2 3 4 5 6 
#
# 1 0.020629 -0.003104 -0.005027 0.002805 -0.005198 -0.002913
# 2 -0.003104 0.007346 -0.001364 -0.003067 0.002355 0.003762
# 3 -0.005027 -0.001364 0.015437 0.003357 -0.002642 0.001931
# 4 0.002805 -0.003067 0.003357 0.044128 -0.004473 0.000164
# 5 -0.005198 0.002355 -0.002642 -0.004473 0.035931 0.000572
# 6 -0.002913 0.003762 0.001931 0.000164 0.000572 0.032962
#
#
# Mechanical properties :
#
#
# Convention : Reuss Voigt Hill
#
# Bulk Modulus (GPa) = 40.94624 49.87163 45.40894
# Shear Modulus (GPa) = 27.23863 32.74258 29.99061
#
# Velocity S-wave (km/s) = 3.41916 3.74872 3.58773
# Velocity P-wave (km/s) = 5.75860 6.33576 6.05406
#
# Compressibility (1/GPa) = 0.02442226
#
# Stress axis : x y z
#
# Youngs Moduli (GPa) = 48.47446 136.12907 64.77997
#
# Poissons Ratio (x) = 0.42258 0.32563
# Poissons Ratio (y) = 0.15048 0.08836
# Poissons Ratio (z) = 0.24367 0.18568
#
# Static dielectric constant tensor:
#      x y z
#    x 1.837580 0.029070 -0.072360 
#    y 0.029070 2.037390 -0.073280 
#    z -0.072360 -0.073280 2.217190 
# 
# From -- ./inp_files/331967.got.cif
#   From: 2010.05.17/outbox.cif.g08.bks.cpg/sg2_166_cif.got.tgz:331967.got - 2010.06.03 11:33:40.
