data_PCOD9090134
_publ_section_title
;
Structure prediction by ZEFSAII (Michael W. Deem and Ramdas Pophale) SiO2 
 PCOD9090134
Probable space group: P -1
;
_chemical_formula_sum "Si O2"
_cell_formula_units_Z 16
_cell_length_a 9.672304
_cell_length_b 17.850336
_cell_length_c 12.775713
_cell_angle_alpha 47.896495
_cell_angle_beta 122.519287
_cell_angle_gamma 149.867581
_cell_volume 816.232492
_symmetry_space_group_name_H-M "P -1"
_symmetry_group_IT_number 2
_symmetry_cell_setting 'triclinic'
loop_
_space_group_symop_operation_xyz
x,y,z
-x,-y,-z
loop_
_atom_site_type_symbol
_atom_site_label
_atom_site_fract_x
_atom_site_fract_y
_atom_site_fract_z
Si Si1 0.078640 0.357077 0.964784
Si Si2 0.845910 0.033901 0.124242
Si Si3 0.123762 0.079052 0.366096
Si Si4 0.230131 0.096972 0.094146
Si Si5 0.244454 0.946921 0.425240
Si Si6 0.670086 0.554468 0.621650
Si Si7 0.354672 0.694868 0.107916
Si Si8 0.476782 0.452941 0.196678
O O1 0.863395 0.156060 0.058266
O O2 0.310502 0.451186 0.059352
O O3 0.922427 0.380863 0.910610
O O4 0.225093 0.421920 0.850222
O O5 0.857727 0.964930 0.291247
O O6 0.139550 0.145943 0.084809
O O7 0.592026 0.875290 0.098257
O O8 0.307628 0.268496 0.273292
O O9 0.291269 0.067963 0.402588
O O10 0.000000 0.000000 0.500000
O O11 0.206184 0.981886 0.261601
O O12 0.525858 0.246777 0.016891
O O13 0.000000 0.000000 0.000000
O O14 0.970207 0.753557 0.535904
O O15 0.500000 0.000000 0.500000
O O16 0.500000 0.500000 0.500000
O O17 0.672816 0.434218 0.745681
O O18 0.544589 0.531433 0.703641
#
# Coordination Sequence:
#
# PCOD9090134 Si02
#       8
#     2   2   2   2   2   2   2   2
#     4  10  22  40  63  97 123 160 217 277 317 378
#     4   9  19  38  61  90 122 164 206 260 318 388
#     4  10  19  38  64  83 119 173 212 244 321 392
#     4   9  19  39  64  90 125 173 209 252 320 398
#     4  11  25  40  65 100 135 163 218 276 328 382
#     4  12  25  44  65  95 135 177 214 267 338 400
#     4  11  23  37  68  96 127 162 222 264 318 384
#     4  10  23  41  65  88 128 170 216 263 331 385
#
# _framework density 19.602257000000002
#
# number of rings (size 3 to 8) (size 9 to 14) (size 15 to 20)
#    0.000    1.750    1.250    3.375    3.500    2.500 
#    0.000    1.875    0.000    0.000    0.000    0.000 
#    0.000    0.000    0.000    0.000    0.000    0.000 
#
# Total GULP energy -89136.969901 kJ/mol
# GULP energy per Si atom -5571.060619 kJ/mol
# Density = 1.955764 g / cm^3
# Si number density = 19.602257 Si / 1000 Ang^3
#
#
#
# Elastic Constant Matrix: (Units=GPa)
#
#
# Indices 1 2 3 4 5 6 
#
# 1 143.5631 43.2291 74.9228 10.3729 4.6501 15.6194
# 2 43.2291 53.5008 25.3025 1.8363 -2.9672 4.0323
# 3 74.9228 25.3025 126.1310 3.6628 -10.4823 13.4792
# 4 10.3729 1.8363 3.6628 27.1689 -8.5514 -3.3925
# 5 4.6501 -2.9672 -10.4823 -8.5514 36.7397 -1.0564
# 6 15.6194 4.0323 13.4792 -3.3925 -1.0564 31.5144
#
#
#
# Elastic Compliance Matrix: (Units=1/GPa)
#
#
# Indices 1 2 3 4 5 6 
#
# 1 0.013783 -0.007882 -0.006490 -0.006161 -0.005779 -0.003904
# 2 -0.007882 0.025212 -0.000281 0.002627 0.003600 0.001205
# 3 -0.006490 -0.000281 0.012350 0.002129 0.004771 -0.001640
# 4 -0.006161 0.002627 0.002129 0.043289 0.011872 0.006865
# 5 -0.005779 0.003600 0.004771 0.011872 0.032444 0.002729
# 6 -0.003904 0.001205 -0.001640 0.006865 0.002729 0.035044
#
#
# Mechanical properties :
#
#
# Convention : Reuss Voigt Hill
#
# Bulk Modulus (GPa) = 45.37764 67.78929 56.58346
# Shear Modulus (GPa) = 25.15398 31.06731 28.11064
#
# Velocity S-wave (km/s) = 3.58609 3.98538 3.79100
# Velocity P-wave (km/s) = 6.35186 7.47229 6.93474
#
# Compressibility (1/GPa) = 0.02203728
#
# Stress axis : x y z
#
# Youngs Moduli (GPa) = 72.55142 39.66354 80.97173
#
# Poissons Ratio (x) = 0.31264 0.52554
# Poissons Ratio (y) = 0.57188 0.02278
# Poissons Ratio (z) = 0.47088 0.01116
#
# Static dielectric constant tensor:
#      x y z
#    x 1.693390 0.051190 -0.044190 
#    y 0.051190 1.605230 0.014320 
#    z -0.044190 0.014320 1.728380 
# 
# From -- ./inp_files/403034.got.cif
#   From: 2010.05.17/outbox.cif.g08.bks.cpg/sg2_202_cif.got.tgz:403034.got - 2010.06.03 11:33:40.
