data_PCOD9090634
_publ_section_title
;
Structure prediction by ZEFSAII (Michael W. Deem and Ramdas Pophale) SiO2 
 PCOD9090634
Probable space group: P -1
;
_chemical_formula_sum "Si O2"
_cell_formula_units_Z 14
_cell_length_a 22.851456
_cell_length_b 8.786541
_cell_length_c 6.967547
_cell_angle_alpha 62.897169
_cell_angle_beta 48.881871
_cell_angle_gamma 31.824014
_cell_volume 536.681481
_symmetry_space_group_name_H-M "P -1"
_symmetry_group_IT_number 2
_symmetry_cell_setting 'triclinic'
loop_
_space_group_symop_operation_xyz
x,y,z
-x,-y,-z
loop_
_atom_site_type_symbol
_atom_site_label
_atom_site_fract_x
_atom_site_fract_y
_atom_site_fract_z
Si Si1 0.291827 0.391001 0.117111
Si Si2 0.563430 0.225728 0.274309
Si Si3 0.066249 0.558470 0.589164
Si Si4 0.501105 0.276728 0.831752
Si Si5 0.892564 0.869682 0.451407
Si Si6 0.683462 0.531673 0.418302
Si Si7 0.158530 0.427592 0.886065
O O1 0.140858 0.602533 0.363182
O O2 0.380871 0.059888 0.154059
O O3 0.363212 0.415450 0.064131
O O4 0.299870 0.436615 0.854752
O O5 0.533281 0.248906 0.552479
O O6 0.517991 0.500562 0.170394
O O7 0.471614 0.249977 0.350471
O O8 0.723225 0.906060 0.092344
O O9 0.127464 0.283474 0.503240
O O10 0.089416 0.488446 0.804386
O O11 0.921067 0.827550 0.642110
O O12 0.772640 0.204754 0.450531
O O13 0.034196 0.678109 0.156269
O O14 0.753604 0.561778 0.359437
#
# Coordination Sequence:
#
# PCOD9090634 Si02
#       7
#     2   2   2   2   2   2   2
#     4  10  19  38  68  94 135 178 224 274 337 407
#     4  10  21  40  70 100 137 180 225 282 342 404
#     4  11  24  45  71  94 140 181 228 280 340 400
#     4   9  19  37  66 101 132 183 223 273 350 404
#     4  11  26  48  69  98 139 187 225 280 343 408
#     4  11  24  43  70  97 144 181 221 283 350 397
#     4  12  24  43  72 105 135 177 234 282 333 411
#
# _framework density 26.086234999999999
#
# number of rings (size 3 to 8) (size 9 to 14) (size 15 to 20)
#    0.000    1.429    2.857    2.143    4.000    0.571 
#    0.000    2.143    0.000    0.000    0.000    0.000 
#    0.000    0.000    0.000    0.000    0.000    0.000 
#
# Total GULP energy -78444.969201 kJ/mol
# GULP energy per Si atom -5603.212086 kJ/mol
# Density = 2.602686 g / cm^3
# Si number density = 26.086235 Si / 1000 Ang^3
#
#
#
# Elastic Constant Matrix: (Units=GPa)
#
#
# Indices 1 2 3 4 5 6 
#
# 1 136.5137 2.4361 61.1722 -20.6837 0.5538 -45.6857
# 2 2.4361 110.5954 34.1696 -29.0971 13.9609 -25.5634
# 3 61.1722 34.1696 94.0043 12.9665 -36.7871 -6.1278
# 4 -20.6837 -29.0971 12.9665 37.9044 2.0277 -9.8538
# 5 0.5538 13.9609 -36.7871 2.0277 44.5055 -0.1888
# 6 -45.6857 -25.5634 -6.1278 -9.8538 -0.1888 25.0622
#
#
#
# Elastic Compliance Matrix: (Units=1/GPa)
#
#
# Indices 1 2 3 4 5 6 
#
# 1 0.000758 -0.007026 0.005687 -0.009405 0.007290 -0.008038
# 2 -0.007026 0.002920 0.005091 -0.006408 0.003625 -0.011077
# 3 0.005687 0.005091 0.006297 0.010180 0.003163 0.021126
# 4 -0.009405 -0.006408 0.010180 0.007594 0.010119 -0.018130
# 5 0.007290 0.003625 0.003163 0.010119 0.023488 0.021915
# 6 -0.008038 -0.011077 0.021126 -0.018130 0.021915 0.012152
#
#
# Mechanical properties :
#
#
# Convention : Reuss Voigt Hill
#
# Bulk Modulus (GPa) = 57.21273 59.62994 58.42134
# Shear Modulus (GPa) = 97.02869 37.71678 67.37274
#
# Velocity S-wave (km/s) = 6.10542 3.80656 5.08753
# Velocity P-wave (km/s) = 8.46648 6.49833 7.54684
#
# Compressibility (1/GPa) = 0.01747863
#
# Stress axis : x y z
#
# Youngs Moduli (GPa) = 1319.61654 342.49244 158.79915
#
# Poissons Ratio (x) = 2.40645 -0.90308
# Poissons Ratio (y) = 9.27200 -0.80849
# Poissons Ratio (z) = -7.50453 -1.74372
#
# Static dielectric constant tensor:
#      x y z
#    x 2.064290 -0.015220 0.024160 
#    y -0.015220 1.990550 -0.026340 
#    z 0.024160 -0.026340 2.051010 
# 
# From -- ./inp_files/352107.got.cif
#   From: 2010.05.17/outbox.cif.g08.bks.cpg/sg2_177_cif.got.tgz:352107.got - 2010.06.03 11:33:40.
