data_PCOD9090868
_publ_section_title
;
Structure prediction by ZEFSAII (Michael W. Deem and Ramdas Pophale) SiO2 
 PCOD9090868
Probable space group: P -1
;
_chemical_formula_sum "Si O2"
_cell_formula_units_Z 16
_cell_length_a 13.553776
_cell_length_b 14.371999
_cell_length_c 11.113863
_cell_angle_alpha 29.999815
_cell_angle_beta 36.167768
_cell_angle_gamma 43.199762
_cell_volume 635.539291
_symmetry_space_group_name_H-M "P -1"
_symmetry_group_IT_number 2
_symmetry_cell_setting 'triclinic'
loop_
_space_group_symop_operation_xyz
x,y,z
-x,-y,-z
loop_
_atom_site_type_symbol
_atom_site_label
_atom_site_fract_x
_atom_site_fract_y
_atom_site_fract_z
Si Si1 0.294641 0.361433 0.444493
Si Si2 0.939174 0.912445 0.324165
Si Si3 0.986362 0.717656 0.042560
Si Si4 0.316447 0.223254 0.099799
Si Si5 0.804643 0.002985 0.729870
Si Si6 0.728335 0.034000 0.167187
Si Si7 0.829789 0.412166 0.226246
Si Si8 0.467593 0.355520 0.042980
O O1 0.109776 0.407719 0.631622
O O2 0.321260 0.414634 0.218027
O O3 0.328016 0.135564 0.665742
O O4 0.426859 0.468125 0.269132
O O5 0.861212 0.795293 0.635124
O O6 0.826735 0.926549 0.300502
O O7 0.132310 0.861537 0.157798
O O8 0.932866 0.124945 0.138348
O O9 0.835368 0.834082 0.983500
O O10 0.126187 0.631283 0.909174
O O11 0.317619 0.054788 0.191512
O O12 0.431493 0.256318 0.063886
O O13 0.308524 0.414471 0.820046
O O14 0.773045 0.221210 0.552131
O O15 0.000000 0.000000 0.500000
O O16 0.586807 0.188971 0.176009
O O17 0.000000 0.500000 0.000000
#
# Coordination Sequence:
#
# PCOD9090868 Si02
#       8
#     2   2   2   2   2   2   2   2
#     4  10  23  41  60  89 127 170 206 250 303 380
#     4  10  20  38  64  99 121 157 216 256 308 368
#     4  10  20  39  64  93 127 157 210 269 306 358
#     4  12  22  37  64  99 124 163 210 252 314 379
#     4  10  19  39  60  94 128 154 209 265 311 362
#     4  10  22  42  64  87 131 169 201 260 307 368
#     4  11  20  35  64  93 122 162 201 263 314 355
#     4  11  25  42  62  90 133 172 204 245 315 385
#
# _framework density 25.175470000000001
#
# number of rings (size 3 to 8) (size 9 to 14) (size 15 to 20)
#    0.000    1.500    6.250    0.375    1.750    3.000 
#    0.000    3.125    0.000    3.750    0.000    0.000 
#    0.000    0.000    0.000    0.000    0.000    0.000 
#
# Total GULP energy -89261.263035 kJ/mol
# GULP energy per Si atom -5578.828940 kJ/mol
# Density = 2.511817 g / cm^3
# Si number density = 25.175470 Si / 1000 Ang^3
#
#
#
# Elastic Constant Matrix: (Units=GPa)
#
#
# Indices 1 2 3 4 5 6 
#
# 1 80.5693 15.0298 32.7336 -11.8444 -26.6885 28.3679
# 2 15.0298 46.0166 25.7432 -7.6648 -9.2521 16.8880
# 3 32.7336 25.7432 90.1016 -25.0181 -17.5747 7.6598
# 4 -11.8444 -7.6648 -25.0181 39.1088 11.0273 -4.8061
# 5 -26.6885 -9.2521 -17.5747 11.0273 32.0081 -14.7524
# 6 28.3679 16.8880 7.6598 -4.8061 -14.7524 30.5915
#
#
#
# Elastic Compliance Matrix: (Units=1/GPa)
#
#
# Indices 1 2 3 4 5 6 
#
# 1 0.023785 0.004571 -0.006903 -0.001197 0.009202 -0.018602
# 2 0.004571 0.032916 -0.009723 -0.000543 -0.001378 -0.020725
# 3 -0.006903 -0.009723 0.018436 0.008071 0.003416 0.010068
# 4 -0.001197 -0.000543 0.008071 0.032490 -0.007517 0.000868
# 5 0.009202 -0.001378 0.003416 -0.007517 0.049452 0.014039
# 6 -0.018602 -0.020725 0.010068 0.000868 0.014039 0.065765
#
#
# Mechanical properties :
#
#
# Convention : Reuss Voigt Hill
#
# Bulk Modulus (GPa) = 19.59732 40.41117 30.00425
# Shear Modulus (GPa) = 18.94191 29.88705 24.41448
#
# Velocity S-wave (km/s) = 2.74596 3.44924 3.11750
# Velocity P-wave (km/s) = 4.22551 5.65240 4.99022
#
# Compressibility (1/GPa) = 0.05102738
#
# Stress axis : x y z
#
# Youngs Moduli (GPa) = 42.04254 30.38012 54.24200
#
# Poissons Ratio (x) = -0.13886 0.37444
# Poissons Ratio (y) = -0.19216 0.52738
# Poissons Ratio (z) = 0.29023 0.29538
#
# Static dielectric constant tensor:
#      x y z
#    x 2.076870 0.012320 0.033040 
#    y 0.012320 2.001470 0.027110 
#    z 0.033040 0.027110 2.026880 
# 
# From -- ./inp_files/454325.got.cif
#   From: 2010.05.17/outbox.cif.g08.bks.cpg/sg2_228_cif.got.tgz:454325.got - 2010.06.03 11:33:40.
