data_PCOD9090531
_publ_section_title
;
Structure prediction by ZEFSAII (Michael W. Deem and Ramdas Pophale) SiO2 
 PCOD9090531
Probable space group: P -1
;
_chemical_formula_sum "Si O2"
_cell_formula_units_Z 15
_cell_length_a 19.583961
_cell_length_b 8.598781
_cell_length_c 6.952554
_cell_angle_alpha 79.145612
_cell_angle_beta 108.121016
_cell_angle_gamma 45.353665
_cell_volume 632.291182
_symmetry_space_group_name_H-M "P -1"
_symmetry_group_IT_number 2
_symmetry_cell_setting 'triclinic'
loop_
_space_group_symop_operation_xyz
x,y,z
-x,-y,-z
loop_
_atom_site_type_symbol
_atom_site_label
_atom_site_fract_x
_atom_site_fract_y
_atom_site_fract_z
Si Si1 0.326510 0.283796 0.679645
Si Si2 0.269522 0.885897 0.975083
Si Si3 0.065343 0.860533 0.287487
Si Si4 0.053802 0.122042 0.508362
Si Si5 0.764827 0.694095 0.042545
Si Si6 0.603662 0.496009 0.474432
Si Si7 0.500000 0.500000 0.000000
Si Si8 0.574082 0.025391 0.505858
O O1 0.180245 0.535926 0.445421
O O2 0.317322 0.275280 0.901399
O O3 0.369087 0.378840 0.621620
O O4 0.407334 0.004976 0.702280
O O5 0.288198 0.761474 0.225019
O O6 0.380770 0.647509 0.983109
O O7 0.142742 0.084524 0.699044
O O8 0.271457 0.067615 0.975743
O O9 0.962955 0.978600 0.316449
O O10 0.112756 0.934655 0.416147
O O11 0.000000 0.000000 0.000000
O O12 0.912828 0.417962 0.258531
O O13 0.713546 0.759456 0.770527
O O14 0.563075 0.456819 0.273179
O O15 0.492936 0.724061 0.480590
O O16 0.500000 0.000000 0.500000
#
# Coordination Sequence:
#
# PCOD9090531 Si02
#       8
#     2   2   2   2   2   2   1   2
#     4  10  23  41  67  98 132 173 230 278 340 403
#     4  12  26  44  68 101 140 182 232 280 351 411
#     4  10  19  38  66  99 130 176 230 280 335 401
#     4  10  23  41  68  97 140 181 225 285 342 410
#     4  11  24  44  66 103 140 181 225 283 344 412
#     4  11  25  44  68  99 135 182 229 287 344 410
#     4  12  26  44  70  98 138 180 230 284 344 418
#     4  10  23  41  66  99 137 180 226 287 337 401
#
# _framework density 23.723247000000001
#
# number of rings (size 3 to 8) (size 9 to 14) (size 15 to 20)
#    0.000    1.333    1.333    3.200    1.867    9.600 
#    0.000    0.000    0.000    7.200    0.000    0.000 
#    0.000    0.000    0.000    0.000    0.000    0.000 
#
# Total GULP energy -83503.360745 kJ/mol
# GULP energy per Si atom -5566.890716 kJ/mol
# Density = 2.366925 g / cm^3
# Si number density = 23.723247 Si / 1000 Ang^3
#
#
#
# Elastic Constant Matrix: (Units=GPa)
#
#
# Indices 1 2 3 4 5 6 
#
# 1 70.0011 2.5361 18.7395 6.4989 5.9711 -5.7681
# 2 2.5361 99.2384 29.3625 19.2722 -10.0047 -15.7604
# 3 18.7395 29.3625 118.3435 5.6328 13.4564 -7.9287
# 4 6.4989 19.2722 5.6328 38.1902 -6.8299 -2.5590
# 5 5.9711 -10.0047 13.4564 -6.8299 35.0570 -1.8932
# 6 -5.7681 -15.7604 -7.9287 -2.5590 -1.8932 24.1749
#
#
#
# Elastic Compliance Matrix: (Units=1/GPa)
#
#
# Indices 1 2 3 4 5 6 
#
# 1 0.015538 0.001164 -0.002169 -0.003030 -0.001894 0.003286
# 2 0.001164 0.013769 -0.003313 -0.005340 0.004392 0.007946
# 3 -0.002169 -0.003313 0.010158 -0.000245 -0.004508 0.000275
# 4 -0.003030 -0.005340 -0.000245 0.030269 0.004946 -0.000693
# 5 -0.001894 0.004392 -0.004508 0.004946 0.033013 0.004042
# 6 0.003286 0.007946 0.000275 -0.000693 0.004042 0.047663
#
#
# Mechanical properties :
#
#
# Convention : Reuss Voigt Hill
#
# Bulk Modulus (GPa) = 32.43853 43.20659 37.82256
# Shear Modulus (GPa) = 29.52918 35.28076 32.40497
#
# Velocity S-wave (km/s) = 3.53191 3.86058 3.69990
# Velocity P-wave (km/s) = 5.50781 6.17450 5.85066
#
# Compressibility (1/GPa) = 0.03082754
#
# Stress axis : x y z
#
# Youngs Moduli (GPa) = 64.35940 72.62623 98.44174
#
# Poissons Ratio (x) = -0.08454 0.21356
# Poissons Ratio (y) = -0.07492 0.32618
# Poissons Ratio (z) = 0.13962 0.24064
#
# Static dielectric constant tensor:
#      x y z
#    x 1.944360 0.028650 -0.020160 
#    y 0.028650 1.927030 -0.024910 
#    z -0.020160 -0.024910 1.947890 
# 
# From -- ./inp_files/117079.got.cif
#   From: 2010.05.17/outbox.cif.g08.bks.cpg/sg2_59_cif.got.tgz:117079.got - 2010.06.03 11:33:40.
