data_PCOD9090992
_publ_section_title
;
Structure prediction by ZEFSAII (Michael W. Deem and Ramdas Pophale) SiO2 
 PCOD9090992
Probable space group: P -1
;
_chemical_formula_sum "Si O2"
_cell_formula_units_Z 14
_cell_length_a 14.853402
_cell_length_b 6.967787
_cell_length_c 7.663954
_cell_angle_alpha 111.291622
_cell_angle_beta 50.489692
_cell_angle_gamma 111.961087
_cell_volume 558.791435
_symmetry_space_group_name_H-M "P -1"
_symmetry_group_IT_number 2
_symmetry_cell_setting 'triclinic'
loop_
_space_group_symop_operation_xyz
x,y,z
-x,-y,-z
loop_
_atom_site_type_symbol
_atom_site_label
_atom_site_fract_x
_atom_site_fract_y
_atom_site_fract_z
Si Si1 0.071587 0.029332 0.600255
Si Si2 0.352016 0.261230 0.006255
Si Si3 0.236104 0.889777 0.584332
Si Si4 0.501826 0.964351 0.778522
Si Si5 0.566579 0.555441 0.652991
Si Si6 0.178015 0.491906 0.752748
Si Si7 0.142435 0.243546 0.028792
O O1 0.831523 0.306478 0.284142
O O2 0.113913 0.276673 0.665985
O O3 0.979076 0.906011 0.814722
O O4 0.000000 0.000000 0.500000
O O5 0.382631 0.029112 0.876665
O O6 0.451275 0.394576 0.804202
O O7 0.378563 0.339673 0.196212
O O8 0.224405 0.293465 0.114072
O O9 0.376279 0.890392 0.395228
O O10 0.184449 0.919000 0.463201
O O11 0.214048 0.099211 0.777773
O O12 0.520542 0.730431 0.653748
O O13 0.500000 0.000000 0.000000
O O14 0.679995 0.491672 0.405411
O O15 0.131116 0.445595 0.993550
#
# Coordination Sequence:
#
# PCOD9090992 Si02
#       7
#     2   2   2   2   2   2   2
#     4  11  25  45  69  91 122 163 213 266 310 367
#     4  10  22  37  62  93 127 162 215 250 312 367
#     4  11  23  43  65  93 128 167 209 255 316 371
#     4  10  20  37  63  92 124 168 205 255 306 364
#     4  10  19  39  62  90 122 170 206 259 303 366
#     4  11  22  42  65  91 129 165 209 253 316 372
#     4  11  25  41  62  95 130 166 203 261 315 372
#
# _framework density 25.054074
#
# number of rings (size 3 to 8) (size 9 to 14) (size 15 to 20)
#    0.000    1.429    4.286    2.571    2.000    5.143 
#    0.000    1.429    0.000    0.000    0.000    0.000 
#    0.000    0.000    0.000    0.000    0.000    0.000 
#
# Total GULP energy -78303.925666 kJ/mol
# GULP energy per Si atom -5593.137548 kJ/mol
# Density = 2.499705 g / cm^3
# Si number density = 25.054074 Si / 1000 Ang^3
#
#
#
# Elastic Constant Matrix: (Units=GPa)
#
#
# Indices 1 2 3 4 5 6 
#
# 1 115.7868 24.7523 -4.4127 -5.9421 20.2365 -5.9251
# 2 24.7523 75.7077 3.3715 -33.5484 12.1116 -26.4892
# 3 -4.4127 3.3715 95.7968 -29.6603 -0.5496 0.9234
# 4 -5.9421 -33.5484 -29.6603 36.7013 -2.7276 6.3367
# 5 20.2365 12.1116 -0.5496 -2.7276 37.6855 -8.5678
# 6 -5.9251 -26.4892 0.9234 6.3367 -8.5678 37.9017
#
#
#
# Elastic Compliance Matrix: (Units=1/GPa)
#
#
# Indices 1 2 3 4 5 6 
#
# 1 0.010160 -0.004421 -0.000158 -0.002504 -0.004706 -0.002143
# 2 -0.004421 0.039024 0.010626 0.040056 -0.002795 0.018995
# 3 -0.000158 0.010626 0.017135 0.022966 -0.000741 0.002977
# 4 -0.002504 0.040056 0.022966 0.079558 -0.002437 0.013192
# 5 -0.004706 -0.002795 -0.000741 -0.002437 0.030844 0.004709
# 6 -0.002143 0.018995 0.002977 0.013192 0.004709 0.038111
#
#
# Mechanical properties :
#
#
# Convention : Reuss Voigt Hill
#
# Bulk Modulus (GPa) = 12.75301 37.19038 24.97169
# Shear Modulus (GPa) = 21.84575 40.02971 30.93773
#
# Velocity S-wave (km/s) = 2.95607 4.00150 3.51784
# Velocity P-wave (km/s) = 4.09297 6.01877 5.14675
#
# Compressibility (1/GPa) = 0.07841288
#
# Stress axis : x y z
#
# Youngs Moduli (GPa) = 98.42573 25.62497 58.35880
#
# Poissons Ratio (x) = 0.11330 0.00922
# Poissons Ratio (y) = 0.43517 -0.62011
# Poissons Ratio (z) = 0.01555 -0.27229
#
# Static dielectric constant tensor:
#      x y z
#    x 2.045670 0.000560 0.048490 
#    y 0.000560 1.999630 0.024340 
#    z 0.048490 0.024340 1.960920 
# 
# From -- ./inp_files/295413.got.cif
#   From: 2010.05.17/outbox.cif.g08.bks.cpg/sg2_148_cif.got.tgz:295413.got - 2010.06.03 11:33:40.
