data_PCOD9090943
_publ_section_title
;
Structure prediction by ZEFSAII (Michael W. Deem and Ramdas Pophale) SiO2 
 PCOD9090943
Probable space group: P -1
;
_chemical_formula_sum "Si O2"
_cell_formula_units_Z 12
_cell_length_a 13.716390
_cell_length_b 11.881527
_cell_length_c 11.523517
_cell_angle_alpha 68.044247
_cell_angle_beta 150.777794
_cell_angle_gamma 132.636316
_cell_volume 537.099750
_symmetry_space_group_name_H-M "P -1"
_symmetry_group_IT_number 2
_symmetry_cell_setting 'triclinic'
loop_
_space_group_symop_operation_xyz
x,y,z
-x,-y,-z
loop_
_atom_site_type_symbol
_atom_site_label
_atom_site_fract_x
_atom_site_fract_y
_atom_site_fract_z
Si Si1 0.906866 0.400881 0.319543
Si Si2 0.171643 0.644555 0.301432
Si Si3 0.158123 0.089493 0.979319
Si Si4 0.788262 0.964707 0.196398
Si Si5 0.868854 0.735446 0.931984
Si Si6 0.832721 0.616689 0.603535
O O1 0.000000 0.500000 0.500000
O O2 0.927578 0.521685 0.203677
O O3 0.138085 0.413089 0.490846
O O4 0.559878 0.183664 0.055969
O O5 0.098356 0.481565 0.226815
O O6 0.521294 0.798316 0.661431
O O7 0.106749 0.742024 0.139726
O O8 0.054499 0.166266 0.901518
O O9 0.903629 0.865671 0.831490
O O10 0.222730 0.121710 0.898151
O O11 0.000000 0.000000 0.500000
O O12 0.934143 0.161663 0.232333
O O13 0.515317 0.518609 0.660493
#
# Coordination Sequence:
#
# PCOD9090943 Si02
#       6
#     2   2   2   2   2   2
#     4  10  19  39  62  82 121 158 202 245 285 351
#     4   9  19  37  62  87 116 159 200 249 295 343
#     4  10  22  38  62  90 121 157 203 254 286 360
#     4  12  23  40  60  91 128 160 193 244 315 357
#     4  10  19  41  64  89 116 157 212 244 296 351
#     4   9  22  37  59  86 124 153 196 251 296 356
#
# _framework density 22.342220000000001
#
# number of rings (size 3 to 8) (size 9 to 14) (size 15 to 20)
#    1.000    1.000    1.667    2.000    0.000    2.000 
#    3.000    5.000    0.000    0.000    0.000    0.000 
#    0.000    0.000    0.000    0.000    0.000    0.000 
#
# Total GULP energy -66855.294472 kJ/mol
# GULP energy per Si atom -5571.274539 kJ/mol
# Density = 2.229137 g / cm^3
# Si number density = 22.342220 Si / 1000 Ang^3
#
#
#
# Elastic Constant Matrix: (Units=GPa)
#
#
# Indices 1 2 3 4 5 6 
#
# 1 89.4760 -0.2796 27.2699 1.2963 -5.2773 -3.0196
# 2 -0.2796 88.8904 37.0739 13.9160 14.5414 -4.6265
# 3 27.2699 37.0739 57.5223 11.5765 19.7717 1.2391
# 4 1.2963 13.9160 11.5765 36.4610 6.5071 15.6943
# 5 -5.2773 14.5414 19.7717 6.5071 28.2135 9.3477
# 6 -3.0196 -4.6265 1.2391 15.6943 9.3477 40.9172
#
#
#
# Elastic Compliance Matrix: (Units=1/GPa)
#
#
# Indices 1 2 3 4 5 6 
#
# 1 0.016081 0.003986 -0.014062 0.000734 0.010871 -0.000702
# 2 0.003986 0.017332 -0.012180 -0.004811 -0.000025 0.004474
# 3 -0.014062 -0.012180 0.041748 -0.005337 -0.025789 0.004260
# 4 0.000734 -0.004811 -0.005337 0.036943 0.002857 -0.015151
# 5 0.010871 -0.000025 -0.025789 0.002857 0.059226 -0.013046
# 6 -0.000702 0.004474 0.004260 -0.015151 -0.013046 0.033556
#
#
# Mechanical properties :
#
#
# Convention : Reuss Voigt Hill
#
# Bulk Modulus (GPa) = 32.62749 40.44635 36.53692
# Shear Modulus (GPa) = 19.25920 32.57331 25.91626
#
# Velocity S-wave (km/s) = 2.93918 3.82242 3.40952
# Velocity P-wave (km/s) = 5.11406 6.13381 5.64700
#
# Compressibility (1/GPa) = 0.03064900
#
# Stress axis : x y z
#
# Youngs Moduli (GPa) = 62.18465 57.69535 23.95330
#
# Poissons Ratio (x) = -0.22995 0.33682
# Poissons Ratio (y) = -0.24784 0.29175
# Poissons Ratio (z) = 0.87442 0.70274
#
# Static dielectric constant tensor:
#      x y z
#    x 1.851250 -0.018920 -0.004610 
#    y -0.018920 1.889540 -0.014550 
#    z -0.004610 -0.014550 1.863250 
# 
# From -- ./inp_files/275209.got.cif
#   From: 2010.05.17/outbox.cif.g08.bks.cpg/sg2_138_cif.got.tgz:275209.got - 2010.06.03 11:33:40.
