data_PCOD9090635
_publ_section_title
;
Structure prediction by ZEFSAII (Michael W. Deem and Ramdas Pophale) SiO2 
 PCOD9090635
Probable space group: P -1
;
_chemical_formula_sum "Si O2"
_cell_formula_units_Z 16
_cell_length_a 16.154346
_cell_length_b 15.208051
_cell_length_c 11.197390
_cell_angle_alpha 136.240515
_cell_angle_beta 116.699695
_cell_angle_gamma 27.014797
_cell_volume 679.464011
_symmetry_space_group_name_H-M "P -1"
_symmetry_group_IT_number 2
_symmetry_cell_setting 'triclinic'
loop_
_space_group_symop_operation_xyz
x,y,z
-x,-y,-z
loop_
_atom_site_type_symbol
_atom_site_label
_atom_site_fract_x
_atom_site_fract_y
_atom_site_fract_z
Si Si1 0.018337 0.155740 0.798077
Si Si2 0.217193 0.811242 0.003793
Si Si3 0.800489 0.473002 0.490057
Si Si4 0.819443 0.732358 0.720434
Si Si5 0.804277 0.621283 0.257712
Si Si6 0.123400 0.757570 0.451653
Si Si7 0.594753 0.262680 0.160563
Si Si8 0.600895 0.667763 0.319115
O O1 0.015011 0.148343 0.644817
O O2 0.818453 0.510472 0.045839
O O3 0.976643 0.059177 0.708493
O O4 0.234287 0.924011 0.797150
O O5 0.354950 0.695672 0.867229
O O6 0.371844 0.511761 0.881863
O O7 0.070351 0.103883 0.266722
O O8 0.000000 0.000000 0.000000
O O9 0.727083 0.709622 0.655727
O O10 0.778815 0.453628 0.590097
O O11 0.629698 0.617133 0.429632
O O12 0.000000 0.500000 0.500000
O O13 0.966940 0.583781 0.786461
O O14 0.647563 0.065221 0.929778
O O15 0.802962 0.511106 0.250815
O O16 0.611304 0.971979 0.494100
O O17 0.341056 0.558189 0.338681
#
# Coordination Sequence:
#
# PCOD9090635 Si02
#       8
#     2   2   2   2   2   2   2   2
#     4  10  22  44  63  90 129 169 210 258 316 374
#     4  10  19  38  68  95 121 162 212 263 317 366
#     4  11  21  40  64  93 127 158 212 263 312 373
#     4  11  20  40  63  92 125 165 203 259 323 372
#     4  10  21  39  61  90 127 164 204 259 320 372
#     4  11  25  42  68  92 126 173 212 258 315 377
#     4  11  23  42  71  91 126 172 212 257 317 379
#     4  10  20  35  64  91 122 161 206 263 312 372
#
# _framework density 23.547971
#
# number of rings (size 3 to 8) (size 9 to 14) (size 15 to 20)
#    0.000    1.500    2.500    4.875    1.750    0.500 
#    6.750    1.875    0.000    0.000    0.000    0.000 
#    0.000    0.000    0.000    0.000    0.000    0.000 
#
# Total GULP energy -89087.169743 kJ/mol
# GULP energy per Si atom -5567.948109 kJ/mol
# Density = 2.349438 g / cm^3
# Si number density = 23.547971 Si / 1000 Ang^3
#
#
#
# Elastic Constant Matrix: (Units=GPa)
#
#
# Indices 1 2 3 4 5 6 
#
# 1 108.7022 21.4747 44.2382 8.0401 6.4992 17.7129
# 2 21.4747 52.0307 16.1330 -4.7794 -4.1058 9.1357
# 3 44.2382 16.1330 112.5022 -4.8569 27.6051 0.9636
# 4 8.0401 -4.7794 -4.8569 32.4212 4.5614 6.5263
# 5 6.4992 -4.1058 27.6051 4.5614 44.0223 2.3058
# 6 17.7129 9.1357 0.9636 6.5263 2.3058 29.8516
#
#
#
# Elastic Compliance Matrix: (Units=1/GPa)
#
#
# Indices 1 2 3 4 5 6 
#
# 1 0.013043 -0.002868 -0.005252 -0.003472 0.001778 -0.006070
# 2 -0.002868 0.023257 -0.003038 0.004400 0.004388 -0.006619
# 3 -0.005252 -0.003038 0.013611 0.003390 -0.008579 0.003528
# 4 -0.003472 0.004400 0.003390 0.034831 -0.004463 -0.006666
# 5 0.001778 0.004388 -0.008579 -0.004463 0.028881 -0.003376
# 6 -0.006070 -0.006619 0.003528 -0.006666 -0.003376 0.040731
#
#
# Mechanical properties :
#
#
# Convention : Reuss Voigt Hill
#
# Bulk Modulus (GPa) = 36.23589 48.54743 42.39166
# Shear Modulus (GPa) = 26.90095 34.01830 30.45963
#
# Velocity S-wave (km/s) = 3.38359 3.80496 3.60045
# Velocity P-wave (km/s) = 5.53953 6.32177 5.94354
#
# Compressibility (1/GPa) = 0.02759695
#
# Stress axis : x y z
#
# Youngs Moduli (GPa) = 76.67015 42.99706 73.47240
#
# Poissons Ratio (x) = 0.12330 0.38585
# Poissons Ratio (y) = 0.21986 0.22318
# Poissons Ratio (z) = 0.40264 0.13061
#
# Static dielectric constant tensor:
#      x y z
#    x 1.861880 -0.013350 -0.021580 
#    y -0.013350 1.984850 0.019780 
#    z -0.021580 0.019780 2.101940 
# 
# From -- ./inp_files/455961.got.cif
#   From: 2010.05.17/outbox.cif.g08.bks.cpg/sg2_228_cif.got.tgz:455961.got - 2010.06.03 11:33:40.
