data_PCOD9090399
_publ_section_title
;
Structure prediction by ZEFSAII (Michael W. Deem and Ramdas Pophale) SiO2 
 PCOD9090399
Probable space group: P -1
;
_chemical_formula_sum "Si O2"
_cell_formula_units_Z 16
_cell_length_a 9.322990
_cell_length_b 8.778450
_cell_length_c 19.414432
_cell_angle_alpha 116.821084
_cell_angle_beta 117.613531
_cell_angle_gamma 30.374446
_cell_volume 707.227102
_symmetry_space_group_name_H-M "P -1"
_symmetry_group_IT_number 2
_symmetry_cell_setting 'triclinic'
loop_
_space_group_symop_operation_xyz
x,y,z
-x,-y,-z
loop_
_atom_site_type_symbol
_atom_site_label
_atom_site_fract_x
_atom_site_fract_y
_atom_site_fract_z
Si Si1 0.835803 0.071600 0.297980
Si Si2 0.659462 0.002829 0.488978
Si Si3 0.167912 0.312422 0.773045
Si Si4 0.100842 0.684450 0.925260
Si Si5 0.363597 0.714521 0.265326
Si Si6 0.639354 0.899412 0.686637
Si Si7 0.706161 0.388622 0.461305
Si Si8 0.650127 0.330278 0.906395
O O1 0.674690 0.364110 0.280847
O O2 0.798440 0.152529 0.385971
O O3 0.746288 0.954779 0.243512
O O4 0.158247 0.792374 0.286623
O O5 0.522699 0.080180 0.399590
O O6 0.527460 0.281381 0.554590
O O7 0.500000 0.000000 0.500000
O O8 0.998578 0.751165 0.498734
O O9 0.108567 0.485262 0.859790
O O10 0.899321 0.572036 0.713728
O O11 0.432092 0.143836 0.751182
O O12 0.315625 0.602788 0.905812
O O13 0.215052 0.625425 0.014815
O O14 0.797358 0.038968 0.917191
O O15 0.298068 0.721233 0.173267
O O16 0.297522 0.974316 0.310019
O O17 0.500000 0.500000 0.500000
#
# Coordination Sequence:
#
# PCOD9090399 Si02
#       8
#     2   2   2   2   2   2   2   2
#     4  12  27  42  66  94 140 174 219 284 348 411
#     4  12  26  45  69 101 134 174 232 301 353 405
#     4  12  23  43  63 101 129 176 222 277 330 403
#     4  10  19  38  65  98 131 169 222 275 322 398
#     4  12  23  44  64 101 133 177 219 279 350 405
#     4  12  24  41  71  95 128 170 233 281 333 406
#     4  12  26  48  68  94 135 190 234 278 356 428
#     4  10  20  37  66  98 130 171 219 274 330 401
#
# _framework density 22.623567000000001
#
# number of rings (size 3 to 8) (size 9 to 14) (size 15 to 20)
#    0.000    0.500    2.500    6.750    0.000    2.000 
#    0.000    1.250    0.000    0.000    0.000    0.000 
#    0.000    0.000    0.000    0.000    0.000    0.000 
#
# Total GULP energy -89237.900907 kJ/mol
# GULP energy per Si atom -5577.368807 kJ/mol
# Density = 2.257208 g / cm^3
# Si number density = 22.623567 Si / 1000 Ang^3
#
#
#
# Elastic Constant Matrix: (Units=GPa)
#
#
# Indices 1 2 3 4 5 6 
#
# 1 100.2177 11.8108 32.2074 2.4300 1.7659 -8.9831
# 2 11.8108 79.7537 9.9610 2.0520 -3.0055 -12.7141
# 3 32.2074 9.9610 130.5225 9.1488 9.8638 -1.8076
# 4 2.4300 2.0520 9.1488 37.0732 0.4750 4.1472
# 5 1.7659 -3.0055 9.8638 0.4750 19.8177 6.2484
# 6 -8.9831 -12.7141 -1.8076 4.1472 6.2484 40.4328
#
#
#
# Elastic Compliance Matrix: (Units=1/GPa)
#
#
# Indices 1 2 3 4 5 6 
#
# 1 0.011135 -0.000996 -0.002583 -0.000272 -0.000531 0.002155
# 2 -0.000996 0.013473 -0.000762 -0.000943 0.001312 0.003875
# 3 -0.002583 -0.000762 0.008832 -0.001963 -0.004379 0.000460
# 4 -0.000272 -0.000943 -0.001963 0.027904 0.001295 -0.003507
# 5 -0.000531 0.001312 -0.004379 0.001295 0.055573 -0.008622
# 6 0.002155 0.003875 0.000460 -0.003507 -0.008622 0.028143
#
#
# Mechanical properties :
#
#
# Convention : Reuss Voigt Hill
#
# Bulk Modulus (GPa) = 40.38980 46.49470 43.44225
# Shear Modulus (GPa) = 30.86561 36.56569 33.71565
#
# Velocity S-wave (km/s) = 3.69767 4.02464 3.86461
# Velocity P-wave (km/s) = 6.01016 6.49562 6.25760
#
# Compressibility (1/GPa) = 0.02475873
#
# Stress axis : x y z
#
# Youngs Moduli (GPa) = 89.80903 74.22422 113.22654
#
# Poissons Ratio (x) = 0.07392 0.29242
# Poissons Ratio (y) = 0.08944 0.08626
# Poissons Ratio (z) = 0.23194 0.05655
#
# Static dielectric constant tensor:
#      x y z
#    x 1.936790 0.015040 0.033180 
#    y 0.015040 1.821680 -0.027480 
#    z 0.033180 -0.027480 1.895910 
# 
# From -- ./inp_files/588059.got.cif
#   From: 2010.05.17/outbox.cif.g08.bks.cpg/sg2_295_cif.got.tgz:588059.got - 2010.06.03 11:33:40.
