data_PCOD9090129
_publ_section_title
;
Structure prediction by ZEFSAII (Michael W. Deem and Ramdas Pophale) SiO2 
 PCOD9090129
Probable space group: P -1
;
_chemical_formula_sum "Si O2"
_cell_formula_units_Z 15
_cell_length_a 9.272452
_cell_length_b 8.620812
_cell_length_c 10.424755
_cell_angle_alpha 116.935255
_cell_angle_beta 127.362425
_cell_angle_gamma 72.443823
_cell_volume 590.057678
_symmetry_space_group_name_H-M "P -1"
_symmetry_group_IT_number 2
_symmetry_cell_setting 'triclinic'
loop_
_space_group_symop_operation_xyz
x,y,z
-x,-y,-z
loop_
_atom_site_type_symbol
_atom_site_label
_atom_site_fract_x
_atom_site_fract_y
_atom_site_fract_z
Si Si1 0.539770 0.796261 0.469324
Si Si2 0.672930 0.874862 0.842704
Si Si3 0.143116 0.409608 0.445181
Si Si4 0.809341 0.213017 0.131353
Si Si5 0.745124 0.034510 0.298481
Si Si6 0.500000 0.500000 0.000000
Si Si7 0.803500 0.667876 0.076478
Si Si8 0.198361 0.682681 0.369618
O O1 0.640154 0.789572 0.657600
O O2 0.694781 0.698013 0.432081
O O3 0.356302 0.698056 0.356700
O O4 0.500000 0.000000 0.500000
O O5 0.471071 0.928505 0.803324
O O6 0.761411 0.744987 0.943709
O O7 0.775685 0.054391 0.957362
O O8 0.234965 0.555397 0.462408
O O9 0.000000 0.500000 0.500000
O O10 0.002012 0.297041 0.246543
O O11 0.820259 0.123811 0.244931
O O12 0.636267 0.346247 0.083674
O O13 0.818105 0.125805 0.500035
O O14 0.776133 0.829347 0.223091
O O15 0.337800 0.468817 0.005081
O O16 0.014914 0.621717 0.185902
#
# Coordination Sequence:
#
# PCOD9090129 Si02
#       8
#     2   2   2   2   2   1   2   2
#     4  11  29  51  73 104 144 199 251 306 373 444
#     4  10  22  44  67  95 148 194 233 304 370 434
#     4  12  26  46  75 108 145 193 248 310 366 434
#     4  11  21  38  67 105 146 184 243 297 362 431
#     4  10  19  38  64 101 147 191 233 297 355 436
#     4  12  20  34  64 112 154 180 246 302 354 438
#     4  11  21  37  69 107 148 192 242 297 367 444
#     4  11  24  43  70 104 145 191 241 302 371 436
#
# _framework density 25.421244000000002
#
# number of rings (size 3 to 8) (size 9 to 14) (size 15 to 20)
#    0.000    1.067    5.333    1.600    3.733    3.733 
#    0.000    2.000    0.000    0.000    0.000    0.000 
#    0.000    0.000    0.000    0.000    0.000    0.000 
#
# Total GULP energy -83782.881078 kJ/mol
# GULP energy per Si atom -5585.525405 kJ/mol
# Density = 2.536338 g / cm^3
# Si number density = 25.421244 Si / 1000 Ang^3
#
#
#
# Elastic Constant Matrix: (Units=GPa)
#
#
# Indices 1 2 3 4 5 6 
#
# 1 115.4857 56.6616 22.7767 -5.5469 36.5186 -3.1047
# 2 56.6616 61.6176 13.4656 -11.1468 9.3136 -1.7376
# 3 22.7767 13.4656 59.2136 -0.7608 6.3802 4.7548
# 4 -5.5469 -11.1468 -0.7608 36.4273 -10.4129 8.3347
# 5 36.5186 9.3136 6.3802 -10.4129 44.7716 -0.6334
# 6 -3.1047 -1.7376 4.7548 8.3347 -0.6334 39.4247
#
#
#
# Elastic Compliance Matrix: (Units=1/GPa)
#
#
# Indices 1 2 3 4 5 6 
#
# 1 0.024535 -0.020672 -0.003228 -0.008208 -0.017120 0.002870
# 2 -0.020672 0.035701 -0.001165 0.011775 0.012308 -0.002206
# 3 -0.003228 -0.001165 0.018579 0.000199 0.000237 -0.002585
# 4 -0.008208 0.011775 0.000199 0.034994 0.012252 -0.007353
# 5 -0.017120 0.012308 0.000237 0.012252 0.036515 -0.002838
# 6 0.002870 -0.002206 -0.002585 -0.007353 -0.002838 0.027314
#
#
# Mechanical properties :
#
#
# Convention : Reuss Voigt Hill
#
# Bulk Modulus (GPa) = 34.86111 46.90274 40.88193
# Shear Modulus (GPa) = 21.06778 33.68559 27.37668
#
# Velocity S-wave (km/s) = 2.88192 3.64414 3.28521
# Velocity P-wave (km/s) = 4.98168 6.01636 5.52330
#
# Compressibility (1/GPa) = 0.02868526
#
# Stress axis : x y z
#
# Youngs Moduli (GPa) = 40.75821 28.01059 53.82431
#
# Poissons Ratio (x) = 0.57904 0.17373
# Poissons Ratio (y) = 0.84257 0.06269
# Poissons Ratio (z) = 0.13155 0.03263
#
# Static dielectric constant tensor:
#      x y z
#    x 2.113600 -0.125940 -0.088580 
#    y -0.125940 2.065900 0.103390 
#    z -0.088580 0.103390 2.105280 
# 
# From -- ./inp_files/383403.got.cif
#   From: 2010.05.17/outbox.cif.g08.bks.cpg/sg2_192_cif.got.tgz:383403.got - 2010.06.03 11:33:40.
