data_PCOD9090064
_publ_section_title
;
Structure prediction by ZEFSAII (Michael W. Deem and Ramdas Pophale) SiO2 
 PCOD9090064
Probable space group: P -1
;
_chemical_formula_sum "Si O2"
_cell_formula_units_Z 16
_cell_length_a 5.880533
_cell_length_b 7.431671
_cell_length_c 20.434754
_cell_angle_alpha 115.424912
_cell_angle_beta 52.657512
_cell_angle_gamma 114.036499
_cell_volume 627.664505
_symmetry_space_group_name_H-M "P -1"
_symmetry_group_IT_number 2
_symmetry_cell_setting 'triclinic'
loop_
_space_group_symop_operation_xyz
x,y,z
-x,-y,-z
loop_
_atom_site_type_symbol
_atom_site_label
_atom_site_fract_x
_atom_site_fract_y
_atom_site_fract_z
Si Si1 0.712587 0.978058 0.760472
Si Si2 0.727903 0.623910 0.895466
Si Si3 0.313295 0.241688 0.676562
Si Si4 0.869549 0.262306 0.503778
Si Si5 0.505473 0.735571 0.555112
Si Si6 0.705955 0.216531 0.924388
Si Si7 0.326736 0.298099 0.836005
Si Si8 0.282358 0.670806 0.720680
O O1 0.699111 0.026826 0.847399
O O2 0.505480 0.124092 0.791903
O O3 0.032039 0.063965 0.690556
O O4 0.578349 0.756134 0.722631
O O5 0.751835 0.430737 0.908139
O O6 0.492417 0.512912 0.867072
O O7 0.022913 0.706419 0.817867
O O8 0.586937 0.785006 0.984847
O O9 0.637954 0.226629 0.598151
O O10 0.301945 0.303135 0.763618
O O11 0.244629 0.431799 0.678228
O O12 0.650138 0.188855 0.469061
O O13 0.000000 0.500000 0.500000
O O14 0.160528 0.186227 0.464814
O O15 0.500000 0.500000 0.500000
O O16 0.315373 0.762278 0.656908
O O17 0.006860 0.241118 0.915047
#
# Coordination Sequence:
#
# PCOD9090064 Si02
#       8
#     2   2   2   2   2   2   2   2
#     4  10  24  41  60  94 130 159 215 266 316 393
#     4  10  20  35  66  90 120 166 212 255 322 387
#     4  11  22  42  66  88 126 172 208 265 327 380
#     4  10  21  37  68  94 127 173 217 273 328 390
#     4  10  22  39  63  99 130 166 222 276 320 395
#     4   9  19  40  58  92 126 161 207 264 317 378
#     4  10  19  38  63  91 125 163 209 265 314 390
#     4  12  22  42  66  92 122 173 212 260 331 388
#
# _framework density 25.491323000000001
#
# number of rings (size 3 to 8) (size 9 to 14) (size 15 to 20)
#    0.000    1.750    6.250    0.375    5.250    0.500 
#    9.000    1.875    0.000    0.000    0.000    0.000 
#    0.000    0.000    0.000    0.000    0.000    0.000 
#
# Total GULP energy -89472.729147 kJ/mol
# GULP energy per Si atom -5592.045572 kJ/mol
# Density = 2.543330 g / cm^3
# Si number density = 25.491323 Si / 1000 Ang^3
#
#
#
# Elastic Constant Matrix: (Units=GPa)
#
#
# Indices 1 2 3 4 5 6 
#
# 1 129.7933 28.5973 44.2057 -13.4990 -18.4830 10.0541
# 2 28.5973 85.9677 42.3998 -5.8195 -13.5245 13.5357
# 3 44.2057 42.3998 163.5048 -22.5908 -37.6745 11.6469
# 4 -13.4990 -5.8195 -22.5908 31.1332 5.9612 -9.5830
# 5 -18.4830 -13.5245 -37.6745 5.9612 30.6221 2.7713
# 6 10.0541 13.5357 11.6469 -9.5830 2.7713 32.9428
#
#
#
# Elastic Compliance Matrix: (Units=1/GPa)
#
#
# Indices 1 2 3 4 5 6 
#
# 1 0.009190 -0.001710 -0.000863 0.001894 0.003500 -0.001540
# 2 -0.001710 0.014671 -0.002480 -0.002135 0.003312 -0.005529
# 3 -0.000863 -0.002480 0.009998 0.003873 0.010109 -0.001976
# 4 0.001894 -0.002135 0.003873 0.039341 -0.003660 0.010682
# 5 0.003500 0.003312 0.010109 -0.003660 0.050404 -0.011308
# 6 -0.001540 -0.005529 -0.001976 0.010682 -0.011308 0.037855
#
#
# Mechanical properties :
#
#
# Convention : Reuss Voigt Hill
#
# Bulk Modulus (GPa) = 42.10059 67.74126 54.92093
# Shear Modulus (GPa) = 27.85764 36.54382 32.20073
#
# Velocity S-wave (km/s) = 3.30938 3.79037 3.55801
# Velocity P-wave (km/s) = 5.58159 6.76667 6.20250
#
# Compressibility (1/GPa) = 0.02375264
#
# Stress axis : x y z
#
# Youngs Moduli (GPa) = 108.81249 68.15951 100.02388
#
# Poissons Ratio (x) = 0.11654 0.08635
# Poissons Ratio (y) = 0.18606 0.24807
# Poissons Ratio (z) = 0.09393 0.16905
#
# Static dielectric constant tensor:
#      x y z
#    x 2.033270 -0.018340 0.008280 
#    y -0.018340 2.023520 0.009020 
#    z 0.008280 0.009020 1.998290 
# 
# From -- ./inp_files/43729.got.cif
#   From: 2010.05.17/outbox.cif.g08.bks.cpg/sg2_22_cif.got.tgz:43729.got - 2010.06.03 11:33:40.
