data_PCOD9090981
_publ_section_title
;
Structure prediction by ZEFSAII (Michael W. Deem and Ramdas Pophale) SiO2 
 PCOD9090981
Probable space group: P -1
;
_chemical_formula_sum "Si O2"
_cell_formula_units_Z 12
_cell_length_a 12.834924
_cell_length_b 13.779946
_cell_length_c 6.878525
_cell_angle_alpha 119.580388
_cell_angle_beta 121.246837
_cell_angle_gamma 32.643825
_cell_volume 556.761424
_symmetry_space_group_name_H-M "P -1"
_symmetry_group_IT_number 2
_symmetry_cell_setting 'triclinic'
loop_
_space_group_symop_operation_xyz
x,y,z
-x,-y,-z
loop_
_atom_site_type_symbol
_atom_site_label
_atom_site_fract_x
_atom_site_fract_y
_atom_site_fract_z
Si Si1 0.461900 0.679742 0.074461
Si Si2 0.485118 0.129952 0.216871
Si Si3 0.085219 0.364938 0.275546
Si Si4 0.337578 0.016124 0.379693
Si Si5 0.259856 0.474665 0.136204
Si Si6 0.628499 0.445226 0.382258
O O1 0.403522 0.850695 0.194559
O O2 0.507273 0.604199 0.261344
O O3 0.662017 0.524281 0.985300
O O4 0.313810 0.705028 0.837129
O O5 0.283065 0.276299 0.292558
O O6 0.669204 0.001592 0.414181
O O7 0.443938 0.262971 0.169065
O O8 0.500000 0.000000 0.000000
O O9 0.000000 0.500000 0.500000
O O10 0.149708 0.200778 0.270649
O O11 0.926503 0.461799 0.049285
O O12 0.500000 0.000000 0.500000
O O13 0.217511 0.586051 0.387516
O O14 0.500000 0.500000 0.500000
#
# Coordination Sequence:
#
# PCOD9090981 Si02
#       6
#     2   2   2   2   2   2
#     4  10  19  39  62  89 123 161 212 254 301 371
#     4  11  21  37  58  89 123 166 210 245 297 381
#     4  11  23  37  57  92 133 166 197 254 319 362
#     4  10  20  36  58  86 124 162 197 245 308 366
#     4  11  20  35  61  91 119 159 210 255 307 361
#     4   9  20  36  64  89 115 163 218 252 300 367
#
# _framework density 21.553215999999999
#
# number of rings (size 3 to 8) (size 9 to 14) (size 15 to 20)
#    0.000    1.667    1.667    5.500    0.000    0.000 
#    0.000    0.833    0.000    9.000    0.000    0.000 
#    0.000    0.000    0.000    0.000    0.000    0.000 
#
# Total GULP energy -66882.094596 kJ/mol
# GULP energy per Si atom -5573.507883 kJ/mol
# Density = 2.150416 g / cm^3
# Si number density = 21.553216 Si / 1000 Ang^3
#
#
#
# Elastic Constant Matrix: (Units=GPa)
#
#
# Indices 1 2 3 4 5 6 
#
# 1 55.6213 24.5787 32.7885 1.4914 -11.5763 22.8279
# 2 24.5787 60.2771 40.9898 6.5485 1.1416 28.8756
# 3 32.7885 40.9898 181.6161 9.8311 11.1844 19.4448
# 4 1.4914 6.5485 9.8311 45.5773 15.0603 -0.8527
# 5 -11.5763 1.1416 11.1844 15.0603 45.3491 4.6147
# 6 22.8279 28.8756 19.4448 -0.8527 4.6147 28.6696
#
#
#
# Elastic Compliance Matrix: (Units=1/GPa)
#
#
# Indices 1 2 3 4 5 6 
#
# 1 0.035303 0.004626 -0.004550 -0.006563 0.015491 -0.032372
# 2 0.004626 0.038243 -0.005236 -0.007998 0.008258 -0.040217
# 3 -0.004550 -0.005236 0.007200 0.000579 -0.003465 0.004589
# 4 -0.006563 -0.007998 0.000579 0.027560 -0.012367 0.015699
# 5 0.015491 0.008258 -0.003465 -0.012367 0.033203 -0.024015
# 6 -0.032372 -0.040217 0.004589 0.015699 -0.024015 0.102382
#
#
# Mechanical properties :
#
#
# Convention : Reuss Voigt Hill
#
# Bulk Modulus (GPa) = 14.19949 54.91428 34.55688
# Shear Modulus (GPa) = 18.00598 37.19636 27.60117
#
# Velocity S-wave (km/s) = 2.89350 4.15877 3.58244
# Velocity P-wave (km/s) = 4.21492 6.97096 5.76020
#
# Compressibility (1/GPa) = 0.07042507
#
# Stress axis : x y z
#
# Youngs Moduli (GPa) = 28.32638 26.14888 138.88520
#
# Poissons Ratio (x) = -0.12098 0.63200
# Poissons Ratio (y) = -0.13105 0.72723
# Poissons Ratio (z) = 0.12890 0.13692
#
# Static dielectric constant tensor:
#      x y z
#    x 1.865800 0.114810 -0.013170 
#    y 0.114810 1.691280 0.013910 
#    z -0.013170 0.013910 1.839120 
# 
# From -- ./inp_files/50753.got.cif
#   From: 2010.05.17/outbox.cif.g08.bks.cpg/sg2_26_cif.got.tgz:50753.got - 2010.06.03 11:33:40.
