data_PCOD9090354
_publ_section_title
;
Structure prediction by ZEFSAII (Michael W. Deem and Ramdas Pophale) SiO2 
 PCOD9090354
Probable space group: P -1
;
_chemical_formula_sum "Si O2"
_cell_formula_units_Z 16
_cell_length_a 15.066753
_cell_length_b 8.101544
_cell_length_c 9.730725
_cell_angle_alpha 116.330327
_cell_angle_beta 116.726662
_cell_angle_gamma 111.800851
_cell_volume 666.546750
_symmetry_space_group_name_H-M "P -1"
_symmetry_group_IT_number 2
_symmetry_cell_setting 'triclinic'
loop_
_space_group_symop_operation_xyz
x,y,z
-x,-y,-z
loop_
_atom_site_type_symbol
_atom_site_label
_atom_site_fract_x
_atom_site_fract_y
_atom_site_fract_z
Si Si1 0.943789 0.629457 0.535309
Si Si2 0.148415 0.185203 0.849338
Si Si3 0.893280 0.118054 0.709282
Si Si4 0.406354 0.276302 0.734642
Si Si5 0.728794 0.339506 0.076076
Si Si6 0.557899 0.090046 0.414802
Si Si7 0.599823 0.532950 0.691713
Si Si8 0.052533 0.667273 0.894839
O O1 0.783503 0.441586 0.305877
O O2 0.974716 0.694416 0.741027
O O3 0.000000 0.500000 0.500000
O O4 0.045175 0.892023 0.609194
O O5 0.244428 0.438816 0.911191
O O6 0.031155 0.171630 0.819310
O O7 0.250271 0.216575 0.041012
O O8 0.938407 0.375435 0.773102
O O9 0.751978 0.854284 0.442535
O O10 0.866457 0.117072 0.850524
O O11 0.378853 0.019000 0.632559
O O12 0.496886 0.400910 0.704249
O O13 0.500000 0.500000 0.000000
O O14 0.832834 0.319418 0.085073
O O15 0.573856 0.062515 0.836084
O O16 0.500000 0.000000 0.500000
O O17 0.639957 0.388647 0.597209
O O18 0.500000 0.500000 0.500000
#
# Coordination Sequence:
#
# PCOD9090354 Si02
#       8
#     2   2   2   2   2   2   2   2
#     4  10  23  36  60  95 132 164 218 278 330 380
#     4  11  23  40  67  96 127 175 227 261 331 403
#     4  10  23  40  68  90 132 171 219 266 331 397
#     4  11  25  44  68 100 138 176 222 281 341 403
#     4  10  19  38  65  92 125 170 220 271 322 402
#     4  10  20  41  69  89 129 179 228 258 336 405
#     4  11  26  45  71 100 135 178 231 280 330 409
#     4   9  20  39  62  93 124 169 216 271 329 383
#
# _framework density 24.004318000000001
#
# number of rings (size 3 to 8) (size 9 to 14) (size 15 to 20)
#    0.000    1.750    2.500    1.875   10.500    3.500 
#    0.000    0.625    0.000    0.000    0.000    0.000 
#    0.000    0.000    0.000    0.000    0.000    0.000 
#
# Total GULP energy -89271.305156 kJ/mol
# GULP energy per Si atom -5579.456572 kJ/mol
# Density = 2.394968 g / cm^3
# Si number density = 24.004318 Si / 1000 Ang^3
#
#
#
# Elastic Constant Matrix: (Units=GPa)
#
#
# Indices 1 2 3 4 5 6 
#
# 1 59.0951 9.1482 23.4463 -9.3581 -3.6739 -8.3236
# 2 9.1482 42.5763 11.0260 -16.3122 -10.7081 -6.2752
# 3 23.4463 11.0260 136.7700 -20.0533 17.2625 5.6173
# 4 -9.3581 -16.3122 -20.0533 41.6300 -10.7653 -2.5120
# 5 -3.6739 -10.7081 17.2625 -10.7653 34.9113 6.9950
# 6 -8.3236 -6.2752 5.6173 -2.5120 6.9950 19.5925
#
#
#
# Elastic Compliance Matrix: (Units=1/GPa)
#
#
# Indices 1 2 3 4 5 6 
#
# 1 0.020586 0.000630 -0.003763 0.004599 0.003782 0.009266
# 2 0.000630 0.036347 -0.002864 0.017765 0.016266 0.009201
# 3 -0.003763 -0.002864 0.009070 0.000960 -0.004807 -0.003277
# 4 0.004599 0.017765 0.000960 0.036887 0.015519 0.006557
# 5 0.003782 0.016266 -0.004807 0.015519 0.042169 -0.004871
# 6 0.009266 0.009201 -0.003277 0.006557 -0.004871 0.061443
#
#
# Mechanical properties :
#
#
# Convention : Reuss Voigt Hill
#
# Bulk Modulus (GPa) = 18.51601 36.18692 27.35147
# Shear Modulus (GPa) = 21.14170 32.21482 26.67826
#
# Velocity S-wave (km/s) = 2.97096 3.66736 3.33737
# Velocity P-wave (km/s) = 4.41578 5.74810 5.12542
#
# Compressibility (1/GPa) = 0.05400732
#
# Stress axis : x y z
#
# Youngs Moduli (GPa) = 48.57681 27.51263 110.25814
#
# Poissons Ratio (x) = -0.01734 0.41495
# Poissons Ratio (y) = -0.03061 0.31581
# Poissons Ratio (z) = 0.18282 0.07880
#
# Static dielectric constant tensor:
#      x y z
#    x 1.924290 -0.040870 -0.030480 
#    y -0.040870 1.990780 -0.062550 
#    z -0.030480 -0.062550 1.930060 
# 
# From -- ./inp_files/461560.got.cif
#   From: 2010.05.17/outbox.cif.g08.bks.cpg/sg2_231_cif.got.tgz:461560.got - 2010.06.03 11:33:40.
