data_PCOD9090983
_publ_section_title
;
Structure prediction by ZEFSAII (Michael W. Deem and Ramdas Pophale) SiO2 
 PCOD9090983
Probable space group: P -1
;
_chemical_formula_sum "Si O2"
_cell_formula_units_Z 16
_cell_length_a 17.902721
_cell_length_b 24.311670
_cell_length_c 15.465418
_cell_angle_alpha 158.678541
_cell_angle_beta 147.210353
_cell_angle_gamma 20.490659
_cell_volume 829.319852
_symmetry_space_group_name_H-M "P -1"
_symmetry_group_IT_number 2
_symmetry_cell_setting 'triclinic'
loop_
_space_group_symop_operation_xyz
x,y,z
-x,-y,-z
loop_
_atom_site_type_symbol
_atom_site_label
_atom_site_fract_x
_atom_site_fract_y
_atom_site_fract_z
Si Si1 0.959262 0.711204 0.779307
Si Si2 0.189722 0.986973 0.274171
Si Si3 0.859745 0.014609 0.450342
Si Si4 0.587993 0.717519 0.659644
Si Si5 0.976877 0.197386 0.206821
Si Si6 0.532697 0.020301 0.915585
Si Si7 0.370416 0.531119 0.997252
Si Si8 0.880831 0.764843 0.257047
O O1 0.728721 0.933843 0.929780
O O2 0.000000 0.500000 0.500000
O O3 0.956419 0.775969 0.775364
O O4 0.166266 0.608053 0.878026
O O5 0.115433 0.140536 0.512335
O O6 0.143095 0.102895 0.306460
O O7 0.444530 0.724433 0.148552
O O8 0.048840 0.953843 0.071517
O O9 0.671127 0.092518 0.325781
O O10 0.955912 0.807191 0.309450
O O11 0.729732 0.246647 0.720983
O O12 0.000000 0.000000 0.500000
O O13 0.739221 0.452284 0.386000
O O14 0.638110 0.813177 0.783813
O O15 0.616738 0.741669 0.822120
O O16 0.372755 0.061305 0.758159
O O17 0.500000 0.500000 0.000000
O O18 0.000000 0.500000 0.000000
#
# Coordination Sequence:
#
# PCOD9090983 Si02
#       8
#     2   2   2   2   2   2   2   2
#     4  12  22  38  64  98 130 167 221 275 323 387
#     4  11  23  40  67  93 126 177 218 265 328 397
#     4  11  22  39  67  97 125 166 227 275 315 387
#     4  10  19  39  62  89 124 174 214 258 325 398
#     4  11  22  40  65  95 127 168 219 271 326 388
#     4  10  22  37  62  91 131 171 213 266 328 393
#     4  12  21  42  69  93 127 178 222 265 323 399
#     4  11  23  44  65  93 137 181 214 266 346 402
#
# _framework density 19.292918
#
# number of rings (size 3 to 8) (size 9 to 14) (size 15 to 20)
#    0.000    1.000    5.000    2.250    0.000    0.000 
#    4.500    1.250    0.000    4.500    0.000    0.000 
#    0.000    0.000    0.000    0.000    0.000    0.000 
#
# Total GULP energy -89220.510995 kJ/mol
# GULP energy per Si atom -5576.281937 kJ/mol
# Density = 1.924901 g / cm^3
# Si number density = 19.292918 Si / 1000 Ang^3
#
#
#
# Elastic Constant Matrix: (Units=GPa)
#
#
# Indices 1 2 3 4 5 6 
#
# 1 97.8161 53.4115 30.3614 -5.6706 -7.9841 2.2791
# 2 53.4115 97.8705 22.6368 -14.0032 -1.8137 13.4803
# 3 30.3614 22.6368 112.0539 -8.3820 -14.0409 8.8778
# 4 -5.6706 -14.0032 -8.3820 38.5972 3.1479 -0.4092
# 5 -7.9841 -1.8137 -14.0409 3.1479 29.4630 -2.0684
# 6 2.2791 13.4803 8.8778 -0.4092 -2.0684 33.0086
#
#
#
# Elastic Compliance Matrix: (Units=1/GPa)
#
#
# Indices 1 2 3 4 5 6 
#
# 1 0.015819 -0.008670 -0.002546 -0.001579 0.002940 0.003298
# 2 -0.008670 0.016535 -0.000462 0.004763 -0.002491 -0.006127
# 3 -0.002546 -0.000462 0.010483 0.001388 0.003975 -0.002189
# 4 -0.001579 0.004763 0.001388 0.027896 -0.002596 -0.002026
# 5 0.002940 -0.002491 0.003975 -0.002596 0.036898 0.002025
# 6 0.003298 -0.006127 -0.002189 -0.002026 0.002025 0.033260
#
#
# Mechanical properties :
#
#
# Convention : Reuss Voigt Hill
#
# Bulk Modulus (GPa) = 51.32851 57.83999 54.58425
# Shear Modulus (GPa) = 29.28421 33.63581 31.46001
#
# Velocity S-wave (km/s) = 3.90022 4.17997 4.04251
# Velocity P-wave (km/s) = 6.85163 7.30350 7.08117
#
# Compressibility (1/GPa) = 0.01948235
#
# Stress axis : x y z
#
# Youngs Moduli (GPa) = 63.21432 60.47737 95.39560
#
# Poissons Ratio (x) = 0.52434 0.24286
# Poissons Ratio (y) = 0.54807 0.04403
# Poissons Ratio (z) = 0.16093 0.02791
#
# Static dielectric constant tensor:
#      x y z
#    x 1.551150 -0.123090 0.004960 
#    y -0.123090 1.511970 0.000520 
#    z 0.004960 0.000520 1.736110 
# 
# From -- ./inp_files/277845.got.cif
#   From: 2010.05.17/outbox.cif.g08.bks.cpg/sg2_139_cif.got.tgz:277845.got - 2010.06.03 11:33:40.
