data_PCOD9090136
_publ_section_title
;
Structure prediction by ZEFSAII (Michael W. Deem and Ramdas Pophale) SiO2 
 PCOD9090136
Probable space group: P -1
;
_chemical_formula_sum "Si O2"
_cell_formula_units_Z 16
_cell_length_a 17.061156
_cell_length_b 7.933088
_cell_length_c 5.924309
_cell_angle_alpha 67.847817
_cell_angle_beta 104.606918
_cell_angle_gamma 127.952028
_cell_volume 585.375834
_symmetry_space_group_name_H-M "P -1"
_symmetry_group_IT_number 2
_symmetry_cell_setting 'triclinic'
loop_
_space_group_symop_operation_xyz
x,y,z
-x,-y,-z
loop_
_atom_site_type_symbol
_atom_site_label
_atom_site_fract_x
_atom_site_fract_y
_atom_site_fract_z
Si Si1 0.021058 0.873690 0.762532
Si Si2 0.153714 0.179967 0.093257
Si Si3 0.450664 0.064247 0.704510
Si Si4 0.338653 0.549994 0.287140
Si Si5 0.737681 0.333269 0.479048
Si Si6 0.136333 0.796481 0.592097
Si Si7 0.425186 0.343828 0.215702
Si Si8 0.301809 0.998357 0.983433
O O1 0.039152 0.710292 0.718983
O O2 0.928043 0.774327 0.911180
O O3 0.000000 0.000000 0.500000
O O4 0.115566 0.062388 0.882659
O O5 0.255444 0.421757 0.097183
O O6 0.144327 0.981698 0.337965
O O7 0.566516 0.186962 0.790658
O O8 0.459320 0.198913 0.418111
O O9 0.401909 0.104865 0.857648
O O10 0.359887 0.818406 0.674893
O O11 0.277990 0.490481 0.506839
O O12 0.399422 0.442561 0.351352
O O13 0.833049 0.356631 0.424803
O O14 0.728297 0.208554 0.773102
O O15 0.222582 0.928215 0.771288
O O16 0.500000 0.500000 0.000000
O O17 0.322729 0.178854 0.090383
#
# Coordination Sequence:
#
# PCOD9090136 Si02
#       8
#     2   2   2   2   2   2   2   2
#     4   9  19  39  64  92 115 144 188 243 310 357
#     4  10  21  37  66  92 114 146 194 251 296 351
#     4  10  22  40  58  78 122 166 202 236 291 343
#     4  12  22  38  57  88 123 151 201 252 286 343
#     4  10  23  38  54  84 123 167 199 232 287 352
#     4  10  19  38  64  84 116 156 195 236 295 361
#     4  11  22  36  57  86 113 154 201 255 292 330
#     4  10  20  39  57  81 115 164 202 234 296 344
#
# _framework density 27.33287
#
# number of rings (size 3 to 8) (size 9 to 14) (size 15 to 20)
#    0.000    1.750    1.250    4.500    1.750    0.500 
#    4.500    0.625    0.000   10.500    0.000    0.000 
#    0.000    0.000    0.000    0.000    0.000    0.000 
#
# Total GULP energy -89303.865858 kJ/mol
# GULP energy per Si atom -5581.491616 kJ/mol
# Density = 2.727066 g / cm^3
# Si number density = 27.332870 Si / 1000 Ang^3
#
#
#
# Elastic Constant Matrix: (Units=GPa)
#
#
# Indices 1 2 3 4 5 6 
#
# 1 168.1088 15.7947 25.1346 9.8085 -28.5852 -10.2157
# 2 15.7947 53.5959 38.7957 8.0122 6.6437 14.4090
# 3 25.1346 38.7957 129.7855 23.4567 8.6867 6.3316
# 4 9.8085 8.0122 23.4567 50.4611 8.1201 -2.8692
# 5 -28.5852 6.6437 8.6867 8.1201 61.0532 23.5428
# 6 -10.2157 14.4090 6.3316 -2.8692 23.5428 35.7384
#
#
#
# Elastic Compliance Matrix: (Units=1/GPa)
#
#
# Indices 1 2 3 4 5 6 
#
# 1 0.006949 -0.001808 -0.000843 -0.001223 0.003574 0.000412
# 2 -0.001808 0.027525 -0.007129 -0.001684 0.001931 -0.011758
# 3 -0.000843 -0.007129 0.010629 -0.003388 -0.001160 0.001242
# 4 -0.001223 -0.001684 -0.003388 0.023135 -0.005441 0.006371
# 5 0.003574 0.001931 -0.001160 -0.005441 0.025103 -0.016525
# 6 0.000412 -0.011758 0.001242 0.006371 -0.016525 0.044017
#
#
# Mechanical properties :
#
#
# Convention : Reuss Voigt Hill
#
# Bulk Modulus (GPa) = 39.15228 56.77113 47.96170
# Shear Modulus (GPa) = 30.22386 47.56823 38.89604
#
# Velocity S-wave (km/s) = 3.32892 4.17625 3.77643
# Velocity P-wave (km/s) = 5.39731 6.63854 6.04984
#
# Compressibility (1/GPa) = 0.02554130
#
# Stress axis : x y z
#
# Youngs Moduli (GPa) = 143.91314 36.33074 94.08594
#
# Poissons Ratio (x) = 0.06569 0.07935
# Poissons Ratio (y) = 0.26023 0.67072
# Poissons Ratio (z) = 0.12138 0.25899
#
# Static dielectric constant tensor:
#      x y z
#    x 2.322630 -0.096530 -0.003390 
#    y -0.096530 2.286590 -0.040070 
#    z -0.003390 -0.040070 2.106600 
# 
# From -- ./inp_files/105185.got.cif
#   From: 2010.05.17/outbox.cif.g08.bks.cpg/sg2_53_cif.got.tgz:105185.got - 2010.06.03 11:33:40.
