data_PCOD9090792
_publ_section_title
;
Structure prediction by ZEFSAII (Michael W. Deem and Ramdas Pophale) SiO2 
 PCOD9090792
Probable space group: P -1
;
_chemical_formula_sum "Si O2"
_cell_formula_units_Z 14
_cell_length_a 5.266188
_cell_length_b 13.403819
_cell_length_c 24.713723
_cell_angle_alpha 20.960684
_cell_angle_beta 81.283524
_cell_angle_gamma 76.519116
_cell_volume 595.777531
_symmetry_space_group_name_H-M "P -1"
_symmetry_group_IT_number 2
_symmetry_cell_setting 'triclinic'
loop_
_space_group_symop_operation_xyz
x,y,z
-x,-y,-z
loop_
_atom_site_type_symbol
_atom_site_label
_atom_site_fract_x
_atom_site_fract_y
_atom_site_fract_z
Si Si1 0.068604 0.288633 0.054537
Si Si2 0.001623 0.559603 0.698838
Si Si3 0.443327 0.513153 0.630554
Si Si4 0.842170 0.479347 0.175684
Si Si5 0.579479 0.003926 0.431532
Si Si6 0.688714 0.957122 0.188100
Si Si7 0.890455 0.074447 0.892373
O O1 0.019239 0.489194 0.900734
O O2 0.384170 0.129162 0.122313
O O3 0.000000 0.500000 0.000000
O O4 0.880631 0.066662 0.168400
O O5 0.301978 0.469647 0.714054
O O6 0.979458 0.679176 0.699403
O O7 0.869807 0.781597 0.543834
O O8 0.885634 0.282089 0.838011
O O9 0.455018 0.842819 0.470710
O O10 0.315319 0.378366 0.653106
O O11 0.731588 0.292506 0.740935
O O12 0.616300 0.314212 0.258771
O O13 0.764434 0.806436 0.035115
O O14 0.500000 0.000000 0.500000
O O15 0.813224 0.028423 0.090453
#
# Coordination Sequence:
#
# PCOD9090792 Si02
#       7
#     2   2   2   2   2   2   2
#     4  11  24  42  67  96 123 156 213 280 322 355
#     4  10  21  36  55  85 130 171 204 246 304 384
#     4  10  19  39  59  88 128 172 202 247 305 386
#     4  11  21  38  59  90 124 167 208 259 313 368
#     4  11  23  37  54  89 137 176 205 243 304 382
#     4  10  19  41  65  91 121 162 205 257 324 368
#     4   9  20  36  59  92 122 162 211 252 306 379
#
# _framework density 23.498705000000001
#
# number of rings (size 3 to 8) (size 9 to 14) (size 15 to 20)
#    0.000    1.714    4.286    1.286    0.000    2.857 
#    0.000    0.000    0.000    1.714    0.000    0.000 
#    0.000    0.000    0.000    0.000    0.000    0.000 
#
# Total GULP energy -77954.650066 kJ/mol
# GULP energy per Si atom -5568.189290 kJ/mol
# Density = 2.344522 g / cm^3
# Si number density = 23.498705 Si / 1000 Ang^3
#
#
#
# Elastic Constant Matrix: (Units=GPa)
#
#
# Indices 1 2 3 4 5 6 
#
# 1 117.7310 45.9402 22.9850 -27.8671 -22.9163 7.1461
# 2 45.9402 149.5377 26.7685 -40.8305 -24.0511 18.2563
# 3 22.9850 26.7685 82.5028 -48.0041 -38.5692 16.5270
# 4 -27.8671 -40.8305 -48.0041 42.6469 22.2693 -12.9302
# 5 -22.9163 -24.0511 -38.5692 22.2693 37.0429 -18.9911
# 6 7.1461 18.2563 16.5270 -12.9302 -18.9911 37.9719
#
#
#
# Elastic Compliance Matrix: (Units=1/GPa)
#
#
# Indices 1 2 3 4 5 6 
#
# 1 0.011593 -0.000769 0.006970 0.010980 0.009093 0.003441
# 2 -0.000769 0.011144 0.010276 0.018375 0.006260 -0.000298
# 3 0.006970 0.010276 0.063209 0.066739 0.041711 0.009824
# 4 0.010980 0.018375 0.066739 0.113237 0.026122 0.011676
# 5 0.009093 0.006260 0.041711 0.026122 0.076983 0.024522
# 6 0.003441 -0.000298 0.009824 0.011676 0.024522 0.037795
#
#
# Mechanical properties :
#
#
# Convention : Reuss Voigt Hill
#
# Bulk Modulus (GPa) = 8.41043 60.12876 34.26960
# Shear Modulus (GPa) = 15.59373 40.47087 28.03230
#
# Velocity S-wave (km/s) = 2.57884 4.15451 3.45763
# Velocity P-wave (km/s) = 3.52903 6.97546 5.52771
#
# Compressibility (1/GPa) = 0.11889999
#
# Stress axis : x y z
#
# Youngs Moduli (GPa) = 86.25688 89.73125 15.82062
#
# Poissons Ratio (x) = 0.06900 -0.11027
# Poissons Ratio (y) = 0.06632 -0.16257
# Poissons Ratio (z) = -0.60119 -0.92207
#
# Static dielectric constant tensor:
#      x y z
#    x 2.159320 -0.037350 0.089880 
#    y -0.037350 1.911390 -0.062520 
#    z 0.089880 -0.062520 1.983200 
# 
# From -- ./inp_files/615622.got.cif
#   From: 2010.05.17/outbox.cif.g08.bks.cpg/sg2_308_cif.got.tgz:615622.got - 2010.06.03 11:33:40.
