data_PCOD9090459
_publ_section_title
;
Structure prediction by ZEFSAII (Michael W. Deem and Ramdas Pophale) SiO2 
 PCOD9090459
Probable space group: P -1
;
_chemical_formula_sum "Si O2"
_cell_formula_units_Z 14
_cell_length_a 10.109163
_cell_length_b 18.283825
_cell_length_c 15.727434
_cell_angle_alpha 147.149154
_cell_angle_beta 21.012053
_cell_angle_gamma 138.753581
_cell_volume 557.546755
_symmetry_space_group_name_H-M "P -1"
_symmetry_group_IT_number 2
_symmetry_cell_setting 'triclinic'
loop_
_space_group_symop_operation_xyz
x,y,z
-x,-y,-z
loop_
_atom_site_type_symbol
_atom_site_label
_atom_site_fract_x
_atom_site_fract_y
_atom_site_fract_z
Si Si1 0.060726 0.551167 0.796565
Si Si2 0.331342 0.529583 0.894359
Si Si3 0.928341 0.319305 0.254262
Si Si4 0.281260 0.827818 0.193691
Si Si5 0.710100 0.131324 0.588852
Si Si6 0.474435 0.167020 0.586612
Si Si7 0.513820 0.102447 0.317840
O O1 0.500000 0.500000 0.500000
O O2 0.014926 0.567595 0.739296
O O3 0.838429 0.458363 0.897173
O O4 0.855863 0.703263 0.095607
O O5 0.677442 0.407192 0.561003
O O6 0.454316 0.670347 0.931029
O O7 0.000000 0.500000 0.000000
O O8 0.680657 0.207098 0.259370
O O9 0.314459 0.221285 0.943568
O O10 0.080230 0.857993 0.437380
O O11 0.930207 0.849088 0.362168
O O12 0.533884 0.942186 0.133998
O O13 0.733831 0.184904 0.530466
O O14 0.697172 0.971073 0.429190
O O15 0.675475 0.131531 0.341540
#
# Coordination Sequence:
#
# PCOD9090459 Si02
#       7
#     2   2   2   2   2   2   2
#     4  11  20  34  63  93 119 159 218 251 297 379
#     4  12  21  39  64  90 126 172 207 260 315 375
#     4  11  22  38  67  93 120 173 213 248 316 392
#     4  10  21  36  63  93 128 160 208 269 312 357
#     4   9  21  38  62  92 129 160 210 262 312 374
#     4   9  18  37  61  87 118 169 201 249 310 374
#     4  10  19  38  66  91 121 168 212 260 307 367
#
# _framework density 25.110004
#
# number of rings (size 3 to 8) (size 9 to 14) (size 15 to 20)
#    0.000    1.714    4.286    0.000    0.000    2.857 
#    0.000    2.857   18.857   29.143    0.000    0.000 
#    0.000    0.000    0.000    0.000    0.000    0.000 
#
# Total GULP energy -78047.151943 kJ/mol
# GULP energy per Si atom -5574.796567 kJ/mol
# Density = 2.505285 g / cm^3
# Si number density = 25.110004 Si / 1000 Ang^3
#
#
#
# Elastic Constant Matrix: (Units=GPa)
#
#
# Indices 1 2 3 4 5 6 
#
# 1 72.3161 3.2233 -1.2669 -8.7961 3.7757 -0.0343
# 2 3.2233 106.1546 37.5996 32.9386 -4.0239 -16.8722
# 3 -1.2669 37.5996 118.8186 9.6984 -8.6481 -7.7877
# 4 -8.7961 32.9386 9.6984 41.4382 -12.4516 1.5242
# 5 3.7757 -4.0239 -8.6481 -12.4516 35.7826 4.0833
# 6 -0.0343 -16.8722 -7.7877 1.5242 4.0833 29.6772
#
#
#
# Elastic Compliance Matrix: (Units=1/GPa)
#
#
# Indices 1 2 3 4 5 6 
#
# 1 0.014536 -0.002367 0.000413 0.004988 0.000207 -0.001505
# 2 -0.002367 0.016906 -0.003869 -0.014949 -0.005135 0.010068
# 3 0.000413 -0.003869 0.009684 0.001632 0.002439 -0.000077
# 4 0.004988 -0.014949 0.001632 0.041329 0.013950 -0.012107
# 5 0.000207 -0.005135 0.002439 0.013950 0.033661 -0.007627
# 6 -0.001505 0.010068 -0.000077 -0.012107 -0.007627 0.041069
#
#
# Mechanical properties :
#
#
# Convention : Reuss Voigt Hill
#
# Bulk Modulus (GPa) = 33.91914 41.82236 37.87075
# Shear Modulus (GPa) = 27.98643 38.56182 33.27412
#
# Velocity S-wave (km/s) = 3.34211 3.92307 3.64419
# Velocity P-wave (km/s) = 5.33203 6.10020 5.72900
#
# Compressibility (1/GPa) = 0.02948188
#
# Stress axis : x y z
#
# Youngs Moduli (GPa) = 68.79437 59.14890 103.26203
#
# Poissons Ratio (x) = 0.13999 -0.04267
# Poissons Ratio (y) = 0.16282 0.39951
# Poissons Ratio (z) = -0.02843 0.22884
#
# Static dielectric constant tensor:
#      x y z
#    x 2.139360 -0.051680 -0.000530 
#    y -0.051680 2.001220 -0.002860 
#    z -0.000530 -0.002860 1.934220 
# 
# From -- ./inp_files/292266.got.cif
#   From: 2010.05.17/outbox.cif.g08.bks.cpg/sg2_147_cif.got.tgz:292266.got - 2010.06.03 11:33:40.
