data_PCOD9090097
_publ_section_title
;
Structure prediction by ZEFSAII (Michael W. Deem and Ramdas Pophale) SiO2 
 PCOD9090097
Probable space group: P -1
;
_chemical_formula_sum "Si O2"
_cell_formula_units_Z 14
_cell_length_a 9.492177
_cell_length_b 8.933985
_cell_length_c 15.223422
_cell_angle_alpha 78.752597
_cell_angle_beta 142.117770
_cell_angle_gamma 85.257213
_cell_volume 714.968199
_symmetry_space_group_name_H-M "P -1"
_symmetry_group_IT_number 2
_symmetry_cell_setting 'triclinic'
loop_
_space_group_symop_operation_xyz
x,y,z
-x,-y,-z
loop_
_atom_site_type_symbol
_atom_site_label
_atom_site_fract_x
_atom_site_fract_y
_atom_site_fract_z
Si Si1 0.953836 0.251846 0.012383
Si Si2 0.222349 0.106343 0.560155
Si Si3 0.151301 0.451594 0.947861
Si Si4 0.918840 0.359047 0.510947
Si Si5 0.329383 0.760024 0.730576
Si Si6 0.791680 0.387417 0.647563
Si Si7 0.706685 0.133944 0.755070
O O1 0.874137 0.373097 0.043242
O O2 0.142940 0.064057 0.147062
O O3 0.077469 0.345709 0.998214
O O4 0.744763 0.219717 0.854499
O O5 0.416381 0.165584 0.601719
O O6 0.139587 0.190965 0.605334
O O7 0.949749 0.166183 0.373830
O O8 0.342398 0.912615 0.663591
O O9 0.963240 0.463332 0.775266
O O10 0.439313 0.335351 0.082975
O O11 0.682330 0.366469 0.336159
O O12 0.866865 0.365708 0.586156
O O13 0.000000 0.500000 0.500000
O O14 0.500000 0.500000 0.500000
O O15 0.814578 0.215842 0.724087
#
# Coordination Sequence:
#
# PCOD9090097 Si02
#       7
#     2   2   2   2   2   2   2
#     4   9  20  33  63  92 122 167 193 251 309 362
#     4   9  19  36  65  86 120 162 205 239 298 374
#     4  10  20  37  61  91 128 156 205 252 299 358
#     4  10  22  40  62  85 119 166 203 240 307 366
#     4   9  20  37  64  87 117 165 206 239 298 368
#     4  11  25  39  59  96 125 156 202 263 299 357
#     4  10  19  38  63  94 123 153 212 245 306 361
#
# _framework density 19.581289999999999
#
# number of rings (size 3 to 8) (size 9 to 14) (size 15 to 20)
#    0.857    1.429    1.429    0.857    8.000    0.000 
#    0.000    7.143    0.000    0.000    0.000    0.000 
#    0.000    0.000    0.000    0.000    0.000    0.000 
#
# Total GULP energy -77963.102426 kJ/mol
# GULP energy per Si atom -5568.793030 kJ/mol
# Density = 1.953672 g / cm^3
# Si number density = 19.581290 Si / 1000 Ang^3
#
#
#
# Elastic Constant Matrix: (Units=GPa)
#
#
# Indices 1 2 3 4 5 6 
#
# 1 62.3343 13.1886 16.6305 12.4908 3.9223 7.0634
# 2 13.1886 107.9923 31.6997 10.2795 6.5997 11.5002
# 3 16.6305 31.6997 105.7626 7.3180 18.5605 1.3089
# 4 12.4908 10.2795 7.3180 14.8195 1.2682 7.4212
# 5 3.9223 6.5997 18.5605 1.2682 24.6384 1.3242
# 6 7.0634 11.5002 1.3089 7.4212 1.3242 14.6778
#
#
#
# Elastic Compliance Matrix: (Units=1/GPa)
#
#
# Indices 1 2 3 4 5 6 
#
# 1 0.019770 -0.000246 -0.001851 -0.014676 -0.000842 -0.001660
# 2 -0.000246 0.011180 -0.003023 -0.002485 -0.000169 -0.007100
# 3 -0.001851 -0.003023 0.012330 -0.004258 -0.008236 0.005056
# 4 -0.014676 -0.002485 -0.004258 0.105578 0.003155 -0.044276
# 5 -0.000842 -0.000169 -0.008236 0.003155 0.047054 -0.004568
# 6 -0.001660 -0.007100 0.005056 -0.044276 -0.004568 0.096840
#
#
# Mechanical properties :
#
#
# Convention : Reuss Voigt Hill
#
# Bulk Modulus (GPa) = 30.26601 44.34742 37.30672
# Shear Modulus (GPa) = 15.92331 25.13183 20.52757
#
# Velocity S-wave (km/s) = 2.85474 3.58643 3.24130
# Velocity P-wave (km/s) = 5.13383 6.31245 5.75340
#
# Compressibility (1/GPa) = 0.03304036
#
# Stress axis : x y z
#
# Youngs Moduli (GPa) = 50.58082 89.44335 81.10451
#
# Poissons Ratio (x) = 0.02199 0.15015
# Poissons Ratio (y) = 0.01243 0.24517
# Poissons Ratio (z) = 0.09364 0.27038
#
# Static dielectric constant tensor:
#      x y z
#    x 1.661140 -0.028590 0.043740 
#    y -0.028590 1.544250 0.059270 
#    z 0.043740 0.059270 1.717060 
# 
# From -- ./inp_files/495084.got.cif
#   From: 2010.05.17/outbox.cif.g08.bks.cpg/sg2_248_cif.got.tgz:495084.got - 2010.06.03 11:33:40.
