data_PCOD9090331
_publ_section_title
;
Structure prediction by ZEFSAII (Michael W. Deem and Ramdas Pophale) SiO2 
 PCOD9090331
Probable space group: P -1
;
_chemical_formula_sum "Si O2"
_cell_formula_units_Z 16
_cell_length_a 9.564144
_cell_length_b 14.650985
_cell_length_c 12.236853
_cell_angle_alpha 136.139719
_cell_angle_beta 132.582654
_cell_angle_gamma 68.834711
_cell_volume 847.341720
_symmetry_space_group_name_H-M "P -1"
_symmetry_group_IT_number 2
_symmetry_cell_setting 'triclinic'
loop_
_space_group_symop_operation_xyz
x,y,z
-x,-y,-z
loop_
_atom_site_type_symbol
_atom_site_label
_atom_site_fract_x
_atom_site_fract_y
_atom_site_fract_z
Si Si1 0.430251 0.115389 0.934347
Si Si2 0.275621 0.482658 0.829838
Si Si3 0.733019 0.035519 0.674522
Si Si4 0.764156 0.242152 0.062347
Si Si5 0.012349 0.123731 0.695830
Si Si6 0.979387 0.397082 0.798702
Si Si7 0.061007 0.202693 0.377993
Si Si8 0.716954 0.186917 0.348598
O O1 0.227304 0.150359 0.882584
O O2 0.379371 0.950856 0.755174
O O3 0.549202 0.179858 0.946882
O O4 0.568245 0.175860 0.160583
O O5 0.233200 0.606145 0.843406
O O6 0.138772 0.461902 0.847538
O O7 0.208653 0.346120 0.605777
O O8 0.500000 0.500000 0.000000
O O9 0.844552 0.083546 0.661985
O O10 0.500000 0.000000 0.500000
O O11 0.818249 0.912306 0.660669
O O12 0.785967 0.156757 0.893747
O O13 0.925153 0.220847 0.218472
O O14 0.010133 0.257990 0.744644
O O15 0.000000 0.000000 0.500000
O O16 0.774613 0.329536 0.567334
O O17 0.000000 0.500000 0.000000
O O18 0.914278 0.170670 0.377438
#
# Coordination Sequence:
#
# PCOD9090331 Si02
#       8
#     2   2   2   2   2   2   2   2
#     4  10  19  38  65  90 114 157 209 243 293 362
#     4  11  22  42  60  87 122 164 206 243 293 370
#     4  12  24  38  57  95 126 152 196 258 307 352
#     4  11  23  38  63  92 123 158 198 255 310 350
#     4  12  21  39  63  88 116 163 207 240 297 366
#     4  11  23  39  60  87 124 158 198 252 303 350
#     4  10  21  41  63  87 120 164 203 245 302 367
#     4   9  19  38  64  89 117 156 204 250 290 362
#
# _framework density 18.882584000000001
#
# number of rings (size 3 to 8) (size 9 to 14) (size 15 to 20)
#    0.000    1.250    2.500    4.500    0.000    0.000 
#    0.000    0.625    0.000    0.000    0.000    0.000 
#    0.000    0.000    0.000    0.000    0.000    0.000 
#
# Total GULP energy -89255.554886 kJ/mol
# GULP energy per Si atom -5578.472180 kJ/mol
# Density = 1.883961 g / cm^3
# Si number density = 18.882584 Si / 1000 Ang^3
#
#
#
# Elastic Constant Matrix: (Units=GPa)
#
#
# Indices 1 2 3 4 5 6 
#
# 1 101.2439 36.5551 34.7221 -0.9284 15.6170 18.8077
# 2 36.5551 106.9099 23.4574 13.9936 12.4669 8.3568
# 3 34.7221 23.4574 119.6246 2.6690 6.7077 0.3843
# 4 -0.9284 13.9936 2.6690 35.6197 -4.7192 7.4592
# 5 15.6170 12.4669 6.7077 -4.7192 32.7063 -3.0016
# 6 18.8077 8.3568 0.3843 7.4592 -3.0016 34.4911
#
#
#
# Elastic Compliance Matrix: (Units=1/GPa)
#
#
# Indices 1 2 3 4 5 6 
#
# 1 0.014617 -0.003396 -0.003318 0.002979 -0.005329 -0.008219
# 2 -0.003396 0.011818 -0.001026 -0.005065 -0.003422 -0.000202
# 3 -0.003318 -0.001026 0.009530 -0.000833 0.000097 0.002140
# 4 0.002979 -0.005065 -0.000833 0.032285 0.004699 -0.006961
# 5 -0.005329 -0.003422 0.000097 0.004699 0.035616 0.005817
# 6 -0.008219 -0.000202 0.002140 -0.006961 0.005817 0.035512
#
#
# Mechanical properties :
#
#
# Convention : Reuss Voigt Hill
#
# Bulk Modulus (GPa) = 48.81662 57.47196 53.14429
# Shear Modulus (GPa) = 30.92400 36.09966 33.51183
#
# Velocity S-wave (km/s) = 4.05124 4.37715 4.21735
# Velocity P-wave (km/s) = 6.91319 7.48656 7.20558
#
# Compressibility (1/GPa) = 0.02048483
#
# Stress axis : x y z
#
# Youngs Moduli (GPa) = 68.41135 84.61738 104.93098
#
# Poissons Ratio (x) = 0.28736 0.34818
# Poissons Ratio (y) = 0.23233 0.10767
# Poissons Ratio (z) = 0.22700 0.08683
#
# Static dielectric constant tensor:
#      x y z
#    x 1.639720 -0.006070 0.028040 
#    y -0.006070 1.696400 -0.048430 
#    z 0.028040 -0.048430 1.718970 
# 
# From -- ./inp_files/215530.got.cif
#   From: 2010.05.17/outbox.cif.g08.bks.cpg/sg2_108_cif.got.tgz:215530.got - 2010.06.03 11:33:40.
