data_PCOD9090105
_publ_section_title
;
Structure prediction by ZEFSAII (Michael W. Deem and Ramdas Pophale) SiO2 
 PCOD9090105
Probable space group: P -1
;
_chemical_formula_sum "Si O2"
_cell_formula_units_Z 14
_cell_length_a 8.855088
_cell_length_b 12.262114
_cell_length_c 10.234301
_cell_angle_alpha 137.214196
_cell_angle_beta 70.348127
_cell_angle_gamma 133.484080
_cell_volume 514.585892
_symmetry_space_group_name_H-M "P -1"
_symmetry_group_IT_number 2
_symmetry_cell_setting 'triclinic'
loop_
_space_group_symop_operation_xyz
x,y,z
-x,-y,-z
loop_
_atom_site_type_symbol
_atom_site_label
_atom_site_fract_x
_atom_site_fract_y
_atom_site_fract_z
Si Si1 0.342838 0.979441 0.127554
Si Si2 0.240057 0.268189 0.421666
Si Si3 0.118306 0.356022 0.273778
Si Si4 0.057371 0.365668 0.918690
Si Si5 0.200132 0.994792 0.551227
Si Si6 0.464887 0.481217 0.811097
Si Si7 0.710079 0.164585 0.374576
O O1 0.086128 0.749168 0.007965
O O2 0.345790 0.170777 0.272952
O O3 0.464089 0.017023 0.261724
O O4 0.500000 0.000000 0.000000
O O5 0.215750 0.374532 0.404809
O O6 0.365677 0.433244 0.652362
O O7 0.992925 0.054677 0.352310
O O8 0.269513 0.343806 0.127296
O O9 0.184076 0.585024 0.426483
O O10 0.858293 0.172267 0.228147
O O11 0.936714 0.164825 0.673316
O O12 0.319047 0.504811 0.960347
O O13 0.000000 0.500000 0.000000
O O14 0.283501 0.917506 0.559838
O O15 0.378672 0.247368 0.677012
#
# Coordination Sequence:
#
# PCOD9090105 Si02
#       7
#     2   2   2   2   2   2   2
#     4  12  25  41  64  91 130 172 215 265 327 383
#     4  10  19  38  63  95 121 170 219 253 310 384
#     4  10  21  35  64  97 127 157 214 267 310 368
#     4  11  24  40  65 102 129 165 217 271 324 368
#     4  10  20  42  71  91 130 168 216 266 312 389
#     4  11  19  38  70  97 125 169 222 262 308 386
#     4  10  23  41  63  99 128 167 217 263 319 381
#
# _framework density 27.206344000000001
#
# number of rings (size 3 to 8) (size 9 to 14) (size 15 to 20)
#    0.000    1.429    4.286    1.286    2.000    5.714 
#    0.000    2.857    3.143    2.571    0.000    0.000 
#    0.000    0.000    0.000    0.000    0.000    0.000 
#
# Total GULP energy -78393.804357 kJ/mol
# GULP energy per Si atom -5599.557454 kJ/mol
# Density = 2.714442 g / cm^3
# Si number density = 27.206344 Si / 1000 Ang^3
#
#
#
# Elastic Constant Matrix: (Units=GPa)
#
#
# Indices 1 2 3 4 5 6 
#
# 1 162.7448 44.3871 28.7189 -4.8898 -17.0654 9.5446
# 2 44.3871 122.1780 14.0994 -9.1106 -25.0990 12.8260
# 3 28.7189 14.0994 64.1342 -13.6451 -10.9417 8.2327
# 4 -4.8898 -9.1106 -13.6451 35.1409 8.6174 -23.9808
# 5 -17.0654 -25.0990 -10.9417 8.6174 49.1353 -8.7440
# 6 9.5446 12.8260 8.2327 -23.9808 -8.7440 90.2775
#
#
#
# Elastic Compliance Matrix: (Units=1/GPa)
#
#
# Indices 1 2 3 4 5 6 
#
# 1 0.007329 -0.002187 -0.002836 -0.001166 0.000925 -0.000425
# 2 -0.002187 0.009957 -0.000281 0.000802 0.004024 -0.000555
# 3 -0.002836 -0.000281 0.018603 0.006695 0.001948 0.000610
# 4 -0.001166 0.000802 0.006695 0.038270 -0.003576 0.009218
# 5 0.000925 0.004024 0.001948 -0.003576 0.023882 0.000516
# 6 -0.000425 -0.000555 0.000610 0.009218 0.000516 0.013644
#
#
# Mechanical properties :
#
#
# Convention : Reuss Voigt Hill
#
# Bulk Modulus (GPa) = 39.55938 58.16308 48.86123
# Shear Modulus (GPa) = 38.25010 52.36750 45.30880
#
# Velocity S-wave (km/s) = 3.75364 4.39204 4.08533
# Velocity P-wave (km/s) = 5.77568 6.86622 6.34442
#
# Compressibility (1/GPa) = 0.02527845
#
# Stress axis : x y z
#
# Youngs Moduli (GPa) = 136.45088 100.43535 53.75595
#
# Poissons Ratio (x) = 0.21969 0.15248
# Poissons Ratio (y) = 0.29847 0.01510
# Poissons Ratio (z) = 0.38704 0.02821
#
# Static dielectric constant tensor:
#      x y z
#    x 2.111460 0.031310 0.021430 
#    y 0.031310 2.159820 -0.103680 
#    z 0.021430 -0.103680 2.140100 
# 
# From -- ./inp_files/158081.got.cif
#   From: 2010.05.17/outbox.cif.g08.bks.cpg/sg2_80_cif.got.tgz:158081.got - 2010.06.03 11:33:40.
