data_PCOD9090488
_publ_section_title
;
Structure prediction by ZEFSAII (Michael W. Deem and Ramdas Pophale) SiO2 
 PCOD9090488
Probable space group: P -1
;
_chemical_formula_sum "Si O2"
_cell_formula_units_Z 16
_cell_length_a 28.555994
_cell_length_b 14.178109
_cell_length_c 18.271185
_cell_angle_alpha 161.407520
_cell_angle_beta 20.913336
_cell_angle_gamma 159.539235
_cell_volume 750.617993
_symmetry_space_group_name_H-M "P -1"
_symmetry_group_IT_number 2
_symmetry_cell_setting 'triclinic'
loop_
_space_group_symop_operation_xyz
x,y,z
-x,-y,-z
loop_
_atom_site_type_symbol
_atom_site_label
_atom_site_fract_x
_atom_site_fract_y
_atom_site_fract_z
Si Si1 0.593581 0.680197 0.926782
Si Si2 0.365240 0.505449 0.413479
Si Si3 0.905942 0.274556 0.262098
Si Si4 0.818106 0.289445 0.904074
Si Si5 0.358675 0.649846 0.930067
Si Si6 0.156118 0.688347 0.948433
Si Si7 0.414786 0.080976 0.485984
Si Si8 0.920925 0.624204 0.765055
O O1 0.764382 0.913739 0.867321
O O2 0.517386 0.916698 0.187117
O O3 0.500000 0.500000 0.000000
O O4 0.584382 0.419560 0.687915
O O5 0.261559 0.635737 0.698206
O O6 0.505749 0.663533 0.376216
O O7 0.270399 0.108360 0.259048
O O8 0.018765 0.574659 0.268908
O O9 0.975767 0.299407 0.258524
O O10 0.739192 0.200472 0.465367
O O11 0.908851 0.941200 0.982718
O O12 0.722376 0.375324 0.047895
O O13 0.836849 0.420052 0.056920
O O14 0.388902 0.327406 0.650073
O O15 0.239887 0.603167 0.133263
O O16 0.500000 0.000000 0.000000
O O17 0.000000 0.500000 0.000000
O O18 0.000000 0.500000 0.500000
#
# Coordination Sequence:
#
# PCOD9090488 Si02
#       8
#     2   2   2   2   2   2   2   2
#     4  10  24  43  65  92 124 165 216 268 318 375
#     4  10  22  42  60  91 132 156 214 265 314 392
#     4   9  20  35  56  87 124 161 212 256 302 370
#     4  10  21  39  63  94 128 166 213 258 318 385
#     4  10  19  38  66  93 130 177 209 256 324 383
#     4  10  24  43  65  92 124 165 216 268 318 375
#     4  10  21  39  63  94 128 166 213 258 318 385
#     4   9  19  36  54  85 128 172 213 254 301 378
#
# _framework density 21.315770000000001
#
# number of rings (size 3 to 8) (size 9 to 14) (size 15 to 20)
#    0.000    2.250    1.250    0.750    0.000   11.000 
#    4.500    6.875    0.000    0.000    0.000    0.000 
#    0.000    0.000    0.000    0.000    0.000    0.000 
#
# Total GULP energy -89152.324610 kJ/mol
# GULP energy per Si atom -5572.020288 kJ/mol
# Density = 2.126725 g / cm^3
# Si number density = 21.315770 Si / 1000 Ang^3
#
#
#
# Elastic Constant Matrix: (Units=GPa)
#
#
# Indices 1 2 3 4 5 6 
#
# 1 84.4894 29.3722 17.7682 -3.4851 17.4688 6.9089
# 2 29.3722 114.5216 4.4537 -21.6000 -4.6689 18.3581
# 3 17.7682 4.4537 67.2392 -3.8025 14.6579 6.3033
# 4 -3.4851 -21.6000 -3.8025 24.4825 0.7297 -3.6830
# 5 17.4688 -4.6689 14.6579 0.7297 28.6903 -5.1784
# 6 6.9089 18.3581 6.3033 -3.6830 -5.1784 33.1310
#
#
#
# Elastic Compliance Matrix: (Units=1/GPa)
#
#
# Indices 1 2 3 4 5 6 
#
# 1 0.015870 -0.004403 -0.001632 -0.001933 -0.009916 -0.002324
# 2 -0.004403 0.012540 0.000576 0.009745 0.003362 -0.004531
# 3 -0.001632 0.000576 0.017762 0.002629 -0.008857 -0.004450
# 4 -0.001933 0.009745 0.002629 0.049577 0.000166 0.000041
# 5 -0.009916 0.003362 -0.008857 0.000166 0.047650 0.009356
# 6 -0.002324 -0.004531 -0.004450 0.000041 0.009356 0.035492
#
#
# Mechanical properties :
#
#
# Convention : Reuss Voigt Hill
#
# Bulk Modulus (GPa) = 28.36540 41.04871 34.70705
# Shear Modulus (GPa) = 24.80635 31.57117 28.18876
#
# Velocity S-wave (km/s) = 3.41509 3.85270 3.64048
# Velocity P-wave (km/s) = 5.37462 6.25223 5.82996
#
# Compressibility (1/GPa) = 0.03525422
#
# Stress axis : x y z
#
# Youngs Moduli (GPa) = 63.01090 79.74305 56.29963
#
# Poissons Ratio (x) = 0.35113 0.09188
# Poissons Ratio (y) = 0.27745 -0.03243
# Poissons Ratio (z) = 0.10283 -0.04593
#
# Static dielectric constant tensor:
#      x y z
#    x 1.853740 -0.000410 -0.011950 
#    y -0.000410 1.845990 0.010960 
#    z -0.011950 0.010960 1.785090 
# 
# From -- ./inp_files/580174.got.cif
#   From: 2010.05.17/outbox.cif.g08.bks.cpg/sg2_291_cif.got.tgz:580174.got - 2010.06.03 11:33:40.
