data_PCOD9090249
_publ_section_title
;
Structure prediction by ZEFSAII (Michael W. Deem and Ramdas Pophale) SiO2 
 PCOD9090249
Probable space group: P -1
;
_chemical_formula_sum "Si O2"
_cell_formula_units_Z 16
_cell_length_a 16.762605
_cell_length_b 8.829380
_cell_length_c 8.828063
_cell_angle_alpha 49.462519
_cell_angle_beta 86.090142
_cell_angle_gamma 52.447470
_cell_volume 660.397057
_symmetry_space_group_name_H-M "P -1"
_symmetry_group_IT_number 2
_symmetry_cell_setting 'triclinic'
loop_
_space_group_symop_operation_xyz
x,y,z
-x,-y,-z
loop_
_atom_site_type_symbol
_atom_site_label
_atom_site_fract_x
_atom_site_fract_y
_atom_site_fract_z
Si Si1 0.273909 0.270029 0.357559
Si Si2 0.694921 0.390026 0.515611
Si Si3 0.760420 0.702639 0.159785
Si Si4 0.407768 0.498378 0.848347
Si Si5 0.441878 0.990207 0.243276
Si Si6 0.936497 0.403649 0.065265
Si Si7 0.893568 0.131791 0.813929
Si Si8 0.663978 0.152275 0.119682
O O1 0.380538 0.130836 0.321623
O O2 0.167876 0.392316 0.181258
O O3 0.210722 0.542409 0.302088
O O4 0.330404 0.003894 0.634714
O O5 0.738166 0.529656 0.356971
O O6 0.667254 0.321510 0.410301
O O7 0.800647 0.123483 0.785566
O O8 0.569276 0.648061 0.448610
O O9 0.757763 0.879975 0.170880
O O10 0.650791 0.944573 0.900708
O O11 0.876764 0.474045 0.189247
O O12 0.327460 0.661339 0.906368
O O13 0.455363 0.183892 0.042721
O O14 0.531356 0.390976 0.911229
O O15 0.000000 0.500000 0.000000
O O16 0.022503 0.063466 0.219497
O O17 0.000000 0.000000 0.000000
#
# Coordination Sequence:
#
# PCOD9090249 Si02
#       8
#     2   2   2   2   2   2   2   2
#     4  10  22  40  64  90 127 157 202 259 302 359
#     4  11  19  38  65  90 120 161 208 240 300 379
#     4  10  19  39  64  87 119 161 197 257 297 364
#     4  10  21  33  60  91 131 156 194 245 305 374
#     4  10  19  38  64  95 121 163 200 241 310 375
#     4  10  24  42  62  85 120 162 210 256 305 352
#     4  10  22  40  61  86 119 162 209 251 292 353
#     4  11  20  37  58  95 129 155 194 253 309 357
#
# _framework density 24.227847000000001
#
# number of rings (size 3 to 8) (size 9 to 14) (size 15 to 20)
#    0.000    1.750    3.750    0.750    1.750    3.500 
#    0.000    3.750    0.000    0.000    0.000    0.000 
#    0.000    0.000    0.000    0.000    0.000    0.000 
#
# Total GULP energy -89092.045214 kJ/mol
# GULP energy per Si atom -5568.252826 kJ/mol
# Density = 2.417270 g / cm^3
# Si number density = 24.227847 Si / 1000 Ang^3
#
#
#
# Elastic Constant Matrix: (Units=GPa)
#
#
# Indices 1 2 3 4 5 6 
#
# 1 55.7575 42.1867 29.3877 18.5961 15.7587 -8.4200
# 2 42.1867 238.1458 31.2413 10.4731 1.2354 -2.6292
# 3 29.3877 31.2413 75.7001 15.8589 11.7593 -3.7051
# 4 18.5961 10.4731 15.8589 30.3227 -3.6724 6.6958
# 5 15.7587 1.2354 11.7593 -3.6724 42.4305 8.2341
# 6 -8.4200 -2.6292 -3.7051 6.6958 8.2341 37.5598
#
#
#
# Elastic Compliance Matrix: (Units=1/GPa)
#
#
# Indices 1 2 3 4 5 6 
#
# 1 0.042063 -0.005358 -0.004171 -0.028219 -0.020269 0.018117
# 2 -0.005358 0.005138 -0.001202 0.002949 0.002838 -0.002108
# 3 -0.004171 -0.001202 0.017775 -0.007562 -0.004596 0.003090
# 4 -0.028219 0.002949 -0.007562 0.060887 0.022141 -0.022574
# 5 -0.020269 0.002838 -0.004596 0.022141 0.037496 -0.016966
# 6 0.018117 -0.002108 0.003090 -0.022574 -0.016966 0.038586
#
#
# Mechanical properties :
#
#
# Convention : Reuss Voigt Hill
#
# Bulk Modulus (GPa) = 22.98142 63.91498 43.44820
# Shear Modulus (GPa) = 21.01606 39.84844 30.43225
#
# Velocity S-wave (km/s) = 2.94842 4.05994 3.54797
# Velocity P-wave (km/s) = 4.59315 6.95812 5.89544
#
# Compressibility (1/GPa) = 0.04351342
#
# Stress axis : x y z
#
# Youngs Moduli (GPa) = 23.77372 194.61686 56.25908
#
# Poissons Ratio (x) = 1.04275 0.23466
# Poissons Ratio (y) = 0.12738 0.06765
# Poissons Ratio (z) = 0.09916 0.23401
#
# Static dielectric constant tensor:
#      x y z
#    x 1.996740 0.105230 0.016650 
#    y 0.105230 2.057470 -0.011650 
#    z 0.016650 -0.011650 1.847050 
# 
# From -- ./inp_files/328568.got.cif
#   From: 2010.05.17/outbox.cif.g08.bks.cpg/sg2_165_cif.got.tgz:328568.got - 2010.06.03 11:33:40.
