data_PCOD9090410
_publ_section_title
;
Structure prediction by ZEFSAII (Michael W. Deem and Ramdas Pophale) SiO2 
 PCOD9090410
Probable space group: P -1
;
_chemical_formula_sum "Si O2"
_cell_formula_units_Z 16
_cell_length_a 17.631871
_cell_length_b 15.119059
_cell_length_c 11.886633
_cell_angle_alpha 129.293164
_cell_angle_beta 150.377545
_cell_angle_gamma 31.680192
_cell_volume 750.166327
_symmetry_space_group_name_H-M "P -1"
_symmetry_group_IT_number 2
_symmetry_cell_setting 'triclinic'
loop_
_space_group_symop_operation_xyz
x,y,z
-x,-y,-z
loop_
_atom_site_type_symbol
_atom_site_label
_atom_site_fract_x
_atom_site_fract_y
_atom_site_fract_z
Si Si1 0.897409 0.857571 0.393074
Si Si2 0.595054 0.981667 0.485117
Si Si3 0.602500 0.861451 0.173895
Si Si4 0.122040 0.717091 0.027665
Si Si5 0.705123 0.611153 0.952110
Si Si6 0.678511 0.430795 0.450551
Si Si7 0.159028 0.846822 0.398037
Si Si8 0.711521 0.662856 0.767983
O O1 0.778706 0.857594 0.345141
O O2 0.157361 0.653259 0.518587
O O3 0.948675 0.962998 0.569403
O O4 0.670791 0.981862 0.110174
O O5 0.584824 0.886152 0.303981
O O6 0.500000 0.000000 0.500000
O O7 0.426070 0.176814 0.366833
O O8 0.873655 0.868191 0.757525
O O9 0.719098 0.673384 0.133693
O O10 0.102573 0.604277 0.973442
O O11 0.386591 0.563293 0.177939
O O12 0.113836 0.818230 0.195256
O O13 0.448978 0.697808 0.669958
O O14 0.685449 0.710692 0.903868
O O15 0.863536 0.238452 0.605294
O O16 0.650624 0.567152 0.588031
O O17 0.000000 0.500000 0.000000
#
# Coordination Sequence:
#
# PCOD9090410 Si02
#       8
#     2   2   2   2   2   2   2   2
#     4  10  21  39  70 103 130 165 232 283 321 376
#     4  12  28  44  63  98 134 179 218 268 343 403
#     4  10  22  41  65  95 135 174 222 281 328 380
#     4  11  23  42  65  99 144 172 211 270 339 404
#     4  10  19  41  69  96 126 172 224 274 319 378
#     4  11  21  38  66 102 130 172 225 270 330 390
#     4  10  19  38  66 100 134 170 217 273 327 386
#     4  12  22  39  69  95 129 170 229 275 315 392
#
# _framework density 21.328603999999999
#
# number of rings (size 3 to 8) (size 9 to 14) (size 15 to 20)
#    0.000    1.250    2.500    5.625    1.750    1.000 
#    0.000    0.625    0.000    0.000    0.000    0.000 
#    0.000    0.000    0.000    0.000    0.000    0.000 
#
# Total GULP energy -89134.206183 kJ/mol
# GULP energy per Si atom -5570.887886 kJ/mol
# Density = 2.128006 g / cm^3
# Si number density = 21.328604 Si / 1000 Ang^3
#
#
#
# Elastic Constant Matrix: (Units=GPa)
#
#
# Indices 1 2 3 4 5 6 
#
# 1 101.7745 30.8206 34.7304 0.8631 -4.7844 -21.7433
# 2 30.8206 114.8288 47.7922 23.6501 -7.0846 -9.1524
# 3 34.7304 47.7922 95.1634 0.3855 -4.1734 -10.4425
# 4 0.8631 23.6501 0.3855 40.0955 -13.9853 0.5198
# 5 -4.7844 -7.0846 -4.1734 -13.9853 27.8549 3.4487
# 6 -21.7433 -9.1524 -10.4425 0.5198 3.4487 30.1452
#
#
#
# Elastic Compliance Matrix: (Units=1/GPa)
#
#
# Indices 1 2 3 4 5 6 
#
# 1 0.013075 -0.001809 -0.002980 0.001028 0.000898 0.007729
# 2 -0.001809 0.013427 -0.006027 -0.008627 -0.002266 0.001091
# 3 -0.002980 -0.006027 0.014792 0.004232 0.002195 0.000821
# 4 0.001028 -0.008627 0.004232 0.035946 0.017033 -0.002981
# 5 0.000898 -0.002266 0.002195 0.017033 0.044943 -0.004715
# 6 0.007729 0.001091 0.000821 -0.002981 -0.004715 0.039954
#
#
# Mechanical properties :
#
#
# Convention : Reuss Voigt Hill
#
# Bulk Modulus (GPa) = 50.86283 59.82813 55.34548
# Shear Modulus (GPa) = 26.27096 32.84735 29.55915
#
# Velocity S-wave (km/s) = 3.51340 3.92862 3.72680
# Velocity P-wave (km/s) = 6.35277 6.97784 6.67263
#
# Compressibility (1/GPa) = 0.01966072
#
# Stress axis : x y z
#
# Youngs Moduli (GPa) = 76.48084 74.47665 67.60420
#
# Poissons Ratio (x) = 0.13476 0.20145
# Poissons Ratio (y) = 0.13839 0.40748
# Poissons Ratio (z) = 0.22790 0.44891
#
# Static dielectric constant tensor:
#      x y z
#    x 1.636430 0.055960 0.211010 
#    y 0.055960 1.840600 0.059590 
#    z 0.211010 0.059590 1.878370 
# 
# From -- ./inp_files/466127.got.cif
#   From: 2010.05.17/outbox.cif.g08.bks.cpg/sg2_234_cif.got.tgz:466127.got - 2010.06.03 11:33:40.
