data_PCOD9090639
_publ_section_title
;
Structure prediction by ZEFSAII (Michael W. Deem and Ramdas Pophale) SiO2 
 PCOD9090639
Probable space group: P -1
;
_chemical_formula_sum "Si O2"
_cell_formula_units_Z 16
_cell_length_a 7.596811
_cell_length_b 8.921292
_cell_length_c 15.414786
_cell_angle_alpha 76.229956
_cell_angle_beta 81.270578
_cell_angle_gamma 131.059653
_cell_volume 694.092047
_symmetry_space_group_name_H-M "P -1"
_symmetry_group_IT_number 2
_symmetry_cell_setting 'triclinic'
loop_
_space_group_symop_operation_xyz
x,y,z
-x,-y,-z
loop_
_atom_site_type_symbol
_atom_site_label
_atom_site_fract_x
_atom_site_fract_y
_atom_site_fract_z
Si Si1 0.291414 0.464925 0.763855
Si Si2 0.637247 0.956677 0.613051
Si Si3 0.242001 0.629639 0.900563
Si Si4 0.813292 0.284715 0.711470
Si Si5 0.995959 0.736269 0.807576
Si Si6 0.475201 0.315863 0.983682
Si Si7 0.686271 0.866792 0.154058
Si Si8 0.113065 0.783621 0.605414
O O1 0.241421 0.472935 0.867625
O O2 0.355152 0.325923 0.773649
O O3 0.034548 0.350538 0.746779
O O4 0.526841 0.721068 0.680915
O O5 0.750474 0.126320 0.660986
O O6 0.839932 0.085260 0.500842
O O7 0.388566 0.890681 0.602494
O O8 0.204714 0.734313 0.815313
O O9 0.483282 0.775631 0.926924
O O10 0.000000 0.500000 0.000000
O O11 0.553796 0.173705 0.796551
O O12 0.936785 0.523600 0.635373
O O13 0.010362 0.798549 0.699233
O O14 0.729182 0.486175 0.880154
O O15 0.060603 0.906002 0.849821
O O16 0.280635 0.131480 0.951938
O O17 0.500000 0.500000 0.000000
#
# Coordination Sequence:
#
# PCOD9090639 Si02
#       8
#     2   2   2   2   2   2   2   2
#     4  11  23  42  61  96 133 165 219 271 310 386
#     4  10  21  38  67  95 128 174 213 260 327 378
#     4  10  19  40  63  84 127 166 206 268 317 371
#     4  11  20  41  67  94 127 174 213 260 325 383
#     4  11  22  42  65  95 129 166 215 266 319 387
#     4  11  23  41  64  90 128 168 210 268 325 376
#     4  12  24  41  67  95 128 174 212 265 327 378
#     4  10  19  38  68  95 129 169 214 265 317 387
#
# _framework density 23.0517
#
# number of rings (size 3 to 8) (size 9 to 14) (size 15 to 20)
#    0.000    1.250    6.250    1.125    0.000    2.000 
#    2.250    1.250    0.000    0.000    0.000    0.000 
#    0.000    0.000    0.000    0.000    0.000    0.000 
#
# Total GULP energy -89345.748623 kJ/mol
# GULP energy per Si atom -5584.109289 kJ/mol
# Density = 2.299923 g / cm^3
# Si number density = 23.051700 Si / 1000 Ang^3
#
#
#
# Elastic Constant Matrix: (Units=GPa)
#
#
# Indices 1 2 3 4 5 6 
#
# 1 70.9923 20.2528 22.7140 -0.4932 9.8812 -0.4962
# 2 20.2528 132.2127 27.4675 21.2242 8.8579 11.2836
# 3 22.7140 27.4675 99.9337 18.4124 2.3961 6.5772
# 4 -0.4932 21.2242 18.4124 24.2192 -0.6163 -5.3627
# 5 9.8812 8.8579 2.3961 -0.6163 16.5985 -6.0779
# 6 -0.4962 11.2836 6.5772 -5.3627 -6.0779 28.7077
#
#
#
# Elastic Compliance Matrix: (Units=1/GPa)
#
#
# Indices 1 2 3 4 5 6 
#
# 1 0.017221 -0.002318 -0.004276 0.005810 -0.007570 0.001671
# 2 -0.002318 0.011044 0.000491 -0.012187 -0.008148 -0.008495
# 3 -0.004276 0.000491 0.013565 -0.012258 -0.002389 -0.006171
# 4 0.005810 -0.012187 -0.012258 0.067037 0.015944 0.023597
# 5 -0.007570 -0.008148 -0.002389 0.015944 0.078543 0.023227
# 6 0.001671 -0.008495 -0.006171 0.023597 0.023227 0.048941
#
#
# Mechanical properties :
#
#
# Convention : Reuss Voigt Hill
#
# Bulk Modulus (GPa) = 33.75521 49.33413 41.54467
# Shear Modulus (GPa) = 19.34746 29.41870 24.38308
#
# Velocity S-wave (km/s) = 2.90022 3.57628 3.25585
# Velocity P-wave (km/s) = 5.08823 6.20492 5.67411
#
# Compressibility (1/GPa) = 0.02962506
#
# Stress axis : x y z
#
# Youngs Moduli (GPa) = 58.06842 90.54802 73.71724
#
# Poissons Ratio (x) = 0.20987 0.31522
# Poissons Ratio (y) = 0.13459 -0.03621
# Poissons Ratio (z) = 0.24831 -0.04448
#
# Static dielectric constant tensor:
#      x y z
#    x 1.922870 0.018200 -0.020730 
#    y 0.018200 1.893710 0.005880 
#    z -0.020730 0.005880 1.891360 
# 
# From -- ./inp_files/218474.got.cif
#   From: 2010.05.17/outbox.cif.g08.bks.cpg/sg2_110_cif.got.tgz:218474.got - 2010.06.03 11:33:40.
