data_PCOD9090990
_publ_section_title
;
Structure prediction by ZEFSAII (Michael W. Deem and Ramdas Pophale) SiO2 
 PCOD9090990
Probable space group: P -1
;
_chemical_formula_sum "Si O2"
_cell_formula_units_Z 14
_cell_length_a 13.681847
_cell_length_b 19.485086
_cell_length_c 10.093781
_cell_angle_alpha 135.426675
_cell_angle_beta 147.983615
_cell_angle_gamma 27.261167
_cell_volume 643.910342
_symmetry_space_group_name_H-M "P -1"
_symmetry_group_IT_number 2
_symmetry_cell_setting 'triclinic'
loop_
_space_group_symop_operation_xyz
x,y,z
-x,-y,-z
loop_
_atom_site_type_symbol
_atom_site_label
_atom_site_fract_x
_atom_site_fract_y
_atom_site_fract_z
Si Si1 0.817728 0.396145 0.045026
Si Si2 0.782030 0.404000 0.324839
Si Si3 0.342257 0.327463 0.525184
Si Si4 0.847548 0.007853 0.530157
Si Si5 0.739353 0.157042 0.995840
Si Si6 0.578276 0.897357 0.325697
Si Si7 0.134519 0.091733 0.863173
O O1 0.811277 0.363532 0.146510
O O2 0.039669 0.395966 0.296623
O O3 0.479941 0.543181 0.831099
O O4 0.934795 0.264708 0.903285
O O5 0.718299 0.546220 0.445823
O O6 0.088814 0.251200 0.521245
O O7 0.548407 0.166782 0.466653
O O8 0.525958 0.279734 0.802449
O O9 0.987096 0.053256 0.699640
O O10 0.808804 0.952797 0.285631
O O11 0.414837 0.995833 0.142092
O O12 0.542832 0.157569 0.843558
O O13 0.928295 0.126555 0.289934
O O14 0.000000 0.000000 0.000000
O O15 0.500000 0.000000 0.500000
#
# Coordination Sequence:
#
# PCOD9090990 Si02
#       7
#     2   2   2   2   2   2   2
#     4  11  22  36  63  89 122 160 200 252 300 362
#     4  11  23  37  59  93 126 158 196 254 311 353
#     4  11  20  39  61  93 123 158 201 251 307 357
#     4   9  20  36  64  88 122 162 203 251 298 361
#     4   9  19  33  58  90 116 150 198 252 296 352
#     4  11  20  37  58  89 117 156 205 252 298 359
#     4  10  19  39  62  90 119 162 210 243 300 364
#
# _framework density 21.742158
#
# number of rings (size 3 to 8) (size 9 to 14) (size 15 to 20)
#    0.000    1.714    4.286    0.429    0.000    0.571 
#    0.000    0.714    0.000    1.714    0.000    0.000 
#    0.000    0.000    0.000    0.000    0.000    0.000 
#
# Total GULP energy -78190.406334 kJ/mol
# GULP energy per Si atom -5585.029024 kJ/mol
# Density = 2.169267 g / cm^3
# Si number density = 21.742158 Si / 1000 Ang^3
#
#
#
# Elastic Constant Matrix: (Units=GPa)
#
#
# Indices 1 2 3 4 5 6 
#
# 1 73.0365 44.7995 56.7349 -4.8259 -9.7601 -10.6330
# 2 44.7995 149.3761 95.4577 -22.7618 -7.3990 -18.9293
# 3 56.7349 95.4577 143.8763 -26.4840 -4.9842 -10.0081
# 4 -4.8259 -22.7618 -26.4840 56.1858 -5.0689 -1.1469
# 5 -9.7601 -7.3990 -4.9842 -5.0689 46.1112 9.0721
# 6 -10.6330 -18.9293 -10.0081 -1.1469 9.0721 25.3864
#
#
#
# Elastic Compliance Matrix: (Units=1/GPa)
#
#
# Indices 1 2 3 4 5 6 
#
# 1 0.021021 -0.001174 -0.007496 -0.001900 0.002453 0.004012
# 2 -0.001174 0.012716 -0.007214 0.001776 -0.000019 0.006233
# 3 -0.007496 -0.007214 0.015172 0.003514 -0.000269 -0.002283
# 4 -0.001900 0.001776 0.003514 0.020241 0.002077 0.002086
# 5 0.002453 -0.000019 -0.000269 0.002077 0.023884 -0.007534
# 6 0.004012 0.006233 -0.002283 0.002086 -0.007534 0.047606
#
#
# Mechanical properties :
#
#
# Convention : Reuss Voigt Hill
#
# Bulk Modulus (GPa) = 58.34148 84.47480 71.40814
# Shear Modulus (GPa) = 28.07065 36.82313 32.44689
#
# Velocity S-wave (km/s) = 3.59704 4.11984 3.86728
# Velocity P-wave (km/s) = 6.64404 7.84653 7.27019
#
# Compressibility (1/GPa) = 0.01714046
#
# Stress axis : x y z
#
# Youngs Moduli (GPa) = 47.57112 78.63958 65.91255
#
# Poissons Ratio (x) = 0.09230 0.49410
# Poissons Ratio (y) = 0.05583 0.47551
# Poissons Ratio (z) = 0.35661 0.56733
#
# Static dielectric constant tensor:
#      x y z
#    x 1.766640 0.017020 0.023060 
#    y 0.017020 1.807200 -0.006490 
#    z 0.023060 -0.006490 1.865250 
# 
# From -- ./inp_files/539349.got.cif
#   From: 2010.05.17/outbox.cif.g08.bks.cpg/sg2_270_cif.got.tgz:539349.got - 2010.06.03 11:33:40.
