data_PCOD9090736
_publ_section_title
;
Structure prediction by ZEFSAII (Michael W. Deem and Ramdas Pophale) SiO2 
 PCOD9090736
Probable space group: P -1
;
_chemical_formula_sum "Si O2"
_cell_formula_units_Z 16
_cell_length_a 15.797752
_cell_length_b 31.353873
_cell_length_c 9.223326
_cell_angle_alpha 140.904994
_cell_angle_beta 36.455725
_cell_angle_gamma 164.107245
_cell_volume 743.272992
_symmetry_space_group_name_H-M "P -1"
_symmetry_group_IT_number 2
_symmetry_cell_setting 'triclinic'
loop_
_space_group_symop_operation_xyz
x,y,z
-x,-y,-z
loop_
_atom_site_type_symbol
_atom_site_label
_atom_site_fract_x
_atom_site_fract_y
_atom_site_fract_z
Si Si1 0.242217 0.309009 0.060242
Si Si2 0.334177 0.412165 0.652161
Si Si3 0.674446 0.738941 0.662274
Si Si4 0.216525 0.822202 0.419934
Si Si5 0.216812 0.163854 0.906600
Si Si6 0.517613 0.209185 0.077800
Si Si7 0.197278 0.921274 0.193925
Si Si8 0.368672 0.134564 0.395938
O O1 0.588115 0.494429 0.097516
O O2 0.229594 0.232431 0.959985
O O3 0.998778 0.251279 0.337759
O O4 0.100050 0.238720 0.911254
O O5 0.500000 0.500000 0.500000
O O6 0.458984 0.394437 0.495733
O O7 0.964099 0.245275 0.664738
O O8 0.711622 0.779146 0.882261
O O9 0.464400 0.708374 0.795657
O O10 0.019469 0.877125 0.464109
O O11 0.500000 0.000000 0.500000
O O12 0.296616 0.777002 0.200932
O O13 0.448705 0.207947 0.626945
O O14 0.860319 0.976599 0.911765
O O15 0.587920 0.244160 0.244663
O O16 0.338941 0.043359 0.226832
O O17 0.500000 0.000000 0.000000
O O18 0.000000 0.000000 0.500000
#
# Coordination Sequence:
#
# PCOD9090736 Si02
#       8
#     2   2   2   2   2   2   2   2
#     4  11  22  43  64  89 133 179 202 259 335 381
#     4  10  23  43  64  92 130 176 217 250 328 390
#     4  12  23  38  63  95 128 169 218 262 319 386
#     4  11  20  36  70 100 121 165 221 266 309 380
#     4  11  19  35  67  88 125 167 213 253 326 383
#     4  11  21  35  63  96 130 157 212 273 318 371
#     4  12  26  37  64 100 133 157 220 277 312 373
#     4  10  19  39  56  92 132 167 193 266 340 373
#
# _framework density 21.526411
#
# number of rings (size 3 to 8) (size 9 to 14) (size 15 to 20)
#    0.000    1.000    8.750    0.375    5.250    0.500 
#    0.000    2.500    2.750    1.500    0.000    0.000 
#    0.000    0.000    0.000    0.000    0.000    0.000 
#
# Total GULP energy -89236.993107 kJ/mol
# GULP energy per Si atom -5577.312069 kJ/mol
# Density = 2.147742 g / cm^3
# Si number density = 21.526411 Si / 1000 Ang^3
#
#
#
# Elastic Constant Matrix: (Units=GPa)
#
#
# Indices 1 2 3 4 5 6 
#
# 1 104.3587 27.3781 43.6516 25.7164 -25.7493 -7.1134
# 2 27.3781 44.9050 16.1257 23.5812 -0.0580 0.7987
# 3 43.6516 16.1257 114.0461 14.4673 -6.1950 7.0215
# 4 25.7164 23.5812 14.4673 28.3301 -0.2729 -1.1431
# 5 -25.7493 -0.0580 -6.1950 -0.2729 53.8588 11.1487
# 6 -7.1134 0.7987 7.0215 -1.1431 11.1487 22.6944
#
#
#
# Elastic Compliance Matrix: (Units=1/GPa)
#
#
# Indices 1 2 3 4 5 6 
#
# 1 0.016625 -0.003455 -0.004445 -0.009764 0.006787 0.002882
# 2 -0.003455 0.040684 -0.000390 -0.030677 -0.001105 -0.003396
# 3 -0.004445 -0.000390 0.011024 -0.001468 0.000158 -0.004942
# 4 -0.009764 -0.030677 -0.001468 0.070583 -0.005491 0.004726
# 5 0.006787 -0.001105 0.000158 -0.005491 0.023845 -0.009873
# 6 0.002882 -0.003396 -0.004942 0.004726 -0.009873 0.051704
#
#
# Mechanical properties :
#
#
# Convention : Reuss Voigt Hill
#
# Bulk Modulus (GPa) = 19.32224 48.62452 33.97338
# Shear Modulus (GPa) = 20.13730 32.72030 26.42880
#
# Velocity S-wave (km/s) = 3.06186 3.90296 3.50771
# Velocity P-wave (km/s) = 4.63633 6.55348 5.67643
#
# Compressibility (1/GPa) = 0.05175383
#
# Stress axis : x y z
#
# Youngs Moduli (GPa) = 60.14953 24.57966 90.71211
#
# Poissons Ratio (x) = 0.08493 0.40321
# Poissons Ratio (y) = 0.20782 0.03534
# Poissons Ratio (z) = 0.26736 0.00958
#
# Static dielectric constant tensor:
#      x y z
#    x 1.808750 0.013960 0.004220 
#    y 0.013960 1.929270 0.007990 
#    z 0.004220 0.007990 1.837190 
# 
# From -- ./inp_files/321072.got.cif
#   From: 2010.05.17/outbox.cif.g08.bks.cpg/sg2_161_cif.got.tgz:321072.got - 2010.06.03 11:33:40.
