data_PCOD9090595
_publ_section_title
;
Structure prediction by ZEFSAII (Michael W. Deem and Ramdas Pophale) SiO2 
 PCOD9090595
Probable space group: P -1
;
_chemical_formula_sum "Si O2"
_cell_formula_units_Z 16
_cell_length_a 21.016824
_cell_length_b 8.650104
_cell_length_c 13.992236
_cell_angle_alpha 69.164285
_cell_angle_beta 157.787368
_cell_angle_gamma 99.646210
_cell_volume 799.081350
_symmetry_space_group_name_H-M "P -1"
_symmetry_group_IT_number 2
_symmetry_cell_setting 'triclinic'
loop_
_space_group_symop_operation_xyz
x,y,z
-x,-y,-z
loop_
_atom_site_type_symbol
_atom_site_label
_atom_site_fract_x
_atom_site_fract_y
_atom_site_fract_z
Si Si1 0.109752 0.825644 0.761335
Si Si2 0.249407 0.250668 0.479560
Si Si3 0.540864 0.400507 0.824163
Si Si4 0.699153 0.424175 0.239296
Si Si5 0.862989 0.799759 0.876897
Si Si6 0.984968 0.525073 0.716927
Si Si7 0.078145 0.007456 0.339756
Si Si8 0.212434 0.804614 0.276139
O O1 0.052411 0.658108 0.726913
O O2 0.047126 0.921088 0.755769
O O3 0.325052 0.719678 0.048311
O O4 0.000000 0.000000 0.500000
O O5 0.428992 0.288476 0.729919
O O6 0.193742 0.265878 0.286470
O O7 0.092704 0.392464 0.303390
O O8 0.250791 0.061160 0.559675
O O9 0.387620 0.609245 0.538712
O O10 0.659512 0.426394 0.070649
O O11 0.816009 0.526308 0.418658
O O12 0.829893 0.210389 0.492366
O O13 0.500000 0.500000 0.000000
O O14 0.746409 0.025027 0.672942
O O15 0.858973 0.682878 0.989596
O O16 0.080787 0.767269 0.177685
O O17 0.932317 0.114472 0.030094
#
# Coordination Sequence:
#
# PCOD9090595 Si02
#       8
#     2   2   2   2   2   2   2   2
#     4  11  26  47  62  91 133 180 214 261 326 390
#     4  10  22  36  65 100 129 163 217 269 323 378
#     4  12  25  42  63  99 133 167 218 273 317 378
#     4  12  23  40  68 100 129 163 221 272 316 378
#     4  10  19  38  67  98 131 166 209 268 334 378
#     4  11  22  42  68  92 127 178 219 254 329 391
#     4  10  23  43  68  90 133 178 210 264 330 388
#     4  10  21  39  66  98 131 165 215 271 323 378
#
# _framework density 20.022993
#
# number of rings (size 3 to 8) (size 9 to 14) (size 15 to 20)
#    0.000    1.250    5.000    0.375    7.000    2.500 
#    0.000    0.625    0.000    0.000    0.000    0.000 
#    0.000    0.000    0.000    0.000    0.000    0.000 
#
# Total GULP energy -89219.851309 kJ/mol
# GULP energy per Si atom -5576.240707 kJ/mol
# Density = 1.997742 g / cm^3
# Si number density = 20.022993 Si / 1000 Ang^3
#
#
#
# Elastic Constant Matrix: (Units=GPa)
#
#
# Indices 1 2 3 4 5 6 
#
# 1 76.9022 32.4758 33.7517 -5.0401 5.2744 5.6811
# 2 32.4758 87.9884 28.5482 -14.9401 0.0576 3.8334
# 3 33.7517 28.5482 73.4234 -26.5828 5.9535 -1.4662
# 4 -5.0401 -14.9401 -26.5828 28.6792 -6.7106 -8.5474
# 5 5.2744 0.0576 5.9535 -6.7106 34.2617 -0.0712
# 6 5.6811 3.8334 -1.4662 -8.5474 -0.0712 29.2175
#
#
#
# Elastic Compliance Matrix: (Units=1/GPa)
#
#
# Indices 1 2 3 4 5 6 
#
# 1 0.020686 -0.005693 -0.012167 -0.013865 -0.003793 -0.007951
# 2 -0.005693 0.014852 -0.000854 0.006825 0.002339 0.001118
# 3 -0.012167 -0.000854 0.030488 0.030079 0.002495 0.012813
# 4 -0.013865 0.006825 0.030079 0.073991 0.011440 0.024983
# 5 -0.003793 0.002339 0.002495 0.011440 0.031583 0.003980
# 6 -0.007951 0.001118 0.012813 0.024983 0.003980 0.043587
#
#
# Mechanical properties :
#
#
# Convention : Reuss Voigt Hill
#
# Bulk Modulus (GPa) = 34.96564 47.54059 41.25311
# Shear Modulus (GPa) = 19.07328 28.00090 23.53709
#
# Velocity S-wave (km/s) = 3.08972 3.74363 3.43228
# Velocity P-wave (km/s) = 5.49810 6.51773 6.02951
#
# Compressibility (1/GPa) = 0.02859951
#
# Stress axis : x y z
#
# Youngs Moduli (GPa) = 48.34115 67.33044 32.79964
#
# Poissons Ratio (x) = 0.38331 0.39906
# Poissons Ratio (y) = 0.27520 0.02801
# Poissons Ratio (z) = 0.58815 0.05750
#
# Static dielectric constant tensor:
#      x y z
#    x 1.742660 -0.006070 -0.022570 
#    y -0.006070 1.793320 -0.003630 
#    z -0.022570 -0.003630 1.698600 
# 
# From -- ./inp_files/243511.got.cif
#   From: 2010.05.17/outbox.cif.g08.bks.cpg/sg2_122_cif.got.tgz:243511.got - 2010.06.03 11:33:40.
