data_PCOD9090663
_publ_section_title
;
Structure prediction by ZEFSAII (Michael W. Deem and Ramdas Pophale) SiO2 
 PCOD9090663
Probable space group: P -1
;
_chemical_formula_sum "Si O2"
_cell_formula_units_Z 14
_cell_length_a 8.333036
_cell_length_b 9.833003
_cell_length_c 8.927353
_cell_angle_alpha 57.258687
_cell_angle_beta 75.966339
_cell_angle_gamma 81.653880
_cell_volume 596.825140
_symmetry_space_group_name_H-M "P -1"
_symmetry_group_IT_number 2
_symmetry_cell_setting 'triclinic'
loop_
_space_group_symop_operation_xyz
x,y,z
-x,-y,-z
loop_
_atom_site_type_symbol
_atom_site_label
_atom_site_fract_x
_atom_site_fract_y
_atom_site_fract_z
Si Si1 0.614655 0.499630 0.227377
Si Si2 0.568445 0.164923 0.314309
Si Si3 0.084444 0.823793 0.195067
Si Si4 0.136578 0.383045 0.117572
Si Si5 0.075260 0.583699 0.580457
Si Si6 0.545231 0.163087 0.976979
Si Si7 0.055285 0.842354 0.880936
O O1 0.527802 0.327234 0.324064
O O2 0.764383 0.479258 0.325957
O O3 0.510132 0.664026 0.185383
O O4 0.696468 0.540085 0.022445
O O5 0.769796 0.175103 0.235620
O O6 0.500000 0.000000 0.500000
O O7 0.496705 0.167621 0.160198
O O8 0.129569 0.746124 0.389100
O O9 0.258644 0.855210 0.061190
O O10 0.013549 0.743069 0.105723
O O11 0.968771 0.973440 0.174848
O O12 0.083968 0.383283 0.299469
O O13 0.094127 0.209924 0.161548
O O14 0.000000 0.500000 0.000000
O O15 0.000000 0.500000 0.500000
O O16 0.500000 0.000000 0.000000
#
# Coordination Sequence:
#
# PCOD9090663 Si02
#       7
#     2   2   2   2   2   2   2
#     4  11  24  47  71 100 146 186 232 295 352 429
#     4  11  25  45  71 104 142 188 240 282 347 427
#     4  10  23  40  65  98 137 177 233 284 352 411
#     4  10  19  38  69  92 127 169 227 283 355 394
#     4  11  24  39  69 104 134 171 240 295 354 415
#     4  11  26  45  70 100 144 191 230 284 366 426
#     4  10  20  43  69  96 136 181 229 300 344 413
#
# _framework density 23.457457000000002
#
# number of rings (size 3 to 8) (size 9 to 14) (size 15 to 20)
#    0.000    1.429    2.857    3.000    4.000    4.571 
#    2.571    0.000    0.000    0.000    0.000    0.000 
#    0.000    0.000    0.000    0.000    0.000    0.000 
#
# Total GULP energy -77960.512123 kJ/mol
# GULP energy per Si atom -5568.608009 kJ/mol
# Density = 2.340407 g / cm^3
# Si number density = 23.457457 Si / 1000 Ang^3
#
#
#
# Elastic Constant Matrix: (Units=GPa)
#
#
# Indices 1 2 3 4 5 6 
#
# 1 65.2446 44.6114 33.2702 -14.7396 21.6004 -8.6243
# 2 44.6114 157.7910 38.2699 -9.9041 15.8128 12.4203
# 3 33.2702 38.2699 120.2129 3.6885 16.6445 0.9504
# 4 -14.7396 -9.9041 3.6885 40.2099 2.1713 5.4741
# 5 21.6004 15.8128 16.6445 2.1713 31.7403 -2.8842
# 6 -8.6243 12.4203 0.9504 5.4741 -2.8842 38.7940
#
#
#
# Elastic Compliance Matrix: (Units=1/GPa)
#
#
# Indices 1 2 3 4 5 6 
#
# 1 0.029474 -0.005548 -0.004666 0.009867 -0.014983 0.005937
# 2 -0.005548 0.008585 -0.001144 0.000760 -0.000325 -0.004085
# 3 -0.004666 -0.001144 0.010273 -0.002765 -0.001511 -0.000645
# 4 0.009867 0.000760 -0.002765 0.029732 -0.007928 -0.002767
# 5 -0.014983 -0.000325 -0.001511 -0.007928 0.043303 0.001149
# 6 0.005937 -0.004085 -0.000645 -0.002767 0.001149 0.028897
#
#
# Mechanical properties :
#
#
# Convention : Reuss Voigt Hill
#
# Bulk Modulus (GPa) = 39.03687 63.95017 51.49352
# Shear Modulus (GPa) = 27.54549 37.28863 32.41706
#
# Velocity S-wave (km/s) = 3.43049 3.99134 3.72149
# Velocity P-wave (km/s) = 5.68935 6.96867 6.36125
#
# Compressibility (1/GPa) = 0.02561681
#
# Stress axis : x y z
#
# Youngs Moduli (GPa) = 33.92863 116.47957 97.33949
#
# Poissons Ratio (x) = 0.64620 0.45421
# Poissons Ratio (y) = 0.18823 0.11133
# Poissons Ratio (z) = 0.15832 0.13322
#
# Static dielectric constant tensor:
#      x y z
#    x 1.912760 -0.002390 0.029100 
#    y -0.002390 1.687380 0.277700 
#    z 0.029100 0.277700 1.439310 
# 
# From -- ./inp_files/156667.got.cif
#   From: 2010.05.17/outbox.cif.g08.bks.cpg/sg2_79_cif.got.tgz:156667.got - 2010.06.03 11:33:40.
