data_PCOD9090910
_publ_section_title
;
Structure prediction by ZEFSAII (Michael W. Deem and Ramdas Pophale) SiO2 
 PCOD9090910
Probable space group: P -1
;
_chemical_formula_sum "Si O2"
_cell_formula_units_Z 14
_cell_length_a 11.106317
_cell_length_b 16.241454
_cell_length_c 5.406624
_cell_angle_alpha 121.028893
_cell_angle_beta 86.707488
_cell_angle_gamma 55.046066
_cell_volume 592.293324
_symmetry_space_group_name_H-M "P -1"
_symmetry_group_IT_number 2
_symmetry_cell_setting 'triclinic'
loop_
_space_group_symop_operation_xyz
x,y,z
-x,-y,-z
loop_
_atom_site_type_symbol
_atom_site_label
_atom_site_fract_x
_atom_site_fract_y
_atom_site_fract_z
Si Si1 0.875333 0.460314 0.837055
Si Si2 0.575603 0.885214 0.116053
Si Si3 0.389716 0.659666 0.737118
Si Si4 0.691354 0.006941 0.042113
Si Si5 0.045832 0.769571 0.787294
Si Si6 0.066840 0.358521 0.162834
Si Si7 0.487960 0.716541 0.311024
O O1 0.864684 0.352308 0.610239
O O2 0.997126 0.409104 0.974302
O O3 0.954225 0.455526 0.563488
O O4 0.691306 0.604692 0.134017
O O5 0.733857 0.736671 0.966250
O O6 0.500000 0.000000 0.500000
O O7 0.661193 0.909705 0.941516
O O8 0.419996 0.913728 0.066110
O O9 0.500000 0.500000 0.500000
O O10 0.190281 0.747311 0.873124
O O11 0.432255 0.689479 0.521277
O O12 0.435341 0.693664 0.029262
O O13 0.598149 0.130657 0.432966
O O14 0.891909 0.910697 0.888967
O O15 0.957874 0.744751 0.951413
#
# Coordination Sequence:
#
# PCOD9090910 Si02
#       7
#     2   2   2   2   2   2   2
#     4  10  19  39  61  90 126 167 208 261 310 376
#     4  10  21  42  72  88 129 173 218 253 338 394
#     4  12  24  42  68  96 128 180 214 256 320 389
#     4  10  24  43  62 101 125 172 207 279 319 380
#     4   9  21  38  65  88 131 168 217 247 324 382
#     4   9  20  36  65  92 118 165 218 256 307 387
#     4  12  26  41  65  99 135 161 222 271 312 371
#
# _framework density 23.636937
#
# number of rings (size 3 to 8) (size 9 to 14) (size 15 to 20)
#    0.857    0.857    1.429    3.000    6.000    1.143 
#    0.000    1.429    0.000    0.000    0.000    0.000 
#    0.000    0.000    0.000    0.000    0.000    0.000 
#
# Total GULP energy -78254.528806 kJ/mol
# GULP energy per Si atom -5589.609200 kJ/mol
# Density = 2.358314 g / cm^3
# Si number density = 23.636937 Si / 1000 Ang^3
#
#
#
# Elastic Constant Matrix: (Units=GPa)
#
#
# Indices 1 2 3 4 5 6 
#
# 1 33.2964 69.3831 -6.6801 -14.3840 -9.5251 -24.5222
# 2 69.3831 153.3388 36.1158 -12.8066 -3.8646 -26.5867
# 3 -6.6801 36.1158 77.2617 -3.0386 14.1753 -7.2946
# 4 -14.3840 -12.8066 -3.0386 53.2989 -10.5640 -5.5791
# 5 -9.5251 -3.8646 14.1753 -10.5640 40.9640 1.2425
# 6 -24.5222 -26.5867 -7.2946 -5.5791 1.2425 51.5459
#
#
#
# Elastic Compliance Matrix: (Units=1/GPa)
#
#
# Indices 1 2 3 4 5 6 
#
# 1 -0.081795 0.036657 -0.025349 -0.019568 -0.011064 -0.025444
# 2 0.036657 -0.007970 0.007389 0.011546 0.007724 0.015437
# 3 -0.025349 0.007389 0.008054 -0.007320 -0.009639 -0.007668
# 4 -0.019568 0.011546 -0.007320 0.016215 0.003336 -0.002715
# 5 -0.011064 0.007724 -0.009639 0.003336 0.026852 -0.002930
# 6 -0.025444 0.015437 -0.007668 -0.002715 -0.002930 0.013949
#
#
# Mechanical properties :
#
#
# Convention : Reuss Voigt Hill
#
# Bulk Modulus (GPa) = -22.56430 51.28161 14.35866
# Shear Modulus (GPa) = -65.05311 40.16697 -12.44307
#
# Velocity S-wave (km/s) = -5.25181 4.12677 -2.29688
# Velocity P-wave (km/s) = 6.80752 6.66705 0.97282
#
# Compressibility (1/GPa) = -0.04431779
#
# Stress axis : x y z
#
# Youngs Moduli (GPa) = -12.22566 -125.47386 124.16483
#
# Poissons Ratio (x) = 4.59944 3.14748
# Poissons Ratio (y) = 0.44815 -0.91749
# Poissons Ratio (z) = -0.30991 0.92717
#
# Static dielectric constant tensor:
#      x y z
#    x 1.955040 0.125470 0.039380 
#    y 0.125470 1.951320 0.023480 
#    z 0.039380 0.023480 1.892390 
# 
# From -- ./inp_files/81043.got.cif
#   From: 2010.05.17/outbox.cif.g08.bks.cpg/sg2_41_cif.got.tgz:81043.got - 2010.06.03 11:33:40.
