data_PCOD9090223
_publ_section_title
;
Structure prediction by ZEFSAII (Michael W. Deem and Ramdas Pophale) SiO2 
 PCOD9090223
Probable space group: P -1
;
_chemical_formula_sum "Si O2"
_cell_formula_units_Z 15
_cell_length_a 8.667048
_cell_length_b 11.825916
_cell_length_c 10.647028
_cell_angle_alpha 104.100326
_cell_angle_beta 42.295118
_cell_angle_gamma 121.499432
_cell_volume 606.441918
_symmetry_space_group_name_H-M "P -1"
_symmetry_group_IT_number 2
_symmetry_cell_setting 'triclinic'
loop_
_space_group_symop_operation_xyz
x,y,z
-x,-y,-z
loop_
_atom_site_type_symbol
_atom_site_label
_atom_site_fract_x
_atom_site_fract_y
_atom_site_fract_z
Si Si1 0.100152 0.199656 0.625018
Si Si2 0.922991 0.722938 0.067288
Si Si3 0.000000 0.000000 0.000000
Si Si4 0.008129 0.411795 0.663885
Si Si5 0.050333 0.954320 0.720179
Si Si6 0.321218 0.664085 0.715918
Si Si7 0.630010 0.425889 0.737296
Si Si8 0.385920 0.819832 0.461424
O O1 0.191133 0.271520 0.726973
O O2 0.915465 0.255196 0.704206
O O3 0.009396 0.043276 0.665721
O O4 0.376399 0.271101 0.400696
O O5 0.676157 0.618494 0.100240
O O6 0.053504 0.877484 0.983797
O O7 0.133988 0.675275 0.932619
O O8 0.169105 0.100885 0.055242
O O9 0.194699 0.515852 0.689318
O O10 0.191845 0.457214 0.439507
O O11 0.780711 0.448093 0.783104
O O12 0.294521 0.059373 0.703938
O O13 0.182616 0.871102 0.569626
O O14 0.340057 0.763591 0.616209
O O15 0.642204 0.297598 0.640232
#
# Coordination Sequence:
#
# PCOD9090223 Si02
#       8
#     2   2   1   2   2   2   2   2
#     4  10  20  36  53  81 110 136 173 226 270 304
#     4  11  20  32  58  85 103 135 181 218 269 313
#     4  10  16  28  50  82 106 130 164 226 266 304
#     4  10  21  38  54  71 114 146 174 219 261 313
#     4   9  16  27  53  78 103 130 172 221 261 306
#     4  10  19  32  56  80 104 140 176 223 261 305
#     4  10  20  36  56  78 102 149 180 209 267 318
#     4   9  15  30  50  80 103 131 179 216 254 313
#
# _framework density 24.734437
#
# number of rings (size 3 to 8) (size 9 to 14) (size 15 to 20)
#    0.000    2.133    6.667    0.400    0.000    1.067 
#    0.000    0.667    0.000    3.200    0.000    0.000 
#    0.000    0.000    0.000    0.000    0.000    0.000 
#
# Total GULP energy -83511.002627 kJ/mol
# GULP energy per Si atom -5567.400175 kJ/mol
# Density = 2.467814 g / cm^3
# Si number density = 24.734437 Si / 1000 Ang^3
#
#
#
# Elastic Constant Matrix: (Units=GPa)
#
#
# Indices 1 2 3 4 5 6 
#
# 1 19.7901 9.1652 6.8916 -0.9601 -0.6043 -16.6264
# 2 9.1652 86.0746 17.1229 8.2735 11.4416 -33.2158
# 3 6.8916 17.1229 71.3092 17.1108 -8.1464 -6.8409
# 4 -0.9601 8.2735 17.1108 36.6761 -1.5089 -2.0524
# 5 -0.6043 11.4416 -8.1464 -1.5089 15.6805 0.0398
# 6 -16.6264 -33.2158 -6.8409 -2.0524 0.0398 39.3083
#
#
#
# Elastic Compliance Matrix: (Units=1/GPa)
#
#
# Indices 1 2 3 4 5 6 
#
# 1 0.085450 0.009805 -0.008880 0.006258 -0.007982 0.043218
# 2 0.009805 0.023495 -0.006317 -0.001652 -0.020265 0.022836
# 3 -0.008880 -0.006317 0.019158 -0.007535 0.013511 -0.006167
# 4 0.006258 -0.001652 -0.007535 0.031429 0.000552 0.001580
# 5 -0.007982 -0.020265 0.013511 0.000552 0.085371 -0.018206
# 6 0.043218 0.022836 -0.006167 0.001580 -0.018206 0.062044
#
#
# Mechanical properties :
#
#
# Convention : Reuss Voigt Hill
#
# Bulk Modulus (GPa) = 8.52378 27.05926 17.79152
# Shear Modulus (GPa) = 14.01193 27.93260 20.97226
#
# Velocity S-wave (km/s) = 2.38270 3.36415 2.91503
# Velocity P-wave (km/s) = 3.32013 5.10428 4.30563
#
# Compressibility (1/GPa) = 0.11731884
#
# Stress axis : x y z
#
# Youngs Moduli (GPa) = 11.70272 42.56185 52.19628
#
# Poissons Ratio (x) = -0.41731 0.46351
# Poissons Ratio (y) = -0.11474 0.32974
# Poissons Ratio (z) = 0.10392 0.26887
#
# Static dielectric constant tensor:
#      x y z
#    x 2.021390 0.072930 -0.395460 
#    y 0.072930 1.889130 0.600890 
#    z -0.395460 0.600890 -1.608120 
# 
# From -- ./inp_files/165058.got.cif
#   From: 2010.05.17/outbox.cif.g08.bks.cpg/sg2_83_cif.got.tgz:165058.got - 2010.06.03 11:33:40.
