data_PCOD9090745
_publ_section_title
;
Structure prediction by ZEFSAII (Michael W. Deem and Ramdas Pophale) SiO2 
 PCOD9090745
Probable space group: P -1
;
_chemical_formula_sum "Si O2"
_cell_formula_units_Z 14
_cell_length_a 9.580902
_cell_length_b 20.006236
_cell_length_c 5.044000
_cell_angle_alpha 98.096238
_cell_angle_beta 105.157814
_cell_angle_gamma 39.952778
_cell_volume 596.473743
_symmetry_space_group_name_H-M "P -1"
_symmetry_group_IT_number 2
_symmetry_cell_setting 'triclinic'
loop_
_space_group_symop_operation_xyz
x,y,z
-x,-y,-z
loop_
_atom_site_type_symbol
_atom_site_label
_atom_site_fract_x
_atom_site_fract_y
_atom_site_fract_z
Si Si1 0.690864 0.826132 0.817493
Si Si2 0.016250 0.616533 0.133287
Si Si3 0.135851 0.094604 0.998502
Si Si4 0.559474 0.793803 0.200210
Si Si5 0.192232 0.487809 0.634124
Si Si6 0.015015 0.068976 0.427009
Si Si7 0.333662 0.751141 0.309828
O O1 0.927405 0.716791 0.007746
O O2 0.521854 0.859305 0.979181
O O3 0.709115 0.899317 0.837572
O O4 0.645081 0.803805 0.508014
O O5 0.768364 0.675881 0.117431
O O6 0.846722 0.472455 0.066678
O O7 0.145514 0.565130 0.444924
O O8 0.169348 0.057932 0.695634
O O9 0.873183 0.211567 0.915409
O O10 0.118268 0.041488 0.175882
O O11 0.377120 0.806414 0.211599
O O12 0.436113 0.370511 0.636275
O O13 0.000000 0.500000 0.500000
O O14 0.770722 0.189606 0.424928
O O15 0.000000 0.000000 0.500000
#
# Coordination Sequence:
#
# PCOD9090745 Si02
#       7
#     2   2   2   2   2   2   2
#     4  10  19  39  57  86 119 171 191 230 303 351
#     4  10  20  32  53  79 119 163 192 230 289 336
#     4  10  23  39  66  87 119 153 202 242 295 362
#     4  10  20  35  60  84 119 159 200 239 289 341
#     4  12  20  32  54  85 125 155 199 242 288 335
#     4  10  23  42  66  90 117 150 194 252 309 350
#     4  10  25  35  63  94 113 156 206 253 285 344
#
# _framework density 23.471277000000001
#
# number of rings (size 3 to 8) (size 9 to 14) (size 15 to 20)
#    1.714    0.000    2.857    1.714    4.000    0.000 
#    0.000    1.429    0.000    5.143    0.000    0.000 
#    0.000    0.000    0.000    0.000    0.000    0.000 
#
# Total GULP energy -78067.040481 kJ/mol
# GULP energy per Si atom -5576.217177 kJ/mol
# Density = 2.341786 g / cm^3
# Si number density = 23.471277 Si / 1000 Ang^3
#
#
#
# Elastic Constant Matrix: (Units=GPa)
#
#
# Indices 1 2 3 4 5 6 
#
# 1 66.3536 31.8915 14.1450 3.4808 5.6476 -5.9666
# 2 31.8915 62.1390 14.4815 -3.3625 -0.1897 -22.8564
# 3 14.1450 14.4815 100.6741 9.0591 -15.8516 -11.2656
# 4 3.4808 -3.3625 9.0591 33.7308 -3.4093 -3.3295
# 5 5.6476 -0.1897 -15.8516 -3.4093 27.4733 3.3870
# 6 -5.9666 -22.8564 -11.2656 -3.3295 3.3870 42.1055
#
#
#
# Elastic Compliance Matrix: (Units=1/GPa)
#
#
# Indices 1 2 3 4 5 6 
#
# 1 0.021871 -0.012416 -0.002326 -0.003871 -0.005899 -0.004095
# 2 -0.012416 0.028016 -0.001114 0.005825 0.001159 0.013518
# 3 -0.002326 -0.001114 0.011869 -0.002216 0.006857 0.001514
# 4 -0.003871 0.005825 -0.002216 0.031949 0.002991 0.004306
# 5 -0.005899 0.001159 0.006857 0.002991 0.042135 -0.001525
# 6 -0.004095 0.013518 0.001514 0.004306 -0.001525 0.031376
#
#
# Mechanical properties :
#
#
# Convention : Reuss Voigt Hill
#
# Bulk Modulus (GPa) = 33.28582 38.91139 36.09860
# Shear Modulus (GPa) = 23.92993 31.90518 27.91756
#
# Velocity S-wave (km/s) = 3.19649 3.69091 3.45256
# Velocity P-wave (km/s) = 5.27595 5.89729 5.59525
#
# Compressibility (1/GPa) = 0.03004283
#
# Stress axis : x y z
#
# Youngs Moduli (GPa) = 45.72220 35.69371 84.25607
#
# Poissons Ratio (x) = 0.44319 0.19595
# Poissons Ratio (y) = 0.56771 0.09389
# Poissons Ratio (z) = 0.10633 0.03978
#
# Static dielectric constant tensor:
#      x y z
#    x 1.853900 -0.016250 -0.001040 
#    y -0.016250 2.015980 -0.069020 
#    z -0.001040 -0.069020 1.877190 
# 
# From -- ./inp_files/44668.got.cif
#   From: 2010.05.17/outbox.cif.g08.bks.cpg/sg2_23_cif.got.tgz:44668.got - 2010.06.03 11:33:40.
