data_PCOD9090039
_publ_section_title
;
Structure prediction by ZEFSAII (Michael W. Deem and Ramdas Pophale) SiO2 
 PCOD9090039
Probable space group: P -1
;
_chemical_formula_sum "Si O2"
_cell_formula_units_Z 16
_cell_length_a 8.298956
_cell_length_b 11.132001
_cell_length_c 16.832291
_cell_angle_alpha 48.204349
_cell_angle_beta 62.710846
_cell_angle_gamma 101.547682
_cell_volume 665.570278
_symmetry_space_group_name_H-M "P -1"
_symmetry_group_IT_number 2
_symmetry_cell_setting 'triclinic'
loop_
_space_group_symop_operation_xyz
x,y,z
-x,-y,-z
loop_
_atom_site_type_symbol
_atom_site_label
_atom_site_fract_x
_atom_site_fract_y
_atom_site_fract_z
Si Si1 0.062080 0.710913 0.170664
Si Si2 0.689812 0.251981 0.745041
Si Si3 0.769278 0.896939 0.299940
Si Si4 0.810300 0.762519 0.832758
Si Si5 0.547431 0.609511 0.328260
Si Si6 0.691682 0.025568 0.695043
Si Si7 0.469458 0.959410 0.618959
Si Si8 0.051737 0.492526 0.119862
O O1 0.091121 0.662932 0.275130
O O2 0.001343 0.531571 0.200028
O O3 0.823314 0.684404 0.219852
O O4 0.377129 0.982901 0.960233
O O5 0.632962 0.406212 0.685197
O O6 0.761348 0.210921 0.663018
O O7 0.676346 0.833230 0.258956
O O8 0.667431 0.655830 0.461971
O O9 0.610009 0.924925 0.372801
O O10 0.092206 0.150839 0.135866
O O11 0.854348 0.969755 0.698199
O O12 0.960017 0.709523 0.785799
O O13 0.500000 0.500000 0.000000
O O14 0.707790 0.066591 0.579275
O O15 0.357465 0.760842 0.904612
O O16 0.211472 0.653561 0.814121
O O17 0.500000 0.000000 0.500000
#
# Coordination Sequence:
#
# PCOD9090039 Si02
#       8
#     2   2   2   2   2   2   2   2
#     4  10  21  39  62  94 127 161 211 263 310 363
#     4  10  21  39  64  93 125 164 213 262 305 375
#     4  10  22  39  59  89 126 162 209 256 309 388
#     4   9  19  39  63  89 118 160 208 265 312 361
#     4  11  21  40  61  92 131 168 205 253 319 375
#     4  10  19  38  63  89 112 159 213 250 316 372
#     4  11  21  38  58  84 122 159 201 257 312 371
#     4   9  20  38  59  87 123 155 202 261 309 373
#
# _framework density 24.039535000000001
#
# number of rings (size 3 to 8) (size 9 to 14) (size 15 to 20)
#    0.000    2.000    1.250    2.250    0.000    1.000 
#    9.000    3.125    0.000    0.000    0.000    0.000 
#    0.000    0.000    0.000    0.000    0.000    0.000 
#
# Total GULP energy -89188.917198 kJ/mol
# GULP energy per Si atom -5574.307325 kJ/mol
# Density = 2.398482 g / cm^3
# Si number density = 24.039535 Si / 1000 Ang^3
#
#
#
# Elastic Constant Matrix: (Units=GPa)
#
#
# Indices 1 2 3 4 5 6 
#
# 1 112.8783 43.1797 1.9157 -5.4220 4.5881 -2.3112
# 2 43.1797 134.7867 11.7894 -12.2629 -0.2886 6.1102
# 3 1.9157 11.7894 51.9480 -6.5708 -9.3508 5.1614
# 4 -5.4220 -12.2629 -6.5708 37.1468 2.4137 2.0575
# 5 4.5881 -0.2886 -9.3508 2.4137 36.4973 -0.7031
# 6 -2.3112 6.1102 5.1614 2.0575 -0.7031 33.7642
#
#
#
# Elastic Compliance Matrix: (Units=1/GPa)
#
#
# Indices 1 2 3 4 5 6 
#
# 1 0.010219 -0.003299 0.000070 0.000431 -0.001297 0.001232
# 2 -0.003299 0.008891 -0.001443 0.002300 -0.000071 -0.001756
# 3 0.000070 -0.001443 0.021200 0.003119 0.005146 -0.003058
# 4 0.000431 0.002300 0.003119 0.028516 -0.001173 -0.002626
# 5 -0.001297 -0.000071 0.005146 -0.001173 0.028954 -0.000188
# 6 0.001232 -0.001756 -0.003058 -0.002626 -0.000188 0.030643
#
#
# Mechanical properties :
#
#
# Convention : Reuss Voigt Hill
#
# Bulk Modulus (GPa) = 32.29483 45.93139 39.11311
# Shear Modulus (GPa) = 33.76371 37.66354 35.71362
#
# Velocity S-wave (km/s) = 3.75174 3.96249 3.85856
# Velocity P-wave (km/s) = 5.67720 6.33113 6.01306
#
# Compressibility (1/GPa) = 0.03096471
#
# Stress axis : x y z
#
# Youngs Moduli (GPa) = 97.86047 112.47324 47.17075
#
# Poissons Ratio (x) = 0.37107 -0.00332
# Poissons Ratio (y) = 0.32286 0.06809
# Poissons Ratio (z) = -0.00689 0.16235
#
# Static dielectric constant tensor:
#      x y z
#    x 2.079070 0.016410 -0.084410 
#    y 0.016410 1.892420 -0.028430 
#    z -0.084410 -0.028430 2.192090 
# 
# From -- ./inp_files/507932.got.cif
#   From: 2010.05.17/outbox.cif.g08.bks.cpg/sg2_254_cif.got.tgz:507932.got - 2010.06.03 11:33:40.
