data_PCOD9090107
_publ_section_title
;
Structure prediction by ZEFSAII (Michael W. Deem and Ramdas Pophale) SiO2 
 PCOD9090107
Probable space group: P -1
;
_chemical_formula_sum "Si O2"
_cell_formula_units_Z 16
_cell_length_a 5.317021
_cell_length_b 16.182699
_cell_length_c 13.595817
_cell_angle_alpha 32.387044
_cell_angle_beta 83.897458
_cell_angle_gamma 73.426187
_cell_volume 579.572107
_symmetry_space_group_name_H-M "P -1"
_symmetry_group_IT_number 2
_symmetry_cell_setting 'triclinic'
loop_
_space_group_symop_operation_xyz
x,y,z
-x,-y,-z
loop_
_atom_site_type_symbol
_atom_site_label
_atom_site_fract_x
_atom_site_fract_y
_atom_site_fract_z
Si Si1 0.809030 0.270481 0.239163
Si Si2 0.055079 0.561319 0.108852
Si Si3 0.471769 0.229964 0.457135
Si Si4 0.480624 0.642811 0.136016
Si Si5 0.260009 0.998503 0.618290
Si Si6 0.666286 0.828153 0.113738
Si Si7 0.447648 0.645876 0.433485
Si Si8 0.104364 0.951488 0.220598
O O1 0.617192 0.324258 0.287743
O O2 0.071909 0.135734 0.413181
O O3 0.691277 0.172943 0.264301
O O4 0.875293 0.405993 0.038031
O O5 0.170290 0.367932 0.332164
O O6 0.212128 0.652860 0.077193
O O7 0.734548 0.636468 0.064519
O O8 0.501947 0.061388 0.566923
O O9 0.608679 0.149593 0.633483
O O10 0.502867 0.768144 0.095991
O O11 0.548156 0.460421 0.363236
O O12 0.111572 0.017099 0.713353
O O13 0.692932 0.702633 0.328720
O O14 0.500000 0.000000 0.000000
O O15 0.891773 0.881350 0.996585
O O16 0.500000 0.500000 0.500000
O O17 0.160368 0.805726 0.283189
#
# Coordination Sequence:
#
# PCOD9090107 Si02
#       8
#     2   2   2   2   2   2   2   2
#     4  10  24  41  61  97 125 179 221 271 327 386
#     4  12  26  42  70  97 137 176 224 269 326 397
#     4  11  23  38  64  92 133 173 219 275 323 396
#     4  11  24  44  68 100 134 177 219 275 331 391
#     4  10  22  40  64  89 134 170 221 275 328 391
#     4   9  20  40  72  95 133 171 222 277 333 400
#     4   9  18  39  66  92 130 169 215 270 333 394
#     4  10  19  38  63  95 126 170 222 265 337 386
#
# _framework density 27.606573999999998
#
# number of rings (size 3 to 8) (size 9 to 14) (size 15 to 20)
#    0.000    1.750    1.250    2.250    5.250    0.500 
#    0.000    6.250   11.000    0.000    0.000    0.000 
#    0.000    0.000    0.000    0.000    0.000    0.000 
#
# Total GULP energy -89320.043735 kJ/mol
# GULP energy per Si atom -5582.502733 kJ/mol
# Density = 2.754374 g / cm^3
# Si number density = 27.606574 Si / 1000 Ang^3
#
#
#
# Elastic Constant Matrix: (Units=GPa)
#
#
# Indices 1 2 3 4 5 6 
#
# 1 89.2550 34.8456 28.8565 11.0472 -19.6136 12.9986
# 2 34.8456 131.2688 31.6726 5.1506 -19.8783 -1.0336
# 3 28.8565 31.6726 158.1738 30.7024 -28.0992 -3.3742
# 4 11.0472 5.1506 30.7024 59.4246 -2.8224 -20.1879
# 5 -19.6136 -19.8783 -28.0992 -2.8224 31.6550 -3.6987
# 6 12.9986 -1.0336 -3.3742 -20.1879 -3.6987 34.5323
#
#
#
# Elastic Compliance Matrix: (Units=1/GPa)
#
#
# Indices 1 2 3 4 5 6 
#
# 1 0.015659 -0.003017 -0.000389 -0.004975 0.006052 -0.008283
# 2 -0.003017 0.009123 -0.000831 0.001179 0.003506 0.002392
# 3 -0.000389 -0.000831 0.008479 -0.004225 0.006288 -0.000847
# 4 -0.004975 0.001179 -0.004225 0.025176 -0.001979 0.016001
# 5 0.006052 0.003506 0.006288 -0.001979 0.043170 0.001908
# 6 -0.008283 0.002392 -0.000847 0.016001 0.001908 0.041624
#
#
# Mechanical properties :
#
#
# Convention : Reuss Voigt Hill
#
# Bulk Modulus (GPa) = 40.34262 63.27188 51.80725
# Shear Modulus (GPa) = 31.25662 44.01058 37.63360
#
# Velocity S-wave (km/s) = 3.36849 3.99708 3.69617
# Velocity P-wave (km/s) = 5.45657 6.65365 6.08462
#
# Compressibility (1/GPa) = 0.02478768
#
# Stress axis : x y z
#
# Youngs Moduli (GPa) = 63.86050 109.61477 117.94391
#
# Poissons Ratio (x) = 0.33066 0.04584
# Poissons Ratio (y) = 0.19264 0.09804
# Poissons Ratio (z) = 0.02482 0.09112
#
# Static dielectric constant tensor:
#      x y z
#    x 2.397270 0.043540 -0.047730 
#    y 0.043540 2.464470 0.033460 
#    z -0.047730 0.033460 2.163070 
# 
# From -- ./inp_files/39514.got.cif
#   From: 2010.05.17/outbox.cif.g08.bks.cpg/sg2_20_cif.got.tgz:39514.got - 2010.06.03 11:33:40.
