data_PCOD9090917
_publ_section_title
;
Structure prediction by ZEFSAII (Michael W. Deem and Ramdas Pophale) SiO2 
 PCOD9090917
Probable space group: P -1
;
_chemical_formula_sum "Si O2"
_cell_formula_units_Z 16
_cell_length_a 11.445266
_cell_length_b 8.249482
_cell_length_c 15.092840
_cell_angle_alpha 96.959366
_cell_angle_beta 132.868428
_cell_angle_gamma 52.199040
_cell_volume 709.463023
_symmetry_space_group_name_H-M "P -1"
_symmetry_group_IT_number 2
_symmetry_cell_setting 'triclinic'
loop_
_space_group_symop_operation_xyz
x,y,z
-x,-y,-z
loop_
_atom_site_type_symbol
_atom_site_label
_atom_site_fract_x
_atom_site_fract_y
_atom_site_fract_z
Si Si1 0.128209 0.259827 0.103908
Si Si2 0.789950 0.612059 0.682152
Si Si3 0.502990 0.603741 0.403409
Si Si4 0.917927 0.057234 0.562284
Si Si5 0.498555 0.270792 0.785047
Si Si6 0.254470 0.661178 0.978656
Si Si7 0.009996 0.132409 0.788840
Si Si8 0.896438 0.400270 0.275298
O O1 0.279764 0.228849 0.259134
O O2 0.936165 0.286718 0.054560
O O3 0.296773 0.015332 0.119951
O O4 0.000000 0.500000 0.000000
O O5 0.606224 0.638741 0.537090
O O6 0.986240 0.341503 0.803687
O O7 0.909946 0.635796 0.673340
O O8 0.657912 0.325144 0.451332
O O9 0.523573 0.685035 0.327971
O O10 0.240463 0.754191 0.302274
O O11 0.050224 0.078227 0.701003
O O12 0.000000 0.000000 0.500000
O O13 0.971689 0.843951 0.621333
O O14 0.268582 0.387686 0.725533
O O15 0.546211 0.419308 0.858969
O O16 0.264044 0.544118 0.886936
O O17 0.178982 0.890588 0.912989
#
# Coordination Sequence:
#
# PCOD9090917 Si02
#       8
#     2   2   2   2   2   2   2   2
#     4  11  24  42  64  96 126 163 212 271 313 357
#     4  10  23  43  61  91 137 164 202 262 323 364
#     4  11  23  41  66  96 123 172 210 256 314 382
#     4  10  19  39  61  91 126 159 211 250 302 380
#     4  12  23  41  67  95 124 167 221 249 312 387
#     4  10  22  43  68  90 126 168 210 266 309 376
#     4  10  21  43  66  91 124 171 213 253 318 373
#     4  10  23  43  64  93 130 167 203 263 319 369
#
# _framework density 22.552265999999999
#
# number of rings (size 3 to 8) (size 9 to 14) (size 15 to 20)
#    0.000    1.500    2.500    3.000    1.750    1.000 
#    2.250    9.375    0.000    0.000    0.000    0.000 
#    0.000    0.000    0.000    0.000    0.000    0.000 
#
# Total GULP energy -89296.172123 kJ/mol
# GULP energy per Si atom -5581.010758 kJ/mol
# Density = 2.250094 g / cm^3
# Si number density = 22.552266 Si / 1000 Ang^3
#
#
#
# Elastic Constant Matrix: (Units=GPa)
#
#
# Indices 1 2 3 4 5 6 
#
# 1 74.2575 48.5470 26.9463 6.4244 -23.4845 -5.1553
# 2 48.5470 93.5579 13.7223 3.4540 -11.5452 -15.8479
# 3 26.9463 13.7223 55.6071 7.2460 -20.3099 -12.3582
# 4 6.4244 3.4540 7.2460 35.0420 1.2621 -11.8951
# 5 -23.4845 -11.5452 -20.3099 1.2621 26.8767 -1.9543
# 6 -5.1553 -15.8479 -12.3582 -11.8951 -1.9543 33.5799
#
#
#
# Elastic Compliance Matrix: (Units=1/GPa)
#
#
# Indices 1 2 3 4 5 6 
#
# 1 0.028874 -0.012851 -0.005549 -0.004976 0.015419 -0.004540
# 2 -0.012851 0.018209 0.003092 0.002915 -0.000571 0.008758
# 3 -0.005549 0.003092 0.030356 -0.002157 0.020407 0.012202
# 4 -0.004976 0.002915 -0.002157 0.033686 -0.005476 0.011432
# 5 0.015419 -0.000571 0.020407 -0.005476 0.066954 0.011565
# 6 -0.004540 0.008758 0.012202 0.011432 0.011565 0.042430
#
#
# Mechanical properties :
#
#
# Convention : Reuss Voigt Hill
#
# Bulk Modulus (GPa) = 21.35758 44.65043 33.00401
# Shear Modulus (GPa) = 18.74541 28.04685 23.39613
#
# Velocity S-wave (km/s) = 2.88618 3.53035 3.22439
# Velocity P-wave (km/s) = 4.53845 6.03817 5.34121
#
# Compressibility (1/GPa) = 0.04682178
#
# Stress axis : x y z
#
# Youngs Moduli (GPa) = 34.63356 54.91802 32.94269
#
# Poissons Ratio (x) = 0.70576 0.18281
# Poissons Ratio (y) = 0.44508 -0.10186
# Poissons Ratio (z) = 0.19219 -0.16981
#
# Static dielectric constant tensor:
#      x y z
#    x 1.817060 0.009030 0.012630 
#    y 0.009030 1.842690 -0.015420 
#    z 0.012630 -0.015420 1.949990 
# 
# From -- ./inp_files/239156.got.cif
#   From: 2010.05.17/outbox.cif.g08.bks.cpg/sg2_120_cif.got.tgz:239156.got - 2010.06.03 11:33:40.
