data_PCOD9090845
_publ_section_title
;
Structure prediction by ZEFSAII (Michael W. Deem and Ramdas Pophale) SiO2 
 PCOD9090845
Probable space group: P -1
;
_chemical_formula_sum "Si O2"
_cell_formula_units_Z 16
_cell_length_a 12.761985
_cell_length_b 13.645089
_cell_length_c 9.297829
_cell_angle_alpha 47.518322
_cell_angle_beta 113.477000
_cell_angle_gamma 137.790760
_cell_volume 785.099836
_symmetry_space_group_name_H-M "P -1"
_symmetry_group_IT_number 2
_symmetry_cell_setting 'triclinic'
loop_
_space_group_symop_operation_xyz
x,y,z
-x,-y,-z
loop_
_atom_site_type_symbol
_atom_site_label
_atom_site_fract_x
_atom_site_fract_y
_atom_site_fract_z
Si Si1 0.314753 0.922613 0.803773
Si Si2 0.893291 0.657529 0.574293
Si Si3 0.386743 0.763235 0.197561
Si Si4 0.869041 0.319581 0.511344
Si Si5 0.370433 0.092687 0.074001
Si Si6 0.618275 0.204720 0.294776
Si Si7 0.978819 0.129349 0.292485
Si Si8 0.093772 0.046930 0.860004
O O1 0.299395 0.807272 0.780100
O O2 0.196711 0.949962 0.703018
O O3 0.498255 0.119782 0.720643
O O4 0.286836 0.810473 0.042463
O O5 0.732849 0.453407 0.645169
O O6 0.889070 0.800860 0.364590
O O7 0.037391 0.693466 0.542934
O O8 0.913140 0.688071 0.728180
O O9 0.512949 0.844937 0.056629
O O10 0.756568 0.337563 0.354078
O O11 0.000000 0.500000 0.500000
O O12 0.752871 0.123307 0.728694
O O13 0.497519 0.215581 0.152366
O O14 0.260567 0.121439 0.929075
O O15 0.500000 0.000000 0.500000
O O16 0.992343 0.121460 0.135614
O O17 0.000000 0.000000 0.500000
O O18 0.000000 0.000000 0.000000
#
# Coordination Sequence:
#
# PCOD9090845 Si02
#       8
#     2   2   2   2   2   2   2   2
#     4  10  19  39  60  88 125 169 206 255 327 379
#     4  11  24  41  63  98 126 166 222 265 314 383
#     4  10  23  37  64  92 126 162 212 264 321 379
#     4  11  23  38  65  96 130 164 215 267 318 385
#     4  10  21  43  61  90 128 171 205 262 331 380
#     4   9  20  36  60  90 127 165 205 258 326 377
#     4  10  22  40  64  91 129 172 214 262 320 383
#     4  11  22  43  69  91 125 172 219 267 323 384
#
# _framework density 20.379573000000001
#
# number of rings (size 3 to 8) (size 9 to 14) (size 15 to 20)
#    0.000    1.750    3.750    0.000    7.000    1.000 
#    4.500    0.000    0.000    1.500    0.000    0.000 
#    0.000    0.000    0.000    0.000    0.000    0.000 
#
# Total GULP energy -89148.731723 kJ/mol
# GULP energy per Si atom -5571.795733 kJ/mol
# Density = 2.033319 g / cm^3
# Si number density = 20.379573 Si / 1000 Ang^3
#
#
#
# Elastic Constant Matrix: (Units=GPa)
#
#
# Indices 1 2 3 4 5 6 
#
# 1 93.0025 25.8141 28.8082 15.7506 13.1532 5.3603
# 2 25.8141 132.3477 37.9970 19.9721 7.2912 15.2616
# 3 28.8082 37.9970 48.7393 12.9165 6.8603 5.5484
# 4 15.7506 19.9721 12.9165 37.2460 10.1690 3.4158
# 5 13.1532 7.2912 6.8603 10.1690 41.1623 12.3688
# 6 5.3603 15.2616 5.5484 3.4158 12.3688 27.7274
#
#
#
# Elastic Compliance Matrix: (Units=1/GPa)
#
#
# Indices 1 2 3 4 5 6 
#
# 1 0.013759 -0.000184 -0.006961 -0.002610 -0.002662 0.000344
# 2 -0.000184 0.010510 -0.006937 -0.003143 0.001529 -0.004656
# 3 -0.006961 -0.006937 0.031216 -0.003947 -0.000687 -0.000289
# 4 -0.002610 -0.003143 -0.003947 0.032629 -0.006597 0.001948
# 5 -0.002662 0.001529 -0.000687 -0.006597 0.030522 -0.012992
# 6 0.000344 -0.004656 -0.000289 0.001948 -0.012992 0.044175
#
#
# Mechanical properties :
#
#
# Convention : Reuss Voigt Hill
#
# Bulk Modulus (GPa) = 36.60412 51.03649 43.82030
# Shear Modulus (GPa) = 24.98949 33.32516 29.15732
#
# Velocity S-wave (km/s) = 3.50552 4.04818 3.78658
# Velocity P-wave (km/s) = 5.86388 6.85183 6.37702
#
# Compressibility (1/GPa) = 0.02731933
#
# Stress axis : x y z
#
# Youngs Moduli (GPa) = 72.68193 95.14358 32.03464
#
# Poissons Ratio (x) = 0.01751 0.22301
# Poissons Ratio (y) = 0.01337 0.22224
# Poissons Ratio (z) = 0.50597 0.66005
#
# Static dielectric constant tensor:
#      x y z
#    x 1.756500 -0.027030 -0.011840 
#    y -0.027030 1.795640 0.060730 
#    z -0.011840 0.060730 1.754620 
# 
# From -- ./inp_files/261685.got.cif
#   From: 2010.05.17/outbox.cif.g08.bks.cpg/sg2_131_cif.got.tgz:261685.got - 2010.06.03 11:33:40.
