data_PCOD9090490
_publ_section_title
;
Structure prediction by ZEFSAII (Michael W. Deem and Ramdas Pophale) SiO2 
 PCOD9090490
Probable space group: P -1
;
_chemical_formula_sum "Si O2"
_cell_formula_units_Z 16
_cell_length_a 8.593766
_cell_length_b 17.374525
_cell_length_c 11.273802
_cell_angle_alpha 47.358930
_cell_angle_beta 146.576099
_cell_angle_gamma 115.375889
_cell_volume 642.015844
_symmetry_space_group_name_H-M "P -1"
_symmetry_group_IT_number 2
_symmetry_cell_setting 'triclinic'
loop_
_space_group_symop_operation_xyz
x,y,z
-x,-y,-z
loop_
_atom_site_type_symbol
_atom_site_label
_atom_site_fract_x
_atom_site_fract_y
_atom_site_fract_z
Si Si1 0.691101 0.003191 0.859786
Si Si2 0.570630 0.595587 0.726040
Si Si3 0.153516 0.163792 0.653938
Si Si4 0.969449 0.640839 0.440766
Si Si5 0.695575 0.786486 0.717499
Si Si6 0.485513 0.568073 0.300047
Si Si7 0.536484 0.176516 0.215030
Si Si8 0.662301 0.242350 0.816657
O O1 0.544517 0.929541 0.765283
O O2 0.472615 0.129151 0.579595
O O3 0.756379 0.941227 0.091385
O O4 0.000000 0.000000 0.000000
O O5 0.762634 0.659324 0.850206
O O6 0.690974 0.472937 0.872077
O O7 0.444508 0.672886 0.449702
O O8 0.295357 0.598807 0.633510
O O9 0.036267 0.276675 0.540648
O O10 0.446841 0.171510 0.769651
O O11 0.868541 0.164550 0.395554
O O12 0.821929 0.551205 0.484564
O O13 0.724971 0.716866 0.113469
O O14 0.474954 0.810769 0.663978
O O15 0.984694 0.814417 0.914898
O O16 0.500000 0.500000 0.500000
O O17 0.361388 0.692660 0.140208
#
# Coordination Sequence:
#
# PCOD9090490 Si02
#       8
#     2   2   2   2   2   2   2   2
#     4  11  23  38  66  95 123 161 213 256 307 369
#     4  11  21  39  64  92 122 165 213 256 304 370
#     4  10  22  41  62  93 126 166 204 257 312 365
#     4  10  19  38  66  94 122 162 215 251 301 373
#     4  12  23  38  64  93 124 166 210 257 305 367
#     4   9  21  41  63  90 129 168 197 257 320 360
#     4  11  21  39  67  92 125 163 208 254 311 364
#     4  10  24  41  61  90 132 161 203 260 318 361
#
# _framework density 24.921503000000001
#
# number of rings (size 3 to 8) (size 9 to 14) (size 15 to 20)
#    0.000    1.500    3.750    1.500    0.000    4.000 
#    0.000    6.875    0.000    0.000    0.000    0.000 
#    0.000    0.000    0.000    0.000    0.000    0.000 
#
# Total GULP energy -89538.875809 kJ/mol
# GULP energy per Si atom -5596.179738 kJ/mol
# Density = 2.486478 g / cm^3
# Si number density = 24.921503 Si / 1000 Ang^3
#
#
#
# Elastic Constant Matrix: (Units=GPa)
#
#
# Indices 1 2 3 4 5 6 
#
# 1 108.3138 48.2961 9.0567 11.5058 0.3535 31.2833
# 2 48.2961 129.0885 21.2138 21.0248 10.3047 3.3462
# 3 9.0567 21.2138 48.7185 17.3831 2.3753 16.3348
# 4 11.5058 21.0248 17.3831 32.9621 14.5019 11.2018
# 5 0.3535 10.3047 2.3753 14.5019 34.2581 13.2943
# 6 31.2833 3.3462 16.3348 11.2018 13.2943 54.6010
#
#
#
# Elastic Compliance Matrix: (Units=1/GPa)
#
#
# Indices 1 2 3 4 5 6 
#
# 1 0.014854 -0.006013 0.004033 -0.002860 0.006612 -0.010372
# 2 -0.006013 0.011390 -0.004490 -0.002967 -0.003998 0.005673
# 3 0.004033 -0.004490 0.030123 -0.015174 0.009633 -0.010279
# 4 -0.002860 -0.002967 -0.015174 0.049408 -0.019299 0.000923
# 5 0.006612 -0.003998 0.009633 -0.019299 0.042830 -0.012894
# 6 -0.010372 0.005673 -0.010279 0.000923 -0.012894 0.029935
#
#
# Mechanical properties :
#
#
# Convention : Reuss Voigt Hill
#
# Bulk Modulus (GPa) = 23.02808 49.25043 36.13925
# Shear Modulus (GPa) = 24.27714 38.20118 31.23916
#
# Velocity S-wave (km/s) = 3.12451 3.91942 3.54432
# Velocity P-wave (km/s) = 4.71986 6.34725 5.59306
#
# Compressibility (1/GPa) = 0.04342524
#
# Stress axis : x y z
#
# Youngs Moduli (GPa) = 67.32066 87.79990 33.19765
#
# Poissons Ratio (x) = 0.52796 -0.13388
# Poissons Ratio (y) = 0.40481 0.14906
# Poissons Ratio (z) = -0.27148 0.39423
#
# Static dielectric constant tensor:
#      x y z
#    x 1.977660 -0.025530 0.014160 
#    y -0.025530 2.033520 0.000750 
#    z 0.014160 0.000750 1.912020 
# 
# From -- ./inp_files/47947.got.cif
#   From: 2010.05.17/outbox.cif.g08.bks.cpg/sg2_24_cif.got.tgz:47947.got - 2010.06.03 11:33:40.
