data_PCOD9090259
_publ_section_title
;
Structure prediction by ZEFSAII (Michael W. Deem and Ramdas Pophale) SiO2 
 PCOD9090259
Probable space group: P -1
;
_chemical_formula_sum "Si O2"
_cell_formula_units_Z 16
_cell_length_a 5.713031
_cell_length_b 9.692652
_cell_length_c 20.629587
_cell_angle_alpha 128.134997
_cell_angle_beta 100.762414
_cell_angle_gamma 54.377778
_cell_volume 703.167157
_symmetry_space_group_name_H-M "P -1"
_symmetry_group_IT_number 2
_symmetry_cell_setting 'triclinic'
loop_
_space_group_symop_operation_xyz
x,y,z
-x,-y,-z
loop_
_atom_site_type_symbol
_atom_site_label
_atom_site_fract_x
_atom_site_fract_y
_atom_site_fract_z
Si Si1 0.768434 0.793694 0.993990
Si Si2 0.647010 0.713819 0.222133
Si Si3 0.459973 0.555131 0.937277
Si Si4 0.017768 0.606766 0.745990
Si Si5 0.617735 0.974379 0.177841
Si Si6 0.239683 0.175954 0.396684
Si Si7 0.684338 0.344680 0.324657
Si Si8 0.152336 0.558134 0.431578
O O1 0.779139 0.868713 0.088604
O O2 0.645265 0.648010 0.955808
O O3 0.093588 0.702450 0.954826
O O4 0.500000 0.000000 0.000000
O O5 0.443922 0.644218 0.164505
O O6 0.921999 0.513693 0.218720
O O7 0.710767 0.792874 0.183266
O O8 0.489569 0.921454 0.322581
O O9 0.500000 0.500000 0.000000
O O10 0.298910 0.588823 0.727797
O O11 0.740111 0.864329 0.807834
O O12 0.971786 0.485203 0.651062
O O13 0.657713 0.149306 0.259280
O O14 0.307028 0.344581 0.425485
O O15 0.981196 0.243844 0.351507
O O16 0.099229 0.241328 0.479758
O O17 0.419525 0.548893 0.411585
#
# Coordination Sequence:
#
# PCOD9090259 Si02
#       8
#     2   2   2   2   2   2   2   2
#     4  12  28  49  77 105 144 194 239 300 363 427
#     4  12  24  44  68  96 136 182 222 286 358 411
#     4  12  28  48  70 109 147 184 243 300 355 437
#     4  10  23  42  63 100 134 169 232 284 337 425
#     4  11  24  44  69  94 133 185 224 280 352 419
#     4  10  20  38  65  94 129 176 220 275 346 411
#     4  10  19  38  64  95 128 168 225 281 332 415
#     4   9  19  40  63  94 130 171 226 276 335 414
#
# _framework density 22.754192
#
# number of rings (size 3 to 8) (size 9 to 14) (size 15 to 20)
#    0.000    1.250    5.000    1.875    5.250    0.500 
#    4.500    0.625    0.000    0.000    0.000    0.000 
#    0.000    0.000    0.000    0.000    0.000    0.000 
#
# Total GULP energy -89277.218030 kJ/mol
# GULP energy per Si atom -5579.826127 kJ/mol
# Density = 2.270240 g / cm^3
# Si number density = 22.754192 Si / 1000 Ang^3
#
#
#
# Elastic Constant Matrix: (Units=GPa)
#
#
# Indices 1 2 3 4 5 6 
#
# 1 61.3375 13.6163 3.0217 6.7387 -14.8774 -4.6896
# 2 13.6163 111.9479 6.7506 -17.0447 -5.6915 -0.3351
# 3 3.0217 6.7506 100.2933 -6.3148 -13.9312 -0.8000
# 4 6.7387 -17.0447 -6.3148 17.5507 -3.0736 1.7085
# 5 -14.8774 -5.6915 -13.9312 -3.0736 41.9551 1.0657
# 6 -4.6896 -0.3351 -0.8000 1.7085 1.0657 19.1494
#
#
#
# Elastic Compliance Matrix: (Units=1/GPa)
#
#
# Indices 1 2 3 4 5 6 
#
# 1 0.020166 -0.003828 -0.000226 -0.011100 0.005603 0.005541
# 2 -0.003828 0.011437 0.000339 0.013121 0.001318 -0.001967
# 3 -0.000226 0.000339 0.010815 0.005022 0.003931 -0.000264
# 4 -0.011100 0.013121 0.005022 0.077668 0.005443 -0.009511
# 5 0.005603 0.001318 0.003931 0.005443 0.027717 -0.000469
# 6 0.005541 -0.001967 -0.000264 -0.009511 -0.000469 0.054407
#
#
# Mechanical properties :
#
#
# Convention : Reuss Voigt Hill
#
# Bulk Modulus (GPa) = 28.58164 35.59509 32.08836
# Shear Modulus (GPa) = 22.59354 32.41038 27.50196
#
# Velocity S-wave (km/s) = 3.15451 3.77818 3.48034
# Velocity P-wave (km/s) = 5.08490 5.89153 5.50301
#
# Compressibility (1/GPa) = 0.03498749
#
# Stress axis : x y z
#
# Youngs Moduli (GPa) = 49.58811 87.43767 92.46482
#
# Poissons Ratio (x) = 0.33469 0.02093
# Poissons Ratio (y) = 0.18981 -0.03135
# Poissons Ratio (z) = 0.01123 -0.02965
#
# Static dielectric constant tensor:
#      x y z
#    x 2.018040 -0.000730 -0.031130 
#    y -0.000730 1.849500 0.031620 
#    z -0.031130 0.031620 1.878770 
# 
# From -- ./inp_files/582607.got.cif
#   From: 2010.05.17/outbox.cif.g08.bks.cpg/sg2_292_cif.got.tgz:582607.got - 2010.06.03 11:33:40.
