data_PCOD9090898
_publ_section_title
;
Structure prediction by ZEFSAII (Michael W. Deem and Ramdas Pophale) SiO2 
 PCOD9090898
Probable space group: P -1
;
_chemical_formula_sum "Si O2"
_cell_formula_units_Z 14
_cell_length_a 10.755700
_cell_length_b 10.671598
_cell_length_c 8.526195
_cell_angle_alpha 42.562416
_cell_angle_beta 74.700786
_cell_angle_gamma 57.355260
_cell_volume 541.862541
_symmetry_space_group_name_H-M "P -1"
_symmetry_group_IT_number 2
_symmetry_cell_setting 'triclinic'
loop_
_space_group_symop_operation_xyz
x,y,z
-x,-y,-z
loop_
_atom_site_type_symbol
_atom_site_label
_atom_site_fract_x
_atom_site_fract_y
_atom_site_fract_z
Si Si1 0.421317 0.424647 0.473910
Si Si2 0.652625 0.208071 0.322231
Si Si3 0.623957 0.668878 0.868722
Si Si4 0.870681 0.983566 0.717536
Si Si5 0.114284 0.765863 0.248071
Si Si6 0.072913 0.542160 0.196780
Si Si7 0.746787 0.715469 0.112269
O O1 0.500000 0.500000 0.500000
O O2 0.538556 0.274185 0.445868
O O3 0.286094 0.647594 0.237707
O O4 0.339054 0.317298 0.687449
O O5 0.649180 0.427720 0.080754
O O6 0.812008 0.033383 0.512493
O O7 0.554207 0.170023 0.262365
O O8 0.664946 0.712817 0.984927
O O9 0.758314 0.647053 0.731783
O O10 0.871717 0.178985 0.626069
O O11 0.759248 0.929083 0.904753
O O12 0.026731 0.753618 0.905871
O O13 0.063545 0.620082 0.307024
O O14 0.000000 0.000000 0.000000
O O15 0.926874 0.524759 0.228601
#
# Coordination Sequence:
#
# PCOD9090898 Si02
#       7
#     2   2   2   2   2   2   2
#     4  12  21  40  66  86 117 163 204 246 298 357
#     4  11  23  38  63  89 118 165 203 240 297 363
#     4  11  21  40  63  86 120 164 203 238 298 366
#     4   9  21  39  58  92 124 152 202 251 297 346
#     4  10  19  39  61  87 121 152 200 245 291 358
#     4   9  21  38  62  86 122 158 198 247 293 355
#     4  10  23  38  64  89 123 154 203 250 299 349
#
# _framework density 25.836811000000001
#
# number of rings (size 3 to 8) (size 9 to 14) (size 15 to 20)
#    0.857    0.857    4.286    0.429    0.000    2.286 
#    0.000    0.000    3.143    0.000    0.000    0.000 
#    0.000    0.000    0.000    0.000    0.000    0.000 
#
# Total GULP energy -78105.321946 kJ/mol
# GULP energy per Si atom -5578.951568 kJ/mol
# Density = 2.577800 g / cm^3
# Si number density = 25.836811 Si / 1000 Ang^3
#
#
#
# Elastic Constant Matrix: (Units=GPa)
#
#
# Indices 1 2 3 4 5 6 
#
# 1 154.8520 31.5485 64.8183 7.9772 21.8913 19.9534
# 2 31.5485 49.4867 28.5742 8.4633 3.2644 2.9134
# 3 64.8183 28.5742 91.8152 -2.6120 6.6040 3.0732
# 4 7.9772 8.4633 -2.6120 33.4371 -4.7264 9.2183
# 5 21.8913 3.2644 6.6040 -4.7264 70.1522 10.1640
# 6 19.9534 2.9134 3.0732 9.2183 10.1640 38.4973
#
#
#
# Elastic Compliance Matrix: (Units=1/GPa)
#
#
# Indices 1 2 3 4 5 6 
#
# 1 0.010514 -0.002316 -0.006470 -0.001683 -0.002128 -0.003793
# 2 -0.002316 0.026899 -0.006956 -0.007336 -0.000606 0.001636
# 3 -0.006470 -0.006956 0.017653 0.004471 0.000810 0.001186
# 4 -0.001683 -0.007336 0.004471 0.035428 0.004062 -0.008485
# 5 -0.002128 -0.000606 0.000810 0.004062 0.015730 -0.004042
# 6 -0.003793 0.001636 0.001186 -0.008485 -0.004042 0.030822
#
#
# Mechanical properties :
#
#
# Convention : Reuss Voigt Hill
#
# Bulk Modulus (GPa) = 42.40501 60.67063 51.53782
# Shear Modulus (GPa) = 28.34638 39.83150 34.08894
#
# Velocity S-wave (km/s) = 3.31589 3.93065 3.63629
# Velocity P-wave (km/s) = 5.57749 6.64329 6.13358
#
# Compressibility (1/GPa) = 0.02358212
#
# Stress axis : x y z
#
# Youngs Moduli (GPa) = 95.11246 37.17657 56.64792
#
# Poissons Ratio (x) = 0.08609 0.36649
# Poissons Ratio (y) = 0.22025 0.39406
# Poissons Ratio (z) = 0.61534 0.25861
#
# Static dielectric constant tensor:
#      x y z
#    x 2.187660 -0.195600 0.365650 
#    y -0.195600 2.507660 -0.884040 
#    z 0.365650 -0.884040 3.532270 
# 
# From -- ./inp_files/211658.got.cif
#   From: 2010.05.17/outbox.cif.g08.bks.cpg/sg2_106_cif.got.tgz:211658.got - 2010.06.03 11:33:40.
