data_PCOD9090506
_publ_section_title
;
Structure prediction by ZEFSAII (Michael W. Deem and Ramdas Pophale) SiO2 
 PCOD9090506
Probable space group: P -1
;
_chemical_formula_sum "Si O2"
_cell_formula_units_Z 12
_cell_length_a 14.936107
_cell_length_b 12.943748
_cell_length_c 20.887165
_cell_angle_alpha 26.531475
_cell_angle_beta 162.123908
_cell_angle_gamma 153.764493
_cell_volume 522.328489
_symmetry_space_group_name_H-M "P -1"
_symmetry_group_IT_number 2
_symmetry_cell_setting 'triclinic'
loop_
_space_group_symop_operation_xyz
x,y,z
-x,-y,-z
loop_
_atom_site_type_symbol
_atom_site_label
_atom_site_fract_x
_atom_site_fract_y
_atom_site_fract_z
Si Si1 0.635147 0.725340 0.774734
Si Si2 0.304662 0.050580 0.053280
Si Si3 0.995168 0.447731 0.602174
Si Si4 0.026934 0.763560 0.841881
Si Si5 0.582728 0.046726 0.377088
Si Si6 0.374487 0.826454 0.917936
O O1 0.361740 0.717311 0.543676
O O2 0.580804 0.852379 0.733291
O O3 0.591574 0.441190 0.912607
O O4 0.983894 0.858667 0.915692
O O5 0.216575 0.299153 0.856448
O O6 0.369038 0.977241 0.208321
O O7 0.592537 0.086125 0.181857
O O8 0.000000 0.500000 0.500000
O O9 0.119836 0.712840 0.571804
O O10 0.091935 0.785539 0.797104
O O11 0.725474 0.838359 0.607042
O O12 0.000000 0.500000 0.000000
O O13 0.325329 0.972766 0.958034
#
# Coordination Sequence:
#
# PCOD9090506 Si02
#       6
#     2   2   2   2   2   2
#     4  11  22  42  70 101 134 178 227 270 331 404
#     4  12  23  39  69 106 141 166 215 288 344 389
#     4  10  19  38  66  95 132 176 219 266 324 394
#     4  11  25  47  70  94 131 185 232 270 323 413
#     4  11  23  44  67 104 138 173 221 282 340 384
#     4  11  23  44  70  97 132 178 230 272 331 401
#
# _framework density 22.974049999999998
#
# number of rings (size 3 to 8) (size 9 to 14) (size 15 to 20)
#    0.000    1.000    5.000    3.500    0.000    2.000 
#    0.000    3.333    0.000    0.000    0.000    0.000 
#    0.000    0.000    0.000    0.000    0.000    0.000 
#
# Total GULP energy -67006.406553 kJ/mol
# GULP energy per Si atom -5583.867213 kJ/mol
# Density = 2.292176 g / cm^3
# Si number density = 22.974050 Si / 1000 Ang^3
#
#
#
# Elastic Constant Matrix: (Units=GPa)
#
#
# Indices 1 2 3 4 5 6 
#
# 1 130.2557 31.1085 28.9905 -2.3223 29.6020 9.5506
# 2 31.1085 90.9723 36.5089 -23.0141 2.6345 12.6237
# 3 28.9905 36.5089 71.5002 -9.7840 -2.7289 0.2028
# 4 -2.3223 -23.0141 -9.7840 36.6161 1.4066 0.5884
# 5 29.6020 2.6345 -2.7289 1.4066 26.6466 -1.6400
# 6 9.5506 12.6237 0.2028 0.5884 -1.6400 28.1184
#
#
#
# Elastic Compliance Matrix: (Units=1/GPa)
#
#
# Indices 1 2 3 4 5 6 
#
# 1 0.012886 -0.001504 -0.005130 -0.000853 -0.014925 -0.004517
# 2 -0.001504 0.017969 -0.007322 0.009438 -0.001834 -0.007808
# 3 -0.005130 -0.007322 0.020129 0.000026 0.008815 0.005398
# 4 -0.000853 0.009438 0.000026 0.033350 -0.002036 -0.004764
# 5 -0.014925 -0.001834 0.008815 -0.002036 0.055862 0.009130
# 6 -0.004517 -0.007808 0.005398 -0.004764 0.009130 0.041197
#
#
# Mechanical properties :
#
#
# Convention : Reuss Voigt Hill
#
# Bulk Modulus (GPa) = 43.34231 53.99377 48.66804
# Shear Modulus (GPa) = 23.04176 31.35091 27.19634
#
# Velocity S-wave (km/s) = 3.17037 3.69809 3.44435
# Velocity P-wave (km/s) = 5.68405 6.46433 6.08670
#
# Compressibility (1/GPa) = 0.02307214
#
# Stress axis : x y z
#
# Youngs Moduli (GPa) = 77.60257 55.65011 49.67883
#
# Poissons Ratio (x) = 0.08373 0.25486
# Poissons Ratio (y) = 0.11675 0.36373
# Poissons Ratio (z) = 0.39811 0.40745
#
# Static dielectric constant tensor:
#      x y z
#    x 1.963320 0.050910 0.049910 
#    y 0.050910 1.904370 0.018610 
#    z 0.049910 0.018610 1.847960 
# 
# From -- ./inp_files/597979.got.cif
#   From: 2010.05.17/outbox.cif.g08.bks.cpg/sg2_299_cif.got.tgz:597979.got - 2010.06.03 11:33:40.
