data_PCOD9090424
_publ_section_title
;
Structure prediction by ZEFSAII (Michael W. Deem and Ramdas Pophale) SiO2 
 PCOD9090424
Probable space group: P -1
;
_chemical_formula_sum "Si O2"
_cell_formula_units_Z 14
_cell_length_a 18.568448
_cell_length_b 12.296958
_cell_length_c 8.527375
_cell_angle_alpha 66.898200
_cell_angle_beta 144.036037
_cell_angle_gamma 139.371963
_cell_volume 606.368471
_symmetry_space_group_name_H-M "P -1"
_symmetry_group_IT_number 2
_symmetry_cell_setting 'triclinic'
loop_
_space_group_symop_operation_xyz
x,y,z
-x,-y,-z
loop_
_atom_site_type_symbol
_atom_site_label
_atom_site_fract_x
_atom_site_fract_y
_atom_site_fract_z
Si Si1 0.985625 0.816463 0.839394
Si Si2 0.958625 0.678165 0.212753
Si Si3 0.466622 0.580995 0.278065
Si Si4 0.255094 0.830444 0.191857
Si Si5 0.883627 0.420323 0.598960
Si Si6 0.379968 0.561003 0.817037
Si Si7 0.181096 0.063123 0.523466
O O1 0.773054 0.600606 0.498459
O O2 0.975012 0.948791 0.734914
O O3 0.972340 0.758279 0.026008
O O4 0.183278 0.908288 0.052386
O O5 0.080839 0.651322 0.427679
O O6 0.064691 0.847513 0.431295
O O7 0.708835 0.471724 0.926045
O O8 0.500000 0.500000 0.500000
O O9 0.684664 0.813277 0.473400
O O10 0.378734 0.471127 0.014177
O O11 0.184035 0.704602 0.294077
O O12 0.500000 0.000000 0.500000
O O13 0.108394 0.660211 0.893770
O O14 0.712269 0.389109 0.303453
O O15 0.630102 0.778261 0.105803
#
# Coordination Sequence:
#
# PCOD9090424 Si02
#       7
#     2   2   2   2   2   2   2
#     4  10  19  38  66  84 119 158 201 254 299 352
#     4  11  21  38  62  87 123 163 200 243 305 371
#     4  10  22  39  61  86 123 161 203 249 308 359
#     4   9  19  38  61  91 121 160 204 250 301 357
#     4   9  20  38  59  87 126 162 197 249 305 355
#     4   9  21  41  60  88 123 161 201 255 302 352
#     4  10  22  38  60  89 124 157 201 250 307 362
#
# _framework density 23.088273999999998
#
# number of rings (size 3 to 8) (size 9 to 14) (size 15 to 20)
#    0.857    1.429    1.429    1.714    0.000    3.429 
#    5.143    0.714    0.000    0.000    0.000    0.000 
#    0.000    0.000    0.000    0.000    0.000    0.000 
#
# Total GULP energy -78161.175346 kJ/mol
# GULP energy per Si atom -5582.941096 kJ/mol
# Density = 2.303572 g / cm^3
# Si number density = 23.088274 Si / 1000 Ang^3
#
#
#
# Elastic Constant Matrix: (Units=GPa)
#
#
# Indices 1 2 3 4 5 6 
#
# 1 76.6779 38.5235 29.1106 14.2760 27.8973 -29.4186
# 2 38.5235 71.6105 21.6946 -4.2465 12.2631 -17.3664
# 3 29.1106 21.6946 79.8983 -0.2116 12.1431 -3.4133
# 4 14.2760 -4.2465 -0.2116 23.2790 6.2294 5.3168
# 5 27.8973 12.2631 12.1431 6.2294 50.8878 -13.0744
# 6 -29.4186 -17.3664 -3.4133 5.3168 -13.0744 36.1349
#
#
#
# Elastic Compliance Matrix: (Units=1/GPa)
#
#
# Indices 1 2 3 4 5 6 
#
# 1 0.046174 -0.014845 -0.010535 -0.036870 -0.006334 0.032595
# 2 -0.014845 0.022100 -0.000767 0.013792 0.000431 -0.003411
# 3 -0.010535 -0.000767 0.016408 0.008958 -0.001423 -0.009228
# 4 -0.036870 0.013792 0.008958 0.077227 -0.003764 -0.035267
# 5 -0.006334 0.000431 -0.001423 -0.003764 0.024978 0.004507
# 6 0.032595 -0.003411 -0.009228 -0.035267 0.004507 0.058520
#
#
# Mechanical properties :
#
#
# Convention : Reuss Voigt Hill
#
# Bulk Modulus (GPa) = 30.87523 45.20489 38.04006
# Shear Modulus (GPa) = 16.20769 31.31754 23.76262
#
# Velocity S-wave (km/s) = 2.65238 3.68696 3.21161
# Velocity P-wave (km/s) = 4.77304 6.14383 5.50129
#
# Compressibility (1/GPa) = 0.03238843
#
# Stress axis : x y z
#
# Youngs Moduli (GPa) = 21.65734 45.24948 60.94524
#
# Poissons Ratio (x) = 0.67173 0.64205
# Poissons Ratio (y) = 0.32150 0.04672
# Poissons Ratio (z) = 0.22816 0.03469
#
# Static dielectric constant tensor:
#      x y z
#    x 1.876600 -0.000860 -0.014650 
#    y -0.000860 1.853230 -0.012260 
#    z -0.014650 -0.012260 1.892080 
# 
# From -- ./inp_files/332020.got.cif
#   From: 2010.05.17/outbox.cif.g08.bks.cpg/sg2_167_cif.got.tgz:332020.got - 2010.06.03 11:33:40.
