data_PCOD9090707
_publ_section_title
;
Structure prediction by ZEFSAII (Michael W. Deem and Ramdas Pophale) SiO2 
 PCOD9090707
Probable space group: P -1
;
_chemical_formula_sum "Si O2"
_cell_formula_units_Z 12
_cell_length_a 8.559686
_cell_length_b 13.554579
_cell_length_c 5.145818
_cell_angle_alpha 62.602504
_cell_angle_beta 60.365138
_cell_angle_gamma 60.170034
_cell_volume 431.635295
_symmetry_space_group_name_H-M "P -1"
_symmetry_group_IT_number 2
_symmetry_cell_setting 'triclinic'
loop_
_space_group_symop_operation_xyz
x,y,z
-x,-y,-z
loop_
_atom_site_type_symbol
_atom_site_label
_atom_site_fract_x
_atom_site_fract_y
_atom_site_fract_z
Si Si1 0.276317 0.535902 0.566037
Si Si2 0.897720 0.648158 0.049546
Si Si3 0.640371 0.029736 0.656155
Si Si4 0.611248 0.807371 0.707957
Si Si5 0.230058 0.786836 0.207915
Si Si6 0.989004 0.863315 0.831401
O O1 0.500000 0.500000 0.500000
O O2 0.215600 0.429310 0.630476
O O3 0.244792 0.653308 0.279722
O O4 0.118945 0.573599 0.886041
O O5 0.789470 0.699202 0.802184
O O6 0.885216 0.765938 0.076585
O O7 0.675399 0.923177 0.544316
O O8 0.834847 0.985732 0.713472
O O9 0.521476 0.157306 0.482341
O O10 0.500000 0.000000 0.000000
O O11 0.437388 0.798316 0.044539
O O12 0.127187 0.805756 0.546302
O O13 0.104729 0.870323 0.983694
#
# Coordination Sequence:
#
# PCOD9090707 Si02
#       6
#     2   2   2   2   2   2
#     4  10  19  38  71  99 134 175 227 267 339 396
#     4   9  20  41  65  99 137 177 218 280 328 400
#     4  10  24  41  66  93 131 184 223 271 342 401
#     4  10  22  41  65  96 134 176 222 278 337 393
#     4  11  24  43  68 100 135 172 226 281 327 399
#     4  10  25  43  66  98 136 176 223 277 333 392
#
# _framework density 27.801248999999999
#
# number of rings (size 3 to 8) (size 9 to 14) (size 15 to 20)
#    0.000    2.000    1.667    0.000   11.667    2.000 
#    0.000    3.333    0.000    0.000    0.000    0.000 
#    0.000    0.000    0.000    0.000    0.000    0.000 
#
# Total GULP energy -67068.905145 kJ/mol
# GULP energy per Si atom -5589.075429 kJ/mol
# Density = 2.773797 g / cm^3
# Si number density = 27.801249 Si / 1000 Ang^3
#
#
#
# Elastic Constant Matrix: (Units=GPa)
#
#
# Indices 1 2 3 4 5 6 
#
# 1 176.1467 55.4024 47.8398 -8.5435 -20.9287 -20.1305
# 2 55.4024 103.9629 24.1867 -24.1572 -3.5393 -24.0899
# 3 47.8398 24.1867 79.8250 -10.1441 12.2073 -18.0200
# 4 -8.5435 -24.1572 -10.1441 43.6560 -8.4161 -10.9441
# 5 -20.9287 -3.5393 12.2073 -8.4161 60.6809 2.1106
# 6 -20.1305 -24.0899 -18.0200 -10.9441 2.1106 61.9414
#
#
#
# Elastic Compliance Matrix: (Units=1/GPa)
#
#
# Indices 1 2 3 4 5 6 
#
# 1 0.008402 -0.003504 -0.004666 -0.000759 0.003535 -0.000244
# 2 -0.003504 0.015201 0.000037 0.009495 0.000764 0.006435
# 3 -0.004666 0.000037 0.017445 0.003318 -0.004807 0.004323
# 4 -0.000759 0.009495 0.003318 0.031990 0.003716 0.009937
# 5 0.003535 0.000764 -0.004807 0.003716 0.019224 0.000049
# 6 -0.000244 0.006435 0.004323 0.009937 0.000049 0.021579
#
#
# Mechanical properties :
#
#
# Convention : Reuss Voigt Hill
#
# Bulk Modulus (GPa) = 40.35243 68.31027 54.33135
# Shear Modulus (GPa) = 36.13532 48.75605 42.44568
#
# Velocity S-wave (km/s) = 3.60915 4.19231 3.91161
# Velocity P-wave (km/s) = 5.64925 6.93240 6.32346
#
# Compressibility (1/GPa) = 0.02478166
#
# Stress axis : x y z
#
# Youngs Moduli (GPa) = 119.02244 65.78421 57.32295
#
# Poissons Ratio (x) = 0.23054 0.26745
# Poissons Ratio (y) = 0.41711 -0.00212
# Poissons Ratio (z) = 0.55531 -0.00243
#
# Static dielectric constant tensor:
#      x y z
#    x 2.308510 0.123890 -0.055590 
#    y 0.123890 2.297310 0.060280 
#    z -0.055590 0.060280 2.173540 
# 
# From -- ./inp_files/32794.got.cif
#   From: 2010.05.17/outbox.cif.g08.bks.cpg/sg2_17_cif.got.tgz:32794.got - 2010.06.03 11:33:40.
