data_PCOD9090414
_publ_section_title
;
Structure prediction by ZEFSAII (Michael W. Deem and Ramdas Pophale) SiO2 
 PCOD9090414
Probable space group: P -1
;
_chemical_formula_sum "Si O2"
_cell_formula_units_Z 15
_cell_length_a 21.004951
_cell_length_b 7.184245
_cell_length_c 9.459423
_cell_angle_alpha 75.536745
_cell_angle_beta 34.366595
_cell_angle_gamma 56.999985
_cell_volume 612.650399
_symmetry_space_group_name_H-M "P -1"
_symmetry_group_IT_number 2
_symmetry_cell_setting 'triclinic'
loop_
_space_group_symop_operation_xyz
x,y,z
-x,-y,-z
loop_
_atom_site_type_symbol
_atom_site_label
_atom_site_fract_x
_atom_site_fract_y
_atom_site_fract_z
Si Si1 0.679389 0.347219 0.854217
Si Si2 0.000000 0.000000 0.000000
Si Si3 0.145099 0.404817 0.172867
Si Si4 0.627260 0.455143 0.599570
Si Si5 0.153095 0.454572 0.855468
Si Si6 0.309948 0.038601 0.443505
Si Si7 0.010966 0.050996 0.636658
Si Si8 0.371460 0.192707 0.018871
O O1 0.638895 0.450255 0.748851
O O2 0.702405 0.528424 0.851643
O O3 0.819886 0.069660 0.650949
O O4 0.537302 0.398189 0.166940
O O5 0.970940 0.257141 0.974726
O O6 0.990233 0.054212 0.187295
O O7 0.293051 0.213372 0.017096
O O8 0.000000 0.500000 0.500000
O O9 0.117184 0.662508 0.165999
O O10 0.140430 0.330971 0.036850
O O11 0.707154 0.554960 0.377144
O O12 0.712428 0.167166 0.463134
O O13 0.185972 0.299075 0.686101
O O14 0.342738 0.065677 0.217533
O O15 0.459373 0.937354 0.268251
O O16 0.000000 0.000000 0.500000
#
# Coordination Sequence:
#
# PCOD9090414 Si02
#       8
#     2   1   2   2   2   2   2   2
#     4  10  19  38  66 102 130 173 225 265 337 406
#     4  10  22  40  68  94 130 180 230 262 340 408
#     4  11  27  43  61  94 130 176 226 271 344 404
#     4  10  21  38  71 101 126 173 225 270 337 408
#     4  11  23  46  64  95 135 171 216 290 329 390
#     4  10  22  38  71  99 124 173 217 272 333 399
#     4  11  21  40  68  92 133 185 217 277 337 395
#     4  10  20  41  64  97 134 165 220 271 327 404
#
# _framework density 24.483782999999999
#
# number of rings (size 3 to 8) (size 9 to 14) (size 15 to 20)
#    0.000    1.600    4.000    0.000    3.733    0.533 
#    4.800    4.000    0.000    0.000    0.000    0.000 
#    0.000    0.000    0.000    0.000    0.000    0.000 
#
# Total GULP energy -83510.189973 kJ/mol
# GULP energy per Si atom -5567.345998 kJ/mol
# Density = 2.442806 g / cm^3
# Si number density = 24.483783 Si / 1000 Ang^3
#
#
#
# Elastic Constant Matrix: (Units=GPa)
#
#
# Indices 1 2 3 4 5 6 
#
# 1 92.5688 30.1791 18.6357 -12.1776 17.2713 -16.0305
# 2 30.1791 64.8237 7.0379 13.5965 -0.2023 0.3279
# 3 18.6357 7.0379 65.9066 -6.2287 11.2884 0.3836
# 4 -12.1776 13.5965 -6.2287 42.5924 -0.7702 3.4838
# 5 17.2713 -0.2023 11.2884 -0.7702 28.4810 7.3483
# 6 -16.0305 0.3279 0.3836 3.4838 7.3483 44.1389
#
#
#
# Elastic Compliance Matrix: (Units=1/GPa)
#
#
# Indices 1 2 3 4 5 6 
#
# 1 0.019694 -0.010757 -0.001407 0.007888 -0.013538 0.008876
# 2 -0.010757 0.022786 -0.001738 -0.010073 0.008301 -0.004648
# 3 -0.001407 -0.001738 0.016998 0.002522 -0.005862 0.000131
# 4 0.007888 -0.010073 0.002522 0.029094 -0.005463 0.001531
# 5 -0.013538 0.008301 -0.005862 -0.005463 0.048812 -0.012623
# 6 0.008876 -0.004648 0.000131 0.001531 -0.012623 0.027893
#
#
# Mechanical properties :
#
#
# Convention : Reuss Voigt Hill
#
# Bulk Modulus (GPa) = 31.57386 37.22270 34.39828
# Shear Modulus (GPa) = 24.55314 34.20555 29.37935
#
# Velocity S-wave (km/s) = 3.17019 3.74179 3.46779
# Velocity P-wave (km/s) = 5.13069 5.82272 5.48762
#
# Compressibility (1/GPa) = 0.03167177
#
# Stress axis : x y z
#
# Youngs Moduli (GPa) = 50.77723 43.88733 58.83025
#
# Poissons Ratio (x) = 0.47212 0.08279
# Poissons Ratio (y) = 0.54623 0.10226
# Poissons Ratio (z) = 0.07146 0.07628
#
# Static dielectric constant tensor:
#      x y z
#    x 2.169870 -0.076080 -0.059930 
#    y -0.076080 2.008990 0.013050 
#    z -0.059930 0.013050 2.022300 
# 
# From -- ./inp_files/293106.got.cif
#   From: 2010.05.17/outbox.cif.g08.bks.cpg/sg2_147_cif.got.tgz:293106.got - 2010.06.03 11:33:40.
