data_PCOD9090003
_publ_section_title
;
Structure prediction by ZEFSAII (Michael W. Deem and Ramdas Pophale) SiO2 
 PCOD9090003
Probable space group: P -1
;
_chemical_formula_sum "Si O2"
_cell_formula_units_Z 16
_cell_length_a 14.842701
_cell_length_b 12.246019
_cell_length_c 20.174123
_cell_angle_alpha 133.204764
_cell_angle_beta 30.361870
_cell_angle_gamma 152.537037
_cell_volume 801.506994
_symmetry_space_group_name_H-M "P -1"
_symmetry_group_IT_number 2
_symmetry_cell_setting 'triclinic'
loop_
_space_group_symop_operation_xyz
x,y,z
-x,-y,-z
loop_
_atom_site_type_symbol
_atom_site_label
_atom_site_fract_x
_atom_site_fract_y
_atom_site_fract_z
Si Si1 0.272952 0.715257 0.866850
Si Si2 0.508363 0.381891 0.777836
Si Si3 0.052174 0.338875 0.064706
Si Si4 0.574987 0.378133 0.390167
Si Si5 0.668281 0.053838 0.326541
Si Si6 0.774808 0.264495 0.817909
Si Si7 0.163894 0.564005 0.293747
Si Si8 0.867039 0.155674 0.485979
O O1 0.362317 0.633443 0.730135
O O2 0.157031 0.757999 0.904013
O O3 0.550326 0.973209 0.838504
O O4 0.000000 0.500000 0.000000
O O5 0.600946 0.372233 0.785950
O O6 0.809313 0.659999 0.672976
O O7 0.413966 0.174965 0.707780
O O8 0.242080 0.318900 0.926069
O O9 0.271771 0.630698 0.057722
O O10 0.850219 0.187562 0.196299
O O11 0.500000 0.500000 0.500000
O O12 0.880915 0.550103 0.308616
O O13 0.300822 0.089092 0.469735
O O14 0.878536 0.267789 0.336788
O O15 0.371402 0.950759 0.461526
O O16 0.737765 0.314268 0.790183
O O17 0.094502 0.668532 0.421149
#
# Coordination Sequence:
#
# PCOD9090003 Si02
#       8
#     2   2   2   2   2   2   2   2
#     4  11  23  43  68  89 120 166 216 262 321 376
#     4  11  24  33  60  98 130 159 204 259 298 367
#     4  10  22  41  60  91 131 161 204 261 309 368
#     4  11  24  44  66  91 125 163 213 269 318 371
#     4  10  19  39  62  85 125 175 204 243 310 375
#     4  10  21  42  66  85 120 170 203 255 315 376
#     4  10  19  38  63  86 123 169 207 235 309 377
#     4  11  21  40  58  89 128 163 202 263 307 363
#
# _framework density 19.962395000000001
#
# number of rings (size 3 to 8) (size 9 to 14) (size 15 to 20)
#    0.000    1.500    5.000    2.625    0.000    9.500 
#    2.250    0.000    0.000    0.000    0.000    0.000 
#    0.000    0.000    0.000    0.000    0.000    0.000 
#
# Total GULP energy -89326.639916 kJ/mol
# GULP energy per Si atom -5582.914995 kJ/mol
# Density = 1.991696 g / cm^3
# Si number density = 19.962395 Si / 1000 Ang^3
#
#
#
# Elastic Constant Matrix: (Units=GPa)
#
#
# Indices 1 2 3 4 5 6 
#
# 1 33.2483 33.5609 14.0486 8.1996 -5.4800 3.6439
# 2 33.5609 145.9222 48.6881 -4.5556 -11.9313 10.0868
# 3 14.0486 48.6881 75.4811 -5.7551 0.1104 -21.1748
# 4 8.1996 -4.5556 -5.7551 29.0225 -8.5642 -7.1245
# 5 -5.4800 -11.9313 0.1104 -8.5642 15.1487 -5.7767
# 6 3.6439 10.0868 -21.1748 -7.1245 -5.7767 31.6651
#
#
#
# Elastic Compliance Matrix: (Units=1/GPa)
#
#
# Indices 1 2 3 4 5 6 
#
# 1 0.048974 -0.008008 -0.010548 -0.023893 -0.008531 -0.017071
# 2 -0.008008 0.012533 -0.008387 0.002542 0.005783 -0.007052
# 3 -0.010548 -0.008387 0.030649 0.018721 0.011654 0.030719
# 4 -0.023893 0.002542 0.018721 0.068474 0.046562 0.038360
# 5 -0.008531 0.005783 0.011654 0.046562 0.107862 0.037086
# 6 -0.017071 -0.007052 0.030719 0.038360 0.037086 0.071730
#
#
# Mechanical properties :
#
#
# Convention : Reuss Voigt Hill
#
# Bulk Modulus (GPa) = 26.12925 49.69410 37.91168
# Shear Modulus (GPa) = 12.28917 25.72420 19.00669
#
# Velocity S-wave (km/s) = 2.48385 3.59365 3.08900
# Velocity P-wave (km/s) = 4.61992 6.49361 5.63519
#
# Compressibility (1/GPa) = 0.03827129
#
# Stress axis : x y z
#
# Youngs Moduli (GPa) = 20.41911 79.79220 32.62738
#
# Poissons Ratio (x) = 0.63894 0.34415
# Poissons Ratio (y) = 0.16351 0.27363
# Poissons Ratio (z) = 0.21538 0.66918
#
# Static dielectric constant tensor:
#      x y z
#    x 1.708690 0.011200 0.027560 
#    y 0.011200 1.763510 -0.025710 
#    z 0.027560 -0.025710 1.696290 
# 
# From -- ./inp_files/595664.got.cif
#   From: 2010.05.17/outbox.cif.g08.bks.cpg/sg2_298_cif.got.tgz:595664.got - 2010.06.03 11:33:40.
