data_PCOD9090630
_publ_section_title
;
Structure prediction by ZEFSAII (Michael W. Deem and Ramdas Pophale) SiO2 
 PCOD9090630
Probable space group: P -1
;
_chemical_formula_sum "Si O2"
_cell_formula_units_Z 10
_cell_length_a 13.062354
_cell_length_b 13.187278
_cell_length_c 6.389957
_cell_angle_alpha 59.122361
_cell_angle_beta 137.412650
_cell_angle_gamma 147.489306
_cell_volume 382.392239
_symmetry_space_group_name_H-M "P -1"
_symmetry_group_IT_number 2
_symmetry_cell_setting 'triclinic'
loop_
_space_group_symop_operation_xyz
x,y,z
-x,-y,-z
loop_
_atom_site_type_symbol
_atom_site_label
_atom_site_fract_x
_atom_site_fract_y
_atom_site_fract_z
Si Si1 0.681660 0.595727 0.973647
Si Si2 0.621282 0.248075 0.529699
Si Si3 0.484915 0.296859 0.632803
Si Si4 0.843025 0.196771 0.677687
Si Si5 0.803473 0.980299 0.173849
O O1 0.577521 0.442637 0.798739
O O2 0.701257 0.737336 0.747486
O O3 0.500000 0.500000 0.000000
O O4 0.958174 0.712373 0.298030
O O5 0.685290 0.367884 0.696587
O O6 0.822154 0.316606 0.603180
O O7 0.440248 0.025420 0.567173
O O8 0.417507 0.190581 0.142767
O O9 0.344371 0.102241 0.743768
O O10 0.916989 0.164416 0.031269
O O11 0.000000 0.000000 0.500000
#
# Coordination Sequence:
#
# PCOD9090630 Si02
#       5
#     2   2   2   2   2
#     4  11  24  41  60  95 130 171 206 262 312 387
#     4   9  21  41  66  96 125 162 210 268 310 376
#     4  11  22  39  63  92 128 163 217 254 318 369
#     4   9  21  44  64  93 130 161 212 259 323 365
#     4  10  19  38  68  94 120 167 215 261 302 377
#
# _framework density 26.151156
#
# number of rings (size 3 to 8) (size 9 to 14) (size 15 to 20)
#    1.200    0.800    2.000    1.200    0.000    6.400 
#    0.000    4.000    0.000    0.000    0.000    0.000 
#    0.000    0.000    0.000    0.000    0.000    0.000 
#
# Total GULP energy -55736.069650 kJ/mol
# GULP energy per Si atom -5573.606965 kJ/mol
# Density = 2.609164 g / cm^3
# Si number density = 26.151156 Si / 1000 Ang^3
#
#
#
# Elastic Constant Matrix: (Units=GPa)
#
#
# Indices 1 2 3 4 5 6 
#
# 1 210.8169 55.5972 30.1446 5.5295 -13.4449 0.7203
# 2 55.5972 57.6891 24.4776 -10.1474 -4.2325 16.1857
# 3 30.1446 24.4776 67.1647 1.8002 1.7869 -11.9611
# 4 5.5295 -10.1474 1.8002 29.5287 2.2141 1.0797
# 5 -13.4449 -4.2325 1.7869 2.2141 31.2133 -0.9887
# 6 0.7203 16.1857 -11.9611 1.0797 -0.9887 37.8507
#
#
#
# Elastic Compliance Matrix: (Units=1/GPa)
#
#
# Indices 1 2 3 4 5 6 
#
# 1 0.007368 -0.009498 0.001020 -0.005043 0.002326 0.004448
# 2 -0.009498 0.043546 -0.016422 0.018577 0.000671 -0.024143
# 3 0.001020 -0.016422 0.023262 -0.007625 -0.002119 0.014516
# 4 -0.005043 0.018577 -0.007625 0.042273 -0.002581 -0.011530
# 5 0.002326 0.000671 -0.002119 -0.002581 0.033433 -0.000054
# 6 0.004448 -0.024143 0.014516 -0.011530 -0.000054 0.041573
#
#
# Mechanical properties :
#
#
# Convention : Reuss Voigt Hill
#
# Bulk Modulus (GPa) = 41.02493 61.78994 51.40743
# Shear Modulus (GPa) = 20.04959 34.74864 27.39911
#
# Velocity S-wave (km/s) = 2.77190 3.64917 3.24036
# Velocity P-wave (km/s) = 5.09571 6.43697 5.80521
#
# Compressibility (1/GPa) = 0.02437542
#
# Stress axis : x y z
#
# Youngs Moduli (GPa) = 135.72546 22.96403 42.98895
#
# Poissons Ratio (x) = 0.21811 -0.04385
# Poissons Ratio (y) = 1.28911 0.70598
# Poissons Ratio (z) = -0.13845 0.37713
#
# Static dielectric constant tensor:
#      x y z
#    x 2.047550 0.020950 0.044980 
#    y 0.020950 2.231030 0.032180 
#    z 0.044980 0.032180 2.133830 
# 
# From -- ./inp_files/36885.got.cif
#   From: 2010.05.17/outbox.cif.g08.bks.cpg/sg2_19_cif.got.tgz:36885.got - 2010.06.03 11:33:40.
