data_PCOD9090880
_publ_section_title
;
Structure prediction by ZEFSAII (Michael W. Deem and Ramdas Pophale) SiO2 
 PCOD9090880
Probable space group: P -1
;
_chemical_formula_sum "Si O2"
_cell_formula_units_Z 16
_cell_length_a 8.686561
_cell_length_b 16.723330
_cell_length_c 8.123799
_cell_angle_alpha 59.205669
_cell_angle_beta 50.742939
_cell_angle_gamma 51.773779
_cell_volume 703.648166
_symmetry_space_group_name_H-M "P -1"
_symmetry_group_IT_number 2
_symmetry_cell_setting 'triclinic'
loop_
_space_group_symop_operation_xyz
x,y,z
-x,-y,-z
loop_
_atom_site_type_symbol
_atom_site_label
_atom_site_fract_x
_atom_site_fract_y
_atom_site_fract_z
Si Si1 0.390812 0.593268 0.768511
Si Si2 0.763007 0.036764 0.208617
Si Si3 0.165662 0.615509 0.229540
Si Si4 0.539676 0.846560 0.120232
Si Si5 0.618133 0.252677 0.934485
Si Si6 0.749929 0.541646 0.175646
Si Si7 0.632497 0.978126 0.690654
Si Si8 0.287532 0.339621 0.588778
O O1 0.622329 0.492944 0.761577
O O2 0.312467 0.553978 0.702124
O O3 0.474696 0.681345 0.621872
O O4 0.202016 0.620443 0.003833
O O5 0.642523 0.163245 0.142663
O O6 0.772289 0.993314 0.432146
O O7 0.608335 0.996973 0.252554
O O8 0.000000 0.000000 0.000000
O O9 0.929510 0.617798 0.420934
O O10 0.195298 0.708556 0.200086
O O11 0.390822 0.946918 0.220695
O O12 0.695027 0.764404 0.232060
O O13 0.389113 0.802129 0.174634
O O14 0.685080 0.869306 0.859271
O O15 0.398696 0.363383 0.947430
O O16 0.729845 0.585877 0.324679
O O17 0.000000 0.500000 0.000000
#
# Coordination Sequence:
#
# PCOD9090880 Si02
#       8
#     2   2   2   2   2   2   2   2
#     4  10  21  37  57  85 120 162 207 255 308 362
#     4  10  21  39  68  95 121 162 210 260 319 374
#     4  10  21  37  56  85 125 158 204 259 305 364
#     4   9  20  40  62  89 126 166 201 258 317 371
#     4   9  21  38  60  89 128 160 211 259 300 382
#     4  10  19  39  61  84 128 167 200 259 315 360
#     4   9  20  42  64  86 129 161 201 263 318 370
#     4  11  21  35  62  88 117 163 213 250 308 378
#
# _framework density 22.738634999999999
#
# number of rings (size 3 to 8) (size 9 to 14) (size 15 to 20)
#    0.000    2.250    1.250    0.750    3.500    0.000 
#    0.000    9.375   16.500    0.000    0.000    0.000 
#    0.000    0.000    0.000    0.000    0.000    0.000 
#
# Total GULP energy -89183.731569 kJ/mol
# GULP energy per Si atom -5573.983223 kJ/mol
# Density = 2.268688 g / cm^3
# Si number density = 22.738635 Si / 1000 Ang^3
#
#
#
# Elastic Constant Matrix: (Units=GPa)
#
#
# Indices 1 2 3 4 5 6 
#
# 1 68.9771 21.7847 9.4097 -10.9976 -28.4249 16.3591
# 2 21.7847 48.5837 21.5574 -13.3936 -7.3593 14.9200
# 3 9.4097 21.5574 98.7910 -7.0125 -11.8255 0.0528
# 4 -10.9976 -13.3936 -7.0125 27.3156 -4.5791 0.6845
# 5 -28.4249 -7.3593 -11.8255 -4.5791 32.6502 -0.8394
# 6 16.3591 14.9200 0.0528 0.6845 -0.8394 26.1106
#
#
#
# Elastic Compliance Matrix: (Units=1/GPa)
#
#
# Indices 1 2 3 4 5 6 
#
# 1 0.038960 0.001427 0.002207 0.023899 0.037758 -0.024642
# 2 0.001427 0.035463 -0.005419 0.018673 0.009343 -0.021336
# 3 0.002207 -0.005419 0.011886 0.002134 0.005351 0.001806
# 4 0.023899 0.018673 0.002134 0.062265 0.033848 -0.026192
# 5 0.037758 0.009343 0.005351 0.033848 0.071581 -0.027592
# 6 -0.024642 -0.021336 0.001806 -0.026192 -0.027592 0.065726
#
#
# Mechanical properties :
#
#
# Convention : Reuss Voigt Hill
#
# Bulk Modulus (GPa) = 12.08629 35.76171 23.92400
# Shear Modulus (GPa) = 15.77131 28.12194 21.94662
#
# Velocity S-wave (km/s) = 2.63647 3.52056 3.11009
# Velocity P-wave (km/s) = 3.82031 5.68218 4.84159
#
# Compressibility (1/GPa) = 0.08273835
#
# Stress axis : x y z
#
# Youngs Moduli (GPa) = 25.66708 28.19830 84.13473
#
# Poissons Ratio (x) = -0.04023 -0.18569
# Poissons Ratio (y) = -0.03662 0.45594
# Poissons Ratio (z) = -0.05665 0.15281
#
# Static dielectric constant tensor:
#      x y z
#    x 1.862570 -0.014120 0.028770 
#    y -0.014120 1.871130 -0.055720 
#    z 0.028770 -0.055720 2.011620 
# 
# From -- ./inp_files/214236.got.cif
#   From: 2010.05.17/outbox.cif.g08.bks.cpg/sg2_108_cif.got.tgz:214236.got - 2010.06.03 11:33:40.
