data_PCOD9090065
_publ_section_title
;
Structure prediction by ZEFSAII (Michael W. Deem and Ramdas Pophale) SiO2 
 PCOD9090065
Probable space group: P -1
;
_chemical_formula_sum "Si O2"
_cell_formula_units_Z 14
_cell_length_a 9.196295
_cell_length_b 8.551486
_cell_length_c 21.325562
_cell_angle_alpha 42.779967
_cell_angle_beta 39.689797
_cell_angle_gamma 69.483735
_cell_volume 632.424631
_symmetry_space_group_name_H-M "P -1"
_symmetry_group_IT_number 2
_symmetry_cell_setting 'triclinic'
loop_
_space_group_symop_operation_xyz
x,y,z
-x,-y,-z
loop_
_atom_site_type_symbol
_atom_site_label
_atom_site_fract_x
_atom_site_fract_y
_atom_site_fract_z
Si Si1 0.799859 0.110880 0.052041
Si Si2 0.070475 0.878363 0.868674
Si Si3 0.078280 0.429888 0.223871
Si Si4 0.526430 0.288132 0.890899
Si Si5 0.219939 0.707102 0.318681
Si Si6 0.134352 0.045543 0.659375
Si Si7 0.642250 0.514691 0.384361
O O1 0.851215 0.250720 0.062849
O O2 0.494348 0.893429 0.207778
O O3 0.858249 0.338331 0.914971
O O4 0.000000 0.000000 0.000000
O O5 0.762199 0.760620 0.007730
O O6 0.156566 0.919679 0.755376
O O7 0.208872 0.173328 0.766895
O O8 0.331991 0.516570 0.155945
O O9 0.857897 0.425891 0.343595
O O10 0.958535 0.160047 0.305356
O O11 0.694486 0.398484 0.739079
O O12 0.500000 0.000000 0.000000
O O13 0.000000 0.500000 0.500000
O O14 0.086371 0.869026 0.286066
O O15 0.412541 0.308728 0.476369
O O16 0.500000 0.500000 0.500000
#
# Coordination Sequence:
#
# PCOD9090065 Si02
#       7
#     2   2   2   2   2   2   2
#     4  12  22  40  67  98 132 173 233 278 325 396
#     4  11  21  39  68  93 126 179 227 271 324 406
#     4  12  24  40  68  97 136 176 220 283 334 402
#     4  12  19  43  67  96 125 180 232 264 328 407
#     4  12  25  42  69 101 132 176 232 281 327 404
#     4  11  25  41  63 101 136 172 222 279 349 390
#     4  10  19  38  63  91 125 170 222 265 320 400
#
# _framework density 22.137024
#
# number of rings (size 3 to 8) (size 9 to 14) (size 15 to 20)
#    0.000    0.571    7.143    2.143    0.000    4.000 
#    0.000    0.714    0.000    0.000    0.000    0.000 
#    0.000    0.000    0.000    0.000    0.000    0.000 
#
# Total GULP energy -78173.087345 kJ/mol
# GULP energy per Si atom -5583.791953 kJ/mol
# Density = 2.208664 g / cm^3
# Si number density = 22.137024 Si / 1000 Ang^3
#
#
#
# Elastic Constant Matrix: (Units=GPa)
#
#
# Indices 1 2 3 4 5 6 
#
# 1 107.5185 3.2310 31.1566 -6.7088 -21.6977 29.4045
# 2 3.2310 34.1638 28.4920 -14.6711 1.4138 20.0614
# 3 31.1566 28.4920 128.4949 -1.6231 -19.6395 10.9523
# 4 -6.7088 -14.6711 -1.6231 32.0050 18.0254 -6.7656
# 5 -21.6977 1.4138 -19.6395 18.0254 47.0512 4.1487
# 6 29.4045 20.0614 10.9523 -6.7656 4.1487 34.5947
#
#
#
# Elastic Compliance Matrix: (Units=1/GPa)
#
#
# Indices 1 2 3 4 5 6 
#
# 1 0.018831 0.018563 -0.005418 0.002891 0.006990 -0.025328
# 2 0.018563 0.101910 -0.024535 0.047852 -0.018175 -0.055570
# 3 -0.005418 -0.024535 0.014887 -0.014643 0.009167 0.010157
# 4 0.002891 0.047852 -0.014643 0.069389 -0.032081 -0.008153
# 5 0.006990 -0.018175 0.009167 -0.032081 0.041987 -0.009613
# 6 -0.025328 -0.055570 0.010157 -0.008153 -0.009613 0.079002
#
#
# Mechanical properties :
#
#
# Convention : Reuss Voigt Hill
#
# Bulk Modulus (GPa) = 8.86159 43.99291 26.42725
# Shear Modulus (GPa) = 12.93986 36.55001 24.74493
#
# Velocity S-wave (km/s) = 2.42034 4.06776 3.34699
# Velocity P-wave (km/s) = 3.43838 6.47907 5.18656
#
# Compressibility (1/GPa) = 0.11284659
#
# Stress axis : x y z
#
# Youngs Moduli (GPa) = 53.10446 9.81256 67.17317
#
# Poissons Ratio (x) = -0.18215 0.36396
# Poissons Ratio (y) = -0.98577 1.64811
# Poissons Ratio (z) = 0.28773 0.24075
#
# Static dielectric constant tensor:
#      x y z
#    x 1.767620 -0.271440 0.932420 
#    y -0.271440 1.465560 1.111500 
#    z 0.932420 1.111500 -1.592780 
# 
# From -- ./inp_files/329361.got.cif
#   From: 2010.05.17/outbox.cif.g08.bks.cpg/sg2_165_cif.got.tgz:329361.got - 2010.06.03 11:33:40.
