data_PCOD9090799
_publ_section_title
;
Structure prediction by ZEFSAII (Michael W. Deem and Ramdas Pophale) SiO2 
 PCOD9090799
Probable space group: P -1
;
_chemical_formula_sum "Si O2"
_cell_formula_units_Z 16
_cell_length_a 11.426835
_cell_length_b 7.549243
_cell_length_c 9.657741
_cell_angle_alpha 110.896538
_cell_angle_beta 106.464330
_cell_angle_gamma 63.506630
_cell_volume 688.842297
_symmetry_space_group_name_H-M "P -1"
_symmetry_group_IT_number 2
_symmetry_cell_setting 'triclinic'
loop_
_space_group_symop_operation_xyz
x,y,z
-x,-y,-z
loop_
_atom_site_type_symbol
_atom_site_label
_atom_site_fract_x
_atom_site_fract_y
_atom_site_fract_z
Si Si1 0.648337 0.951586 0.089167
Si Si2 0.027350 0.818969 0.068634
Si Si3 0.809540 0.798316 0.364342
Si Si4 0.011004 0.117389 0.362484
Si Si5 0.394821 0.597537 0.806356
Si Si6 0.239803 0.495344 0.513391
Si Si7 0.063963 0.408180 0.235149
Si Si8 0.689539 0.510853 0.965165
O O1 0.692064 0.921922 0.256259
O O2 0.670140 0.157389 0.113340
O O3 0.712975 0.716589 0.995538
O O4 0.500000 0.000000 0.000000
O O5 0.182692 0.683439 0.086795
O O6 0.985562 0.930684 0.232313
O O7 0.955101 0.679806 0.943013
O O8 0.000000 0.000000 0.000000
O O9 0.877932 0.939536 0.498391
O O10 0.760334 0.691019 0.441159
O O11 0.931160 0.608291 0.281077
O O12 0.060500 0.232949 0.291789
O O13 0.881518 0.299483 0.423232
O O14 0.362829 0.541035 0.626142
O O15 0.551944 0.522587 0.857423
O O16 0.335547 0.498669 0.879713
O O17 0.194105 0.451011 0.333748
#
# Coordination Sequence:
#
# PCOD9090799 Si02
#       8
#     2   2   2   2   2   2   2   2
#     4  10  19  30  50  78 101 133 173 210 250 295
#     4  10  16  28  52  80  98 134 176 201 250 313
#     4   9  14  29  48  72 103 127 170 212 246 294
#     4   8  16  25  49  79  99 133 169 202 253 308
#     4  10  19  30  51  78 104 130 166 218 250 296
#     4   9  15  29  49  77  99 130 165 208 260 293
#     4   8  14  24  47  72  98 127 166 208 246 293
#     4  10  19  33  50  77 103 132 169 214 254 290
#
# _framework density 23.227378999999999
#
# number of rings (size 3 to 8) (size 9 to 14) (size 15 to 20)
#    0.000    2.750    2.500    3.000    0.000    0.000 
#    0.000    2.500    0.000   12.750    6.500    0.000 
#    0.000    0.000    0.000    0.000    0.000    0.000 
#
# Total GULP energy -89244.556044 kJ/mol
# GULP energy per Si atom -5577.784753 kJ/mol
# Density = 2.317451 g / cm^3
# Si number density = 23.227379 Si / 1000 Ang^3
#
#
#
# Elastic Constant Matrix: (Units=GPa)
#
#
# Indices 1 2 3 4 5 6 
#
# 1 53.3257 33.0776 30.5067 -7.3250 11.0845 3.8255
# 2 33.0776 109.7443 42.3224 -11.6406 3.8038 2.8847
# 3 30.5067 42.3224 199.0943 7.5610 32.9420 -5.3106
# 4 -7.3250 -11.6406 7.5610 44.6671 -2.2842 5.5582
# 5 11.0845 3.8038 32.9420 -2.2842 25.2189 -2.6721
# 6 3.8255 2.8847 -5.3106 5.5582 -2.6721 24.7227
#
#
#
# Elastic Compliance Matrix: (Units=1/GPa)
#
#
# Indices 1 2 3 4 5 6 
#
# 1 0.026329 -0.006631 -0.001382 0.003014 -0.009051 -0.005253
# 2 -0.006631 0.012239 -0.002456 0.002881 0.004421 -0.001099
# 3 -0.001382 -0.002456 0.007345 -0.002773 -0.008681 0.001763
# 4 0.003014 0.002881 -0.002773 0.025108 0.003431 -0.006672
# 5 -0.009051 0.004421 -0.008681 0.003431 0.055060 0.004200
# 6 -0.005253 -0.001099 0.001763 -0.006672 0.004200 0.043722
#
#
# Mechanical properties :
#
#
# Convention : Reuss Voigt Hill
#
# Bulk Modulus (GPa) = 40.03935 63.77530 51.90732
# Shear Modulus (GPa) = 25.11730 36.00558 30.56144
#
# Velocity S-wave (km/s) = 3.29198 3.94145 3.63126
# Velocity P-wave (km/s) = 5.63249 6.94477 6.32277
#
# Compressibility (1/GPa) = 0.02497543
#
# Stress axis : x y z
#
# Youngs Moduli (GPa) = 37.98142 81.70523 136.14203
#
# Poissons Ratio (x) = 0.54181 0.18810
# Poissons Ratio (y) = 0.25187 0.33434
# Poissons Ratio (z) = 0.05248 0.20066
#
# Static dielectric constant tensor:
#      x y z
#    x 2.003400 -0.104890 -0.061120 
#    y -0.104890 2.009730 0.078280 
#    z -0.061120 0.078280 1.997800 
# 
# From -- ./inp_files/271477.got.cif
#   From: 2010.05.17/outbox.cif.g08.bks.cpg/sg2_136_cif.got.tgz:271477.got - 2010.06.03 11:33:40.
