data_PCOD9090671
_publ_section_title
;
Structure prediction by ZEFSAII (Michael W. Deem and Ramdas Pophale) SiO2 
 PCOD9090671
Probable space group: P -1
;
_chemical_formula_sum "Si O2"
_cell_formula_units_Z 14
_cell_length_a 11.938915
_cell_length_b 8.562867
_cell_length_c 9.451127
_cell_angle_alpha 55.831575
_cell_angle_beta 50.007510
_cell_angle_gamma 80.863864
_cell_volume 580.477592
_symmetry_space_group_name_H-M "P -1"
_symmetry_group_IT_number 2
_symmetry_cell_setting 'triclinic'
loop_
_space_group_symop_operation_xyz
x,y,z
-x,-y,-z
loop_
_atom_site_type_symbol
_atom_site_label
_atom_site_fract_x
_atom_site_fract_y
_atom_site_fract_z
Si Si1 0.897964 0.610550 0.114631
Si Si2 0.883509 0.086340 0.384520
Si Si3 0.080756 0.309844 0.331989
Si Si4 0.532816 0.219647 0.928762
Si Si5 0.166958 0.437909 0.489619
Si Si6 0.607362 0.826913 0.617862
Si Si7 0.365365 0.526272 0.800600
O O1 0.913890 0.621166 0.263904
O O2 0.720915 0.507451 0.263074
O O3 0.000000 0.500000 0.000000
O O4 0.967043 0.833041 0.878733
O O5 0.926934 0.242038 0.398065
O O6 0.869478 0.885561 0.582311
O O7 0.732401 0.045046 0.432004
O O8 0.061662 0.377903 0.467956
O O9 0.221675 0.467021 0.057601
O O10 0.713685 0.340597 0.720528
O O11 0.448615 0.357581 0.843170
O O12 0.477117 0.216365 0.139246
O O13 0.500000 0.000000 0.000000
O O14 0.281780 0.305258 0.438596
O O15 0.479866 0.743069 0.641989
#
# Coordination Sequence:
#
# PCOD9090671 Si02
#       7
#     2   2   2   2   2   2   2
#     4  11  26  41  60  89 134 176 208 250 312 386
#     4   9  19  34  63  91 122 158 210 262 306 366
#     4   9  16  35  66  90 114 167 211 255 308 366
#     4  11  21  35  69 103 123 152 214 275 314 361
#     4  10  20  39  67  88 130 171 206 252 322 377
#     4  10  19  38  69  95 120 157 209 270 314 365
#     4  10  19  42  67  91 128 167 208 258 320 372
#
# _framework density 24.118072000000002
#
# number of rings (size 3 to 8) (size 9 to 14) (size 15 to 20)
#    0.000    2.000    4.286    0.857    2.000    4.571 
#    0.000    5.000    9.429    0.000    0.000    0.000 
#    0.000    0.000    0.000    0.000    0.000    0.000 
#
# Total GULP energy -78072.461499 kJ/mol
# GULP energy per Si atom -5576.604393 kJ/mol
# Density = 2.406318 g / cm^3
# Si number density = 24.118072 Si / 1000 Ang^3
#
#
#
# Elastic Constant Matrix: (Units=GPa)
#
#
# Indices 1 2 3 4 5 6 
#
# 1 72.5720 96.7305 7.5824 -31.4756 -7.6251 46.9176
# 2 96.7305 88.4885 44.1164 26.1433 -12.8000 36.4521
# 3 7.5824 44.1164 84.7792 12.6964 -7.3488 30.9824
# 4 -31.4756 26.1433 12.6964 32.9314 17.4716 -16.4536
# 5 -7.6251 -12.8000 -7.3488 17.4716 36.9513 -0.6717
# 6 46.9176 36.4521 30.9824 -16.4536 -0.6717 59.2493
#
#
#
# Elastic Compliance Matrix: (Units=1/GPa)
#
#
# Indices 1 2 3 4 5 6 
#
# 1 0.004466 0.009270 0.006990 -0.024372 0.016693 -0.019474
# 2 0.009270 -0.002178 -0.001654 0.013440 -0.005552 -0.001466
# 3 0.006990 -0.001654 0.025434 -0.022181 0.015983 -0.023797
# 4 -0.024372 0.013440 -0.022181 0.030139 -0.018476 0.030789
# 5 0.016693 -0.005552 0.015983 -0.018476 0.040083 -0.022837
# 6 -0.019474 -0.001466 -0.023797 0.030789 -0.022837 0.053936
#
#
# Mechanical properties :
#
#
# Convention : Reuss Voigt Hill
#
# Bulk Modulus (GPa) = 17.56363 60.29984 38.93173
# Shear Modulus (GPa) = 35.29951 32.32042 33.80996
#
# Velocity S-wave (km/s) = 3.82987 3.66470 3.74819
# Velocity P-wave (km/s) = 5.18222 6.55461 5.90839
#
# Compressibility (1/GPa) = 0.05693585
#
# Stress axis : x y z
#
# Youngs Moduli (GPa) = 223.90831 -459.05643 39.31687
#
# Poissons Ratio (x) = 4.25561 -0.27484
# Poissons Ratio (y) = -2.07571 0.06502
# Poissons Ratio (z) = -1.56518 -0.75917
#
# Static dielectric constant tensor:
#      x y z
#    x 2.053750 -0.021790 0.004970 
#    y -0.021790 1.972990 -0.066980 
#    z 0.004970 -0.066980 1.938940 
# 
# From -- ./inp_files/297790.got.cif
#   From: 2010.05.17/outbox.cif.g08.bks.cpg/sg2_149_cif.got.tgz:297790.got - 2010.06.03 11:33:40.
