data_PCOD9090239
_publ_section_title
;
Structure prediction by ZEFSAII (Michael W. Deem and Ramdas Pophale) SiO2 
 PCOD9090239
Probable space group: P -1
;
_chemical_formula_sum "Si O2"
_cell_formula_units_Z 14
_cell_length_a 11.871330
_cell_length_b 10.678960
_cell_length_c 20.157615
_cell_angle_alpha 46.109079
_cell_angle_beta 158.178392
_cell_angle_gamma 123.257338
_cell_volume 639.864153
_symmetry_space_group_name_H-M "P -1"
_symmetry_group_IT_number 2
_symmetry_cell_setting 'triclinic'
loop_
_space_group_symop_operation_xyz
x,y,z
-x,-y,-z
loop_
_atom_site_type_symbol
_atom_site_label
_atom_site_fract_x
_atom_site_fract_y
_atom_site_fract_z
Si Si1 0.069006 0.005572 0.136858
Si Si2 0.691977 0.479267 0.377014
Si Si3 0.002354 0.492240 0.221374
Si Si4 0.907873 0.699156 0.225263
Si Si5 0.605083 0.275267 0.699650
Si Si6 0.362901 0.924933 0.516525
Si Si7 0.286617 0.721456 0.956784
O O1 0.193058 0.863099 0.196673
O O2 0.017081 0.875994 0.213589
O O3 0.350827 0.087477 0.270845
O O4 0.730502 0.163641 0.876044
O O5 0.667447 0.276401 0.427686
O O6 0.000000 0.500000 0.500000
O O7 0.797531 0.466063 0.517201
O O8 0.385564 0.632540 0.117063
O O9 0.239951 0.326187 0.457124
O O10 0.253763 0.558268 0.291746
O O11 0.832001 0.640031 0.131906
O O12 0.789053 0.427285 0.077961
O O13 0.597296 0.749184 0.083672
O O14 0.500000 0.000000 0.500000
O O15 0.022054 0.089400 0.283728
#
# Coordination Sequence:
#
# PCOD9090239 Si02
#       7
#     2   2   2   2   2   2   2
#     4  10  19  39  58  93 126 160 214 264 317 373
#     4  10  24  45  65  94 133 173 212 264 330 387
#     4  10  19  38  64  94 124 166 219 259 325 383
#     4  10  22  41  62  91 130 170 214 261 323 393
#     4   9  19  33  64  88 125 164 202 271 319 371
#     4  12  24  41  68  96 126 167 224 265 316 391
#     4  11  24  43  66  92 135 170 212 273 325 375
#
# _framework density 21.879646000000001
#
# number of rings (size 3 to 8) (size 9 to 14) (size 15 to 20)
#    0.000    1.714    2.857    1.286    0.000    4.000 
#    5.143    0.714    0.000    0.000    0.000    0.000 
#    0.000    0.000    0.000    0.000    0.000    0.000 
#
# Total GULP energy -78065.391371 kJ/mol
# GULP energy per Si atom -5576.099384 kJ/mol
# Density = 2.182985 g / cm^3
# Si number density = 21.879646 Si / 1000 Ang^3
#
#
#
# Elastic Constant Matrix: (Units=GPa)
#
#
# Indices 1 2 3 4 5 6 
#
# 1 64.5163 14.0654 3.6054 5.2088 -7.5618 7.7240
# 2 14.0654 84.5496 6.9054 14.6606 -0.7249 10.4552
# 3 3.6054 6.9054 78.6650 7.5902 -9.9747 5.8988
# 4 5.2088 14.6606 7.5902 27.1428 -1.6953 -4.4625
# 5 -7.5618 -0.7249 -9.9747 -1.6953 36.4813 1.1390
# 6 7.7240 10.4552 5.8988 -4.4625 1.1390 27.0213
#
#
#
# Elastic Compliance Matrix: (Units=1/GPa)
#
#
# Indices 1 2 3 4 5 6 
#
# 1 0.017123 -0.001700 0.000505 -0.003104 0.003666 -0.005014
# 2 -0.001700 0.014388 0.000099 -0.008557 -0.000234 -0.006506
# 3 0.000505 0.000099 0.013907 -0.004477 0.003830 -0.004119
# 4 -0.003104 -0.008557 -0.004477 0.045377 -0.000325 0.012683
# 5 0.003666 -0.000234 0.003830 -0.000325 0.029295 -0.003082
# 6 -0.005014 -0.006506 -0.004119 0.012683 -0.003082 0.044082
#
#
# Mechanical properties :
#
#
# Convention : Reuss Voigt Hill
#
# Bulk Modulus (GPa) = 23.13465 30.76481 26.94973
# Shear Modulus (GPa) = 27.65895 31.67273 29.66584
#
# Velocity S-wave (km/s) = 3.55933 3.80885 3.68620
# Velocity P-wave (km/s) = 5.24293 5.78226 5.51919
#
# Compressibility (1/GPa) = 0.04322520
#
# Stress axis : x y z
#
# Youngs Moduli (GPa) = 58.40117 69.50011 71.90735
#
# Poissons Ratio (x) = 0.11815 -0.03630
# Poissons Ratio (y) = 0.09928 -0.00710
# Poissons Ratio (z) = -0.02948 -0.00686
#
# Static dielectric constant tensor:
#      x y z
#    x 1.854800 -0.032780 -0.046830 
#    y -0.032780 1.792640 -0.012510 
#    z -0.046830 -0.012510 1.875890 
# 
# From -- ./inp_files/445863.got.cif
#   From: 2010.05.17/outbox.cif.g08.bks.cpg/sg2_223_cif.got.tgz:445863.got - 2010.06.03 11:33:40.
