data_PCOD9090502
_publ_section_title
;
Structure prediction by ZEFSAII (Michael W. Deem and Ramdas Pophale) SiO2 
 PCOD9090502
Probable space group: P -1
;
_chemical_formula_sum "Si O2"
_cell_formula_units_Z 16
_cell_length_a 12.123775
_cell_length_b 11.399983
_cell_length_c 8.685782
_cell_angle_alpha 70.965262
_cell_angle_beta 132.461778
_cell_angle_gamma 131.299241
_cell_volume 649.714177
_symmetry_space_group_name_H-M "P -1"
_symmetry_group_IT_number 2
_symmetry_cell_setting 'triclinic'
loop_
_space_group_symop_operation_xyz
x,y,z
-x,-y,-z
loop_
_atom_site_type_symbol
_atom_site_label
_atom_site_fract_x
_atom_site_fract_y
_atom_site_fract_z
Si Si1 0.804814 0.847465 0.806803
Si Si2 0.383120 0.525477 0.155669
Si Si3 0.219146 0.910730 0.742314
Si Si4 0.545145 0.040708 0.782783
Si Si5 0.566995 0.207527 0.452519
Si Si6 0.884908 0.428539 0.260823
Si Si7 0.165198 0.224618 0.470902
Si Si8 0.815471 0.491167 0.715571
O O1 0.714612 0.664241 0.849340
O O2 0.651883 0.872826 0.694944
O O3 0.827754 0.852371 0.642981
O O4 0.000000 0.000000 0.000000
O O5 0.616674 0.652309 0.310430
O O6 0.323624 0.564054 0.243942
O O7 0.279499 0.553814 0.915748
O O8 0.191521 0.751340 0.744768
O O9 0.022771 0.884475 0.550298
O O10 0.402472 0.044119 0.754494
O O11 0.304570 0.956667 0.975413
O O12 0.644343 0.181246 0.691528
O O13 0.418121 0.879550 0.632416
O O14 0.678503 0.393584 0.479953
O O15 0.000000 0.500000 0.500000
O O16 0.007885 0.503342 0.181231
O O17 0.109328 0.330985 0.305584
#
# Coordination Sequence:
#
# PCOD9090502 Si02
#       8
#     2   2   2   2   2   2   2   2
#     4  11  22  36  63  99 138 162 214 271 329 382
#     4  11  21  41  68  97 126 175 214 271 329 384
#     4  10  22  43  62  91 132 172 215 261 326 392
#     4  10  23  38  65  91 132 174 215 265 320 385
#     4  11  20  38  64  96 124 167 217 271 314 374
#     4  11  24  39  67  94 127 167 227 268 317 385
#     4  10  20  40  67  95 131 170 215 262 334 391
#     4  10  19  38  66  95 124 163 221 270 308 381
#
# _framework density 24.626214999999998
#
# number of rings (size 3 to 8) (size 9 to 14) (size 15 to 20)
#    0.000    1.500    2.500    3.375    0.000    5.000 
#    0.000    3.125    5.500    1.500    0.000    0.000 
#    0.000    0.000    0.000    0.000    0.000    0.000 
#
# Total GULP energy -89204.560114 kJ/mol
# GULP energy per Si atom -5575.285007 kJ/mol
# Density = 2.457016 g / cm^3
# Si number density = 24.626215 Si / 1000 Ang^3
#
#
#
# Elastic Constant Matrix: (Units=GPa)
#
#
# Indices 1 2 3 4 5 6 
#
# 1 119.8563 27.0183 46.3818 -8.4961 26.0335 17.2639
# 2 27.0183 70.5076 34.9941 1.7566 -3.1286 -7.3520
# 3 46.3818 34.9941 95.1198 6.3911 17.3040 6.1844
# 4 -8.4961 1.7566 6.3911 30.4381 -2.1703 3.3628
# 5 26.0335 -3.1286 17.3040 -2.1703 49.7698 7.0988
# 6 17.2639 -7.3520 6.1844 3.3628 7.0988 34.2201
#
#
#
# Elastic Compliance Matrix: (Units=1/GPa)
#
#
# Indices 1 2 3 4 5 6 
#
# 1 0.013046 -0.004002 -0.003991 0.005077 -0.004572 -0.006271
# 2 -0.004002 0.019900 -0.006555 -0.001294 0.004619 0.006648
# 3 -0.003991 -0.006555 0.015934 -0.004243 -0.003900 -0.001049
# 4 0.005077 -0.001294 -0.004243 0.035963 0.001140 -0.005843
# 5 -0.004572 0.004619 -0.003900 0.001140 0.024345 -0.001159
# 6 -0.006271 0.006648 -0.001049 -0.005843 -0.001159 0.034818
#
#
# Mechanical properties :
#
#
# Convention : Reuss Voigt Hill
#
# Bulk Modulus (GPa) = 50.54642 55.80802 53.17722
# Shear Modulus (GPa) = 27.82458 34.69158 31.25808
#
# Velocity S-wave (km/s) = 3.36501 3.75737 3.56659
# Velocity P-wave (km/s) = 5.97225 6.44477 6.21300
#
# Compressibility (1/GPa) = 0.01978380
#
# Stress axis : x y z
#
# Youngs Moduli (GPa) = 76.65185 50.25068 62.76084
#
# Poissons Ratio (x) = 0.20109 0.25047
# Poissons Ratio (y) = 0.30673 0.41142
# Poissons Ratio (z) = 0.30591 0.32941
#
# Static dielectric constant tensor:
#      x y z
#    x 2.038460 0.092510 0.041800 
#    y 0.092510 2.134150 -0.051070 
#    z 0.041800 -0.051070 1.997960 
# 
# From -- ./inp_files/262631.got.cif
#   From: 2010.05.17/outbox.cif.g08.bks.cpg/sg2_132_cif.got.tgz:262631.got - 2010.06.03 11:33:40.
