data_PCOD9090051
_publ_section_title
;
Structure prediction by ZEFSAII (Michael W. Deem and Ramdas Pophale) SiO2 
 PCOD9090051
Probable space group: P -1
;
_chemical_formula_sum "Si O2"
_cell_formula_units_Z 12
_cell_length_a 11.179186
_cell_length_b 22.558745
_cell_length_c 8.660084
_cell_angle_alpha 39.872413
_cell_angle_beta 139.594329
_cell_angle_gamma 159.765761
_cell_volume 475.736627
_symmetry_space_group_name_H-M "P -1"
_symmetry_group_IT_number 2
_symmetry_cell_setting 'triclinic'
loop_
_space_group_symop_operation_xyz
x,y,z
-x,-y,-z
loop_
_atom_site_type_symbol
_atom_site_label
_atom_site_fract_x
_atom_site_fract_y
_atom_site_fract_z
Si Si1 0.072925 0.110655 0.688919
Si Si2 0.954323 0.310449 0.540837
Si Si3 0.700526 0.363644 0.344347
Si Si4 0.194471 0.674482 0.973365
Si Si5 0.388253 0.362203 0.261502
Si Si6 0.810253 0.038079 0.908951
O O1 0.074734 0.190345 0.403386
O O2 0.851432 0.049899 0.738632
O O3 0.477019 0.258252 0.851182
O O4 0.980292 0.966396 0.830442
O O5 0.315267 0.499756 0.590407
O O6 0.675473 0.247751 0.496491
O O7 0.918427 0.330785 0.289500
O O8 0.924067 0.187793 0.768712
O O9 0.399277 0.287272 0.291957
O O10 0.000000 0.500000 0.500000
O O11 0.867300 0.492474 0.107627
O O12 0.404421 0.842207 0.941144
O O13 0.500000 0.500000 0.000000
#
# Coordination Sequence:
#
# PCOD9090051 Si02
#       6
#     2   2   2   2   2   2
#     4   9  20  40  61  83 130 151 189 245 302 337
#     4  11  21  36  65  93 109 159 206 242 296 342
#     4  10  20  39  58  86 123 156 195 246 294 346
#     4  10  19  38  63  90 121 150 199 250 290 347
#     4  11  25  43  58  85 124 162 197 245 300 352
#     4   9  20  38  62  95 119 150 194 249 298 348
#
# _framework density 25.224039999999999
#
# number of rings (size 3 to 8) (size 9 to 14) (size 15 to 20)
#    1.000    1.000    3.333    1.000    2.333    2.000 
#    0.000    8.333    0.000    0.000    0.000    0.000 
#    0.000    0.000    0.000    0.000    0.000    0.000 
#
# Total GULP energy -66837.537803 kJ/mol
# GULP energy per Si atom -5569.794817 kJ/mol
# Density = 2.516663 g / cm^3
# Si number density = 25.224040 Si / 1000 Ang^3
#
#
#
# Elastic Constant Matrix: (Units=GPa)
#
#
# Indices 1 2 3 4 5 6 
#
# 1 92.7388 30.2579 28.7960 -31.8591 33.8045 -30.2053
# 2 30.2579 60.8409 23.6745 -14.5394 8.8193 -24.1377
# 3 28.7960 23.6745 139.8166 -16.9004 8.5119 -5.6443
# 4 -31.8591 -14.5394 -16.9004 48.9042 -11.3040 3.9053
# 5 33.8045 8.8193 8.5119 -11.3040 30.7434 -16.8920
# 6 -30.2053 -24.1377 -5.6443 3.9053 -16.8920 38.5795
#
#
#
# Elastic Compliance Matrix: (Units=1/GPa)
#
#
# Indices 1 2 3 4 5 6 
#
# 1 0.025191 -0.003453 -0.001978 0.009892 -0.017886 0.008440
# 2 -0.003453 0.025568 -0.002861 0.004887 0.007708 0.015755
# 3 -0.001978 -0.002861 0.008058 0.000778 -0.000236 -0.002342
# 4 0.009892 0.004887 0.000778 0.028601 0.003198 0.009422
# 5 -0.017886 0.007708 -0.000236 0.003198 0.060550 0.016972
# 6 0.008440 0.015755 -0.002342 0.009422 0.016972 0.048521
#
#
# Mechanical properties :
#
#
# Convention : Reuss Voigt Hill
#
# Bulk Modulus (GPa) = 23.67827 50.98367 37.33097
# Shear Modulus (GPa) = 22.01185 37.68995 29.85090
#
# Velocity S-wave (km/s) = 2.95728 3.86969 3.44383
# Velocity P-wave (km/s) = 4.59001 6.34210 5.53581
#
# Compressibility (1/GPa) = 0.04223281
#
# Stress axis : x y z
#
# Youngs Moduli (GPa) = 39.69675 39.11165 124.10214
#
# Poissons Ratio (x) = 0.13506 0.24549
# Poissons Ratio (y) = 0.13708 0.35501
# Poissons Ratio (z) = 0.07853 0.11188
#
# Static dielectric constant tensor:
#      x y z
#    x 2.024260 0.072150 0.059310 
#    y 0.072150 2.131570 0.022970 
#    z 0.059310 0.022970 2.082650 
# 
# From -- ./inp_files/283579.got.cif
#   From: 2010.05.17/outbox.cif.g08.bks.cpg/sg2_142_cif.got.tgz:283579.got - 2010.06.03 11:33:40.
