data_PCOD9090214
_publ_section_title
;
Structure prediction by ZEFSAII (Michael W. Deem and Ramdas Pophale) SiO2 
 PCOD9090214
Probable space group: P -1
;
_chemical_formula_sum "Si O2"
_cell_formula_units_Z 14
_cell_length_a 15.617936
_cell_length_b 20.807597
_cell_length_c 9.319327
_cell_angle_alpha 45.548281
_cell_angle_beta 133.549008
_cell_angle_gamma 165.410534
_cell_volume 543.492479
_symmetry_space_group_name_H-M "P -1"
_symmetry_group_IT_number 2
_symmetry_cell_setting 'triclinic'
loop_
_space_group_symop_operation_xyz
x,y,z
-x,-y,-z
loop_
_atom_site_type_symbol
_atom_site_label
_atom_site_fract_x
_atom_site_fract_y
_atom_site_fract_z
Si Si1 0.953524 0.304614 0.150964
Si Si2 0.099216 0.984109 0.734448
Si Si3 0.461297 0.533771 0.262191
Si Si4 0.485960 0.934347 0.441953
Si Si5 0.735862 0.413844 0.340650
Si Si6 0.378305 0.758216 0.216566
Si Si7 0.719687 0.734764 0.963133
O O1 0.300550 0.510677 0.171933
O O2 0.828172 0.198092 0.335797
O O3 0.674493 0.040230 0.163913
O O4 0.908445 0.377562 0.953024
O O5 0.828320 0.718063 0.778306
O O6 0.028208 0.958859 0.856558
O O7 0.459010 0.195961 0.778882
O O8 0.000000 0.000000 0.500000
O O9 0.500000 0.500000 0.500000
O O10 0.774627 0.756417 0.162562
O O11 0.423743 0.783182 0.624077
O O12 0.136248 0.714841 0.298812
O O13 0.500000 0.000000 0.500000
O O14 0.722800 0.369091 0.559622
O O15 0.512215 0.342119 0.185668
O O16 0.500000 0.500000 0.000000
#
# Coordination Sequence:
#
# PCOD9090214 Si02
#       7
#     2   2   2   2   2   2   2
#     4   9  20  37  62  88 127 167 212 270 331 385
#     4  10  19  38  64  92 124 162 216 269 322 397
#     4  10  23  41  61  88 128 173 216 273 332 386
#     4  10  23  39  62  97 134 168 218 274 327 398
#     4  10  21  39  68  94 130 176 214 270 337 394
#     4   9  18  36  64  93 121 166 216 264 326 400
#     4  10  22  37  67  95 124 176 226 262 327 405
#
# _framework density 25.759326000000001
#
# number of rings (size 3 to 8) (size 9 to 14) (size 15 to 20)
#    0.000    2.286    1.429    0.000   12.000    2.286 
#    0.000    2.857    0.000    0.000    0.000    0.000 
#    0.000    0.000    0.000    0.000    0.000    0.000 
#
# Total GULP energy -78350.425672 kJ/mol
# GULP energy per Si atom -5596.458977 kJ/mol
# Density = 2.570070 g / cm^3
# Si number density = 25.759326 Si / 1000 Ang^3
#
#
#
# Elastic Constant Matrix: (Units=GPa)
#
#
# Indices 1 2 3 4 5 6 
#
# 1 266.7863 51.8075 86.8074 -1.9085 -15.7640 20.3546
# 2 51.8075 113.2438 31.1177 -7.0644 -3.9706 17.6557
# 3 86.8074 31.1177 129.0481 -12.8032 -10.9549 24.5011
# 4 -1.9085 -7.0644 -12.8032 24.5258 15.3484 -4.6643
# 5 -15.7640 -3.9706 -10.9549 15.3484 61.5535 -3.5787
# 6 20.3546 17.6557 24.5011 -4.6643 -3.5787 53.5855
#
#
#
# Elastic Compliance Matrix: (Units=1/GPa)
#
#
# Indices 1 2 3 4 5 6 
#
# 1 0.005168 -0.001577 -0.003220 -0.002554 0.001279 -0.000108
# 2 -0.001577 0.010248 -0.000801 0.002363 -0.000605 -0.002246
# 3 -0.003220 -0.000801 0.011183 0.004935 -0.000304 -0.003217
# 4 -0.002554 0.002363 0.004935 0.051952 -0.012483 0.001624
# 5 0.001279 -0.000605 -0.000304 -0.012483 0.019598 0.000074
# 6 -0.000108 -0.002246 -0.003217 0.001624 0.000074 0.021060
#
#
# Mechanical properties :
#
#
# Convention : Reuss Voigt Hill
#
# Bulk Modulus (GPa) = 64.92356 94.28261 79.60309
# Shear Modulus (GPa) = 36.88932 50.55599 43.72266
#
# Velocity S-wave (km/s) = 3.78838 4.43496 4.12436
# Velocity P-wave (km/s) = 6.66291 7.93133 7.32463
#
# Compressibility (1/GPa) = 0.01540273
#
# Stress axis : x y z
#
# Youngs Moduli (GPa) = 193.49886 97.57597 89.42095
#
# Poissons Ratio (x) = 0.15388 0.28798
# Poissons Ratio (y) = 0.30515 0.07162
# Poissons Ratio (z) = 0.62315 0.07815
#
# Static dielectric constant tensor:
#      x y z
#    x 1.991420 -0.045300 -0.042630 
#    y -0.045300 2.201450 -0.071890 
#    z -0.042630 -0.071890 2.065020 
# 
# From -- ./inp_files/319259.got.cif
#   From: 2010.05.17/outbox.cif.g08.bks.cpg/sg2_160_cif.got.tgz:319259.got - 2010.06.03 11:33:40.
