data_PCOD9090808
_publ_section_title
;
Structure prediction by ZEFSAII (Michael W. Deem and Ramdas Pophale) SiO2 
 PCOD9090808
Probable space group: P -1
;
_chemical_formula_sum "Si O2"
_cell_formula_units_Z 16
_cell_length_a 29.647140
_cell_length_b 8.626779
_cell_length_c 11.725510
_cell_angle_alpha 39.748595
_cell_angle_beta 144.199193
_cell_angle_gamma 149.201393
_cell_volume 871.749443
_symmetry_space_group_name_H-M "P -1"
_symmetry_group_IT_number 2
_symmetry_cell_setting 'triclinic'
loop_
_space_group_symop_operation_xyz
x,y,z
-x,-y,-z
loop_
_atom_site_type_symbol
_atom_site_label
_atom_site_fract_x
_atom_site_fract_y
_atom_site_fract_z
Si Si1 0.177900 0.344722 0.491268
Si Si2 0.313829 0.199247 0.897060
Si Si3 0.802605 0.758817 0.846279
Si Si4 0.292421 0.905560 0.569035
Si Si5 0.664169 0.158523 0.045830
Si Si6 0.537411 0.062115 0.171139
Si Si7 0.981767 0.694558 0.932342
Si Si8 0.782064 0.349842 0.827833
O O1 0.211419 0.136485 0.692875
O O2 0.208656 0.556916 0.545532
O O3 0.242255 0.583671 0.382406
O O4 0.067129 0.187655 0.311585
O O5 0.393835 0.567521 0.873263
O O6 0.342842 0.079305 0.921667
O O7 0.292577 0.996148 0.080155
O O8 0.790387 0.577948 0.808957
O O9 0.746030 0.900850 0.637409
O O10 0.917335 0.032068 0.954920
O O11 0.752238 0.503807 0.987459
O O12 0.314591 0.894232 0.753316
O O13 0.391268 0.030374 0.629635
O O14 0.561593 0.107277 0.862182
O O15 0.500000 0.000000 0.000000
O O16 0.000000 0.500000 0.000000
O O17 0.892409 0.461466 0.969073
#
# Coordination Sequence:
#
# PCOD9090808 Si02
#       8
#     2   2   2   2   2   2   2   2
#     4   9  20  35  55  83 111 143 188 222 274 323
#     4  10  19  39  60  81 113 146 181 228 277 330
#     4  11  20  38  57  81 115 147 186 225 275 327
#     4  10  20  36  58  81 113 147 184 230 271 328
#     4  10  22  37  57  85 110 148 184 227 279 325
#     4   9  20  36  58  84 111 143 184 229 277 324
#     4  10  20  37  55  83 114 145 184 229 272 323
#     4   9  21  36  57  82 111 149 180 228 275 321
#
# _framework density 18.353897
#
# number of rings (size 3 to 8) (size 9 to 14) (size 15 to 20)
#    0.750    1.500    1.250    1.500    0.000    6.500 
#    2.250    6.250    0.000   13.500    0.000    0.000 
#    0.000    0.000    0.000    0.000    0.000    0.000 
#
# Total GULP energy -89107.651592 kJ/mol
# GULP energy per Si atom -5569.228224 kJ/mol
# Density = 1.831212 g / cm^3
# Si number density = 18.353897 Si / 1000 Ang^3
#
#
#
# Elastic Constant Matrix: (Units=GPa)
#
#
# Indices 1 2 3 4 5 6 
#
# 1 89.9835 18.8672 18.9043 -7.1819 17.4357 -10.1771
# 2 18.8672 20.3306 -5.9310 14.6392 -20.8779 9.0315
# 3 18.9043 -5.9310 52.5233 9.7484 7.5686 -8.1214
# 4 -7.1819 14.6392 9.7484 21.0438 8.0466 -0.6853
# 5 17.4357 -20.8779 7.5686 8.0466 20.6920 8.4003
# 6 -10.1771 9.0315 -8.1214 -0.6853 8.4003 6.3799
#
#
#
# Elastic Compliance Matrix: (Units=1/GPa)
#
#
# Indices 1 2 3 4 5 6 
#
# 1 0.007778 0.006205 -0.004478 -0.002751 0.007256 -0.011926
# 2 0.006205 0.004714 0.006060 0.004825 -0.019802 0.037531
# 3 -0.004478 0.006060 0.029504 -0.016255 -0.005884 0.027837
# 4 -0.002751 0.004825 -0.016255 0.043037 0.016057 -0.048431
# 5 0.007256 -0.019802 -0.005884 0.016057 0.009458 0.021390
# 6 -0.011926 0.037531 0.027837 -0.048431 0.021390 0.086657
#
#
# Mechanical properties :
#
#
# Convention : Reuss Voigt Hill
#
# Bulk Modulus (GPa) = 17.36984 25.16870 21.26927
# Shear Modulus (GPa) = 27.06143 18.35627 22.70885
#
# Velocity S-wave (km/s) = 3.84399 3.16591 3.52131
# Velocity P-wave (km/s) = 5.40241 5.20642 5.30532
#
# Compressibility (1/GPa) = 0.05757105
#
# Stress axis : x y z
#
# Youngs Moduli (GPa) = 128.56103 212.13830 33.89342
#
# Poissons Ratio (x) = -1.31640 0.15178
# Poissons Ratio (y) = -0.79777 -0.20539
# Poissons Ratio (z) = 0.57571 -1.28555
#
# Static dielectric constant tensor:
#      x y z
#    x 1.638710 0.014690 0.014090 
#    y 0.014690 1.605830 0.016080 
#    z 0.014090 0.016080 1.625770 
# 
# From -- ./inp_files/272035.got.cif
#   From: 2010.05.17/outbox.cif.g08.bks.cpg/sg2_137_cif.got.tgz:272035.got - 2010.06.03 11:33:40.
