data_PCOD9090918
_publ_section_title
;
Structure prediction by ZEFSAII (Michael W. Deem and Ramdas Pophale) SiO2 
 PCOD9090918
Probable space group: P -1
;
_chemical_formula_sum "Si O2"
_cell_formula_units_Z 14
_cell_length_a 5.547294
_cell_length_b 22.105734
_cell_length_c 9.606774
_cell_angle_alpha 144.150208
_cell_angle_beta 67.949575
_cell_angle_gamma 111.306236
_cell_volume 635.677779
_symmetry_space_group_name_H-M "P -1"
_symmetry_group_IT_number 2
_symmetry_cell_setting 'triclinic'
loop_
_space_group_symop_operation_xyz
x,y,z
-x,-y,-z
loop_
_atom_site_type_symbol
_atom_site_label
_atom_site_fract_x
_atom_site_fract_y
_atom_site_fract_z
Si Si1 0.823346 0.227755 0.500202
Si Si2 0.218751 0.421129 0.803932
Si Si3 0.676622 0.124299 0.059986
Si Si4 0.177451 0.092717 0.266724
Si Si5 0.331679 0.296166 0.802940
Si Si6 0.987771 0.292803 0.146054
Si Si7 0.539304 0.595541 0.565103
O O1 0.727336 0.209831 0.331396
O O2 0.631644 0.281622 0.743593
O O3 0.078835 0.307020 0.584568
O O4 0.889398 0.116291 0.330408
O O5 0.332585 0.393830 0.878986
O O6 0.402154 0.445106 0.677251
O O7 0.000000 0.500000 0.000000
O O8 0.361845 0.104831 0.110640
O O9 0.842670 0.177800 0.997653
O O10 0.781499 0.016097 0.876484
O O11 0.253008 0.185969 0.534657
O O12 0.146948 0.302026 0.984539
O O13 0.734841 0.355791 0.301456
O O14 0.208950 0.331984 0.287977
O O15 0.500000 0.500000 0.500000
#
# Coordination Sequence:
#
# PCOD9090918 Si02
#       7
#     2   2   2   2   2   2   2
#     4  10  19  39  61  91 126 168 222 268 331 395
#     4  11  24  42  67  93 128 176 222 278 329 402
#     4  10  20  39  64  96 128 173 224 275 330 397
#     4   9  20  38  66  93 129 173 224 270 332 396
#     4  10  24  40  63  95 133 174 219 275 328 405
#     4  12  26  45  68  99 140 176 218 283 336 394
#     4  12  27  47  69  99 134 179 226 276 337 398
#
# _framework density 22.023734999999999
#
# number of rings (size 3 to 8) (size 9 to 14) (size 15 to 20)
#    0.000    1.429    1.429    4.286    6.000    1.143 
#    0.000    0.714    0.000    0.000    0.000    0.000 
#    0.000    0.000    0.000    0.000    0.000    0.000 
#
# Total GULP energy -78044.642084 kJ/mol
# GULP energy per Si atom -5574.617292 kJ/mol
# Density = 2.197361 g / cm^3
# Si number density = 22.023735 Si / 1000 Ang^3
#
#
#
# Elastic Constant Matrix: (Units=GPa)
#
#
# Indices 1 2 3 4 5 6 
#
# 1 88.6787 37.9029 43.7513 -6.7712 -25.8655 -8.7208
# 2 37.9029 166.7303 70.8867 -19.5372 -36.4099 -3.8524
# 3 43.7513 70.8867 106.3027 -16.7877 -27.3344 -9.5243
# 4 -6.7712 -19.5372 -16.7877 45.7551 5.3128 -3.9067
# 5 -25.8655 -36.4099 -27.3344 5.3128 54.2119 9.8317
# 6 -8.7208 -3.8524 -9.5243 -3.9067 9.8317 21.2212
#
#
#
# Elastic Compliance Matrix: (Units=1/GPa)
#
#
# Indices 1 2 3 4 5 6 
#
# 1 0.015224 -0.000519 -0.004649 0.000023 0.004180 0.002143
# 2 -0.000519 0.009111 -0.004894 0.001405 0.003664 -0.002195
# 3 -0.004649 -0.004894 0.015834 0.003234 0.001389 0.004259
# 4 0.000023 0.001405 0.003234 0.024331 -0.001008 0.006662
# 5 0.004180 0.003664 0.001389 -0.001008 0.025316 -0.008908
# 6 0.002143 -0.002195 0.004259 0.006662 -0.008908 0.054870
#
#
# Mechanical properties :
#
#
# Convention : Reuss Voigt Hill
#
# Bulk Modulus (GPa) = 49.89265 74.08816 61.99040
# Shear Modulus (GPa) = 29.15602 38.18236 33.66919
#
# Velocity S-wave (km/s) = 3.64242 4.16828 3.91419
# Velocity P-wave (km/s) = 6.35553 7.54183 6.97395
#
# Compressibility (1/GPa) = 0.02004303
#
# Stress axis : x y z
#
# Youngs Moduli (GPa) = 65.68568 109.76271 63.15652
#
# Poissons Ratio (x) = 0.05700 0.29362
# Poissons Ratio (y) = 0.03411 0.30910
# Poissons Ratio (z) = 0.30538 0.53721
#
# Static dielectric constant tensor:
#      x y z
#    x 2.032950 0.009730 0.020300 
#    y 0.009730 1.841040 0.013460 
#    z 0.020300 0.013460 1.797350 
# 
# From -- ./inp_files/35197.got.cif
#   From: 2010.05.17/outbox.cif.g08.bks.cpg/sg2_18_cif.got.tgz:35197.got - 2010.06.03 11:33:40.
