data_PCOD9090592
_publ_section_title
;
Structure prediction by ZEFSAII (Michael W. Deem and Ramdas Pophale) SiO2 
 PCOD9090592
Probable space group: P -1
;
_chemical_formula_sum "Si O2"
_cell_formula_units_Z 16
_cell_length_a 21.225673
_cell_length_b 11.917984
_cell_length_c 8.305040
_cell_angle_alpha 144.769981
_cell_angle_beta 56.553055
_cell_angle_gamma 144.974275
_cell_volume 650.107066
_symmetry_space_group_name_H-M "P -1"
_symmetry_group_IT_number 2
_symmetry_cell_setting 'triclinic'
loop_
_space_group_symop_operation_xyz
x,y,z
-x,-y,-z
loop_
_atom_site_type_symbol
_atom_site_label
_atom_site_fract_x
_atom_site_fract_y
_atom_site_fract_z
Si Si1 0.321975 0.194961 0.575750
Si Si2 0.727727 0.661864 0.861858
Si Si3 0.514983 0.166635 0.020830
Si Si4 0.329317 0.904286 0.737009
Si Si5 0.523869 0.787914 0.416641
Si Si6 0.072108 0.558885 0.116301
Si Si7 0.071854 0.430179 0.494320
Si Si8 0.984323 0.082876 0.886486
O O1 0.410822 0.208260 0.535889
O O2 0.208650 0.872550 0.280923
O O3 0.280348 0.236974 0.841046
O O4 0.387931 0.475243 0.694427
O O5 0.705605 0.387959 0.595653
O O6 0.616477 0.507488 0.730839
O O7 0.855116 0.919629 0.903999
O O8 0.396035 0.028806 0.958874
O O9 0.548892 0.067416 0.727459
O O10 0.500000 0.000000 0.000000
O O11 0.203778 0.759331 0.732089
O O12 0.421906 0.157060 0.768925
O O13 0.019857 0.578699 0.363696
O O14 0.000000 0.500000 0.000000
O O15 0.043745 0.281484 0.875588
O O16 0.032694 0.180834 0.379219
O O17 0.063637 0.312933 0.194425
#
# Coordination Sequence:
#
# PCOD9090592 Si02
#       8
#     2   2   2   2   2   2   2   2
#     4  12  24  40  67  94 122 171 212 258 321 371
#     4  10  19  38  67  98 127 154 209 271 316 366
#     4  11  25  43  63  92 136 167 200 258 321 389
#     4  10  20  39  67  98 122 161 216 263 319 368
#     4  11  22  39  68 100 123 159 213 269 312 377
#     4  12  28  43  61  93 136 174 211 258 317 391
#     4  10  22  40  69  94 123 165 220 271 309 369
#     4  10  22  41  67  97 121 168 218 266 317 360
#
# _framework density 24.611329000000001
#
# number of rings (size 3 to 8) (size 9 to 14) (size 15 to 20)
#    0.000    1.250    3.750    2.250    1.750    6.000 
#    0.000    0.000    0.000    0.000    0.000    0.000 
#    0.000    0.000    0.000    0.000    0.000    0.000 
#
# Total GULP energy -89607.897898 kJ/mol
# GULP energy per Si atom -5600.493619 kJ/mol
# Density = 2.455531 g / cm^3
# Si number density = 24.611329 Si / 1000 Ang^3
#
#
#
# Elastic Constant Matrix: (Units=GPa)
#
#
# Indices 1 2 3 4 5 6 
#
# 1 132.2071 45.7916 40.6594 37.0797 13.0159 -6.7571
# 2 45.7916 86.8314 46.8846 39.6133 20.0115 -9.7306
# 3 40.6594 46.8846 70.9614 37.0961 12.5635 -2.7716
# 4 37.0797 39.6133 37.0961 48.8636 9.7628 -2.1494
# 5 13.0159 20.0115 12.5635 9.7628 52.2501 -3.3508
# 6 -6.7571 -9.7306 -2.7716 -2.1494 -3.3508 45.5624
#
#
#
# Elastic Compliance Matrix: (Units=1/GPa)
#
#
# Indices 1 2 3 4 5 6 
#
# 1 0.010235 -0.002112 -0.002098 -0.004356 -0.000377 0.000706
# 2 -0.002112 0.022659 -0.007686 -0.009942 -0.004236 0.003278
# 3 -0.002098 -0.007686 0.027062 -0.012615 -0.000745 -0.000956
# 4 -0.004356 -0.009942 -0.012615 0.041317 0.000105 -0.001580
# 5 -0.000377 -0.004236 -0.000745 0.000105 0.021050 0.000547
# 6 0.000706 0.003278 -0.000956 -0.001580 0.000547 0.022660
#
#
# Mechanical properties :
#
#
# Convention : Reuss Voigt Hill
#
# Bulk Modulus (GPa) = 27.65093 61.85233 44.75163
# Shear Modulus (GPa) = 27.65032 39.77950 33.71491
#
# Velocity S-wave (km/s) = 3.35547 4.02470 3.70522
# Velocity P-wave (km/s) = 5.12559 6.83987 6.04382
#
# Compressibility (1/GPa) = 0.03616515
#
# Stress axis : x y z
#
# Youngs Moduli (GPa) = 97.69960 44.13160 36.95281
#
# Poissons Ratio (x) = 0.09319 0.07753
# Poissons Ratio (y) = 0.20631 0.28402
# Poissons Ratio (z) = 0.20497 0.33920
#
# Static dielectric constant tensor:
#      x y z
#    x 1.937660 -0.017000 -0.009080 
#    y -0.017000 1.994480 -0.048010 
#    z -0.009080 -0.048010 1.972690 
# 
# From -- ./inp_files/308808.got.cif
#   From: 2010.05.17/outbox.cif.g08.bks.cpg/sg2_155_cif.got.tgz:308808.got - 2010.06.03 11:33:40.
