data_PCOD9090629
_publ_section_title
;
Structure prediction by ZEFSAII (Michael W. Deem and Ramdas Pophale) SiO2 
 PCOD9090629
Probable space group: P -1
;
_chemical_formula_sum "Si O2"
_cell_formula_units_Z 15
_cell_length_a 18.462972
_cell_length_b 11.923614
_cell_length_c 9.494101
_cell_angle_alpha 143.306682
_cell_angle_beta 38.661481
_cell_angle_gamma 144.301154
_cell_volume 676.483600
_symmetry_space_group_name_H-M "P -1"
_symmetry_group_IT_number 2
_symmetry_cell_setting 'triclinic'
loop_
_space_group_symop_operation_xyz
x,y,z
-x,-y,-z
loop_
_atom_site_type_symbol
_atom_site_label
_atom_site_fract_x
_atom_site_fract_y
_atom_site_fract_z
Si Si1 0.578845 0.303013 0.345989
Si Si2 0.622335 0.236908 0.517291
Si Si3 0.076773 0.557829 0.792678
Si Si4 0.041112 0.274208 0.097286
Si Si5 0.040787 0.847040 0.599932
Si Si6 0.331995 0.959217 0.241163
Si Si7 0.500000 0.500000 0.500000
Si Si8 0.662220 0.394290 0.926510
O O1 0.576393 0.310675 0.522023
O O2 0.641414 0.526469 0.395750
O O3 0.435664 0.209722 0.380599
O O4 0.626290 0.139412 0.052141
O O5 0.765907 0.265201 0.278267
O O6 0.647544 0.368205 0.755135
O O7 0.500000 0.000000 0.500000
O O8 0.995944 0.617141 0.862436
O O9 0.063104 0.337280 0.529699
O O10 0.000000 0.500000 0.000000
O O11 0.192789 0.411582 0.057180
O O12 0.959178 0.242956 0.333866
O O13 0.011373 0.040268 0.857441
O O14 0.188592 0.926276 0.399687
O O15 0.340761 0.819720 0.217656
O O16 0.452038 0.574553 0.797428
#
# Coordination Sequence:
#
# PCOD9090629 Si02
#       8
#     2   2   2   2   2   2   1   2
#     4  10  22  39  63  98 131 180 224 278 345 415
#     4  12  25  43  69 103 139 182 229 286 355 406
#     4  12  26  46  72 103 144 185 227 293 349 412
#     4  11  24  42  72  99 133 184 239 284 342 414
#     4  11  22  42  72 100 131 180 235 290 334 417
#     4  10  19  38  68  93 130 178 231 276 339 411
#     4  10  24  40  64  94 132 178 228 278 342 416
#     4  11  21  43  67  98 135 180 231 289 342 415
#
# _framework density 22.173486
#
# number of rings (size 3 to 8) (size 9 to 14) (size 15 to 20)
#    0.000    1.067    4.000    2.800    1.867    1.067 
#    2.400    1.333    0.000    0.000    0.000    0.000 
#    0.000    0.000    0.000    0.000    0.000    0.000 
#
# Total GULP energy -83613.154144 kJ/mol
# GULP energy per Si atom -5574.210276 kJ/mol
# Density = 2.212302 g / cm^3
# Si number density = 22.173486 Si / 1000 Ang^3
#
#
#
# Elastic Constant Matrix: (Units=GPa)
#
#
# Indices 1 2 3 4 5 6 
#
# 1 109.9011 39.4414 43.8883 -1.2172 40.0750 -13.0735
# 2 39.4414 92.1899 50.8037 -4.7767 15.5603 5.7278
# 3 43.8883 50.8037 113.9701 -6.3901 19.8047 -6.9323
# 4 -1.2172 -4.7767 -6.3901 35.0281 -3.0063 -5.1608
# 5 40.0750 15.5603 19.8047 -3.0063 36.4419 -15.2041
# 6 -13.0735 5.7278 -6.9323 -5.1608 -15.2041 41.9216
#
#
#
# Elastic Compliance Matrix: (Units=1/GPa)
#
#
# Indices 1 2 3 4 5 6 
#
# 1 0.017214 -0.003236 -0.002434 -0.001857 -0.016753 -0.000897
# 2 -0.003236 0.016154 -0.005866 0.000096 -0.002220 -0.004980
# 3 -0.002434 -0.005866 0.012668 0.001675 -0.000692 0.002093
# 4 -0.001857 0.000096 0.001675 0.030122 0.005881 0.005526
# 5 -0.016753 -0.002220 -0.000692 0.005881 0.054054 0.015293
# 6 -0.000897 -0.004980 0.002093 0.005526 0.015293 0.030827
#
#
# Mechanical properties :
#
#
# Convention : Reuss Voigt Hill
#
# Bulk Modulus (GPa) = 43.54811 64.92531 54.23671
# Shear Modulus (GPa) = 26.07356 34.80684 30.44020
#
# Velocity S-wave (km/s) = 3.43284 3.96631 3.70918
# Velocity P-wave (km/s) = 5.94936 7.09363 6.54655
#
# Compressibility (1/GPa) = 0.02296311
#
# Stress axis : x y z
#
# Youngs Moduli (GPa) = 58.09167 61.90590 78.94031
#
# Poissons Ratio (x) = 0.20035 0.19212
# Poissons Ratio (y) = 0.18801 0.46307
# Poissons Ratio (z) = 0.14138 0.36315
#
# Static dielectric constant tensor:
#      x y z
#    x 1.847540 -0.067190 -0.045430 
#    y -0.067190 2.071580 0.061750 
#    z -0.045430 0.061750 1.854910 
# 
# From -- ./inp_files/332520.got.cif
#   From: 2010.05.17/outbox.cif.g08.bks.cpg/sg2_167_cif.got.tgz:332520.got - 2010.06.03 11:33:40.
