data_PCOD9090158
_publ_section_title
;
Structure prediction by ZEFSAII (Michael W. Deem and Ramdas Pophale) SiO2 
 PCOD9090158
Probable space group: P -1
;
_chemical_formula_sum "Si O2"
_cell_formula_units_Z 13
_cell_length_a 4.934302
_cell_length_b 9.278232
_cell_length_c 17.304496
_cell_angle_alpha 126.746902
_cell_angle_beta 66.031490
_cell_angle_gamma 110.262338
_cell_volume 574.262015
_symmetry_space_group_name_H-M "P -1"
_symmetry_group_IT_number 2
_symmetry_cell_setting 'triclinic'
loop_
_space_group_symop_operation_xyz
x,y,z
-x,-y,-z
loop_
_atom_site_type_symbol
_atom_site_label
_atom_site_fract_x
_atom_site_fract_y
_atom_site_fract_z
Si Si1 0.500000 0.000000 0.500000
Si Si2 0.686090 0.495864 0.222909
Si Si3 0.711355 0.096788 0.071395
Si Si4 0.922868 0.707046 0.414667
Si Si5 0.529741 0.854083 0.316663
Si Si6 0.087798 0.370600 0.346798
Si Si7 0.496796 0.877965 0.724313
O O1 0.338376 0.169863 0.520310
O O2 0.263082 0.020869 0.607547
O O3 0.793634 0.314884 0.121112
O O4 0.875268 0.585298 0.302595
O O5 0.648516 0.665828 0.227416
O O6 0.355078 0.427813 0.272473
O O7 0.549366 0.069446 0.164593
O O8 0.500000 0.000000 0.000000
O O9 0.000000 0.000000 0.000000
O O10 0.259471 0.825206 0.406200
O O11 0.951472 0.559505 0.431058
O O12 0.437374 0.949020 0.282641
O O13 0.266363 0.263371 0.352214
O O14 0.822253 0.227453 0.298854
#
# Coordination Sequence:
#
# PCOD9090158 Si02
#       7
#     1   2   2   2   2   2   2
#     4  10  22  40  62  98 122 168 216 246 312 368
#     4   9  20  39  65  90 122 174 203 246 321 377
#     4  11  22  39  65  93 122 162 212 258 304 375
#     4  10  19  40  66  89 125 171 207 249 309 388
#     4  10  23  39  67  89 131 165 209 257 308 377
#     4  10  19  38  64  87 124 166 209 246 306 376
#     4  11  23  40  64  97 124 164 209 259 317 356
#
# _framework density 22.637751000000002
#
# number of rings (size 3 to 8) (size 9 to 14) (size 15 to 20)
#    0.000    1.846    3.077    2.308    6.462    0.000 
#    0.000    3.077    0.000    0.000    0.000    0.000 
#    0.000    0.000    0.000    0.000    0.000    0.000 
#
# Total GULP energy -72374.355790 kJ/mol
# GULP energy per Si atom -5567.258138 kJ/mol
# Density = 2.258623 g / cm^3
# Si number density = 22.637751 Si / 1000 Ang^3
#
#
#
# Elastic Constant Matrix: (Units=GPa)
#
#
# Indices 1 2 3 4 5 6 
#
# 1 148.9505 44.8534 46.4176 20.0243 -4.5349 -20.0309
# 2 44.8534 157.9240 63.4684 31.6006 -17.0215 -56.7566
# 3 46.4176 63.4684 142.0950 27.8777 -15.6439 -23.4718
# 4 20.0243 31.6006 27.8777 43.5583 -14.2631 -9.2652
# 5 -4.5349 -17.0215 -15.6439 -14.2631 21.6970 16.3108
# 6 -20.0309 -56.7566 -23.4718 -9.2652 16.3108 49.7461
#
#
#
# Elastic Compliance Matrix: (Units=1/GPa)
#
#
# Indices 1 2 3 4 5 6 
#
# 1 0.008046 -0.000449 -0.001858 -0.002897 -0.003850 0.002574
# 2 -0.000449 0.013717 -0.002896 -0.007128 -0.007578 0.015261
# 3 -0.001858 -0.002896 0.009589 -0.002231 0.003642 -0.001137
# 4 -0.002897 -0.007128 -0.002231 0.036606 0.025101 -0.011764
# 5 -0.003850 -0.007578 0.003642 0.025101 0.081385 -0.030487
# 6 0.002574 0.015261 -0.001137 -0.011764 -0.030487 0.045818
#
#
# Mechanical properties :
#
#
# Convention : Reuss Voigt Hill
#
# Bulk Modulus (GPa) = 47.73858 84.27203 66.00530
# Shear Modulus (GPa) = 23.52394 42.61561 33.06978
#
# Velocity S-wave (km/s) = 3.22708 4.34349 3.82622
# Velocity P-wave (km/s) = 5.91770 7.90327 6.98143
#
# Compressibility (1/GPa) = 0.02094742
#
# Stress axis : x y z
#
# Youngs Moduli (GPa) = 124.28136 72.90057 104.28844
#
# Poissons Ratio (x) = 0.03270 0.19380
# Poissons Ratio (y) = 0.05575 0.30197
# Poissons Ratio (z) = 0.23095 0.21109
#
# Static dielectric constant tensor:
#      x y z
#    x 1.970700 0.021560 0.079960 
#    y 0.021560 2.006390 0.045410 
#    z 0.079960 0.045410 1.889540 
# 
# From -- ./inp_files/88039.got.cif
#   From: 2010.05.17/outbox.cif.g08.bks.cpg/sg2_45_cif.got.tgz:88039.got - 2010.06.03 11:33:40.
