data_PCOD9090282
_publ_section_title
;
Structure prediction by ZEFSAII (Michael W. Deem and Ramdas Pophale) SiO2 
 PCOD9090282
Probable space group: P -1
;
_chemical_formula_sum "Si O2"
_cell_formula_units_Z 16
_cell_length_a 9.455733
_cell_length_b 8.056601
_cell_length_c 22.640479
_cell_angle_alpha 47.942214
_cell_angle_beta 45.163263
_cell_angle_gamma 81.027808
_cell_volume 725.865316
_symmetry_space_group_name_H-M "P -1"
_symmetry_group_IT_number 2
_symmetry_cell_setting 'triclinic'
loop_
_space_group_symop_operation_xyz
x,y,z
-x,-y,-z
loop_
_atom_site_type_symbol
_atom_site_label
_atom_site_fract_x
_atom_site_fract_y
_atom_site_fract_z
Si Si1 0.275425 0.792779 0.570239
Si Si2 0.200167 0.267443 0.280352
Si Si3 0.876211 0.769542 0.304978
Si Si4 0.113813 0.352189 0.530056
Si Si5 0.607972 0.880463 0.266673
Si Si6 0.022573 0.615952 0.031425
Si Si7 0.541574 0.801954 0.691047
Si Si8 0.672665 0.608956 0.979569
O O1 0.244533 0.515163 0.627719
O O2 0.987653 0.663684 0.699699
O O3 0.500000 0.000000 0.500000
O O4 0.344429 0.988480 0.446715
O O5 0.271629 0.268338 0.327061
O O6 0.475403 0.467783 0.124087
O O7 0.043880 0.953401 0.377169
O O8 0.878981 0.689082 0.391315
O O9 0.718906 0.869326 0.299385
O O10 0.152432 0.056232 0.145445
O O11 0.404607 0.569968 0.377475
O O12 0.000000 0.500000 0.500000
O O13 0.805721 0.057460 0.113806
O O14 0.482045 0.030591 0.288195
O O15 0.165292 0.509324 0.046668
O O16 0.000000 0.500000 0.000000
O O17 0.744008 0.467035 0.172191
O O18 0.500000 0.500000 0.000000
#
# Coordination Sequence:
#
# PCOD9090282 Si02
#       8
#     2   2   2   2   2   2   2   2
#     4  12  29  44  62  93 139 184 216 261 328 401
#     4  12  24  43  66  98 135 176 214 264 339 396
#     4  12  24  41  66  97 132 174 216 272 329 385
#     4  12  22  37  65 101 129 162 224 277 317 383
#     4  11  20  37  67  98 128 160 221 275 325 380
#     4  10  19  38  65 101 123 162 211 277 333 372
#     4  11  21  42  68  91 127 175 215 271 329 386
#     4  12  23  38  70 104 131 162 217 283 331 383
#
# _framework density 22.042656000000001
#
# number of rings (size 3 to 8) (size 9 to 14) (size 15 to 20)
#    0.000    0.500    8.750    1.500    3.500    0.500 
#    0.000    0.000    0.000    3.750    0.000    0.000 
#    0.000    0.000    0.000    0.000    0.000    0.000 
#
# Total GULP energy -89190.002115 kJ/mol
# GULP energy per Si atom -5574.375132 kJ/mol
# Density = 2.199249 g / cm^3
# Si number density = 22.042656 Si / 1000 Ang^3
#
#
#
# Elastic Constant Matrix: (Units=GPa)
#
#
# Indices 1 2 3 4 5 6 
#
# 1 152.4879 15.8514 32.5408 -9.4958 -12.1796 -9.3341
# 2 15.8514 19.1943 20.1196 -10.7131 -2.7499 -1.3764
# 3 32.5408 20.1196 171.7770 -25.2573 -19.0460 7.8518
# 4 -9.4958 -10.7131 -25.2573 23.3711 -0.6523 -6.7550
# 5 -12.1796 -2.7499 -19.0460 -0.6523 41.3384 -4.9309
# 6 -9.3341 -1.3764 7.8518 -6.7550 -4.9309 21.9987
#
#
#
# Elastic Compliance Matrix: (Units=1/GPa)
#
#
# Indices 1 2 3 4 5 6 
#
# 1 0.007672 -0.003947 -0.000660 0.001910 0.002241 0.004333
# 2 -0.003947 0.081886 -0.003575 0.037229 0.005293 0.017343
# 3 -0.000660 -0.003575 0.007664 0.006287 0.003125 -0.000608
# 4 0.001910 0.037229 0.006287 0.075319 0.010264 0.026324
# 5 0.002241 0.005293 0.003125 0.010264 0.027948 0.009583
# 6 0.004333 0.017343 -0.000608 0.026324 0.009583 0.058829
#
#
# Mechanical properties :
#
#
# Convention : Reuss Voigt Hill
#
# Bulk Modulus (GPa) = 12.36719 53.38698 32.87708
# Shear Modulus (GPa) = 16.52159 35.67147 26.09653
#
# Velocity S-wave (km/s) = 2.74072 4.02717 3.44453
# Velocity P-wave (km/s) = 3.95451 6.77470 5.54683
#
# Compressibility (1/GPa) = 0.08085913
#
# Stress axis : x y z
#
# Youngs Moduli (GPa) = 130.34281 12.21203 130.47968
#
# Poissons Ratio (x) = 0.04819 0.08610
# Poissons Ratio (y) = 0.51440 0.46651
# Poissons Ratio (z) = 0.08601 0.04366
#
# Static dielectric constant tensor:
#      x y z
#    x 1.891740 0.001210 0.076390 
#    y 0.001210 1.822100 0.164860 
#    z 0.076390 0.164860 2.249190 
# 
# From -- ./inp_files/606614.got.cif
#   From: 2010.05.17/outbox.cif.g08.bks.cpg/sg2_304_cif.got.tgz:606614.got - 2010.06.03 11:33:40.
