data_PCOD9090272
_publ_section_title
;
Structure prediction by ZEFSAII (Michael W. Deem and Ramdas Pophale) SiO2 
 PCOD9090272
Probable space group: P -1
;
_chemical_formula_sum "Si O2"
_cell_formula_units_Z 14
_cell_length_a 9.225602
_cell_length_b 12.042895
_cell_length_c 8.428009
_cell_angle_alpha 85.774117
_cell_angle_beta 43.605906
_cell_angle_gamma 109.808664
_cell_volume 529.068821
_symmetry_space_group_name_H-M "P -1"
_symmetry_group_IT_number 2
_symmetry_cell_setting 'triclinic'
loop_
_space_group_symop_operation_xyz
x,y,z
-x,-y,-z
loop_
_atom_site_type_symbol
_atom_site_label
_atom_site_fract_x
_atom_site_fract_y
_atom_site_fract_z
Si Si1 0.698432 0.695658 0.924337
Si Si2 0.858364 0.571750 0.578074
Si Si3 0.294431 0.203387 0.770920
Si Si4 0.658371 0.917301 0.743297
Si Si5 0.316942 0.538902 0.719124
Si Si6 0.913359 0.040677 0.826147
Si Si7 0.184188 0.683956 0.003340
O O1 0.881033 0.673867 0.679232
O O2 0.634127 0.790903 0.871484
O O3 0.438495 0.549572 0.181883
O O4 0.801226 0.754240 0.009519
O O5 0.000000 0.500000 0.500000
O O6 0.996984 0.649710 0.301647
O O7 0.580683 0.325670 0.484499
O O8 0.116651 0.166564 0.762343
O O9 0.261691 0.071748 0.889096
O O10 0.741623 0.023597 0.811753
O O11 0.888135 0.978870 0.428223
O O12 0.404917 0.841470 0.841612
O O13 0.500000 0.500000 0.500000
O O14 0.034541 0.401862 0.945786
O O15 0.326410 0.604966 0.876036
#
# Coordination Sequence:
#
# PCOD9090272 Si02
#       7
#     2   2   2   2   2   2   2
#     4  10  22  36  62  94 129 166 211 257 325 386
#     4  11  22  35  58  95 130 163 203 260 328 383
#     4  10  19  39  63  94 125 172 213 260 319 391
#     4  10  19  38  64  97 121 167 222 269 310 382
#     4  11  25  39  63  98 134 164 204 264 333 391
#     4   9  20  36  66  93 121 174 224 255 319 372
#     4  11  23  38  61  99 123 166 209 261 329 379
#
# _framework density 26.461587000000002
#
# number of rings (size 3 to 8) (size 9 to 14) (size 15 to 20)
#    0.000    1.714    4.286    0.000    4.000    0.000 
#    0.000    0.000    0.000   15.429    0.000    0.000 
#    0.000    0.000    0.000    0.000    0.000    0.000 
#
# Total GULP energy -77995.831943 kJ/mol
# GULP energy per Si atom -5571.130853 kJ/mol
# Density = 2.640136 g / cm^3
# Si number density = 26.461587 Si / 1000 Ang^3
#
#
#
# Elastic Constant Matrix: (Units=GPa)
#
#
# Indices 1 2 3 4 5 6 
#
# 1 60.3852 27.1224 24.9214 0.9751 3.0600 12.0724
# 2 27.1224 166.2662 39.5419 33.5295 -5.8278 49.2898
# 3 24.9214 39.5419 164.7914 -6.6478 5.8036 4.9431
# 4 0.9751 33.5295 -6.6478 65.1720 4.3296 4.4543
# 5 3.0600 -5.8278 5.8036 4.3296 31.6860 -1.9503
# 6 12.0724 49.2898 4.9431 4.4543 -1.9503 47.9683
#
#
#
# Elastic Compliance Matrix: (Units=1/GPa)
#
#
# Indices 1 2 3 4 5 6 
#
# 1 0.019002 -0.002050 -0.002195 0.000864 -0.002089 -0.002615
# 2 -0.002050 0.011058 -0.002360 -0.005402 0.002787 -0.009989
# 3 -0.002195 -0.002360 0.007043 0.001938 -0.001654 0.002004
# 4 0.000864 -0.005402 0.001938 0.018332 -0.003735 0.003279
# 5 -0.002089 0.002787 -0.001654 -0.003735 0.033058 -0.000477
# 6 -0.002615 -0.009989 0.002004 0.003279 -0.000477 0.031239
#
#
# Mechanical properties :
#
#
# Convention : Reuss Voigt Hill
#
# Bulk Modulus (GPa) = 41.85283 63.84602 52.84943
# Shear Modulus (GPa) = 35.48481 48.95573 42.22027
#
# Velocity S-wave (km/s) = 3.66593 4.30591 3.99874
# Velocity P-wave (km/s) = 5.81115 6.99295 6.42926
#
# Compressibility (1/GPa) = 0.02389325
#
# Stress axis : x y z
#
# Youngs Moduli (GPa) = 52.62719 90.42922 141.98960
#
# Poissons Ratio (x) = 0.18538 0.31165
# Poissons Ratio (y) = 0.10788 0.33508
# Poissons Ratio (z) = 0.11551 0.21340
#
# Static dielectric constant tensor:
#      x y z
#    x 2.332600 -0.192840 -0.027030 
#    y -0.192840 2.570350 -0.037460 
#    z -0.027030 -0.037460 2.130910 
# 
# From -- ./inp_files/279461.got.cif
#   From: 2010.05.17/outbox.cif.g08.bks.cpg/sg2_140_cif.got.tgz:279461.got - 2010.06.03 11:33:40.
