data_PCOD9090421
_publ_section_title
;
Structure prediction by ZEFSAII (Michael W. Deem and Ramdas Pophale) SiO2 
 PCOD9090421
Probable space group: P -1
;
_chemical_formula_sum "Si O2"
_cell_formula_units_Z 14
_cell_length_a 10.252538
_cell_length_b 6.487464
_cell_length_c 12.074609
_cell_angle_alpha 51.019990
_cell_angle_beta 91.581504
_cell_angle_gamma 73.428127
_cell_volume 574.823206
_symmetry_space_group_name_H-M "P -1"
_symmetry_group_IT_number 2
_symmetry_cell_setting 'triclinic'
loop_
_space_group_symop_operation_xyz
x,y,z
-x,-y,-z
loop_
_atom_site_type_symbol
_atom_site_label
_atom_site_fract_x
_atom_site_fract_y
_atom_site_fract_z
Si Si1 0.781010 0.185284 0.187337
Si Si2 0.805906 0.190452 0.699582
Si Si3 0.813805 0.263606 0.926658
Si Si4 0.505991 0.716092 0.746928
Si Si5 0.603124 0.181132 0.516828
Si Si6 0.126631 0.256684 0.465324
Si Si7 0.017156 0.596583 0.798879
O O1 0.615492 0.274374 0.175649
O O2 0.832900 0.442634 0.131893
O O3 0.857974 0.938145 0.362325
O O4 0.826586 0.080838 0.099123
O O5 0.792825 0.154253 0.842918
O O6 0.667921 0.285079 0.586222
O O7 0.860035 0.447862 0.603437
O O8 0.912719 0.884610 0.761055
O O9 0.664241 0.531669 0.851288
O O10 0.944412 0.367508 0.890002
O O11 0.469963 0.620842 0.656918
O O12 0.503278 0.031527 0.614223
O O13 0.739297 0.927825 0.547478
O O14 0.991685 0.330858 0.356933
#
# Coordination Sequence:
#
# PCOD9090421 Si02
#       7
#     2   2   2   2   2   2   2
#     4  11  23  37  61  89 125 150 187 250 297 337
#     4  10  19  38  66  82 115 156 201 238 278 355
#     4  11  22  41  61  86 118 161 192 232 297 357
#     4  10  19  39  62  88 115 150 200 241 288 343
#     4   9  18  37  64  88 111 154 199 239 287 341
#     4   9  19  39  63  89 113 151 202 242 284 341
#     4  10  21  41  64  84 113 162 198 235 288 345
#
# _framework density 24.355315000000001
#
# number of rings (size 3 to 8) (size 9 to 14) (size 15 to 20)
#    0.000    2.000    4.286    1.286    0.000    1.714 
#    0.000    7.857    0.000    0.000    0.000    0.000 
#    0.000    0.000    0.000    0.000    0.000    0.000 
#
# Total GULP energy -78317.567061 kJ/mol
# GULP energy per Si atom -5594.111933 kJ/mol
# Density = 2.429988 g / cm^3
# Si number density = 24.355315 Si / 1000 Ang^3
#
#
#
# Elastic Constant Matrix: (Units=GPa)
#
#
# Indices 1 2 3 4 5 6 
#
# 1 120.2018 22.8710 33.8710 13.4300 -7.2609 10.1735
# 2 22.8710 99.3632 42.1159 27.3360 -8.0421 13.0479
# 3 33.8710 42.1159 143.0280 33.2441 -13.6363 6.2148
# 4 13.4300 27.3360 33.2441 26.3234 -1.7797 12.1489
# 5 -7.2609 -8.0421 -13.6363 -1.7797 34.7927 5.3660
# 6 10.1735 13.0479 6.2148 12.1489 5.3660 33.1389
#
#
#
# Elastic Compliance Matrix: (Units=1/GPa)
#
#
# Indices 1 2 3 4 5 6 
#
# 1 0.009273 -0.000866 -0.001520 -0.000823 0.001429 -0.002150
# 2 -0.000866 0.014489 -0.000760 -0.013081 0.002337 -0.000879
# 3 -0.001520 -0.000760 0.010788 -0.013380 0.002552 0.003235
# 4 -0.000823 -0.013081 -0.013380 0.078310 -0.001258 -0.020593
# 5 0.001429 0.002337 0.002552 -0.001258 0.031515 -0.006479
# 6 -0.002150 -0.000879 0.003235 -0.020593 -0.006479 0.039174
#
#
# Mechanical properties :
#
#
# Convention : Reuss Voigt Hill
#
# Bulk Modulus (GPa) = 35.38756 62.25652 48.82204
# Shear Modulus (GPa) = 25.09289 36.43334 30.76312
#
# Velocity S-wave (km/s) = 3.21329 3.87189 3.55786
# Velocity P-wave (km/s) = 5.32242 6.75322 6.08006
#
# Compressibility (1/GPa) = 0.02825852
#
# Stress axis : x y z
#
# Youngs Moduli (GPa) = 107.84412 69.01904 92.69515
#
# Poissons Ratio (x) = 0.05974 0.14089
# Poissons Ratio (y) = 0.09334 0.07044
# Poissons Ratio (z) = 0.16392 0.05245
#
# Static dielectric constant tensor:
#      x y z
#    x 1.989650 -0.017510 0.040840 
#    y -0.017510 1.968810 -0.001240 
#    z 0.040840 -0.001240 1.971590 
# 
# From -- ./inp_files/409859.got.cif
#   From: 2010.05.17/outbox.cif.g08.bks.cpg/sg2_205_cif.got.tgz:409859.got - 2010.06.03 11:33:40.
