data_PCOD9090934
_publ_section_title
;
Structure prediction by ZEFSAII (Michael W. Deem and Ramdas Pophale) SiO2 
 PCOD9090934
Probable space group: P -1
;
_chemical_formula_sum "Si O2"
_cell_formula_units_Z 14
_cell_length_a 9.282193
_cell_length_b 14.610184
_cell_length_c 10.112804
_cell_angle_alpha 58.408788
_cell_angle_beta 136.747188
_cell_angle_gamma 139.383490
_cell_volume 610.467855
_symmetry_space_group_name_H-M "P -1"
_symmetry_group_IT_number 2
_symmetry_cell_setting 'triclinic'
loop_
_space_group_symop_operation_xyz
x,y,z
-x,-y,-z
loop_
_atom_site_type_symbol
_atom_site_label
_atom_site_fract_x
_atom_site_fract_y
_atom_site_fract_z
Si Si1 0.872504 0.254638 0.212225
Si Si2 0.271016 0.513075 0.798240
Si Si3 0.310112 0.126902 0.971069
Si Si4 0.860872 0.299857 0.463429
Si Si5 0.142588 0.880007 0.211927
Si Si6 0.744126 0.967611 0.279583
Si Si7 0.107309 0.706342 0.090517
O O1 0.969859 0.292833 0.399595
O O2 0.745035 0.093679 0.221977
O O3 0.621779 0.256477 0.046490
O O4 0.019769 0.326122 0.117025
O O5 0.336402 0.660596 0.711016
O O6 0.120562 0.424222 0.631196
O O7 0.036177 0.434621 0.815710
O O8 0.500000 0.500000 0.000000
O O9 0.122428 0.162845 0.857380
O O10 0.199964 0.033539 0.836250
O O11 0.308119 0.038834 0.154204
O O12 0.725667 0.162792 0.568705
O O13 0.053162 0.789527 0.087387
O O14 0.442424 0.817922 0.222462
O O15 0.000000 0.000000 0.500000
#
# Coordination Sequence:
#
# PCOD9090934 Si02
#       7
#     2   2   2   2   2   2   2
#     4  11  21  40  63  99 135 172 215 283 330 413
#     4  10  24  50  70  93 131 178 226 292 334 381
#     4  10  20  36  64  95 142 183 213 259 346 400
#     4  10  24  41  67  98 130 168 238 273 327 402
#     4  10  19  39  61  96 131 178 223 263 323 400
#     4  11  21  40  61 100 145 177 214 274 336 408
#     4  10  21  43  67  93 134 177 222 265 342 394
#
# _framework density 22.933232
#
# number of rings (size 3 to 8) (size 9 to 14) (size 15 to 20)
#    0.000    1.714    2.857    1.714    4.000    1.143 
#   18.000    0.714    0.000    0.000    0.000    0.000 
#    0.000    0.000    0.000    0.000    0.000    0.000 
#
# Total GULP energy -78081.751946 kJ/mol
# GULP energy per Si atom -5577.267996 kJ/mol
# Density = 2.288103 g / cm^3
# Si number density = 22.933232 Si / 1000 Ang^3
#
#
#
# Elastic Constant Matrix: (Units=GPa)
#
#
# Indices 1 2 3 4 5 6 
#
# 1 131.2085 20.5192 58.3254 1.3901 -16.7851 -14.3941
# 2 20.5192 67.2862 33.7268 -14.4445 -9.0352 -7.0067
# 3 58.3254 33.7268 152.6009 -4.1076 -23.3181 -11.8247
# 4 1.3901 -14.4445 -4.1076 40.0261 -11.4544 -9.2534
# 5 -16.7851 -9.0352 -23.3181 -11.4544 57.3937 6.1499
# 6 -14.3941 -7.0067 -11.8247 -9.2534 6.1499 29.8956
#
#
#
# Elastic Compliance Matrix: (Units=1/GPa)
#
#
# Indices 1 2 3 4 5 6 
#
# 1 0.009595 -0.000930 -0.003063 0.000018 0.001101 0.002970
# 2 -0.000930 0.019354 -0.002867 0.008696 0.002802 0.005070
# 3 -0.003063 -0.002867 0.008821 0.000899 0.002293 0.001149
# 4 0.000018 0.008696 0.000899 0.032811 0.007099 0.011098
# 5 0.001101 0.002802 0.002293 0.007099 0.020528 0.000068
# 6 0.002970 0.005070 0.001149 0.011098 0.000068 0.039943
#
#
# Mechanical properties :
#
#
# Convention : Reuss Voigt Hill
#
# Bulk Modulus (GPa) = 41.57976 64.02650 52.80313
# Shear Modulus (GPa) = 32.72540 41.36470 37.04505
#
# Velocity S-wave (km/s) = 3.78165 4.25161 4.02349
# Velocity P-wave (km/s) = 6.10229 7.21670 6.68277
#
# Compressibility (1/GPa) = 0.02405016
#
# Stress axis : x y z
#
# Youngs Moduli (GPa) = 104.22317 51.67023 113.36661
#
# Poissons Ratio (x) = 0.04804 0.34723
# Poissons Ratio (y) = 0.09690 0.32501
# Poissons Ratio (z) = 0.31923 0.14813
#
# Static dielectric constant tensor:
#      x y z
#    x 1.862960 0.003120 -0.013790 
#    y 0.003120 1.939380 0.007550 
#    z -0.013790 0.007550 1.909010 
# 
# From -- ./inp_files/200435.got.cif
#   From: 2010.05.17/outbox.cif.g08.bks.cpg/sg2_101_cif.got.tgz:200435.got - 2010.06.03 11:33:40.
