data_PCOD9090504
_publ_section_title
;
Structure prediction by ZEFSAII (Michael W. Deem and Ramdas Pophale) SiO2 
 PCOD9090504
Probable space group: P -1
;
_chemical_formula_sum "Si O2"
_cell_formula_units_Z 16
_cell_length_a 26.066468
_cell_length_b 15.681501
_cell_length_c 19.137298
_cell_angle_alpha 28.375709
_cell_angle_beta 19.242727
_cell_angle_gamma 17.457161
_cell_volume 756.108442
_symmetry_space_group_name_H-M "P -1"
_symmetry_group_IT_number 2
_symmetry_cell_setting 'triclinic'
loop_
_space_group_symop_operation_xyz
x,y,z
-x,-y,-z
loop_
_atom_site_type_symbol
_atom_site_label
_atom_site_fract_x
_atom_site_fract_y
_atom_site_fract_z
Si Si1 0.107275 0.315951 0.098597
Si Si2 0.056632 0.185603 0.122118
Si Si3 0.967169 0.503804 0.456316
Si Si4 0.600525 0.717379 0.548254
Si Si5 0.438491 0.353940 0.200423
Si Si6 0.221023 0.945127 0.758382
Si Si7 0.523973 0.161613 0.741699
Si Si8 0.454349 0.505584 0.456785
O O1 0.153717 0.114874 0.127835
O O2 0.843686 0.515845 0.331464
O O3 0.316225 0.195708 0.970842
O O4 0.099612 0.496541 0.927575
O O5 0.851301 0.217006 0.352357
O O6 0.286492 0.982963 0.919040
O O7 0.000000 0.500000 0.500000
O O8 0.739982 0.577686 0.675296
O O9 0.216319 0.181441 0.338715
O O10 0.893346 0.760494 0.331354
O O11 0.669992 0.558820 0.645457
O O12 0.368311 0.836343 0.720259
O O13 0.500000 0.000000 0.500000
O O14 0.500000 0.500000 0.000000
O O15 0.433970 0.683933 0.619230
O O16 0.000000 0.000000 0.000000
O O17 0.542886 0.287954 0.561314
O O18 0.458765 0.367183 0.736773
#
# Coordination Sequence:
#
# PCOD9090504 Si02
#       8
#     2   2   2   2   2   2   2   2
#     4  10  20  38  69  95 128 179 225 275 335 407
#     4  10  19  38  66  95 128 173 230 270 336 410
#     4  12  24  45  68 104 144 179 232 288 347 413
#     4  12  24  46  69 101 135 179 238 285 343 417
#     4  12  27  43  72 102 138 181 230 291 348 411
#     4  12  27  44  71 101 141 184 228 292 355 410
#     4  10  22  37  69  97 138 179 229 280 340 413
#     4  10  21  40  63 102 134 179 231 283 334 417
#
# _framework density 21.160985
#
# number of rings (size 3 to 8) (size 9 to 14) (size 15 to 20)
#    0.000    1.000    5.000    1.500    5.250    1.000 
#    0.000    4.375    0.000    0.000    0.000    0.000 
#    0.000    0.000    0.000    0.000    0.000    0.000 
#
# Total GULP energy -89266.141951 kJ/mol
# GULP energy per Si atom -5579.133872 kJ/mol
# Density = 2.111282 g / cm^3
# Si number density = 21.160985 Si / 1000 Ang^3
#
#
#
# Elastic Constant Matrix: (Units=GPa)
#
#
# Indices 1 2 3 4 5 6 
#
# 1 98.0613 14.3357 29.3954 -7.6889 -12.4953 1.4461
# 2 14.3357 61.0393 10.7008 2.9628 -13.0055 4.4626
# 3 29.3954 10.7008 101.0882 3.0706 -21.8222 -8.8778
# 4 -7.6889 2.9628 3.0706 31.3139 -0.1061 -2.4497
# 5 -12.4953 -13.0055 -21.8222 -0.1061 37.7339 8.2250
# 6 1.4461 4.4626 -8.8778 -2.4497 8.2250 23.9601
#
#
#
# Elastic Compliance Matrix: (Units=1/GPa)
#
#
# Indices 1 2 3 4 5 6 
#
# 1 0.011935 -0.001872 -0.003121 0.003275 0.001915 -0.001851
# 2 -0.001872 0.018984 -0.000414 -0.002682 0.007043 -0.006268
# 3 -0.003121 -0.000414 0.012290 -0.001693 0.005311 0.002823
# 4 0.003275 -0.002682 -0.001693 0.033436 -0.001512 0.003612
# 5 0.001915 0.007043 0.005311 -0.001512 0.035178 -0.011690
# 6 -0.001851 -0.006268 0.002823 0.003612 -0.011690 0.048443
#
#
# Mechanical properties :
#
#
# Convention : Reuss Voigt Hill
#
# Bulk Modulus (GPa) = 30.86892 41.00585 35.93738
# Shear Modulus (GPa) = 27.49094 32.31870 29.90482
#
# Velocity S-wave (km/s) = 3.60826 3.91228 3.76334
# Velocity P-wave (km/s) = 5.65497 6.31094 5.99194
#
# Compressibility (1/GPa) = 0.03239505
#
# Stress axis : x y z
#
# Youngs Moduli (GPa) = 83.78704 52.67587 81.36948
#
# Poissons Ratio (x) = 0.09859 0.25397
# Poissons Ratio (y) = 0.15682 0.03369
# Poissons Ratio (z) = 0.26151 0.02181
#
# Static dielectric constant tensor:
#      x y z
#    x 1.870240 -0.109130 -0.011330 
#    y -0.109130 1.822560 -0.053760 
#    z -0.011330 -0.053760 1.762990 
# 
# From -- ./inp_files/579307.got.cif
#   From: 2010.05.17/outbox.cif.g08.bks.cpg/sg2_290_cif.got.tgz:579307.got - 2010.06.03 11:33:40.
