data_PCOD9090412
_publ_section_title
;
Structure prediction by ZEFSAII (Michael W. Deem and Ramdas Pophale) SiO2 
 PCOD9090412
Probable space group: P -1
;
_chemical_formula_sum "Si O2"
_cell_formula_units_Z 16
_cell_length_a 11.746662
_cell_length_b 13.484436
_cell_length_c 9.335617
_cell_angle_alpha 105.927692
_cell_angle_beta 76.458850
_cell_angle_gamma 148.258883
_cell_volume 748.069111
_symmetry_space_group_name_H-M "P -1"
_symmetry_group_IT_number 2
_symmetry_cell_setting 'triclinic'
loop_
_space_group_symop_operation_xyz
x,y,z
-x,-y,-z
loop_
_atom_site_type_symbol
_atom_site_label
_atom_site_fract_x
_atom_site_fract_y
_atom_site_fract_z
Si Si1 0.758909 0.758646 0.648936
Si Si2 0.064207 0.244437 0.662871
Si Si3 0.105088 0.278318 0.183759
Si Si4 0.857161 0.831484 0.144710
Si Si5 0.173763 0.554546 0.785947
Si Si6 0.782292 0.421397 0.876701
Si Si7 0.643371 0.880891 0.272901
Si Si8 0.418402 0.172443 0.389491
O O1 0.868587 0.784753 0.492210
O O2 0.717195 0.634970 0.722948
O O3 0.585394 0.711530 0.622528
O O4 0.939555 0.960672 0.757769
O O5 0.192404 0.299082 0.785436
O O6 0.106897 0.394341 0.679669
O O7 0.807663 0.043165 0.680791
O O8 0.162778 0.428853 0.154752
O O9 0.087632 0.180322 0.025051
O O10 0.872129 0.107292 0.264915
O O11 0.680929 0.790875 0.172116
O O12 0.383174 0.739603 0.705844
O O13 0.976476 0.487414 0.809429
O O14 0.230144 0.581794 0.948420
O O15 0.553353 0.217624 0.797357
O O16 0.588244 0.835565 0.439644
#
# Coordination Sequence:
#
# PCOD9090412 Si02
#       8
#     2   2   2   2   2   2   2   2
#     4  10  20  38  67 100 134 159 203 259 321 397
#     4  11  20  43  67  96 132 167 203 260 324 383
#     4  11  23  41  67  98 133 169 203 262 324 373
#     4  10  19  38  66 101 130 163 205 255 325 390
#     4  11  28  46  65  88 126 175 226 263 307 374
#     4  11  28  48  60  92 128 170 228 267 300 374
#     4  11  23  41  68  98 132 163 208 263 322 382
#     4  11  23  41  69  98 128 170 205 257 329 382
#
# _framework density 21.388397000000001
#
# number of rings (size 3 to 8) (size 9 to 14) (size 15 to 20)
#    0.000    1.250    5.000    2.250    7.000    3.500 
#    0.000    3.750    0.000    0.000    0.000    0.000 
#    0.000    0.000    0.000    0.000    0.000    0.000 
#
# Total GULP energy -89405.797057 kJ/mol
# GULP energy per Si atom -5587.862316 kJ/mol
# Density = 2.133972 g / cm^3
# Si number density = 21.388397 Si / 1000 Ang^3
#
#
#
# Elastic Constant Matrix: (Units=GPa)
#
#
# Indices 1 2 3 4 5 6 
#
# 1 49.2690 21.1273 21.3540 -0.4484 11.7238 17.1811
# 2 21.1273 67.1844 22.1312 -10.2953 -2.1585 15.3066
# 3 21.3540 22.1312 94.1734 -23.2958 5.0741 14.8319
# 4 -0.4484 -10.2953 -23.2958 22.2654 2.5395 0.2517
# 5 11.7238 -2.1585 5.0741 2.5395 34.6834 -1.9951
# 6 17.1811 15.3066 14.8319 0.2517 -1.9951 34.1441
#
#
#
# Elastic Compliance Matrix: (Units=1/GPa)
#
#
# Indices 1 2 3 4 5 6 
#
# 1 0.031880 -0.007190 -0.004727 -0.006277 -0.010725 -0.011346
# 2 -0.007190 0.019765 -0.000291 0.008428 0.002797 -0.005015
# 3 -0.004727 -0.000291 0.017208 0.018127 -0.002567 -0.005250
# 4 -0.006277 0.008428 0.018127 0.068388 -0.005549 -0.009322
# 5 -0.010725 0.002797 -0.002567 -0.005549 0.033832 0.007276
# 6 -0.011346 -0.005015 -0.005250 -0.009322 0.007276 0.040019
#
#
# Mechanical properties :
#
#
# Convention : Reuss Voigt Hill
#
# Bulk Modulus (GPa) = 22.50304 37.76131 30.13218
# Shear Modulus (GPa) = 19.97443 27.95285 23.96364
#
# Velocity S-wave (km/s) = 3.05928 3.61905 3.35087
# Velocity P-wave (km/s) = 4.79822 5.92931 5.39350
#
# Compressibility (1/GPa) = 0.04443844
#
# Stress axis : x y z
#
# Youngs Moduli (GPa) = 31.36756 50.59447 58.11206
#
# Poissons Ratio (x) = 0.36375 0.27471
# Poissons Ratio (y) = 0.22552 0.01689
# Poissons Ratio (z) = 0.14828 0.01470
#
# Static dielectric constant tensor:
#      x y z
#    x 1.782070 -0.027840 0.036950 
#    y -0.027840 1.836470 -0.016720 
#    z 0.036950 -0.016720 1.764700 
# 
# From -- ./inp_files/273699.got.cif
#   From: 2010.05.17/outbox.cif.g08.bks.cpg/sg2_137_cif.got.tgz:273699.got - 2010.06.03 11:33:40.
