data_PCOD9090759
_publ_section_title
;
Structure prediction by ZEFSAII (Michael W. Deem and Ramdas Pophale) SiO2 
 PCOD9090759
Probable space group: P -1
;
_chemical_formula_sum "Si O2"
_cell_formula_units_Z 16
_cell_length_a 13.441053
_cell_length_b 12.330038
_cell_length_c 9.143449
_cell_angle_alpha 119.740422
_cell_angle_beta 125.681404
_cell_angle_gamma 33.209647
_cell_volume 674.038077
_symmetry_space_group_name_H-M "P -1"
_symmetry_group_IT_number 2
_symmetry_cell_setting 'triclinic'
loop_
_space_group_symop_operation_xyz
x,y,z
-x,-y,-z
loop_
_atom_site_type_symbol
_atom_site_label
_atom_site_fract_x
_atom_site_fract_y
_atom_site_fract_z
Si Si1 0.086662 0.330199 0.071414
Si Si2 0.138892 0.563716 0.792878
Si Si3 0.737572 0.468137 0.833537
Si Si4 0.560956 0.668409 0.345654
Si Si5 0.132374 0.992882 0.195683
Si Si6 0.168516 0.007924 0.568904
Si Si7 0.538156 0.844449 0.741224
Si Si8 0.724394 0.330919 0.452545
O O1 0.318848 0.150361 0.142572
O O2 0.986092 0.433467 0.213244
O O3 0.000000 0.500000 0.000000
O O4 0.974042 0.292576 0.908793
O O5 0.275071 0.414415 0.679602
O O6 0.980869 0.787275 0.753703
O O7 0.281064 0.523732 0.003566
O O8 0.637946 0.674778 0.832389
O O9 0.666189 0.426286 0.627656
O O10 0.560788 0.757801 0.546889
O O11 0.609593 0.492198 0.334175
O O12 0.346189 0.836399 0.206886
O O13 0.169780 0.939399 0.364104
O O14 0.000000 0.000000 0.000000
O O15 0.308945 0.017504 0.692339
O O16 0.254748 0.834770 0.636690
O O17 0.944438 0.207886 0.539243
#
# Coordination Sequence:
#
# PCOD9090759 Si02
#       8
#     2   2   2   2   2   2   2   2
#     4   8  17  37  60  85 115 154 196 242 292 341
#     4  10  20  39  60  87 121 150 197 240 295 348
#     4   8  18  34  59  80 116 151 191 239 294 333
#     4  10  22  38  61  85 118 157 195 235 306 344
#     4  11  23  39  57  89 126 153 193 244 294 353
#     4  10  21  35  59  86 117 155 203 239 289 351
#     4   9  18  37  60  84 113 154 199 242 283 351
#     4  10  19  39  58  84 117 158 198 242 286 353
#
# _framework density 23.73753
#
# number of rings (size 3 to 8) (size 9 to 14) (size 15 to 20)
#    0.750    1.750    1.250    0.750    0.000    6.500 
#    6.750    3.125    8.250    0.000    0.000    0.000 
#    0.000    0.000    0.000    0.000    0.000    0.000 
#
# Total GULP energy -89171.962052 kJ/mol
# GULP energy per Si atom -5573.247628 kJ/mol
# Density = 2.368350 g / cm^3
# Si number density = 23.737530 Si / 1000 Ang^3
#
#
#
# Elastic Constant Matrix: (Units=GPa)
#
#
# Indices 1 2 3 4 5 6 
#
# 1 65.0209 3.1326 32.2020 -9.1144 -2.6082 -21.2792
# 2 3.1326 50.0410 10.7670 -11.5749 1.8381 -19.4636
# 3 32.2020 10.7670 63.2194 -17.4204 15.7418 -17.3948
# 4 -9.1144 -11.5749 -17.4204 19.7907 -15.2595 7.0708
# 5 -2.6082 1.8381 15.7418 -15.2595 40.2667 -8.0439
# 6 -21.2792 -19.4636 -17.3948 7.0708 -8.0439 22.2257
#
#
#
# Elastic Compliance Matrix: (Units=1/GPa)
#
#
# Indices 1 2 3 4 5 6 
#
# 1 0.043417 0.028062 -0.009670 0.028043 0.027873 0.059741
# 2 0.028062 0.055284 0.000765 0.042821 0.029815 0.073046
# 3 -0.009670 0.000765 0.027560 0.014216 -0.004698 0.006759
# 4 0.028043 0.042821 0.014216 0.120521 0.051089 0.055623
# 5 0.027873 0.029815 -0.004698 0.051089 0.057175 0.053559
# 6 0.059741 0.073046 0.006759 0.055623 0.053559 0.173136
#
#
# Mechanical properties :
#
#
# Convention : Reuss Voigt Hill
#
# Bulk Modulus (GPa) = 6.07626 30.05384 18.06505
# Shear Modulus (GPa) = 10.12889 25.26860 17.69874
#
# Velocity S-wave (km/s) = 2.06792 3.26621 2.73353
# Velocity P-wave (km/s) = 2.87525 5.18773 4.19402
#
# Compressibility (1/GPa) = 0.16457494
#
# Stress axis : x y z
#
# Youngs Moduli (GPa) = 23.03241 18.08854 36.28458
#
# Poissons Ratio (x) = -0.50760 0.35087
# Poissons Ratio (y) = -0.64633 -0.02776
# Poissons Ratio (z) = 0.22272 -0.01384
#
# Static dielectric constant tensor:
#      x y z
#    x 1.988760 -0.049700 0.025720 
#    y -0.049700 1.923330 0.022650 
#    z 0.025720 0.022650 1.966310 
# 
# From -- ./inp_files/313739.got.cif
#   From: 2010.05.17/outbox.cif.g08.bks.cpg/sg2_157_cif.got.tgz:313739.got - 2010.06.03 11:33:40.
