data_PCOD9090400
_publ_section_title
;
Structure prediction by ZEFSAII (Michael W. Deem and Ramdas Pophale) SiO2 
 PCOD9090400
Probable space group: P -1
;
_chemical_formula_sum "Si O2"
_cell_formula_units_Z 14
_cell_length_a 15.587631
_cell_length_b 10.746577
_cell_length_c 8.551914
_cell_angle_alpha 122.281931
_cell_angle_beta 82.059643
_cell_angle_gamma 141.016723
_cell_volume 650.405846
_symmetry_space_group_name_H-M "P -1"
_symmetry_group_IT_number 2
_symmetry_cell_setting 'triclinic'
loop_
_space_group_symop_operation_xyz
x,y,z
-x,-y,-z
loop_
_atom_site_type_symbol
_atom_site_label
_atom_site_fract_x
_atom_site_fract_y
_atom_site_fract_z
Si Si1 0.573208 0.909454 0.652217
Si Si2 0.793769 0.538626 0.547982
Si Si3 0.644778 0.707311 0.476280
Si Si4 0.355644 0.905182 0.914309
Si Si5 0.536182 0.392532 0.993043
Si Si6 0.263070 0.572127 0.164183
Si Si7 0.973588 0.047110 0.700807
O O1 0.619610 0.128599 0.709062
O O2 0.381933 0.635465 0.538064
O O3 0.631482 0.851450 0.504546
O O4 0.665869 0.037447 0.881182
O O5 0.781764 0.395012 0.322827
O O6 0.802514 0.493687 0.691315
O O7 0.930829 0.852757 0.698038
O O8 0.500000 0.500000 0.500000
O O9 0.623372 0.557020 0.245109
O O10 0.816571 0.922965 0.649703
O O11 0.500000 0.000000 0.000000
O O12 0.404049 0.088612 0.888430
O O13 0.500000 0.500000 0.000000
O O14 0.876772 0.646055 0.073248
O O15 0.357171 0.552238 0.113410
O O16 0.000000 0.000000 0.500000
#
# Coordination Sequence:
#
# PCOD9090400 Si02
#       7
#     2   2   2   2   2   2   2
#     4  11  22  40  73  97 131 177 240 277 334 408
#     4  11  22  40  68  98 134 180 225 277 338 415
#     4  12  23  43  70 101 131 177 235 283 329 411
#     4  10  19  38  65  98 131 179 229 276 327 405
#     4  12  24  38  67 107 138 170 231 292 335 394
#     4  12  25  42  66 102 141 180 224 285 354 403
#     4  12  25  45  69  97 139 185 225 279 350 413
#
# _framework density 21.525023000000001
#
# number of rings (size 3 to 8) (size 9 to 14) (size 15 to 20)
#    0.000    0.571    7.143    3.429    2.000    0.571 
#    0.000    0.000    0.000    2.571    0.000    0.000 
#    0.000    0.000    0.000    0.000    0.000    0.000 
#
# Total GULP energy -78166.977659 kJ/mol
# GULP energy per Si atom -5583.355547 kJ/mol
# Density = 2.147603 g / cm^3
# Si number density = 21.525023 Si / 1000 Ang^3
#
#
#
# Elastic Constant Matrix: (Units=GPa)
#
#
# Indices 1 2 3 4 5 6 
#
# 1 78.3498 17.4877 -0.7531 11.7865 -5.7488 -9.4250
# 2 17.4877 67.5916 -9.0783 -3.4923 -3.0112 -17.1162
# 3 -0.7531 -9.0783 78.6361 -3.3654 -9.9684 2.6334
# 4 11.7865 -3.4923 -3.3654 37.1368 -9.0454 -4.1618
# 5 -5.7488 -3.0112 -9.9684 -9.0454 28.5453 0.9168
# 6 -9.4250 -17.1162 2.6334 -4.1618 0.9168 26.9953
#
#
#
# Elastic Compliance Matrix: (Units=1/GPa)
#
#
# Indices 1 2 3 4 5 6 
#
# 1 0.014540 -0.003451 -0.000409 -0.004504 0.000923 0.002203
# 2 -0.003451 0.019373 0.002491 0.005294 0.003526 0.011532
# 3 -0.000409 0.002491 0.013884 0.003126 0.006008 0.000360
# 4 -0.004504 0.005294 0.003126 0.032462 0.010833 0.006116
# 5 0.000923 0.003526 0.006008 0.010833 0.041048 0.002248
# 6 0.002203 0.011532 0.000360 0.006116 0.002248 0.045956
#
#
# Mechanical properties :
#
#
# Convention : Reuss Voigt Hill
#
# Bulk Modulus (GPa) = 22.19274 26.65445 24.42360
# Shear Modulus (GPa) = 27.02427 32.99691 30.01059
#
# Velocity S-wave (km/s) = 3.54712 3.91955 3.73797
# Velocity P-wave (km/s) = 5.20660 5.73530 5.47733
#
# Compressibility (1/GPa) = 0.04505978
#
# Stress axis : x y z
#
# Youngs Moduli (GPa) = 68.77651 51.61873 72.02673
#
# Poissons Ratio (x) = 0.17811 0.02943
# Poissons Ratio (y) = 0.23731 -0.17940
# Poissons Ratio (z) = 0.02810 -0.12857
#
# Static dielectric constant tensor:
#      x y z
#    x 1.796850 -0.048410 0.004450 
#    y -0.048410 1.817320 -0.024000 
#    z 0.004450 -0.024000 1.806790 
# 
# From -- ./inp_files/296091.got.cif
#   From: 2010.05.17/outbox.cif.g08.bks.cpg/sg2_149_cif.got.tgz:296091.got - 2010.06.03 11:33:40.
