data_PCOD9090447
_publ_section_title
;
Structure prediction by ZEFSAII (Michael W. Deem and Ramdas Pophale) SiO2 
 PCOD9090447
Probable space group: P -1
;
_chemical_formula_sum "Si O2"
_cell_formula_units_Z 16
_cell_length_a 8.222842
_cell_length_b 7.246032
_cell_length_c 15.946707
_cell_angle_alpha 110.977938
_cell_angle_beta 54.437337
_cell_angle_gamma 126.898036
_cell_volume 618.059143
_symmetry_space_group_name_H-M "P -1"
_symmetry_group_IT_number 2
_symmetry_cell_setting 'triclinic'
loop_
_space_group_symop_operation_xyz
x,y,z
-x,-y,-z
loop_
_atom_site_type_symbol
_atom_site_label
_atom_site_fract_x
_atom_site_fract_y
_atom_site_fract_z
Si Si1 0.837363 0.603192 0.981116
Si Si2 0.642328 0.906862 0.815746
Si Si3 0.922933 0.655646 0.161582
Si Si4 0.648066 0.444379 0.751663
Si Si5 0.120951 0.556736 0.565950
Si Si6 0.573041 0.814328 0.050962
Si Si7 0.984326 0.903518 0.397767
Si Si8 0.395275 0.221986 0.628281
O O1 0.878574 0.655749 0.075754
O O2 0.802616 0.796529 0.978537
O O3 0.597633 0.357409 0.996910
O O4 0.021117 0.546492 0.876357
O O5 0.432443 0.952748 0.904206
O O6 0.849739 0.094252 0.844445
O O7 0.764012 0.999304 0.703599
O O8 0.599854 0.653341 0.791162
O O9 0.724648 0.631271 0.280540
O O10 0.556295 0.319489 0.846701
O O11 0.516848 0.245763 0.686713
O O12 0.927182 0.575401 0.680096
O O13 0.128533 0.361807 0.587724
O O14 0.392688 0.717823 0.488129
O O15 0.000000 0.500000 0.500000
O O16 0.827969 0.957395 0.390347
O O17 0.000000 0.000000 0.500000
#
# Coordination Sequence:
#
# PCOD9090447 Si02
#       8
#     2   2   2   2   2   2   2   2
#     4   9  18  35  64  88 119 163 204 256 312 359
#     4  10  22  38  62  89 124 162 202 255 302 362
#     4   9  18  37  61  90 123 160 207 255 307 363
#     4  11  21  41  62  92 129 161 205 253 303 364
#     4  10  21  37  59  90 125 163 202 247 302 368
#     4  10  19  38  66  90 119 164 204 250 315 361
#     4  11  21  39  61  89 126 162 207 253 298 367
#     4  10  21  37  64  89 124 169 200 249 315 361
#
# _framework density 25.887492999999999
#
# number of rings (size 3 to 8) (size 9 to 14) (size 15 to 20)
#    0.000    2.000    2.500    1.875    0.000    0.000 
#    0.000   18.750    2.750    0.000    0.000    0.000 
#    0.000    0.000    0.000    0.000    0.000    0.000 
#
# Total GULP energy -89201.756661 kJ/mol
# GULP energy per Si atom -5575.109791 kJ/mol
# Density = 2.582857 g / cm^3
# Si number density = 25.887493 Si / 1000 Ang^3
#
#
#
# Elastic Constant Matrix: (Units=GPa)
#
#
# Indices 1 2 3 4 5 6 
#
# 1 101.7723 31.7405 25.5962 15.1928 -2.1293 4.2899
# 2 31.7405 73.0875 -5.7752 9.0333 9.8469 7.5800
# 3 25.5962 -5.7752 87.4902 13.3071 3.5201 8.6977
# 4 15.1928 9.0333 13.3071 30.7449 3.8915 8.6125
# 5 -2.1293 9.8469 3.5201 3.8915 70.3357 4.7223
# 6 4.2899 7.5800 8.6977 8.6125 4.7223 38.1937
#
#
#
# Elastic Compliance Matrix: (Units=1/GPa)
#
#
# Indices 1 2 3 4 5 6 
#
# 1 0.013165 -0.005907 -0.003871 -0.003626 0.001539 0.001203
# 2 -0.005907 0.017491 0.003668 -0.002732 -0.002477 -0.002721
# 3 -0.003871 0.003668 0.013733 -0.004340 -0.000922 -0.002328
# 4 -0.003626 -0.002732 -0.004340 0.039034 -0.001219 -0.006713
# 5 0.001539 -0.002477 -0.000922 -0.001219 0.014793 -0.001026
# 6 0.001203 -0.002721 -0.002328 -0.006713 -0.001026 0.028758
#
#
# Mechanical properties :
#
#
# Convention : Reuss Voigt Hill
#
# Bulk Modulus (GPa) = 31.08578 40.60811 35.84694
# Shear Modulus (GPa) = 33.35195 41.90744 37.62970
#
# Velocity S-wave (km/s) = 3.59324 4.02783 3.81673
# Velocity P-wave (km/s) = 5.40826 6.11160 5.77066
#
# Compressibility (1/GPa) = 0.03216905
#
# Stress axis : x y z
#
# Youngs Moduli (GPa) = 75.96166 57.17230 72.81617
#
# Poissons Ratio (x) = 0.33771 0.28189
# Poissons Ratio (y) = 0.44870 -0.26712
# Poissons Ratio (z) = 0.29407 -0.20973
#
# Static dielectric constant tensor:
#      x y z
#    x 2.119240 0.053950 -0.075920 
#    y 0.053950 2.114690 0.028150 
#    z -0.075920 0.028150 1.950250 
# 
# From -- ./inp_files/557436.got.cif
#   From: 2010.05.17/outbox.cif.g08.bks.cpg/sg2_279_cif.got.tgz:557436.got - 2010.06.03 11:33:40.
