data_PCOD9090986
_publ_section_title
;
Structure prediction by ZEFSAII (Michael W. Deem and Ramdas Pophale) SiO2 
 PCOD9090986
Probable space group: P -1
;
_chemical_formula_sum "Si O2"
_cell_formula_units_Z 16
_cell_length_a 15.273147
_cell_length_b 18.841225
_cell_length_c 15.577713
_cell_angle_alpha 24.788746
_cell_angle_beta 136.616942
_cell_angle_gamma 151.451063
_cell_volume 840.462525
_symmetry_space_group_name_H-M "P -1"
_symmetry_group_IT_number 2
_symmetry_cell_setting 'triclinic'
loop_
_space_group_symop_operation_xyz
x,y,z
-x,-y,-z
loop_
_atom_site_type_symbol
_atom_site_label
_atom_site_fract_x
_atom_site_fract_y
_atom_site_fract_z
Si Si1 0.819736 0.613807 0.269383
Si Si2 0.175161 0.725217 0.816447
Si Si3 0.752528 0.124438 0.478009
Si Si4 0.409128 0.292332 0.409310
Si Si5 0.324759 0.825829 0.453840
Si Si6 0.396779 0.405126 0.622297
Si Si7 0.984237 0.060816 0.776609
Si Si8 0.532943 0.287093 0.982365
O O1 0.605499 0.471696 0.295890
O O2 0.790938 0.394961 0.457138
O O3 0.941435 0.761380 0.281207
O O4 0.912839 0.814173 0.038187
O O5 0.123873 0.683088 0.725390
O O6 0.262248 0.996904 0.603914
O O7 0.336982 0.740496 0.921976
O O8 0.000000 0.500000 0.000000
O O9 0.781310 0.255741 0.442146
O O10 0.813218 0.993746 0.683375
O O11 0.526149 0.926224 0.508079
O O12 0.481662 0.347477 0.499255
O O13 0.346982 0.427426 0.211440
O O14 0.391135 0.072175 0.190941
O O15 0.500000 0.500000 0.500000
O O16 0.169332 0.225595 0.664185
O O17 0.418636 0.250700 0.860143
#
# Coordination Sequence:
#
# PCOD9090986 Si02
#       8
#     2   2   2   2   2   2   2   2
#     4  10  19  39  62  89 126 161 202 244 321 369
#     4  11  23  42  62  90 121 164 213 247 302 372
#     4  10  22  38  58  91 128 153 207 262 295 365
#     4   9  19  40  64  86 117 169 197 245 319 357
#     4  10  20  40  60  91 125 165 199 250 323 368
#     4   9  21  41  62  86 123 162 211 248 304 366
#     4  10  22  37  60  95 121 159 211 259 295 373
#     4   9  20  39  66  83 123 162 203 254 310 362
#
# _framework density 19.037137000000001
#
# number of rings (size 3 to 8) (size 9 to 14) (size 15 to 20)
#    0.750    1.500    2.500    0.750    3.500    1.500 
#    9.000    0.625    0.000    0.000    0.000    0.000 
#    0.000    0.000    0.000    0.000    0.000    0.000 
#
# Total GULP energy -89121.632637 kJ/mol
# GULP energy per Si atom -5570.102040 kJ/mol
# Density = 1.899381 g / cm^3
# Si number density = 19.037137 Si / 1000 Ang^3
#
#
#
# Elastic Constant Matrix: (Units=GPa)
#
#
# Indices 1 2 3 4 5 6 
#
# 1 122.3118 14.0435 50.2660 -6.3372 -22.9291 -2.0704
# 2 14.0435 28.5847 37.0363 10.5713 -5.8475 7.9565
# 3 50.2660 37.0363 106.0414 -2.3869 2.3111 -0.1608
# 4 -6.3372 10.5713 -2.3869 31.8658 -2.1025 4.0079
# 5 -22.9291 -5.8475 2.3111 -2.1025 41.1987 -2.1492
# 6 -2.0704 7.9565 -0.1608 4.0079 -2.1492 15.4120
#
#
#
# Elastic Compliance Matrix: (Units=1/GPa)
#
#
# Indices 1 2 3 4 5 6 
#
# 1 0.012400 0.006360 -0.008272 0.000363 0.008253 -0.000647
# 2 0.006360 0.127884 -0.049020 -0.036817 0.019779 -0.053344
# 3 -0.008272 -0.049020 0.031064 0.013748 -0.011594 0.019328
# 4 0.000363 -0.036817 0.013748 0.043553 -0.003185 0.007429
# 5 0.008253 0.019779 -0.011594 -0.003185 0.031955 -0.003939
# 6 -0.000647 -0.053344 0.019328 0.007429 -0.003939 0.090057
#
#
# Mechanical properties :
#
#
# Convention : Reuss Voigt Hill
#
# Bulk Modulus (GPa) = 14.39208 51.06996 32.73102
# Shear Modulus (GPa) = 10.82396 28.06811 19.44604
#
# Velocity S-wave (km/s) = 2.38706 3.84394 3.19953
# Velocity P-wave (km/s) = 3.89536 6.82539 5.55696
#
# Compressibility (1/GPa) = 0.06948267
#
# Stress axis : x y z
#
# Youngs Moduli (GPa) = 80.64570 7.81960 32.19195
#
# Poissons Ratio (x) = -0.04973 0.26628
# Poissons Ratio (y) = -0.51288 1.57806
# Poissons Ratio (z) = 0.66708 0.38332
#
# Static dielectric constant tensor:
#      x y z
#    x 1.691140 0.013770 0.017270 
#    y 0.013770 1.679000 0.012500 
#    z 0.017270 0.012500 1.648250 
# 
# From -- ./inp_files/574304.got.cif
#   From: 2010.05.17/outbox.cif.g08.bks.cpg/sg2_288_cif.got.tgz:574304.got - 2010.06.03 11:33:40.
