data_PCOD9090260
_publ_section_title
;
Structure prediction by ZEFSAII (Michael W. Deem and Ramdas Pophale) SiO2 
 PCOD9090260
Probable space group: P -1
;
_chemical_formula_sum "Si O2"
_cell_formula_units_Z 14
_cell_length_a 11.680337
_cell_length_b 14.558200
_cell_length_c 6.446051
_cell_angle_alpha 108.464006
_cell_angle_beta 121.907501
_cell_angle_gamma 39.712042
_cell_volume 586.300713
_symmetry_space_group_name_H-M "P -1"
_symmetry_group_IT_number 2
_symmetry_cell_setting 'triclinic'
loop_
_space_group_symop_operation_xyz
x,y,z
-x,-y,-z
loop_
_atom_site_type_symbol
_atom_site_label
_atom_site_fract_x
_atom_site_fract_y
_atom_site_fract_z
Si Si1 0.874407 0.311371 0.243651
Si Si2 0.885633 0.889143 0.012869
Si Si3 0.006497 0.399610 0.739740
Si Si4 0.292016 0.665262 0.486058
Si Si5 0.394645 0.121742 0.160511
Si Si6 0.634346 0.157682 0.267522
Si Si7 0.228754 0.462660 0.989013
O O1 0.729879 0.339908 0.292688
O O2 0.771535 0.438970 0.070794
O O3 0.003451 0.320027 0.505719
O O4 0.004089 0.161304 0.138821
O O5 0.074544 0.752098 0.240354
O O6 0.786710 0.025590 0.156396
O O7 0.710892 0.901272 0.810041
O O8 0.049971 0.485119 0.766069
O O9 0.196276 0.276791 0.982215
O O10 0.810334 0.502693 0.775781
O O11 0.500000 0.500000 0.500000
O O12 0.298017 0.776943 0.525509
O O13 0.555874 0.122262 0.339926
O O14 0.500000 0.000000 0.000000
O O15 0.438744 0.294519 0.043499
#
# Coordination Sequence:
#
# PCOD9090260 Si02
#       7
#     2   2   2   2   2   2   2
#     4  12  22  39  68  94 131 167 223 267 324 385
#     4  11  23  44  68  95 130 171 219 274 324 386
#     4  10  19  38  64  95 130 169 213 268 322 376
#     4  12  26  45  67  95 128 179 219 267 331 387
#     4   9  18  39  67  92 128 169 209 262 325 380
#     4  10  23  42  67  93 133 176 213 265 333 386
#     4  10  21  39  64  95 130 168 217 267 319 381
#
# _framework density 23.878533000000001
#
# number of rings (size 3 to 8) (size 9 to 14) (size 15 to 20)
#    0.000    1.429    2.857    2.571    0.000    2.857 
#    2.571    9.286    0.000    0.000    0.000    0.000 
#    0.000    0.000    0.000    0.000    0.000    0.000 
#
# Total GULP energy -78024.515939 kJ/mol
# GULP energy per Si atom -5573.179710 kJ/mol
# Density = 2.382418 g / cm^3
# Si number density = 23.878533 Si / 1000 Ang^3
#
#
#
# Elastic Constant Matrix: (Units=GPa)
#
#
# Indices 1 2 3 4 5 6 
#
# 1 116.0838 26.3327 10.4998 15.1650 4.4811 -11.9987
# 2 26.3327 150.7630 25.7831 34.3767 -10.1190 -30.1946
# 3 10.4998 25.7831 54.2843 21.2663 -3.9153 -18.6899
# 4 15.1650 34.3767 21.2663 29.8652 0.2923 -4.5517
# 5 4.4811 -10.1190 -3.9153 0.2923 37.4848 17.0213
# 6 -11.9987 -30.1946 -18.6899 -4.5517 17.0213 39.4489
#
#
#
# Elastic Compliance Matrix: (Units=1/GPa)
#
#
# Indices 1 2 3 4 5 6 
#
# 1 0.009734 -0.000123 0.001433 -0.005150 -0.002919 0.004210
# 2 -0.000123 0.010777 0.002842 -0.013108 -0.000411 0.008222
# 3 0.001433 0.002842 0.031511 -0.023937 -0.003279 0.016193
# 4 -0.005150 -0.013108 -0.023937 0.065796 0.001285 -0.015903
# 5 -0.002919 -0.000411 -0.003279 0.001285 0.034508 -0.017497
# 6 0.004210 0.008222 0.016193 -0.015903 -0.017497 0.046309
#
#
# Mechanical properties :
#
#
# Convention : Reuss Voigt Hill
#
# Bulk Modulus (GPa) = 16.57747 49.59581 33.08664
# Shear Modulus (GPa) = 23.75978 38.59416 31.17697
#
# Velocity S-wave (km/s) = 3.15783 4.02465 3.61730
# Velocity P-wave (km/s) = 4.50037 6.51246 5.59757
#
# Compressibility (1/GPa) = 0.06032284
#
# Stress axis : x y z
#
# Youngs Moduli (GPa) = 102.73754 92.79397 31.73526
#
# Poissons Ratio (x) = 0.01146 -0.04546
# Poissons Ratio (y) = 0.01269 -0.09019
# Poissons Ratio (z) = -0.14718 -0.26371
#
# Static dielectric constant tensor:
#      x y z
#    x 2.093800 0.007030 0.032030 
#    y 0.007030 1.990790 0.086000 
#    z 0.032030 0.086000 2.050590 
# 
# From -- ./inp_files/78461.got.cif
#   From: 2010.05.17/outbox.cif.g08.bks.cpg/sg2_40_cif.got.tgz:78461.got - 2010.06.03 11:33:40.
