data_PCOD9090009
_publ_section_title
;
Structure prediction by ZEFSAII (Michael W. Deem and Ramdas Pophale) SiO2 
 PCOD9090009
Probable space group: P -1
;
_chemical_formula_sum "Si O2"
_cell_formula_units_Z 16
_cell_length_a 11.845781
_cell_length_b 17.230548
_cell_length_c 8.684624
_cell_angle_alpha 30.474355
_cell_angle_beta 124.429949
_cell_angle_gamma 130.704198
_cell_volume 681.482905
_symmetry_space_group_name_H-M "P -1"
_symmetry_group_IT_number 2
_symmetry_cell_setting 'triclinic'
loop_
_space_group_symop_operation_xyz
x,y,z
-x,-y,-z
loop_
_atom_site_type_symbol
_atom_site_label
_atom_site_fract_x
_atom_site_fract_y
_atom_site_fract_z
Si Si1 0.753469 0.179292 0.822424
Si Si2 0.885756 0.750268 0.595887
Si Si3 0.580313 0.387763 0.420348
Si Si4 0.578402 0.689941 0.283533
Si Si5 0.287185 0.134420 0.532915
Si Si6 0.004120 0.751379 0.368247
Si Si7 0.270611 0.220493 0.046233
Si Si8 0.026174 0.580242 0.210230
O O1 0.671491 0.305386 0.533250
O O2 0.846525 0.189063 0.721300
O O3 0.855206 0.242302 0.947632
O O4 0.660053 0.990250 0.119503
O O5 0.732494 0.705120 0.458252
O O6 0.865170 0.880426 0.476317
O O7 0.007718 0.791648 0.483159
O O8 0.903449 0.613471 0.957405
O O9 0.540055 0.295316 0.713886
O O10 0.415682 0.321258 0.333586
O O11 0.663899 0.583768 0.182671
O O12 0.500000 0.500000 0.500000
O O13 0.626660 0.795480 0.985580
O O14 0.266819 0.111572 0.376024
O O15 0.891333 0.816031 0.085592
O O16 0.932956 0.549943 0.636088
O O17 0.000000 0.500000 0.500000
#
# Coordination Sequence:
#
# PCOD9090009 Si02
#       8
#     2   2   2   2   2   2   2   2
#     4  11  23  38  58  84 127 159 187 245 302 352
#     4  10  21  36  60  87 118 153 201 243 289 350
#     4  10  20  39  60  81 118 158 200 240 292 353
#     4   8  18  37  60  87 114 152 196 250 287 337
#     4  11  23  37  58  90 117 156 203 240 296 350
#     4  10  21  38  60  86 116 155 195 245 295 348
#     4  10  19  38  63  87 113 152 201 251 287 345
#     4  10  20  37  58  85 119 151 195 243 293 345
#
# _framework density 23.478211000000002
#
# number of rings (size 3 to 8) (size 9 to 14) (size 15 to 20)
#    0.000    2.000    1.250    2.625    1.750    2.500 
#    0.000    3.125    0.000    0.000    0.000    0.000 
#    0.000    0.000    0.000    0.000    0.000    0.000 
#
# Total GULP energy -89127.063414 kJ/mol
# GULP energy per Si atom -5570.441463 kJ/mol
# Density = 2.342477 g / cm^3
# Si number density = 23.478211 Si / 1000 Ang^3
#
#
#
# Elastic Constant Matrix: (Units=GPa)
#
#
# Indices 1 2 3 4 5 6 
#
# 1 136.8932 12.0020 36.4813 19.2837 -22.4502 -28.7956
# 2 12.0020 58.3430 18.8636 4.5558 -17.9191 -8.9697
# 3 36.4813 18.8636 82.3543 8.2714 -22.1855 -11.1278
# 4 19.2837 4.5558 8.2714 33.2424 -9.7687 -10.1121
# 5 -22.4502 -17.9191 -22.1855 -9.7687 25.1776 8.5898
# 6 -28.7956 -8.9697 -11.1278 -10.1121 8.5898 24.1348
#
#
#
# Elastic Compliance Matrix: (Units=1/GPa)
#
#
# Indices 1 2 3 4 5 6 
#
# 1 0.010948 0.001685 -0.002419 -0.001457 0.004761 0.010268
# 2 0.001685 0.022626 -0.001242 0.002442 0.015650 0.005299
# 3 -0.002419 -0.001242 0.016664 0.001088 0.011872 0.000566
# 4 -0.001457 0.002442 0.001088 0.037209 0.012097 0.010955
# 5 0.004761 0.015650 0.011872 0.012097 0.071407 -0.003376
# 6 0.010268 0.005299 0.000566 0.010955 -0.003376 0.061706
#
#
# Mechanical properties :
#
#
# Convention : Reuss Voigt Hill
#
# Bulk Modulus (GPa) = 21.60557 45.80938 33.70748
# Shear Modulus (GPa) = 20.83833 30.52719 25.68276
#
# Velocity S-wave (km/s) = 2.98243 3.60979 3.31100
# Velocity P-wave (km/s) = 4.59154 6.07683 5.38563
#
# Compressibility (1/GPa) = 0.04628437
#
# Stress axis : x y z
#
# Youngs Moduli (GPa) = 91.34219 44.19739 60.00894
#
# Poissons Ratio (x) = -0.07445 0.14518
# Poissons Ratio (y) = -0.15387 0.07453
# Poissons Ratio (z) = 0.22099 0.05489
#
# Static dielectric constant tensor:
#      x y z
#    x 2.031590 0.049570 -0.028300 
#    y 0.049570 2.001910 -0.035270 
#    z -0.028300 -0.035270 1.897300 
# 
# From -- ./inp_files/277261.got.cif
#   From: 2010.05.17/outbox.cif.g08.bks.cpg/sg2_139_cif.got.tgz:277261.got - 2010.06.03 11:33:40.
