data_PCOD9090825
_publ_section_title
;
Structure prediction by ZEFSAII (Michael W. Deem and Ramdas Pophale) SiO2 
 PCOD9090825
Probable space group: P -1
;
_chemical_formula_sum "Si O2"
_cell_formula_units_Z 12
_cell_length_a 9.484268
_cell_length_b 11.588147
_cell_length_c 11.810430
_cell_angle_alpha 108.725499
_cell_angle_beta 130.944756
_cell_angle_gamma 110.965245
_cell_volume 564.163440
_symmetry_space_group_name_H-M "P -1"
_symmetry_group_IT_number 2
_symmetry_cell_setting 'triclinic'
loop_
_space_group_symop_operation_xyz
x,y,z
-x,-y,-z
loop_
_atom_site_type_symbol
_atom_site_label
_atom_site_fract_x
_atom_site_fract_y
_atom_site_fract_z
Si Si1 0.680081 0.270668 0.537954
Si Si2 0.243940 0.672845 0.818832
Si Si3 0.172928 0.392219 0.592980
Si Si4 0.830382 0.283249 0.852656
Si Si5 0.436082 0.540528 0.365273
Si Si6 0.374724 0.982084 0.695240
O O1 0.773370 0.225326 0.673040
O O2 0.502758 0.287378 0.512399
O O3 0.970590 0.488291 0.701980
O O4 0.525812 0.106306 0.310078
O O5 0.361536 0.604656 0.809850
O O6 0.086373 0.672730 0.639058
O O7 0.481510 0.878644 0.076192
O O8 0.358602 0.401961 0.610834
O O9 0.988009 0.222021 0.537978
O O10 0.522188 0.132202 0.715981
O O11 0.000000 0.500000 0.000000
O O12 0.084643 0.340550 0.074608
O O13 0.500000 0.500000 0.500000
#
# Coordination Sequence:
#
# PCOD9090825 Si02
#       6
#     2   2   2   2   2   2
#     4  10  21  38  66  86 118 160 201 237 296 357
#     4  10  19  39  60  84 123 164 189 238 304 357
#     4  10  22  36  60  90 122 152 200 247 293 348
#     4  10  20  39  65  82 121 162 196 241 299 353
#     4  11  20  40  62  92 120 153 197 253 293 340
#     4  11  20  38  63  88 115 165 201 235 293 370
#
# _framework density 21.270432
#
# number of rings (size 3 to 8) (size 9 to 14) (size 15 to 20)
#    0.000    1.667    5.000    1.000    0.000    0.000 
#    3.000    8.333    0.000    0.000    0.000    0.000 
#    0.000    0.000    0.000    0.000    0.000    0.000 
#
# Total GULP energy -66836.203045 kJ/mol
# GULP energy per Si atom -5569.683587 kJ/mol
# Density = 2.122202 g / cm^3
# Si number density = 21.270432 Si / 1000 Ang^3
#
#
#
# Elastic Constant Matrix: (Units=GPa)
#
#
# Indices 1 2 3 4 5 6 
#
# 1 174.6207 31.3957 30.7860 23.5182 -18.8949 -6.9563
# 2 31.3957 76.9268 31.3719 5.2753 0.4074 19.6937
# 3 30.7860 31.3719 55.7011 7.3464 -24.9916 -10.6369
# 4 23.5182 5.2753 7.3464 39.0571 -4.3578 -10.8135
# 5 -18.8949 0.4074 -24.9916 -4.3578 35.3431 15.7240
# 6 -6.9563 19.6937 -10.6369 -10.8135 15.7240 41.4635
#
#
#
# Elastic Compliance Matrix: (Units=1/GPa)
#
#
# Indices 1 2 3 4 5 6 
#
# 1 0.007062 -0.002326 -0.000917 -0.003427 0.002665 0.000150
# 2 -0.002326 0.026606 -0.020467 -0.003736 -0.009525 -0.015640
# 3 -0.000917 -0.020467 0.043486 0.001125 0.025603 0.011307
# 4 -0.003427 -0.003736 0.001125 0.030568 -0.001725 0.010114
# 5 0.002665 -0.009525 0.025603 -0.001725 0.051470 -0.008429
# 6 0.000150 -0.015640 0.011307 0.010114 -0.008429 0.040306
#
#
# Mechanical properties :
#
#
# Convention : Reuss Voigt Hill
#
# Bulk Modulus (GPa) = 33.63172 54.92841 44.28007
# Shear Modulus (GPa) = 19.46810 37.41906 28.44358
#
# Velocity S-wave (km/s) = 3.02862 4.19884 3.66079
# Velocity P-wave (km/s) = 5.29867 7.02758 6.22345
#
# Compressibility (1/GPa) = 0.02973384
#
# Stress axis : x y z
#
# Youngs Moduli (GPa) = 141.59393 37.58569 22.99599
#
# Poissons Ratio (x) = 0.08741 0.02110
# Poissons Ratio (y) = 0.32930 0.47066
# Poissons Ratio (z) = 0.12990 0.76927
#
# Static dielectric constant tensor:
#      x y z
#    x 1.822550 0.013550 -0.040370 
#    y 0.013550 1.864070 -0.038810 
#    z -0.040370 -0.038810 1.832930 
# 
# From -- ./inp_files/175847.got.cif
#   From: 2010.05.17/outbox.cif.g08.bks.cpg/sg2_88_cif.got.tgz:175847.got - 2010.06.03 11:33:40.
