data_PCOD9090344
_publ_section_title
;
Structure prediction by ZEFSAII (Michael W. Deem and Ramdas Pophale) SiO2 
 PCOD9090344
Probable space group: P -1
;
_chemical_formula_sum "Si O2"
_cell_formula_units_Z 16
_cell_length_a 13.248382
_cell_length_b 8.188434
_cell_length_c 24.304212
_cell_angle_alpha 42.603695
_cell_angle_beta 24.834899
_cell_angle_gamma 57.559925
_cell_volume 664.523514
_symmetry_space_group_name_H-M "P -1"
_symmetry_group_IT_number 2
_symmetry_cell_setting 'triclinic'
loop_
_space_group_symop_operation_xyz
x,y,z
-x,-y,-z
loop_
_atom_site_type_symbol
_atom_site_label
_atom_site_fract_x
_atom_site_fract_y
_atom_site_fract_z
Si Si1 0.798532 0.920210 0.768039
Si Si2 0.747116 0.574272 0.540018
Si Si3 0.672210 0.196286 0.318999
Si Si4 0.218064 0.658278 0.075084
Si Si5 0.075110 0.021722 0.838268
Si Si6 0.009403 0.762444 0.520901
Si Si7 0.501418 0.562419 0.192013
Si Si8 0.777129 0.270508 0.071032
O O1 0.844773 0.654852 0.815463
O O2 0.919338 0.086073 0.611050
O O3 0.475787 0.810179 0.950655
O O4 0.982070 0.138183 0.668688
O O5 0.494519 0.636460 0.649951
O O6 0.781351 0.355674 0.539602
O O7 0.692143 0.446941 0.659849
O O8 0.710419 0.010800 0.299321
O O9 0.966263 0.429460 0.131941
O O10 0.500000 0.000000 0.500000
O O11 0.307115 0.780417 0.938562
O O12 0.964343 0.710503 0.203206
O O13 0.126680 0.925572 0.896465
O O14 0.787045 0.808598 0.006396
O O15 0.712491 0.495484 0.737015
O O16 0.000000 0.000000 0.500000
O O17 0.573891 0.316902 0.201658
#
# Coordination Sequence:
#
# PCOD9090344 Si02
#       8
#     2   2   2   2   2   2   2   2
#     4  10  23  41  62  92 132 170 208 270 329 377
#     4  11  20  41  65  88 127 173 210 259 326 387
#     4  11  23  40  64  96 130 169 216 264 326 392
#     4  11  23  40  64  95 134 168 215 274 325 370
#     4  11  21  41  67  95 128 178 216 263 315 388
#     4  11  23  38  65  96 123 163 220 273 318 382
#     4  10  19  38  65  91 121 165 222 257 310 380
#     4  11  21  40  65  94 128 172 223 260 312 391
#
# _framework density 24.077400999999998
#
# number of rings (size 3 to 8) (size 9 to 14) (size 15 to 20)
#    0.000    1.250    2.500    5.625    0.000    1.000 
#    2.250    2.500    0.000   12.000    0.000    0.000 
#    0.000    0.000    0.000    0.000    0.000    0.000 
#
# Total GULP energy -89129.853485 kJ/mol
# GULP energy per Si atom -5570.615843 kJ/mol
# Density = 2.402260 g / cm^3
# Si number density = 24.077401 Si / 1000 Ang^3
#
#
#
# Elastic Constant Matrix: (Units=GPa)
#
#
# Indices 1 2 3 4 5 6 
#
# 1 42.9379 23.9524 21.0810 10.5429 -1.6127 -9.4783
# 2 23.9524 160.6125 41.4534 36.0889 -4.4295 -25.8914
# 3 21.0810 41.4534 65.4809 6.0101 -2.6416 -8.9812
# 4 10.5429 36.0889 6.0101 37.9041 0.4810 -3.0276
# 5 -1.6127 -4.4295 -2.6416 0.4810 28.1781 -1.5425
# 6 -9.4783 -25.8914 -8.9812 -3.0276 -1.5425 23.0191
#
#
#
# Elastic Compliance Matrix: (Units=1/GPa)
#
#
# Indices 1 2 3 4 5 6 
#
# 1 0.030931 0.000765 -0.008405 -0.007264 0.001745 0.009479
# 2 0.000765 0.011115 -0.005011 -0.009245 0.002014 0.009781
# 3 -0.008405 -0.005011 0.020764 0.003773 0.000588 -0.000460
# 4 -0.007264 -0.009245 0.003773 0.036052 -0.002533 -0.007346
# 5 0.001745 0.002014 0.000588 -0.002533 0.036294 0.005313
# 6 0.009479 0.009781 -0.000460 -0.007346 0.005313 0.057556
#
#
# Mechanical properties :
#
#
# Convention : Reuss Voigt Hill
#
# Bulk Modulus (GPa) = 26.66155 49.11164 37.88659
# Shear Modulus (GPa) = 21.69020 29.98991 25.84005
#
# Velocity S-wave (km/s) = 3.00468 3.53308 3.27954
# Velocity P-wave (km/s) = 4.80986 6.08976 5.48726
#
# Compressibility (1/GPa) = 0.03750719
#
# Stress axis : x y z
#
# Youngs Moduli (GPa) = 32.33031 89.96715 48.15945
#
# Poissons Ratio (x) = -0.06880 0.40477
# Poissons Ratio (y) = -0.02472 0.24135
# Poissons Ratio (z) = 0.27173 0.45087
#
# Static dielectric constant tensor:
#      x y z
#    x 1.890490 0.126070 -0.132390 
#    y 0.126070 1.875390 0.087020 
#    z -0.132390 0.087020 1.897230 
# 
# From -- ./inp_files/619234.got.cif
#   From: 2010.05.17/outbox.cif.g08.bks.cpg/sg2_310_cif.got.tgz:619234.got - 2010.06.03 11:33:40.
