data_PCOD9090963
_publ_section_title
;
Structure prediction by ZEFSAII (Michael W. Deem and Ramdas Pophale) SiO2 
 PCOD9090963
Probable space group: P -1
;
_chemical_formula_sum "Si O2"
_cell_formula_units_Z 16
_cell_length_a 9.497798
_cell_length_b 11.517068
_cell_length_c 21.729064
_cell_angle_alpha 38.440656
_cell_angle_beta 140.802246
_cell_angle_gamma 143.222138
_cell_volume 812.181811
_symmetry_space_group_name_H-M "P -1"
_symmetry_group_IT_number 2
_symmetry_cell_setting 'triclinic'
loop_
_space_group_symop_operation_xyz
x,y,z
-x,-y,-z
loop_
_atom_site_type_symbol
_atom_site_label
_atom_site_fract_x
_atom_site_fract_y
_atom_site_fract_z
Si Si1 0.568450 0.889250 0.382688
Si Si2 0.579997 0.252169 0.739456
Si Si3 0.920176 0.704000 0.449141
Si Si4 0.362018 0.858510 0.915311
Si Si5 0.645180 0.792633 0.143659
Si Si6 0.910321 0.878680 0.597863
Si Si7 0.147537 0.449862 0.190361
Si Si8 0.116008 0.751520 0.360902
O O1 0.399677 0.750037 0.325828
O O2 0.692236 0.780947 0.513160
O O3 0.382012 0.926604 0.348223
O O4 0.821420 0.080744 0.356825
O O5 0.353605 0.310189 0.651181
O O6 0.822737 0.409738 0.796954
O O7 0.479619 0.016321 0.831584
O O8 0.893171 0.477555 0.552011
O O9 0.083391 0.781047 0.409733
O O10 0.043746 0.885523 0.467607
O O11 0.111769 0.645609 0.896447
O O12 0.289851 0.993392 0.883632
O O13 0.566565 0.819609 0.037352
O O14 0.390553 0.600464 0.168488
O O15 0.878890 0.748844 0.247576
O O16 0.845677 0.750954 0.692476
#
# Coordination Sequence:
#
# PCOD9090963 Si02
#       8
#     2   2   2   2   2   2   2   2
#     4  10  22  36  57  84 123 154 191 235 286 347
#     4  10  20  39  60  86 116 156 195 235 281 350
#     4  10  20  37  56  83 124 149 187 238 293 341
#     4  10  19  39  62  87 112 150 202 242 278 345
#     4  10  22  37  60  91 116 147 195 246 293 331
#     4  10  21  37  57  88 114 160 200 224 280 363
#     4  11  18  35  65  83 111 149 201 242 278 334
#     4  11  21  37  54  87 123 153 181 243 302 335
#
# _framework density 19.700022000000001
#
# number of rings (size 3 to 8) (size 9 to 14) (size 15 to 20)
#    0.000    1.750    5.000    1.125    1.750    6.000 
#    2.250    0.625    0.000    0.750    0.000    0.000 
#    0.000    0.000    0.000    0.000    0.000    0.000 
#
# Total GULP energy -89224.918099 kJ/mol
# GULP energy per Si atom -5576.557381 kJ/mol
# Density = 1.965518 g / cm^3
# Si number density = 19.700022 Si / 1000 Ang^3
#
#
#
# Elastic Constant Matrix: (Units=GPa)
#
#
# Indices 1 2 3 4 5 6 
#
# 1 79.8892 26.1052 31.8019 7.8310 -9.5830 8.4237
# 2 26.1052 84.1447 25.0681 21.9286 -4.1368 4.8688
# 3 31.8019 25.0681 117.4465 18.8643 -10.5688 2.5115
# 4 7.8310 21.9286 18.8643 31.3734 -6.6439 -3.8349
# 5 -9.5830 -4.1368 -10.5688 -6.6439 19.2862 10.4879
# 6 8.4237 4.8688 2.5115 -3.8349 10.4879 11.8362
#
#
#
# Elastic Compliance Matrix: (Units=1/GPa)
#
#
# Indices 1 2 3 4 5 6 
#
# 1 0.023106 -0.001733 -0.001339 -0.002039 0.035574 -0.047630
# 2 -0.001733 0.016763 -0.000284 -0.011518 0.007115 -0.015637
# 3 -0.001339 -0.000284 0.010927 -0.005399 0.009711 -0.011603
# 4 -0.002039 -0.011518 -0.005399 0.045850 -0.005239 0.026832
# 5 0.035574 0.007115 0.009711 -0.005239 0.177504 -0.189286
# 6 -0.047630 -0.015637 -0.011603 0.026832 -0.189286 0.303696
#
#
# Mechanical properties :
#
#
# Convention : Reuss Voigt Hill
#
# Bulk Modulus (GPa) = 22.68453 49.71454 36.19953
# Shear Modulus (GPa) = 8.34371 25.73284 17.03827
#
# Velocity S-wave (km/s) = 2.06024 3.61811 2.94408
# Velocity P-wave (km/s) = 4.14722 6.53795 5.47468
#
# Compressibility (1/GPa) = 0.04408291
#
# Stress axis : x y z
#
# Youngs Moduli (GPa) = 43.27836 59.65597 91.51607
#
# Poissons Ratio (x) = 0.10340 0.12258
# Poissons Ratio (y) = 0.07501 0.02599
# Poissons Ratio (z) = 0.05797 0.01694
#
# Static dielectric constant tensor:
#      x y z
#    x 1.682590 0.004040 -0.022160 
#    y 0.004040 1.756490 -0.001840 
#    z -0.022160 -0.001840 1.698890 
# 
# From -- ./inp_files/589509.got.cif
#   From: 2010.05.17/outbox.cif.g08.bks.cpg/sg2_295_cif.got.tgz:589509.got - 2010.06.03 11:33:40.
