data_PCOD9090242
_publ_section_title
;
Structure prediction by ZEFSAII (Michael W. Deem and Ramdas Pophale) SiO2 
 PCOD9090242
Probable space group: P -1
;
_chemical_formula_sum "Si O2"
_cell_formula_units_Z 12
_cell_length_a 6.810939
_cell_length_b 12.118085
_cell_length_c 12.503056
_cell_angle_alpha 112.006718
_cell_angle_beta 80.464619
_cell_angle_gamma 44.646310
_cell_volume 503.064318
_symmetry_space_group_name_H-M "P -1"
_symmetry_group_IT_number 2
_symmetry_cell_setting 'triclinic'
loop_
_space_group_symop_operation_xyz
x,y,z
-x,-y,-z
loop_
_atom_site_type_symbol
_atom_site_label
_atom_site_fract_x
_atom_site_fract_y
_atom_site_fract_z
Si Si1 0.102978 0.021627 0.104610
Si Si2 0.425150 0.083298 0.704792
Si Si3 0.782720 0.448702 0.292331
Si Si4 0.112009 0.889886 0.613823
Si Si5 0.918926 0.647797 0.980957
Si Si6 0.724065 0.731782 0.430713
O O1 0.992966 0.217800 0.190915
O O2 0.889417 0.079076 0.249295
O O3 0.548110 0.800301 0.003602
O O4 0.000000 0.000000 0.000000
O O5 0.178409 0.194792 0.873055
O O6 0.202045 0.233864 0.672408
O O7 0.702874 0.834307 0.565876
O O8 0.698926 0.055413 0.690784
O O9 0.396717 0.641248 0.461657
O O10 0.939591 0.498195 0.338832
O O11 0.758541 0.487794 0.181719
O O12 0.287742 0.907845 0.535946
O O13 0.000000 0.500000 0.000000
#
# Coordination Sequence:
#
# PCOD9090242 Si02
#       6
#     2   2   2   2   2   2
#     4  11  25  43  63  92 132 171 211 263 322 383
#     4  10  19  38  64  94 127 167 207 267 318 376
#     4  10  22  40  63  95 127 165 213 268 316 378
#     4   9  21  40  62  88 127 168 213 262 310 379
#     4  11  22  43  65  94 128 167 213 265 317 379
#     4   9  20  35  64  91 128 158 220 252 325 369
#
# _framework density 23.853807
#
# number of rings (size 3 to 8) (size 9 to 14) (size 15 to 20)
#    1.000    1.000    1.667    1.500    2.333    1.333 
#    0.000    5.000    0.000    0.000    0.000    0.000 
#    0.000    0.000    0.000    0.000    0.000    0.000 
#
# Total GULP energy -66807.721172 kJ/mol
# GULP energy per Si atom -5567.310098 kJ/mol
# Density = 2.379951 g / cm^3
# Si number density = 23.853807 Si / 1000 Ang^3
#
#
#
# Elastic Constant Matrix: (Units=GPa)
#
#
# Indices 1 2 3 4 5 6 
#
# 1 62.4242 20.6414 24.5757 11.1516 29.3967 14.9475
# 2 20.6414 64.4930 23.4897 15.1675 20.6980 12.4017
# 3 24.5757 23.4897 179.2019 -8.9067 28.7311 -6.7730
# 4 11.1516 15.1675 -8.9067 33.9198 1.7668 2.1359
# 5 29.3967 20.6980 28.7311 1.7668 41.3284 1.7666
# 6 14.9475 12.4017 -6.7730 2.1359 1.7666 21.1756
#
#
#
# Elastic Compliance Matrix: (Units=1/GPa)
#
#
# Indices 1 2 3 4 5 6 
#
# 1 0.034945 0.005318 -0.003257 -0.011874 -0.023651 -0.025652
# 2 0.005318 0.025328 -0.003230 -0.012157 -0.012962 -0.017313
# 3 -0.003257 -0.003230 0.007119 0.004071 -0.001453 0.006178
# 4 -0.011874 -0.012157 0.004071 0.038631 0.009535 0.012112
# 5 -0.023651 -0.012962 -0.001453 0.009535 0.047305 0.018913
# 6 -0.025652 -0.017313 0.006178 0.012112 0.018913 0.074647
#
#
# Mechanical properties :
#
#
# Convention : Reuss Voigt Hill
#
# Bulk Modulus (GPa) = 15.37192 49.28142 32.32667
# Shear Modulus (GPa) = 19.84149 35.11224 27.47687
#
# Velocity S-wave (km/s) = 2.88722 3.84080 3.39763
# Velocity P-wave (km/s) = 4.19200 6.35402 5.38268
#
# Compressibility (1/GPa) = 0.06505367
#
# Stress axis : x y z
#
# Youngs Moduli (GPa) = 28.61680 39.48191 140.46659
#
# Poissons Ratio (x) = -0.20996 0.45753
# Poissons Ratio (y) = -0.15218 0.45365
# Poissons Ratio (z) = 0.09321 0.12751
#
# Static dielectric constant tensor:
#      x y z
#    x 1.948930 0.030320 0.056110 
#    y 0.030320 1.972420 0.014740 
#    z 0.056110 0.014740 1.997910 
# 
# From -- ./inp_files/364995.got.cif
#   From: 2010.05.17/outbox.cif.g08.bks.cpg/sg2_183_cif.got.tgz:364995.got - 2010.06.03 11:33:40.
