data_PCOD9090468
_publ_section_title
;
Structure prediction by ZEFSAII (Michael W. Deem and Ramdas Pophale) SiO2 
 PCOD9090468
Probable space group: P -1
;
_chemical_formula_sum "Si O2"
_cell_formula_units_Z 14
_cell_length_a 11.279777
_cell_length_b 16.242273
_cell_length_c 11.234864
_cell_angle_alpha 29.756611
_cell_angle_beta 140.716818
_cell_angle_gamma 141.263173
_cell_volume 607.371120
_symmetry_space_group_name_H-M "P -1"
_symmetry_group_IT_number 2
_symmetry_cell_setting 'triclinic'
loop_
_space_group_symop_operation_xyz
x,y,z
-x,-y,-z
loop_
_atom_site_type_symbol
_atom_site_label
_atom_site_fract_x
_atom_site_fract_y
_atom_site_fract_z
Si Si1 0.549044 0.825335 0.290584
Si Si2 0.123021 0.170143 0.650843
Si Si3 0.327170 0.993012 0.200622
Si Si4 0.766609 0.380816 0.543589
Si Si5 0.740954 0.195835 0.369758
Si Si6 0.205253 0.489323 0.833418
Si Si7 0.862034 0.883417 0.644129
O O1 0.698598 0.785195 0.363511
O O2 0.355651 0.660563 0.376640
O O3 0.650931 0.863055 0.451662
O O4 0.500000 0.000000 0.000000
O O5 0.972489 0.279448 0.403089
O O6 0.954477 0.990750 0.697829
O O7 0.220838 0.124127 0.902144
O O8 0.256928 0.813254 0.290076
O O9 0.264011 0.933654 0.360842
O O10 0.566617 0.096802 0.266085
O O11 0.692104 0.481827 0.253927
O O12 0.989294 0.490782 0.620611
O O13 0.685327 0.350188 0.197162
O O14 0.153816 0.312399 0.090208
O O15 0.000000 0.000000 0.500000
#
# Coordination Sequence:
#
# PCOD9090468 Si02
#       7
#     2   2   2   2   2   2   2
#     4  11  21  37  63  93 125 167 222 266 305 385
#     4  11  21  38  66  95 124 175 221 253 319 395
#     4  10  19  40  65  93 131 176 216 257 316 397
#     4  10  19  38  66  92 123 171 216 261 323 369
#     4  10  23  38  63  97 136 167 211 269 328 374
#     4  10  21  41  63  94 131 160 212 284 315 374
#     4  10  21  39  66  94 122 167 222 259 322 387
#
# _framework density 23.050158
#
# number of rings (size 3 to 8) (size 9 to 14) (size 15 to 20)
#    0.000    1.714    2.857    2.143    0.000    0.571 
#    2.571    3.571    0.000    0.000    0.000    0.000 
#    0.000    0.000    0.000    0.000    0.000    0.000 
#
# Total GULP energy -77978.450129 kJ/mol
# GULP energy per Si atom -5569.889295 kJ/mol
# Density = 2.299769 g / cm^3
# Si number density = 23.050158 Si / 1000 Ang^3
#
#
#
# Elastic Constant Matrix: (Units=GPa)
#
#
# Indices 1 2 3 4 5 6 
#
# 1 67.3158 -5.0431 4.9205 -10.8182 3.4149 14.7312
# 2 -5.0431 62.1551 1.7011 9.1034 -3.9585 -7.9494
# 3 4.9205 1.7011 91.3722 6.8612 -17.3203 -2.2505
# 4 -10.8182 9.1034 6.8612 33.8775 12.5112 -3.3136
# 5 3.4149 -3.9585 -17.3203 12.5112 20.7112 1.1031
# 6 14.7312 -7.9494 -2.2505 -3.3136 1.1031 34.1280
#
#
#
# Elastic Compliance Matrix: (Units=1/GPa)
#
#
# Indices 1 2 3 4 5 6 
#
# 1 0.019488 -0.002036 -0.004974 0.012565 -0.014953 -0.007511
# 2 -0.002036 0.018704 0.003047 -0.010565 0.012628 0.004002
# 3 -0.004974 0.003047 0.016898 -0.014620 0.024271 0.001767
# 4 0.012565 -0.010565 -0.014620 0.058148 -0.051361 -0.001543
# 5 -0.014953 0.012628 0.024271 -0.051361 0.104345 0.002637
# 6 -0.007511 0.004002 0.001767 -0.001543 0.002637 0.033357
#
#
# Mechanical properties :
#
#
# Convention : Reuss Voigt Hill
#
# Bulk Modulus (GPa) = 21.20322 24.88890 23.04606
# Shear Modulus (GPa) = 18.20916 32.36099 25.28507
#
# Velocity S-wave (km/s) = 2.81371 3.75098 3.31563
# Velocity P-wave (km/s) = 4.44687 5.43884 4.96768
#
# Compressibility (1/GPa) = 0.04716264
#
# Stress axis : x y z
#
# Youngs Moduli (GPa) = 51.31373 53.46529 59.18004
#
# Poissons Ratio (x) = 0.10885 0.29439
# Poissons Ratio (y) = 0.10447 -0.18032
# Poissons Ratio (z) = 0.25526 -0.16291
#
# Static dielectric constant tensor:
#      x y z
#    x 1.846420 -0.137110 0.131970 
#    y -0.137110 1.734140 0.040790 
#    z 0.131970 0.040790 1.854390 
# 
# From -- ./inp_files/388915.got.cif
#   From: 2010.05.17/outbox.cif.g08.bks.cpg/sg2_195_cif.got.tgz:388915.got - 2010.06.03 11:33:40.
