data_PCOD9090411
_publ_section_title
;
Structure prediction by ZEFSAII (Michael W. Deem and Ramdas Pophale) SiO2 
 PCOD9090411
Probable space group: P -1
;
_chemical_formula_sum "Si O2"
_cell_formula_units_Z 16
_cell_length_a 8.752769
_cell_length_b 11.793692
_cell_length_c 17.464787
_cell_angle_alpha 144.674116
_cell_angle_beta 100.156048
_cell_angle_gamma 105.360428
_cell_volume 714.051387
_symmetry_space_group_name_H-M "P -1"
_symmetry_group_IT_number 2
_symmetry_cell_setting 'triclinic'
loop_
_space_group_symop_operation_xyz
x,y,z
-x,-y,-z
loop_
_atom_site_type_symbol
_atom_site_label
_atom_site_fract_x
_atom_site_fract_y
_atom_site_fract_z
Si Si1 0.942041 0.470214 0.289842
Si Si2 0.962434 0.820229 0.196596
Si Si3 0.580888 0.546341 0.446273
Si Si4 0.826241 0.677322 0.273451
Si Si5 0.802499 0.669840 0.821290
Si Si6 0.366399 0.503904 0.115179
Si Si7 0.752739 0.264412 0.309252
Si Si8 0.688171 0.954427 0.269625
O O1 0.102659 0.459163 0.259859
O O2 0.817150 0.488769 0.227172
O O3 0.791435 0.223079 0.204007
O O4 0.094239 0.759970 0.512012
O O5 0.926144 0.710068 0.217335
O O6 0.763112 0.808980 0.162343
O O7 0.881115 0.636512 0.014184
O O8 0.197104 0.131351 0.375828
O O9 0.500000 0.500000 0.500000
O O10 0.393795 0.450403 0.319893
O O11 0.643469 0.375746 0.350273
O O12 0.584560 0.550814 0.167561
O O13 0.000000 0.000000 0.500000
O O14 0.706897 0.582794 0.850139
O O15 0.000000 0.000000 0.000000
O O16 0.505183 0.777185 0.221012
O O17 0.000000 0.500000 0.500000
O O18 0.623192 0.021851 0.227313
#
# Coordination Sequence:
#
# PCOD9090411 Si02
#       8
#     2   2   2   2   2   2   2   2
#     4  11  22  42  71  95 136 181 229 277 334 405
#     4  11  22  41  69  99 137 171 219 283 337 408
#     4  12  23  43  71  96 132 185 223 276 344 403
#     4  11  19  42  71 105 129 172 227 279 340 404
#     4  12  29  48  64  97 141 181 226 286 340 399
#     4  11  24  42  67 102 143 172 220 278 345 401
#     4  10  19  38  66 101 128 167 232 272 325 407
#     4  10  20  38  70 102 133 168 224 278 334 401
#
# _framework density 22.407353000000001
#
# number of rings (size 3 to 8) (size 9 to 14) (size 15 to 20)
#    0.000    1.000    5.000    5.250    1.750    0.500 
#    6.750    1.875    0.000    0.000    0.000    0.000 
#    0.000    0.000    0.000    0.000    0.000    0.000 
#
# Total GULP energy -89146.738592 kJ/mol
# GULP energy per Si atom -5571.671162 kJ/mol
# Density = 2.235635 g / cm^3
# Si number density = 22.407353 Si / 1000 Ang^3
#
#
#
# Elastic Constant Matrix: (Units=GPa)
#
#
# Indices 1 2 3 4 5 6 
#
# 1 76.9611 45.6664 24.4344 -8.6846 4.5926 12.2728
# 2 45.6664 265.0667 51.3849 -12.4475 16.6707 14.3647
# 3 24.4344 51.3849 85.3840 -17.6741 23.1874 2.7780
# 4 -8.6846 -12.4475 -17.6741 45.0650 13.3860 -0.6823
# 5 4.5926 16.6707 23.1874 13.3860 47.7547 -17.2785
# 6 12.2728 14.3647 2.7780 -0.6823 -17.2785 53.7514
#
#
#
# Elastic Compliance Matrix: (Units=1/GPa)
#
#
# Indices 1 2 3 4 5 6 
#
# 1 0.015732 -0.001865 -0.002489 0.001910 -0.001418 -0.003397
# 2 -0.001865 0.004590 -0.001801 0.000504 -0.001068 -0.001045
# 3 -0.002489 -0.001801 0.019240 0.010306 -0.012782 -0.003923
# 4 0.001910 0.000504 0.010306 0.031506 -0.016352 -0.005960
# 5 -0.001418 -0.001068 -0.012782 -0.016352 0.036918 0.012930
# 6 -0.003397 -0.001045 -0.003923 -0.005960 0.012930 0.023942
#
#
# Mechanical properties :
#
#
# Convention : Reuss Voigt Hill
#
# Bulk Modulus (GPa) = 36.69171 74.48700 55.58936
# Shear Modulus (GPa) = 32.61108 49.70929 41.16019
#
# Velocity S-wave (km/s) = 3.81908 4.71514 4.29056
# Velocity P-wave (km/s) = 5.98811 7.93459 7.02906
#
# Compressibility (1/GPa) = 0.02725411
#
# Stress axis : x y z
#
# Youngs Moduli (GPa) = 63.56399 217.84402 51.97548
#
# Poissons Ratio (x) = 0.40627 0.12935
# Poissons Ratio (y) = 0.11854 0.09358
# Poissons Ratio (z) = 0.15819 0.39223
#
# Static dielectric constant tensor:
#      x y z
#    x 2.115210 0.416230 0.869130 
#    y 0.416230 2.391620 1.151980 
#    z 0.869130 1.151980 3.975030 
# 
# From -- ./inp_files/559303.got.cif
#   From: 2010.05.17/outbox.cif.g08.bks.cpg/sg2_280_cif.got.tgz:559303.got - 2010.06.03 11:33:40.
