data_PCOD9090222
_publ_section_title
;
Structure prediction by ZEFSAII (Michael W. Deem and Ramdas Pophale) SiO2 
 PCOD9090222
Probable space group: P -1
;
_chemical_formula_sum "Si O2"
_cell_formula_units_Z 14
_cell_length_a 14.902001
_cell_length_b 7.656642
_cell_length_c 11.119371
_cell_angle_alpha 126.742246
_cell_angle_beta 39.080389
_cell_angle_gamma 126.260216
_cell_volume 620.304006
_symmetry_space_group_name_H-M "P -1"
_symmetry_group_IT_number 2
_symmetry_cell_setting 'triclinic'
loop_
_space_group_symop_operation_xyz
x,y,z
-x,-y,-z
loop_
_atom_site_type_symbol
_atom_site_label
_atom_site_fract_x
_atom_site_fract_y
_atom_site_fract_z
Si Si1 0.378557 0.078179 0.966811
Si Si2 0.179698 0.191579 0.763448
Si Si3 0.863666 0.005901 0.018924
Si Si4 0.293061 0.827672 0.379685
Si Si5 0.165621 0.070275 0.406729
Si Si6 0.782189 0.409740 0.397313
Si Si7 0.621660 0.368585 0.330428
O O1 0.267889 0.083245 0.973307
O O2 0.395800 0.825535 0.828001
O O3 0.548532 0.214554 0.835707
O O4 0.290792 0.106570 0.188367
O O5 0.226908 0.449845 0.785797
O O6 0.160222 0.162374 0.914113
O O7 0.300420 0.058722 0.542737
O O8 0.024637 0.047459 0.811530
O O9 0.871868 0.251928 0.171929
O O10 0.221186 0.643153 0.478930
O O11 0.206206 0.883208 0.376016
O O12 0.181193 0.321948 0.546359
O O13 0.000000 0.000000 0.500000
O O14 0.631226 0.310684 0.437940
O O15 0.500000 0.500000 0.500000
#
# Coordination Sequence:
#
# PCOD9090222 Si02
#       7
#     2   2   2   2   2   2   2
#     4  11  24  39  63  94 125 164 210 255 314 368
#     4  10  19  38  64  92 133 156 208 259 307 367
#     4   9  22  38  64  97 124 165 205 258 314 368
#     4  11  23  44  65  91 128 163 212 261 305 376
#     4  12  26  45  64  90 129 167 209 260 311 375
#     4  10  24  41  67  90 126 169 207 253 315 365
#     4  11  21  37  67  98 126 163 206 257 318 366
#
# _framework density 22.569576999999999
#
# number of rings (size 3 to 8) (size 9 to 14) (size 15 to 20)
#    0.000    1.429    2.857    1.286    4.000    4.000 
#    2.571    0.000    0.000    0.000    0.000    0.000 
#    0.000    0.000    0.000    0.000    0.000    0.000 
#
# Total GULP energy -78000.483960 kJ/mol
# GULP energy per Si atom -5571.463140 kJ/mol
# Density = 2.251821 g / cm^3
# Si number density = 22.569577 Si / 1000 Ang^3
#
#
#
# Elastic Constant Matrix: (Units=GPa)
#
#
# Indices 1 2 3 4 5 6 
#
# 1 84.8875 2.1452 48.5307 -10.1586 -11.3357 -18.6933
# 2 2.1452 29.6807 3.9241 0.2437 4.0175 -8.4740
# 3 48.5307 3.9241 90.1456 -15.2830 -6.1076 3.8512
# 4 -10.1586 0.2437 -15.2830 31.4255 3.0912 -0.3539
# 5 -11.3357 4.0175 -6.1076 3.0912 30.5698 -1.3590
# 6 -18.6933 -8.4740 3.8512 -0.3539 -1.3590 27.5903
#
#
#
# Elastic Compliance Matrix: (Units=1/GPa)
#
#
# Indices 1 2 3 4 5 6 
#
# 1 0.025447 0.005158 -0.014227 0.000839 0.006771 0.021156
# 2 0.005158 0.039136 -0.005545 -0.000803 -0.003541 0.016104
# 3 -0.014227 -0.005545 0.020399 0.005366 -0.001645 -0.014202
# 4 0.000839 -0.000803 0.005366 0.034909 -0.002045 -0.000080
# 5 0.006771 -0.003541 -0.001645 -0.002045 0.035809 0.005467
# 6 0.021156 0.016104 -0.014202 -0.000080 0.005467 0.057775
#
#
# Mechanical properties :
#
#
# Convention : Reuss Voigt Hill
#
# Bulk Modulus (GPa) = 17.93554 34.87930 26.40742
# Shear Modulus (GPa) = 19.13608 27.92471 23.53040
#
# Velocity S-wave (km/s) = 2.91498 3.52130 3.23239
# Velocity P-wave (km/s) = 4.39244 5.65866 5.06527
#
# Compressibility (1/GPa) = 0.05575522
#
# Stress axis : x y z
#
# Youngs Moduli (GPa) = 39.29745 25.55193 49.02267
#
# Poissons Ratio (x) = -0.13181 0.69744
# Poissons Ratio (y) = -0.20271 0.27182
# Poissons Ratio (z) = 0.55908 0.14168
#
# Static dielectric constant tensor:
#      x y z
#    x 1.922930 -0.006320 0.004370 
#    y -0.006320 1.869080 -0.035950 
#    z 0.004370 -0.035950 1.894100 
# 
# From -- ./inp_files/448158.got.cif
#   From: 2010.05.17/outbox.cif.g08.bks.cpg/sg2_225_cif.got.tgz:448158.got - 2010.06.03 11:33:40.
