data_PCOD9090425
_publ_section_title
;
Structure prediction by ZEFSAII (Michael W. Deem and Ramdas Pophale) SiO2 
 PCOD9090425
Probable space group: P -1
;
_chemical_formula_sum "Si O2"
_cell_formula_units_Z 16
_cell_length_a 10.878595
_cell_length_b 17.436549
_cell_length_c 7.311273
_cell_angle_alpha 145.349327
_cell_angle_beta 112.362256
_cell_angle_gamma 63.575829
_cell_volume 705.854989
_symmetry_space_group_name_H-M "P -1"
_symmetry_group_IT_number 2
_symmetry_cell_setting 'triclinic'
loop_
_space_group_symop_operation_xyz
x,y,z
-x,-y,-z
loop_
_atom_site_type_symbol
_atom_site_label
_atom_site_fract_x
_atom_site_fract_y
_atom_site_fract_z
Si Si1 0.425346 0.314466 0.873149
Si Si2 0.481545 0.990999 0.690684
Si Si3 0.094731 0.810519 0.290055
Si Si4 0.512428 0.713295 0.707429
Si Si5 0.747485 0.405185 0.603497
Si Si6 0.185495 0.000048 0.438864
Si Si7 0.687996 0.433945 0.194537
Si Si8 0.140608 0.884867 0.831050
O O1 0.430100 0.161501 0.502352
O O2 0.449007 0.297090 0.073892
O O3 0.289147 0.441227 0.028694
O O4 0.559240 0.362181 0.968725
O O5 0.319375 0.001438 0.630927
O O6 0.500000 0.000000 0.500000
O O7 0.507063 0.130398 0.063433
O O8 0.169599 0.880831 0.625508
O O9 0.933042 0.855668 0.336874
O O10 0.114633 0.885554 0.260094
O O11 0.181106 0.651722 0.010544
O O12 0.374767 0.660364 0.519892
O O13 0.627865 0.596894 0.440608
O O14 0.729343 0.422941 0.410499
O O15 0.873872 0.272692 0.449416
O O16 0.229297 0.938234 0.139944
O O17 0.000000 0.000000 0.000000
#
# Coordination Sequence:
#
# PCOD9090425 Si02
#       8
#     2   2   2   2   2   2   2   2
#     4   8  14  24  45  70  98 127 161 204 244 288
#     4  10  16  28  51  79  97 133 171 198 248 306
#     4  10  19  30  52  76 100 132 164 209 252 286
#     4   8  16  25  48  77  99 131 166 199 247 300
#     4   9  15  29  47  72 101 127 163 209 245 289
#     4  10  19  33  49  76 104 127 167 210 245 295
#     4   9  14  29  48  73 100 126 164 208 243 294
#     4  10  19  30  48  77 102 127 165 210 251 288
#
# _framework density 22.667546000000002
#
# number of rings (size 3 to 8) (size 9 to 14) (size 15 to 20)
#    0.000    2.750    2.500    3.000    0.000    0.000 
#    0.000    3.125    0.000    3.000    6.500   21.875 
#    0.000    0.000    0.000    0.000    0.000    0.000 
#
# Total GULP energy -89166.052832 kJ/mol
# GULP energy per Si atom -5572.878302 kJ/mol
# Density = 2.261595 g / cm^3
# Si number density = 22.667546 Si / 1000 Ang^3
#
#
#
# Elastic Constant Matrix: (Units=GPa)
#
#
# Indices 1 2 3 4 5 6 
#
# 1 35.9120 9.4191 39.7054 10.7306 -22.4431 -5.1355
# 2 9.4191 68.2547 50.2310 25.0863 -11.4836 -7.5637
# 3 39.7054 50.2310 166.1040 58.0138 -28.8075 -2.1883
# 4 10.7306 25.0863 58.0138 55.8986 -2.6734 -13.0421
# 5 -22.4431 -11.4836 -28.8075 -2.6734 34.3201 7.5319
# 6 -5.1355 -7.5637 -2.1883 -13.0421 7.5319 19.0492
#
#
#
# Elastic Compliance Matrix: (Units=1/GPa)
#
#
# Indices 1 2 3 4 5 6 
#
# 1 0.056347 0.004914 -0.009407 -0.000991 0.029722 0.003631
# 2 0.004914 0.020385 -0.005557 -0.002920 0.004002 0.005199
# 3 -0.009407 -0.005557 0.017576 -0.017848 0.009451 -0.018680
# 4 -0.000991 -0.002920 -0.017848 0.045263 -0.020935 0.035790
# 5 0.029722 0.004002 0.009451 -0.020935 0.062433 -0.028331
# 6 0.003631 0.005199 -0.018680 0.035790 -0.028331 0.089098
#
#
# Mechanical properties :
#
#
# Convention : Reuss Voigt Hill
#
# Bulk Modulus (GPa) = 13.47543 52.10907 32.79225
# Shear Modulus (GPa) = 14.88378 33.24793 24.06585
#
# Velocity S-wave (km/s) = 2.56522 3.83399 3.26189
# Velocity P-wave (km/s) = 3.83817 6.52975 5.35580
#
# Compressibility (1/GPa) = 0.07420915
#
# Stress axis : x y z
#
# Youngs Moduli (GPa) = 17.74716 49.05567 56.89620
#
# Poissons Ratio (x) = -0.24106 0.53520
# Poissons Ratio (y) = -0.08721 0.31615
# Poissons Ratio (z) = 0.16694 0.27259
#
# Static dielectric constant tensor:
#      x y z
#    x 1.829600 -0.032360 -0.041160 
#    y -0.032360 1.963330 0.023210 
#    z -0.041160 0.023210 1.902910 
# 
# From -- ./inp_files/282557.got.cif
#   From: 2010.05.17/outbox.cif.g08.bks.cpg/sg2_142_cif.got.tgz:282557.got - 2010.06.03 11:33:40.
