data_PCOD9090923
_publ_section_title
;
Structure prediction by ZEFSAII (Michael W. Deem and Ramdas Pophale) SiO2 
 PCOD9090923
Probable space group: P -1
;
_chemical_formula_sum "Si O2"
_cell_formula_units_Z 14
_cell_length_a 17.996526
_cell_length_b 9.259899
_cell_length_c 11.041363
_cell_angle_alpha 140.342427
_cell_angle_beta 33.380638
_cell_angle_gamma 127.934679
_cell_volume 644.016019
_symmetry_space_group_name_H-M "P -1"
_symmetry_group_IT_number 2
_symmetry_cell_setting 'triclinic'
loop_
_space_group_symop_operation_xyz
x,y,z
-x,-y,-z
loop_
_atom_site_type_symbol
_atom_site_label
_atom_site_fract_x
_atom_site_fract_y
_atom_site_fract_z
Si Si1 0.520061 0.357979 0.187036
Si Si2 0.408075 0.232391 0.806290
Si Si3 0.017242 0.770083 0.251356
Si Si4 0.502484 0.065804 0.800424
Si Si5 0.791394 0.934962 0.203594
Si Si6 0.328485 0.643476 0.788586
Si Si7 0.988433 0.283180 0.053864
O O1 0.530127 0.561479 0.210406
O O2 0.395679 0.419088 0.487209
O O3 0.651083 0.361989 0.098171
O O4 0.504108 0.145847 0.987077
O O5 0.419731 0.247446 0.943779
O O6 0.500000 0.000000 0.500000
O O7 0.262649 0.201496 0.925583
O O8 0.974354 0.796642 0.186221
O O9 0.177358 0.695697 0.985645
O O10 0.953738 0.553985 0.260397
O O11 0.000000 0.000000 0.500000
O O12 0.656352 0.022430 0.517169
O O13 0.421545 0.843153 0.753730
O O14 0.888472 0.781881 0.062718
O O15 0.868536 0.143198 0.179697
#
# Coordination Sequence:
#
# PCOD9090923 Si02
#       7
#     2   2   2   2   2   2   2
#     4  11  23  39  65 100 128 170 202 268 333 376
#     4  10  19  39  61  92 131 160 204 265 322 375
#     4  11  26  46  67  93 130 174 226 261 316 388
#     4  11  23  39  67 101 127 164 213 267 327 390
#     4  10  21  44  67  94 136 168 216 266 330 380
#     4  11  24  43  65  96 132 164 214 271 322 375
#     4  10  24  45  67  92 129 181 213 269 316 383
#
# _framework density 21.738589999999999
#
# number of rings (size 3 to 8) (size 9 to 14) (size 15 to 20)
#    0.000    1.429    2.857    2.571    6.000    2.286 
#    5.143    1.429    0.000    0.000    0.000    0.000 
#    0.000    0.000    0.000    0.000    0.000    0.000 
#
# Total GULP energy -78221.280891 kJ/mol
# GULP energy per Si atom -5587.234349 kJ/mol
# Density = 2.168911 g / cm^3
# Si number density = 21.738590 Si / 1000 Ang^3
#
#
#
# Elastic Constant Matrix: (Units=GPa)
#
#
# Indices 1 2 3 4 5 6 
#
# 1 144.4928 32.9822 25.9321 -0.4287 8.2794 -21.3094
# 2 32.9822 98.9399 9.3416 -0.0477 7.1891 -22.1596
# 3 25.9321 9.3416 23.5386 -3.5016 2.3128 9.0507
# 4 -0.4287 -0.0477 -3.5016 20.2755 9.0775 -2.4897
# 5 8.2794 7.1891 2.3128 9.0775 36.6753 5.2593
# 6 -21.3094 -22.1596 9.0507 -2.4897 5.2593 41.8306
#
#
#
# Elastic Compliance Matrix: (Units=1/GPa)
#
#
# Indices 1 2 3 4 5 6 
#
# 1 0.011364 0.000104 -0.015991 -0.000006 -0.002963 0.009676
# 2 0.000104 0.013267 -0.008432 0.001445 -0.003808 0.009471
# 3 -0.015991 -0.008432 0.075438 0.007939 0.002670 -0.028799
# 4 -0.000006 0.001445 0.007939 0.058356 -0.015873 0.004514
# 5 -0.002963 -0.003808 0.002670 -0.015873 0.033775 -0.009296
# 6 0.009676 0.009471 -0.028799 0.004514 -0.009296 0.041521
#
#
# Mechanical properties :
#
#
# Convention : Reuss Voigt Hill
#
# Bulk Modulus (GPa) = 19.44340 44.83144 32.13742
# Shear Modulus (GPa) = 16.69436 33.00399 24.84917
#
# Velocity S-wave (km/s) = 2.77422 3.90066 3.38463
# Velocity P-wave (km/s) = 4.38467 6.39958 5.48543
#
# Compressibility (1/GPa) = 0.05143133
#
# Stress axis : x y z
#
# Youngs Moduli (GPa) = 88.00000 75.37452 13.25585
#
# Poissons Ratio (x) = -0.00785 0.21197
# Poissons Ratio (y) = -0.00917 0.11178
# Poissons Ratio (z) = 1.40718 0.63558
#
# Static dielectric constant tensor:
#      x y z
#    x 1.847460 -0.043700 0.009460 
#    y -0.043700 1.841860 0.013910 
#    z 0.009460 0.013910 1.775980 
# 
# From -- ./inp_files/462536.got.cif
#   From: 2010.05.17/outbox.cif.g08.bks.cpg/sg2_232_cif.got.tgz:462536.got - 2010.06.03 11:33:40.
