data_PCOD9090075
_publ_section_title
;
Structure prediction by ZEFSAII (Michael W. Deem and Ramdas Pophale) SiO2 
 PCOD9090075
Probable space group: P -1
;
_chemical_formula_sum "Si O2"
_cell_formula_units_Z 16
_cell_length_a 13.747843
_cell_length_b 10.138898
_cell_length_c 14.452707
_cell_angle_alpha 128.700593
_cell_angle_beta 108.403139
_cell_angle_gamma 31.700573
_cell_volume 701.939437
_symmetry_space_group_name_H-M "P -1"
_symmetry_group_IT_number 2
_symmetry_cell_setting 'triclinic'
loop_
_space_group_symop_operation_xyz
x,y,z
-x,-y,-z
loop_
_atom_site_type_symbol
_atom_site_label
_atom_site_fract_x
_atom_site_fract_y
_atom_site_fract_z
Si Si1 0.141228 0.303438 0.047131
Si Si2 0.245678 0.774656 0.902483
Si Si3 0.043446 0.634867 0.583186
Si Si4 0.717958 0.183847 0.565914
Si Si5 0.812435 0.206737 0.904358
Si Si6 0.056901 0.103619 0.679960
Si Si7 0.376877 0.431161 0.610571
Si Si8 0.403382 0.347778 0.151293
O O1 0.985950 0.633632 0.213131
O O2 0.000000 0.500000 0.000000
O O3 0.218659 0.012665 0.981910
O O4 0.361377 0.077718 0.980455
O O5 0.397421 0.455883 0.735079
O O6 0.308396 0.653682 0.974637
O O7 0.009793 0.039940 0.922593
O O8 0.281101 0.380841 0.547680
O O9 0.000000 0.500000 0.500000
O O10 0.922401 0.880943 0.563584
O O11 0.920402 0.885781 0.747262
O O12 0.599620 0.173289 0.518091
O O13 0.547600 0.554859 0.729110
O O14 0.802088 0.132309 0.471904
O O15 0.679100 0.484163 0.902685
O O16 0.806869 0.408376 0.747442
O O17 0.186991 0.825806 0.680931
#
# Coordination Sequence:
#
# PCOD9090075 Si02
#       8
#     2   2   2   2   2   2   2   2
#     4  12  23  38  62  96 137 168 222 279 330 389
#     4  10  19  38  63  92 125 170 221 271 328 390
#     4  10  23  42  64  93 133 170 226 280 327 392
#     4  11  23  41  67  94 130 179 219 269 334 401
#     4   9  20  39  66  89 124 176 222 270 338 391
#     4  12  23  40  62  98 133 175 218 273 333 399
#     4  11  21  43  67  94 134 176 221 271 335 398
#     4  11  21  42  65  94 130 179 223 273 330 400
#
# _framework density 22.793987999999999
#
# number of rings (size 3 to 8) (size 9 to 14) (size 15 to 20)
#    0.000    1.250    6.250    1.125    1.750    1.000 
#    0.000    0.000    0.000    0.000    0.000    0.000 
#    0.000    0.000    0.000    0.000    0.000    0.000 
#
# Total GULP energy -89244.574040 kJ/mol
# GULP energy per Si atom -5577.785878 kJ/mol
# Density = 2.274211 g / cm^3
# Si number density = 22.793988 Si / 1000 Ang^3
#
#
#
# Elastic Constant Matrix: (Units=GPa)
#
#
# Indices 1 2 3 4 5 6 
#
# 1 86.6223 20.7994 26.0329 -16.0689 -12.3261 -14.5086
# 2 20.7994 67.3516 34.8397 -5.1086 -19.0285 -20.1093
# 3 26.0329 34.8397 87.4945 -20.0501 -21.0976 6.5398
# 4 -16.0689 -5.1086 -20.0501 26.7878 3.3299 -6.1653
# 5 -12.3261 -19.0285 -21.0976 3.3299 34.8494 -3.5647
# 6 -14.5086 -20.1093 6.5398 -6.1653 -3.5647 39.2998
#
#
#
# Elastic Compliance Matrix: (Units=1/GPa)
#
#
# Indices 1 2 3 4 5 6 
#
# 1 0.015895 0.001010 -0.002543 0.009245 0.004638 0.008679
# 2 0.001010 0.028245 -0.009789 0.001306 0.011540 0.017706
# 3 -0.002543 -0.009789 0.019714 0.009150 0.004056 -0.007425
# 4 0.009245 0.001306 0.009150 0.051843 0.005715 0.011210
# 5 0.004638 0.011540 0.004056 0.005715 0.039716 0.011441
# 6 0.008679 0.017706 -0.007425 0.011210 0.011441 0.041742
#
#
# Mechanical properties :
#
#
# Convention : Reuss Voigt Hill
#
# Bulk Modulus (GPa) = 24.26670 44.97914 34.62292
# Shear Modulus (GPa) = 21.41001 30.84050 26.12526
#
# Velocity S-wave (km/s) = 3.06810 3.68232 3.38915
# Velocity P-wave (km/s) = 4.81873 6.15264 5.52608
#
# Compressibility (1/GPa) = 0.04120874
#
# Stress axis : x y z
#
# Youngs Moduli (GPa) = 62.91371 35.40426 50.72604
#
# Poissons Ratio (x) = -0.03575 0.12901
# Poissons Ratio (y) = -0.06353 0.49656
# Poissons Ratio (z) = 0.16001 0.34657
#
# Static dielectric constant tensor:
#      x y z
#    x 2.053510 -0.033390 0.116740 
#    y -0.033390 1.817330 0.006200 
#    z 0.116740 0.006200 1.969350 
# 
# From -- ./inp_files/531947.got.cif
#   From: 2010.05.17/outbox.cif.g08.bks.cpg/sg2_266_cif.got.tgz:531947.got - 2010.06.03 11:33:40.
