data_PCOD9090087
_publ_section_title
;
Structure prediction by ZEFSAII (Michael W. Deem and Ramdas Pophale) SiO2 
 PCOD9090087
Probable space group: P -1
;
_chemical_formula_sum "Si O2"
_cell_formula_units_Z 12
_cell_length_a 10.625045
_cell_length_b 7.004339
_cell_length_c 12.851903
_cell_angle_alpha 97.684656
_cell_angle_beta 144.254530
_cell_angle_gamma 89.751374
_cell_volume 544.688953
_symmetry_space_group_name_H-M "P -1"
_symmetry_group_IT_number 2
_symmetry_cell_setting 'triclinic'
loop_
_space_group_symop_operation_xyz
x,y,z
-x,-y,-z
loop_
_atom_site_type_symbol
_atom_site_label
_atom_site_fract_x
_atom_site_fract_y
_atom_site_fract_z
Si Si1 0.138723 0.712711 0.093608
Si Si2 0.631334 0.790616 0.055315
Si Si3 0.258624 0.069296 0.649833
Si Si4 0.771196 0.526230 0.298084
Si Si5 0.962467 0.039497 0.139305
Si Si6 0.406659 0.111430 0.540986
O O1 0.390075 0.716546 0.290739
O O2 0.041885 0.871962 0.109839
O O3 0.000000 0.500000 0.000000
O O4 0.131821 0.803189 0.980890
O O5 0.412240 0.666809 0.849357
O O6 0.609203 0.922264 0.152926
O O7 0.763550 0.628598 0.186100
O O8 0.790589 0.920586 0.093270
O O9 0.292677 0.300464 0.662266
O O10 0.349354 0.984332 0.600644
O O11 0.000000 0.000000 0.500000
O O12 0.000000 0.500000 0.500000
O O13 0.174258 0.151147 0.350265
O O14 0.500000 0.000000 0.500000
#
# Coordination Sequence:
#
# PCOD9090087 Si02
#       6
#     2   2   2   2   2   2
#     4  10  24  40  65  90 122 172 221 263 329 389
#     4   9  20  37  62  88 132 162 207 272 319 377
#     4  10  19  38  63  93 127 164 211 264 315 386
#     4   9  20  38  59  93 130 167 207 261 327 384
#     4  10  21  43  61  89 129 165 216 274 319 387
#     4  10  21  41  63  91 129 170 213 266 323 380
#
# _framework density 22.030920999999999
#
# number of rings (size 3 to 8) (size 9 to 14) (size 15 to 20)
#    1.000    1.333    1.667    0.000    2.333    3.333 
#    6.000    1.667    0.000    0.000    0.000    0.000 
#    0.000    0.000    0.000    0.000    0.000    0.000 
#
# Total GULP energy -66848.616255 kJ/mol
# GULP energy per Si atom -5570.718021 kJ/mol
# Density = 2.198078 g / cm^3
# Si number density = 22.030921 Si / 1000 Ang^3
#
#
#
# Elastic Constant Matrix: (Units=GPa)
#
#
# Indices 1 2 3 4 5 6 
#
# 1 132.2581 26.3702 47.8526 10.2341 0.6596 29.8093
# 2 26.3702 111.7612 62.7208 19.9280 7.0492 19.7903
# 3 47.8526 62.7208 217.2325 26.5319 7.3537 20.1505
# 4 10.2341 19.9280 26.5319 33.8905 5.8736 3.9183
# 5 0.6596 7.0492 7.3537 5.8736 31.1383 3.1659
# 6 29.8093 19.7903 20.1505 3.9183 3.1659 26.8957
#
#
#
# Elastic Compliance Matrix: (Units=1/GPa)
#
#
# Indices 1 2 3 4 5 6 
#
# 1 0.010512 0.000319 -0.001280 -0.001337 0.001367 -0.010893
# 2 0.000319 0.012286 -0.002406 -0.004529 -0.000669 -0.006853
# 3 -0.001280 -0.002406 0.006007 -0.002758 -0.000237 -0.000881
# 4 -0.001337 -0.004529 -0.002758 0.035364 -0.005204 0.002341
# 5 0.001367 -0.000669 -0.000237 -0.005204 0.033687 -0.004053
# 6 -0.010893 -0.006853 -0.000881 0.002341 -0.004053 0.055092
#
#
# Mechanical properties :
#
#
# Convention : Reuss Voigt Hill
#
# Bulk Modulus (GPa) = 45.30958 81.68210 63.49584
# Shear Modulus (GPa) = 29.93308 40.00544 34.96926
#
# Velocity S-wave (km/s) = 3.69003 4.26593 3.98839
# Velocity P-wave (km/s) = 6.22625 7.83715 7.07768
#
# Compressibility (1/GPa) = 0.02207039
#
# Stress axis : x y z
#
# Youngs Moduli (GPa) = 95.12606 81.39468 166.47983
#
# Poissons Ratio (x) = -0.02599 0.21316
# Poissons Ratio (y) = -0.03037 0.40058
# Poissons Ratio (z) = 0.12180 0.19585
#
# Static dielectric constant tensor:
#      x y z
#    x 1.915430 -0.058360 -0.052130 
#    y -0.058360 1.907400 -0.085840 
#    z -0.052130 -0.085840 1.876640 
# 
# From -- ./inp_files/512042.got.cif
#   From: 2010.05.17/outbox.cif.g08.bks.cpg/sg2_257_cif.got.tgz:512042.got - 2010.06.03 11:33:40.
