data_PCOD9090968
_publ_section_title
;
Structure prediction by ZEFSAII (Michael W. Deem and Ramdas Pophale) SiO2 
 PCOD9090968
Probable space group: P -1
;
_chemical_formula_sum "Si O2"
_cell_formula_units_Z 16
_cell_length_a 7.266062
_cell_length_b 15.001937
_cell_length_c 8.178488
_cell_angle_alpha 82.219092
_cell_angle_beta 123.287742
_cell_angle_gamma 69.355694
_cell_volume 632.738471
_symmetry_space_group_name_H-M "P -1"
_symmetry_group_IT_number 2
_symmetry_cell_setting 'triclinic'
loop_
_space_group_symop_operation_xyz
x,y,z
-x,-y,-z
loop_
_atom_site_type_symbol
_atom_site_label
_atom_site_fract_x
_atom_site_fract_y
_atom_site_fract_z
Si Si1 0.124484 0.082584 0.242949
Si Si2 0.900761 0.615871 0.100939
Si Si3 0.719973 0.744798 0.650588
Si Si4 0.167834 0.569956 0.755125
Si Si5 0.376426 0.016081 0.694595
Si Si6 0.256355 0.792806 0.216459
Si Si7 0.741900 0.825106 0.127630
Si Si8 0.412813 0.572898 0.207318
O O1 0.171940 0.180312 0.266971
O O2 0.169121 0.031599 0.454693
O O3 0.367828 0.005187 0.270786
O O4 0.856204 0.125646 0.009662
O O5 0.853743 0.526402 0.162593
O O6 0.787847 0.710296 0.152716
O O7 0.202088 0.564815 0.214238
O O8 0.763614 0.671826 0.848136
O O9 0.431047 0.802378 0.433824
O O10 0.889912 0.671665 0.602193
O O11 0.315618 0.533293 0.664335
O O12 0.312678 0.594426 0.964296
O O13 0.275637 0.121255 0.722506
O O14 0.488114 0.913127 0.886265
O O15 0.405802 0.674253 0.249165
O O16 0.994479 0.813161 0.166535
#
# Coordination Sequence:
#
# PCOD9090968 Si02
#       8
#     2   2   2   2   2   2   2   2
#     4  10  19  39  62  87 124 162 207 261 319 367
#     4  10  19  39  63  89 130 167 206 263 316 368
#     4  11  20  37  61  87 127 166 202 259 314 369
#     4  10  20  36  63  90 124 170 211 252 316 375
#     4   9  18  36  68  85 114 170 203 258 326 368
#     4  10  20  37  59  88 128 162 203 260 309 374
#     4   9  18  39  63  88 123 159 210 260 313 377
#     4   9  18  37  58  85 127 163 204 262 300 367
#
# _framework density 25.286906999999999
#
# number of rings (size 3 to 8) (size 9 to 14) (size 15 to 20)
#    0.000    2.250    5.000    1.500    0.000    1.500 
#    2.250   13.125    0.000    0.000    0.000    0.000 
#    0.000    0.000    0.000    0.000    0.000    0.000 
#
# Total GULP energy -89536.909992 kJ/mol
# GULP energy per Si atom -5596.056875 kJ/mol
# Density = 2.522935 g / cm^3
# Si number density = 25.286907 Si / 1000 Ang^3
#
#
#
# Elastic Constant Matrix: (Units=GPa)
#
#
# Indices 1 2 3 4 5 6 
#
# 1 78.7152 47.7340 31.1936 5.6347 -1.4891 -6.9770
# 2 47.7340 176.4499 20.2438 5.2492 -5.0888 -31.3010
# 3 31.1936 20.2438 93.7808 10.9594 5.2360 -3.8639
# 4 5.6347 5.2492 10.9594 22.1520 -6.2590 -12.4331
# 5 -1.4891 -5.0888 5.2360 -6.2590 25.1655 4.4980
# 6 -6.9770 -31.3010 -3.8639 -12.4331 4.4980 37.8765
#
#
#
# Elastic Compliance Matrix: (Units=1/GPa)
#
#
# Indices 1 2 3 4 5 6 
#
# 1 0.017179 -0.004297 -0.004721 -0.001576 0.001007 -0.001505
# 2 -0.004297 0.008027 -0.000507 0.003603 0.001149 0.006836
# 3 -0.004721 -0.000507 0.013434 -0.007732 -0.004762 -0.001891
# 4 -0.001576 0.003603 -0.007732 0.064614 0.014492 0.021387
# 5 0.001007 0.001149 -0.004762 0.014492 0.044604 0.000109
# 6 -0.001505 0.006836 -0.001891 0.021387 0.000109 0.038589
#
#
# Mechanical properties :
#
#
# Convention : Reuss Voigt Hill
#
# Bulk Modulus (GPa) = 51.04355 60.80984 55.92669
# Shear Modulus (GPa) = 23.58206 33.69043 28.63624
#
# Velocity S-wave (km/s) = 3.05713 3.65407 3.36885
# Velocity P-wave (km/s) = 5.71760 6.47326 6.10713
#
# Compressibility (1/GPa) = 0.01959111
#
# Stress axis : x y z
#
# Youngs Moduli (GPa) = 58.21125 124.58720 74.43602
#
# Poissons Ratio (x) = 0.53532 0.35138
# Poissons Ratio (y) = 0.25012 0.03774
# Poissons Ratio (z) = 0.27479 0.06316
#
# Static dielectric constant tensor:
#      x y z
#    x 2.003770 -0.022360 -0.007900 
#    y -0.022360 1.983280 -0.032080 
#    z -0.007900 -0.032080 2.052180 
# 
# From -- ./inp_files/217723.got.cif
#   From: 2010.05.17/outbox.cif.g08.bks.cpg/sg2_109_cif.got.tgz:217723.got - 2010.06.03 11:33:40.
