data_PCOD9090212
_publ_section_title
;
Structure prediction by ZEFSAII (Michael W. Deem and Ramdas Pophale) SiO2 
 PCOD9090212
Probable space group: P -1
;
_chemical_formula_sum "Si O2"
_cell_formula_units_Z 16
_cell_length_a 7.587339
_cell_length_b 8.194691
_cell_length_c 24.398683
_cell_angle_alpha 117.630023
_cell_angle_beta 146.080694
_cell_angle_gamma 53.632199
_cell_volume 680.295201
_symmetry_space_group_name_H-M "P -1"
_symmetry_group_IT_number 2
_symmetry_cell_setting 'triclinic'
loop_
_space_group_symop_operation_xyz
x,y,z
-x,-y,-z
loop_
_atom_site_type_symbol
_atom_site_label
_atom_site_fract_x
_atom_site_fract_y
_atom_site_fract_z
Si Si1 0.424749 0.679645 0.298013
Si Si2 0.767784 0.427905 0.648894
Si Si3 0.376101 0.310252 0.183488
Si Si4 0.777419 0.018736 0.327889
Si Si5 0.939912 0.198247 0.978756
Si Si6 0.934169 0.218507 0.493442
Si Si7 0.934647 0.009888 0.831734
Si Si8 0.785292 0.425395 0.144096
O O1 0.335749 0.626627 0.326702
O O2 0.503917 0.487089 0.249033
O O3 0.111036 0.864770 0.215960
O O4 0.755558 0.727408 0.400336
O O5 0.433796 0.596751 0.560235
O O6 0.038126 0.520514 0.749285
O O7 0.947921 0.212094 0.632616
O O8 0.665083 0.102685 0.250867
O O9 0.046376 0.381532 0.152442
O O10 0.232252 0.271831 0.083660
O O11 0.905393 0.173093 0.414358
O O12 0.420108 0.026941 0.262582
O O13 0.939412 0.139282 0.906198
O O14 0.571984 0.381162 0.927149
O O15 0.000000 0.000000 0.000000
O O16 0.000000 0.000000 0.500000
O O17 0.236354 0.786124 0.882297
#
# Coordination Sequence:
#
# PCOD9090212 Si02
#       8
#     2   2   2   2   2   2   2   2
#     4  11  24  44  61  91 135 163 201 266 318 362
#     4  11  22  40  67  93 126 165 207 257 315 368
#     4  10  22  40  64  91 129 163 207 260 307 368
#     4  11  21  42  65  95 121 166 216 250 303 382
#     4  12  21  37  70  95 119 170 217 254 303 376
#     4  12  23  43  68  91 127 167 208 258 313 372
#     4  11  22  41  63  93 129 163 208 263 306 371
#     4  10  19  38  64  92 123 165 211 249 309 370
#
# _framework density 23.519202
#
# number of rings (size 3 to 8) (size 9 to 14) (size 15 to 20)
#    0.000    1.000    8.750    0.750    0.000    1.500 
#    2.250    0.625    0.000    0.000    0.000    0.000 
#    0.000    0.000    0.000    0.000    0.000    0.000 
#
# Total GULP energy -89506.473359 kJ/mol
# GULP energy per Si atom -5594.154585 kJ/mol
# Density = 2.346567 g / cm^3
# Si number density = 23.519202 Si / 1000 Ang^3
#
#
#
# Elastic Constant Matrix: (Units=GPa)
#
#
# Indices 1 2 3 4 5 6 
#
# 1 57.6512 29.9122 29.6781 -5.1642 -8.2601 0.8432
# 2 29.9122 165.5928 51.8047 -21.3236 -0.5474 -20.4005
# 3 29.6781 51.8047 126.8376 9.6886 -18.2410 -12.7450
# 4 -5.1642 -21.3236 9.6886 63.3675 4.8097 -0.8708
# 5 -8.2601 -0.5474 -18.2410 4.8097 12.6425 -3.8044
# 6 0.8432 -20.4005 -12.7450 -0.8708 -3.8044 28.0619
#
#
#
# Elastic Compliance Matrix: (Units=1/GPa)
#
#
# Indices 1 2 3 4 5 6 
#
# 1 0.021920 -0.003409 -0.002768 0.000328 0.009107 -0.003150
# 2 -0.003409 0.008798 -0.003809 0.003900 -0.007668 0.003849
# 3 -0.002768 -0.003809 0.014506 -0.005382 0.023069 0.006862
# 4 0.000328 0.003900 -0.005382 0.019063 -0.014952 -0.001054
# 5 0.009107 -0.007668 0.023069 -0.014952 0.130257 0.021824
# 6 -0.003150 0.003849 0.006862 -0.001054 0.021824 0.044571
#
#
# Mechanical properties :
#
#
# Convention : Reuss Voigt Hill
#
# Bulk Modulus (GPa) = 39.60436 63.65240 51.62838
# Shear Modulus (GPa) = 18.69123 36.72683 27.70903
#
# Velocity S-wave (km/s) = 2.82214 3.95595 3.43614
# Velocity P-wave (km/s) = 5.24357 6.92740 6.14345
#
# Compressibility (1/GPa) = 0.02524974
#
# Stress axis : x y z
#
# Youngs Moduli (GPa) = 45.62060 113.66761 68.93704
#
# Poissons Ratio (x) = 0.38752 0.19084
# Poissons Ratio (y) = 0.15553 0.26261
# Poissons Ratio (z) = 0.12629 0.43301
#
# Static dielectric constant tensor:
#      x y z
#    x 1.935970 -0.000080 -0.024900 
#    y -0.000080 1.900030 0.001350 
#    z -0.024900 0.001350 1.908420 
# 
# From -- ./inp_files/616674.got.cif
#   From: 2010.05.17/outbox.cif.g08.bks.cpg/sg2_309_cif.got.tgz:616674.got - 2010.06.03 11:33:40.
