data_PCOD9090196
_publ_section_title
;
Structure prediction by ZEFSAII (Michael W. Deem and Ramdas Pophale) SiO2 
 PCOD9090196
Probable space group: P -1
;
_chemical_formula_sum "Si O2"
_cell_formula_units_Z 16
_cell_length_a 17.813552
_cell_length_b 12.402466
_cell_length_c 21.114051
_cell_angle_alpha 149.388326
_cell_angle_beta 20.195632
_cell_angle_gamma 152.733192
_cell_volume 727.426995
_symmetry_space_group_name_H-M "P -1"
_symmetry_group_IT_number 2
_symmetry_cell_setting 'triclinic'
loop_
_space_group_symop_operation_xyz
x,y,z
-x,-y,-z
loop_
_atom_site_type_symbol
_atom_site_label
_atom_site_fract_x
_atom_site_fract_y
_atom_site_fract_z
Si Si1 0.060238 0.553733 0.205812
Si Si2 0.191677 0.023952 0.660307
Si Si3 0.630825 0.893164 0.751696
Si Si4 0.430891 0.158484 0.740244
Si Si5 0.922862 0.241763 0.897343
Si Si6 0.545694 0.531546 0.228472
Si Si7 0.040660 0.231539 0.162078
Si Si8 0.730094 0.619242 0.423741
O O1 0.067622 0.471703 0.229708
O O2 0.790873 0.449999 0.336474
O O3 0.172821 0.836894 0.257687
O O4 0.223418 0.476523 0.993171
O O5 0.376185 0.933510 0.439887
O O6 0.017562 0.823680 0.746747
O O7 0.352797 0.262826 0.694819
O O8 0.030224 0.095441 0.778288
O O9 0.608490 0.716412 0.738099
O O10 0.687779 0.794047 0.592305
O O11 0.366737 0.882570 0.945926
O O12 0.564279 0.380925 0.697977
O O13 0.203552 0.964436 0.780167
O O14 0.283045 0.210061 0.938933
O O15 0.045636 0.278664 0.750530
O O16 0.000000 0.500000 0.000000
O O17 0.500000 0.500000 0.500000
#
# Coordination Sequence:
#
# PCOD9090196 Si02
#       8
#     2   2   2   2   2   2   2   2
#     4  11  24  42  66  99 134 171 213 265 333 384
#     4  11  21  38  64  94 127 166 220 272 315 374
#     4  12  25  43  64  98 136 173 212 268 325 393
#     4   9  20  34  59  95 122 164 217 271 313 365
#     4  12  24  43  63  94 132 174 212 264 329 379
#     4  10  19  38  64  90 128 169 213 267 314 376
#     4   9  20  37  61  92 127 168 214 268 318 379
#     4  12  25  40  66  98 130 171 214 269 321 386
#
# _framework density 21.995334
#
# number of rings (size 3 to 8) (size 9 to 14) (size 15 to 20)
#    0.000    1.250    3.750    3.000    5.250    1.000 
#    0.000    0.625    0.000    3.750    0.000    0.000 
#    0.000    0.000    0.000    0.000    0.000    0.000 
#
# Total GULP energy -89439.805306 kJ/mol
# GULP energy per Si atom -5589.987832 kJ/mol
# Density = 2.194527 g / cm^3
# Si number density = 21.995334 Si / 1000 Ang^3
#
#
#
# Elastic Constant Matrix: (Units=GPa)
#
#
# Indices 1 2 3 4 5 6 
#
# 1 85.1716 41.3296 67.1150 -2.7509 -9.6085 -27.5016
# 2 41.3296 97.0826 38.2747 0.6874 -10.5938 -33.0398
# 3 67.1150 38.2747 150.9316 -1.0251 -12.1150 -20.0815
# 4 -2.7509 0.6874 -1.0251 23.9597 -9.9293 0.2002
# 5 -9.6085 -10.5938 -12.1150 -9.9293 34.2241 2.4666
# 6 -27.5016 -33.0398 -20.0815 0.2002 2.4666 33.6118
#
#
#
# Elastic Compliance Matrix: (Units=1/GPa)
#
#
# Indices 1 2 3 4 5 6 
#
# 1 0.023529 -0.002564 -0.007972 0.003666 0.003210 0.011711
# 2 -0.002564 0.016751 -0.001049 0.000410 0.003240 0.013501
# 3 -0.007972 -0.001049 0.010340 0.000077 0.001226 -0.001466
# 4 0.003666 0.000410 0.000077 0.048378 0.015071 0.002055
# 5 0.003210 0.003240 0.001226 0.015071 0.035653 0.003838
# 6 0.011711 0.013501 -0.001466 0.002055 0.003838 0.051436
#
#
# Mechanical properties :
#
#
# Convention : Reuss Voigt Hill
#
# Bulk Modulus (GPa) = 36.42763 69.62493 53.02628
# Shear Modulus (GPa) = 22.89321 30.79023 26.84172
#
# Velocity S-wave (km/s) = 3.22968 3.74552 3.49712
# Velocity P-wave (km/s) = 5.52315 7.10129 6.36135
#
# Compressibility (1/GPa) = 0.02745169
#
# Stress axis : x y z
#
# Youngs Moduli (GPa) = 42.50106 59.69822 96.71097
#
# Poissons Ratio (x) = 0.15305 0.77095
# Poissons Ratio (y) = 0.10896 0.10141
# Poissons Ratio (z) = 0.33881 0.06260
#
# Static dielectric constant tensor:
#      x y z
#    x 1.859530 0.002890 -0.056930 
#    y 0.002890 1.891390 -0.012930 
#    z -0.056930 -0.012930 1.838030 
# 
# From -- ./inp_files/600127.got.cif
#   From: 2010.05.17/outbox.cif.g08.bks.cpg/sg2_301_cif.got.tgz:600127.got - 2010.06.03 11:33:40.
