data_PCOD9090760
_publ_section_title
;
Structure prediction by ZEFSAII (Michael W. Deem and Ramdas Pophale) SiO2 
 PCOD9090760
Probable space group: P -1
;
_chemical_formula_sum "Si O2"
_cell_formula_units_Z 16
_cell_length_a 7.847237
_cell_length_b 10.864681
_cell_length_c 19.543476
_cell_angle_alpha 50.997404
_cell_angle_beta 43.256661
_cell_angle_gamma 81.621557
_cell_volume 718.310396
_symmetry_space_group_name_H-M "P -1"
_symmetry_group_IT_number 2
_symmetry_cell_setting 'triclinic'
loop_
_space_group_symop_operation_xyz
x,y,z
-x,-y,-z
loop_
_atom_site_type_symbol
_atom_site_label
_atom_site_fract_x
_atom_site_fract_y
_atom_site_fract_z
Si Si1 0.366042 0.757372 0.281234
Si Si2 0.558591 0.744470 0.455386
Si Si3 0.627447 0.154616 0.021719
Si Si4 0.187033 0.515115 0.042745
Si Si5 0.075168 0.155056 0.151200
Si Si6 0.270994 0.383903 0.422497
Si Si7 0.617512 0.472958 0.155371
Si Si8 0.990489 0.648850 0.290858
O O1 0.448754 0.606231 0.323285
O O2 0.086507 0.710034 0.427575
O O3 0.216876 0.694236 0.271024
O O4 0.620041 0.988045 0.123579
O O5 0.621755 0.719867 0.524452
O O6 0.756539 0.693213 0.371128
O O7 0.209573 0.577208 0.595930
O O8 0.722155 0.972597 0.313118
O O9 0.817502 0.213706 0.876577
O O10 0.749701 0.348718 0.960868
O O11 0.278513 0.076512 0.133885
O O12 0.440756 0.619879 0.870745
O O13 0.137364 0.308966 0.138484
O O14 0.873529 0.460025 0.120082
O O15 0.218074 0.298576 0.993285
O O16 0.356344 0.392838 0.315712
#
# Coordination Sequence:
#
# PCOD9090760 Si02
#       8
#     2   2   2   2   2   2   2   2
#     4  10  22  36  58  88 122 151 188 240 293 350
#     4  10  21  39  58  89 120 150 190 245 287 349
#     4  12  20  37  61  89 115 157 195 237 288 348
#     4   9  22  39  58  87 114 153 203 243 270 351
#     4  10  20  39  64  81 117 153 194 241 288 332
#     4  10  19  39  58  84 119 154 183 244 294 341
#     4   9  20  40  61  79 118 155 194 240 289 336
#     4  10  21  36  58  86 123 146 196 236 292 346
#
# _framework density 22.274491999999999
#
# number of rings (size 3 to 8) (size 9 to 14) (size 15 to 20)
#    0.750    1.250    2.500    2.250    1.750    0.000 
#    9.000    4.375    0.000    0.000    0.000    0.000 
#    0.000    0.000    0.000    0.000    0.000    0.000 
#
# Total GULP energy -89269.089015 kJ/mol
# GULP energy per Si atom -5579.318063 kJ/mol
# Density = 2.222379 g / cm^3
# Si number density = 22.274492 Si / 1000 Ang^3
#
#
#
# Elastic Constant Matrix: (Units=GPa)
#
#
# Indices 1 2 3 4 5 6 
#
# 1 25.7202 0.0884 -3.5448 1.8566 8.6157 -1.4097
# 2 0.0884 55.4795 30.9706 18.2523 8.3698 16.9323
# 3 -3.5448 30.9706 99.1298 1.7504 21.6365 14.6091
# 4 1.8566 18.2523 1.7504 30.3399 7.9159 -1.2279
# 5 8.6157 8.3698 21.6365 7.9159 25.0656 -3.1472
# 6 -1.4097 16.9323 14.6091 -1.2279 -3.1472 20.1663
#
#
#
# Elastic Compliance Matrix: (Units=1/GPa)
#
#
# Indices 1 2 3 4 5 6 
#
# 1 0.047850 0.000347 0.007999 0.002697 -0.025136 -0.006500
# 2 0.000347 0.039160 -0.006482 -0.023382 -0.004009 -0.030209
# 3 0.007999 -0.006482 0.017954 0.007079 -0.019526 -0.009621
# 4 0.002697 -0.023382 0.007079 0.050537 -0.013218 0.015707
# 5 -0.025136 -0.004009 -0.019526 -0.013218 0.074235 0.026535
# 6 -0.006500 -0.030209 -0.009621 0.015707 0.026535 0.086565
#
#
# Mechanical properties :
#
#
# Convention : Reuss Voigt Hill
#
# Bulk Modulus (GPa) = 9.20030 26.15086 17.67558
# Shear Modulus (GPa) = 14.33471 25.30205 19.81838
#
# Velocity S-wave (km/s) = 2.53958 3.37400 2.98608
# Velocity P-wave (km/s) = 3.56913 5.19078 4.45437
#
# Compressibility (1/GPa) = 0.10869213
#
# Stress axis : x y z
#
# Youngs Moduli (GPa) = 20.89850 25.53628 55.69868
#
# Poissons Ratio (x) = -0.00886 -0.44555
# Poissons Ratio (y) = -0.00725 0.36105
# Poissons Ratio (z) = -0.16717 0.16553
#
# Static dielectric constant tensor:
#      x y z
#    x 1.863250 -0.011650 -0.002590 
#    y -0.011650 1.850440 -0.030540 
#    z -0.002590 -0.030540 1.843030 
# 
# From -- ./inp_files/588643.got.cif
#   From: 2010.05.17/outbox.cif.g08.bks.cpg/sg2_295_cif.got.tgz:588643.got - 2010.06.03 11:33:40.
