data_PCOD9090253
_publ_section_title
;
Structure prediction by ZEFSAII (Michael W. Deem and Ramdas Pophale) SiO2 
 PCOD9090253
Probable space group: P -1
;
_chemical_formula_sum "Si O2"
_cell_formula_units_Z 16
_cell_length_a 18.615327
_cell_length_b 7.752050
_cell_length_c 16.148918
_cell_angle_alpha 79.953752
_cell_angle_beta 153.643737
_cell_angle_gamma 117.651197
_cell_volume 723.430695
_symmetry_space_group_name_H-M "P -1"
_symmetry_group_IT_number 2
_symmetry_cell_setting 'triclinic'
loop_
_space_group_symop_operation_xyz
x,y,z
-x,-y,-z
loop_
_atom_site_type_symbol
_atom_site_label
_atom_site_fract_x
_atom_site_fract_y
_atom_site_fract_z
Si Si1 0.217225 0.092086 0.765571
Si Si2 0.880811 0.355767 0.708202
Si Si3 0.910495 0.667653 0.598440
Si Si4 0.692102 0.823784 0.599488
Si Si5 0.493047 0.588506 0.107892
Si Si6 0.892877 0.012841 0.058833
Si Si7 0.515890 0.196487 0.455009
Si Si8 0.323400 0.526621 0.107210
O O1 0.412665 0.225129 0.886870
O O2 0.307133 0.311320 0.902535
O O3 0.000000 0.000000 0.500000
O O4 0.117682 0.850647 0.732593
O O5 0.834999 0.414803 0.567811
O O6 0.765329 0.389233 0.656069
O O7 0.769693 0.081017 0.632490
O O8 0.151758 0.531551 0.972856
O O9 0.697702 0.620050 0.350890
O O10 0.004675 0.820008 0.768587
O O11 0.562215 0.730537 0.560303
O O12 0.527693 0.642434 0.370643
O O13 0.916018 0.874554 0.823523
O O14 0.409210 0.637735 0.095031
O O15 0.671699 0.937312 0.799605
O O16 0.812075 0.756953 0.021349
O O17 0.500000 0.000000 0.500000
#
# Coordination Sequence:
#
# PCOD9090253 Si02
#       8
#     2   2   2   2   2   2   2   2
#     4   9  20  35  65  97 124 155 200 254 303 366
#     4  10  25  38  59  91 123 168 204 252 314 365
#     4  11  21  38  63  94 123 159 207 255 307 369
#     4  10  23  43  60  86 123 166 211 262 310 359
#     4  10  19  38  64  95 124 159 205 248 306 367
#     4  11  22  39  64  92 117 164 216 256 309 364
#     4  10  23  43  59  87 128 164 212 263 309 360
#     4  11  22  40  64  91 124 166 203 257 308 371
#
# _framework density 22.116838999999999
#
# number of rings (size 3 to 8) (size 9 to 14) (size 15 to 20)
#    0.000    1.750    2.500    1.125    3.500    1.000 
#    4.500    0.625    0.000    7.500    0.000    0.000 
#    0.000    0.000    0.000    0.000    0.000    0.000 
#
# Total GULP energy -89325.752981 kJ/mol
# GULP energy per Si atom -5582.859561 kJ/mol
# Density = 2.206650 g / cm^3
# Si number density = 22.116839 Si / 1000 Ang^3
#
#
#
# Elastic Constant Matrix: (Units=GPa)
#
#
# Indices 1 2 3 4 5 6 
#
# 1 100.3339 15.8211 40.1198 8.7595 9.2731 26.0599
# 2 15.8211 85.7471 2.0789 -0.7051 8.4484 15.5310
# 3 40.1198 2.0789 61.5006 1.6593 0.3782 -6.9540
# 4 8.7595 -0.7051 1.6593 26.2785 -1.9770 1.0089
# 5 9.2731 8.4484 0.3782 -1.9770 42.3650 7.0445
# 6 26.0599 15.5310 -6.9540 1.0089 7.0445 33.9135
#
#
#
# Elastic Compliance Matrix: (Units=1/GPa)
#
#
# Indices 1 2 3 4 5 6 
#
# 1 0.022714 0.000039 -0.016960 -0.005844 -0.001705 -0.020421
# 2 0.000039 0.012903 -0.001128 0.000511 -0.001574 -0.005859
# 3 -0.016960 -0.001128 0.029466 0.003063 0.000595 0.019376
# 4 -0.005844 0.000511 0.003063 0.039887 0.002482 0.003182
# 5 -0.001705 -0.001574 0.000595 0.002482 0.024917 -0.003097
# 6 -0.020421 -0.005859 0.019376 0.003182 -0.003097 0.052384
#
#
# Mechanical properties :
#
#
# Convention : Reuss Voigt Hill
#
# Bulk Modulus (GPa) = 34.50010 40.40236 37.45123
# Shear Modulus (GPa) = 21.92698 33.14885 27.53792
#
# Velocity S-wave (km/s) = 3.15209 3.87564 3.53244
# Velocity P-wave (km/s) = 5.37405 6.19151 5.79721
#
# Compressibility (1/GPa) = 0.02898543
#
# Stress axis : x y z
#
# Youngs Moduli (GPa) = 44.02582 77.50300 33.93700
#
# Poissons Ratio (x) = -0.00303 0.57556
# Poissons Ratio (y) = -0.00172 0.03829
# Poissons Ratio (z) = 0.74666 0.08744
#
# Static dielectric constant tensor:
#      x y z
#    x 1.850910 0.009910 0.051570 
#    y 0.009910 1.848890 0.010940 
#    z 0.051570 0.010940 1.779270 
# 
# From -- ./inp_files/52898.got.cif
#   From: 2010.05.17/outbox.cif.g08.bks.cpg/sg2_27_cif.got.tgz:52898.got - 2010.06.03 11:33:40.
