data_PCOD9090647
_publ_section_title
;
Structure prediction by ZEFSAII (Michael W. Deem and Ramdas Pophale) SiO2 
 PCOD9090647
Probable space group: P -1
;
_chemical_formula_sum "Si O2"
_cell_formula_units_Z 16
_cell_length_a 8.614722
_cell_length_b 12.349965
_cell_length_c 14.338837
_cell_angle_alpha 42.061397
_cell_angle_beta 79.020070
_cell_angle_gamma 110.306093
_cell_volume 671.831156
_symmetry_space_group_name_H-M "P -1"
_symmetry_group_IT_number 2
_symmetry_cell_setting 'triclinic'
loop_
_space_group_symop_operation_xyz
x,y,z
-x,-y,-z
loop_
_atom_site_type_symbol
_atom_site_label
_atom_site_fract_x
_atom_site_fract_y
_atom_site_fract_z
Si Si1 0.497084 0.749453 0.864089
Si Si2 0.424631 0.593423 0.180841
Si Si3 0.648681 0.214228 0.535396
Si Si4 0.049022 0.351348 0.062554
Si Si5 0.725409 0.564272 0.413632
Si Si6 0.978509 0.978630 0.406055
Si Si7 0.093736 0.453367 0.437718
Si Si8 0.810936 0.632681 0.154984
O O1 0.763713 0.885698 0.743608
O O2 0.494762 0.939198 0.721959
O O3 0.406631 0.648604 0.043720
O O4 0.325532 0.539018 0.942060
O O5 0.666632 0.681642 0.111552
O O6 0.349088 0.663414 0.224946
O O7 0.226910 0.306049 0.405005
O O8 0.606766 0.298826 0.574506
O O9 0.909780 0.341019 0.447175
O O10 0.658458 0.349408 0.363779
O O11 0.921841 0.113200 0.286918
O O12 0.014340 0.280645 0.003335
O O13 0.000000 0.500000 0.000000
O O14 0.500000 0.500000 0.500000
O O15 0.870360 0.704378 0.211889
O O16 0.887170 0.688971 0.406467
O O17 0.000000 0.000000 0.500000
O O18 0.000000 0.500000 0.500000
#
# Coordination Sequence:
#
# PCOD9090647 Si02
#       8
#     2   2   2   2   2   2   2   2
#     4  12  25  45  66 100 137 175 228 264 339 408
#     4  12  23  42  72  94 137 180 216 281 325 405
#     4   9  22  38  66  98 134 168 222 273 329 393
#     4  12  28  43  65 101 136 176 224 277 329 405
#     4   9  18  37  67  95 131 175 219 272 337 385
#     4  12  25  44  68  95 133 179 223 267 340 393
#     4  10  19  38  68  98 129 176 218 274 336 386
#     4  10  23  41  65  99 132 176 223 274 331 395
#
# _framework density 23.815508999999999
#
# number of rings (size 3 to 8) (size 9 to 14) (size 15 to 20)
#    0.750    0.500    5.000    1.125    5.250    0.500 
#    0.000    2.500    2.750    3.000    0.000    0.000 
#    0.000    0.000    0.000    0.000    0.000    0.000 
#
# Total GULP energy -89142.141106 kJ/mol
# GULP energy per Si atom -5571.383819 kJ/mol
# Density = 2.376130 g / cm^3
# Si number density = 23.815509 Si / 1000 Ang^3
#
#
#
# Elastic Constant Matrix: (Units=GPa)
#
#
# Indices 1 2 3 4 5 6 
#
# 1 94.1694 -2.7765 21.0213 9.0987 1.8595 -20.0665
# 2 -2.7765 44.7220 25.0429 34.7006 1.4227 -7.6683
# 3 21.0213 25.0429 93.9873 26.9625 18.9958 -11.9615
# 4 9.0987 34.7006 26.9625 55.2875 -3.6071 1.0466
# 5 1.8595 1.4227 18.9958 -3.6071 40.6438 3.1024
# 6 -20.0665 -7.6683 -11.9615 1.0466 3.1024 38.6025
#
#
#
# Elastic Compliance Matrix: (Units=1/GPa)
#
#
# Indices 1 2 3 4 5 6 
#
# 1 0.013968 0.009302 -0.002116 -0.007356 -0.001297 0.008757
# 2 0.009302 0.054912 -0.003701 -0.034814 -0.004924 0.015936
# 3 -0.002116 -0.003701 0.015815 -0.005634 -0.007960 0.003858
# 4 -0.007356 -0.034814 -0.005634 0.044773 0.009264 -0.014443
# 5 -0.001297 -0.004924 -0.007960 0.009264 0.029895 -0.006772
# 6 0.008757 0.015936 0.003858 -0.014443 -0.006772 0.035754
#
#
# Mechanical properties :
#
#
# Convention : Reuss Voigt Hill
#
# Bulk Modulus (GPa) = 10.90931 35.49488 23.20210
# Shear Modulus (GPa) = 22.86204 39.54616 31.20410
#
# Velocity S-wave (km/s) = 3.10169 4.07937 3.62365
# Velocity P-wave (km/s) = 4.17349 6.09301 5.22220
#
# Compressibility (1/GPa) = 0.09166484
#
# Stress axis : x y z
#
# Youngs Moduli (GPa) = 71.59205 18.21086 63.23101
#
# Poissons Ratio (x) = -0.16940 0.13379
# Poissons Ratio (y) = -0.66595 0.23404
# Poissons Ratio (z) = 0.15149 0.06741
#
# Static dielectric constant tensor:
#      x y z
#    x 2.020670 -0.071120 -0.037870 
#    y -0.071120 1.968470 -0.007890 
#    z -0.037870 -0.007890 1.930780 
# 
# From -- ./inp_files/505269.got.cif
#   From: 2010.05.17/outbox.cif.g08.bks.cpg/sg2_253_cif.got.tgz:505269.got - 2010.06.03 11:33:40.
