data_PCOD9090000
_publ_section_title
;
Structure prediction by ZEFSAII (Michael W. Deem and Ramdas Pophale) SiO2 
 PCOD9090000
Probable space group: P -1
;
_chemical_formula_sum "Si O2"
_cell_formula_units_Z 16
_cell_length_a 7.679649
_cell_length_b 13.752332
_cell_length_c 11.159504
_cell_angle_alpha 29.030537
_cell_angle_beta 91.346470
_cell_angle_gamma 95.139222
_cell_volume 565.965190
_symmetry_space_group_name_H-M "P -1"
_symmetry_group_IT_number 2
_symmetry_cell_setting 'triclinic'
loop_
_space_group_symop_operation_xyz
x,y,z
-x,-y,-z
loop_
_atom_site_type_symbol
_atom_site_label
_atom_site_fract_x
_atom_site_fract_y
_atom_site_fract_z
Si Si1 0.155067 0.666374 0.763086
Si Si2 0.349771 0.982009 0.715754
Si Si3 0.960070 0.745168 0.994694
Si Si4 0.902255 0.579415 0.526840
Si Si5 0.772910 0.906499 0.047220
Si Si6 0.511555 0.353966 0.805374
Si Si7 0.629184 0.248968 0.562640
Si Si8 0.803987 0.717172 0.764753
O O1 0.156733 0.261292 0.117120
O O2 0.275793 0.754080 0.561667
O O3 0.997802 0.809754 0.607741
O O4 0.283284 0.523305 0.990465
O O5 0.435269 0.124942 0.670475
O O6 0.327513 0.131194 0.445773
O O7 0.470013 0.803765 0.917266
O O8 0.155452 0.862838 0.859293
O O9 0.994343 0.507752 0.268165
O O10 0.869783 0.837068 0.005300
O O11 0.705626 0.460767 0.661095
O O12 0.000000 0.500000 0.500000
O O13 0.878048 0.813084 0.255685
O O14 0.738023 0.135046 0.783006
O O15 0.580542 0.774298 0.168597
O O16 0.394429 0.525239 0.649439
O O17 0.000000 0.500000 0.000000
#
# Coordination Sequence:
#
# PCOD9090000 Si02
#       8
#     2   2   2   2   2   2   2   2
#     4   8  21  38  62  88 124 165 203 261 299 357
#     4  10  22  37  60  92 125 163 205 254 295 365
#     4  10  19  38  63  86 120 166 210 250 307 365
#     4   9  20  39  63  94 122 156 203 260 310 358
#     4  10  21  39  67  89 122 161 205 259 308 363
#     4  10  22  39  66  92 126 164 200 254 308 369
#     4  11  22  41  61  94 127 161 208 248 311 365
#     4   9  19  37  62  85 118 170 209 243 303 365
#
# _framework density 28.270288999999998
#
# number of rings (size 3 to 8) (size 9 to 14) (size 15 to 20)
#    0.750    1.500    0.000    2.250    0.000    5.000 
#    0.000   13.750    0.000   15.000    0.000    0.000 
#    0.000    0.000    0.000    0.000    0.000    0.000 
#
# Total GULP energy -89153.724869 kJ/mol
# GULP energy per Si atom -5572.107804 kJ/mol
# Density = 2.820594 g / cm^3
# Si number density = 28.270289 Si / 1000 Ang^3
#
#
#
# Elastic Constant Matrix: (Units=GPa)
#
#
# Indices 1 2 3 4 5 6 
#
# 1 136.4326 43.7369 64.1891 10.3912 33.5685 1.8067
# 2 43.7369 59.4872 48.8560 -14.7284 14.4644 12.1103
# 3 64.1891 48.8560 263.0034 12.7813 79.3811 7.2730
# 4 10.3912 -14.7284 12.7813 31.4583 10.1289 4.8040
# 5 33.5685 14.4644 79.3811 10.1289 58.7065 4.6376
# 6 1.8067 12.1103 7.2730 4.8040 4.6376 51.8815
#
#
#
# Elastic Compliance Matrix: (Units=1/GPa)
#
#
# Indices 1 2 3 4 5 6 
#
# 1 0.012313 -0.011579 0.000617 -0.009052 -0.003726 0.003359
# 2 -0.011579 0.037724 -0.005491 0.024847 0.001257 -0.010046
# 3 0.000617 -0.005491 0.007356 -0.003226 -0.008491 0.001287
# 4 -0.009052 0.024847 -0.003226 0.050619 -0.004582 -0.009310
# 5 -0.003726 0.001257 -0.008491 -0.004582 0.031233 -0.001341
# 6 0.003359 -0.010046 0.001287 -0.009310 -0.001341 0.022304
#
#
# Mechanical properties :
#
#
# Convention : Reuss Voigt Hill
#
# Bulk Modulus (GPa) = 40.83645 85.83192 63.33418
# Shear Modulus (GPa) = 24.67722 48.55200 36.61461
#
# Velocity S-wave (km/s) = 2.95770 4.14867 3.60274
# Velocity P-wave (km/s) = 5.11276 7.30587 6.30540
#
# Compressibility (1/GPa) = 0.02448792
#
# Stress axis : x y z
#
# Youngs Moduli (GPa) = 81.21674 26.50810 135.95036
#
# Poissons Ratio (x) = 0.30693 -0.08395
# Poissons Ratio (y) = 0.94040 0.74651
# Poissons Ratio (z) = -0.05015 0.14556
#
# Static dielectric constant tensor:
#      x y z
#    x 1.635840 0.224710 -0.620860 
#    y 0.224710 2.169290 0.137400 
#    z -0.620860 0.137400 1.550230 
# 
# From -- ./inp_files/506925.got.cif
#   From: 2010.05.17/outbox.cif.g08.bks.cpg/sg2_254_cif.got.tgz:506925.got - 2010.06.03 11:33:40.
