data_PCOD9090030
_publ_section_title
;
Structure prediction by ZEFSAII (Michael W. Deem and Ramdas Pophale) SiO2 
 PCOD9090030
Probable space group: P -1
;
_chemical_formula_sum "Si O2"
_cell_formula_units_Z 14
_cell_length_a 14.524474
_cell_length_b 9.811861
_cell_length_c 7.828375
_cell_angle_alpha 74.801174
_cell_angle_beta 72.490305
_cell_angle_gamma 129.239975
_cell_volume 651.297445
_symmetry_space_group_name_H-M "P -1"
_symmetry_group_IT_number 2
_symmetry_cell_setting 'triclinic'
loop_
_space_group_symop_operation_xyz
x,y,z
-x,-y,-z
loop_
_atom_site_type_symbol
_atom_site_label
_atom_site_fract_x
_atom_site_fract_y
_atom_site_fract_z
Si Si1 0.216635 0.856038 0.401276
Si Si2 0.747424 0.574106 0.962453
Si Si3 0.047891 0.774784 0.827332
Si Si4 0.434995 0.392612 0.756479
Si Si5 0.473662 0.922359 0.845205
Si Si6 0.749051 0.794755 0.623134
Si Si7 0.240501 0.890004 0.989266
O O1 0.084668 0.716024 0.662486
O O2 0.356616 0.918086 0.368064
O O3 0.270701 0.082144 0.299677
O O4 0.183144 0.781026 0.247272
O O5 0.819513 0.750429 0.712330
O O6 0.874936 0.626460 0.967163
O O7 0.667982 0.595710 0.123652
O O8 0.621386 0.328128 0.036267
O O9 0.109939 0.776239 0.963905
O O10 0.148690 0.030598 0.646582
O O11 0.500000 0.500000 0.500000
O O12 0.584330 0.554803 0.737917
O O13 0.338958 0.142201 0.879728
O O14 0.361936 0.915528 0.837207
O O15 0.500000 0.000000 0.000000
#
# Coordination Sequence:
#
# PCOD9090030 Si02
#       7
#     2   2   2   2   2   2   2
#     4   9  19  41  62  89 123 161 204 254 310 350
#     4  12  22  40  66  89 126 165 204 253 318 367
#     4  10  23  39  61  96 127 164 200 256 315 371
#     4  12  21  39  62  95 118 159 213 260 297 366
#     4  10  22  40  67  92 117 170 209 255 309 364
#     4  10  19  38  63  88 121 158 204 257 304 348
#     4  11  22  40  64  90 133 156 210 259 302 368
#
# _framework density 21.495553999999998
#
# number of rings (size 3 to 8) (size 9 to 14) (size 15 to 20)
#    0.857    0.571    4.286    2.571    0.000    1.714 
#    2.571    2.857    0.000    0.000    0.000    0.000 
#    0.000    0.000    0.000    0.000    0.000    0.000 
#
# Total GULP energy -78121.323901 kJ/mol
# GULP energy per Si atom -5580.094564 kJ/mol
# Density = 2.144663 g / cm^3
# Si number density = 21.495554 Si / 1000 Ang^3
#
#
#
# Elastic Constant Matrix: (Units=GPa)
#
#
# Indices 1 2 3 4 5 6 
#
# 1 122.4634 38.8665 7.4285 -1.3003 -0.4104 11.8397
# 2 38.8665 60.0187 34.6887 0.8709 7.1418 -13.1638
# 3 7.4285 34.6887 46.9800 -4.7682 6.4092 2.0973
# 4 -1.3003 0.8709 -4.7682 14.9125 9.5953 1.6234
# 5 -0.4104 7.1418 6.4092 9.5953 19.6608 8.2058
# 6 11.8397 -13.1638 2.0973 1.6234 8.2058 41.5509
#
#
#
# Elastic Compliance Matrix: (Units=1/GPa)
#
#
# Indices 1 2 3 4 5 6 
#
# 1 0.015854 -0.022400 0.013901 0.003438 0.008124 -0.014055
# 2 -0.022400 0.068520 -0.047566 -0.013579 -0.017625 0.034503
# 3 0.013901 -0.047566 0.059218 0.029984 -0.007291 -0.021751
# 4 0.003438 -0.013579 0.029984 0.118030 -0.062788 0.000993
# 5 0.008124 -0.017625 -0.007291 -0.062788 0.100889 -0.025002
# 6 -0.014055 0.034503 -0.021751 0.000993 -0.025002 0.044999
#
#
# Mechanical properties :
#
#
# Convention : Reuss Voigt Hill
#
# Bulk Modulus (GPa) = 31.78426 43.49218 37.63822
# Shear Modulus (GPa) = 9.43170 25.12341 17.27756
#
# Velocity S-wave (km/s) = 2.09697 3.42244 2.83817
# Velocity P-wave (km/s) = 4.54770 5.99120 5.31865
#
# Compressibility (1/GPa) = 0.03146211
#
# Stress axis : x y z
#
# Youngs Moduli (GPa) = 63.07481 14.59425 16.88685
#
# Poissons Ratio (x) = 0.32691 -0.23474
# Poissons Ratio (y) = 1.41288 0.80323
# Poissons Ratio (z) = -0.87678 0.69418
#
# Static dielectric constant tensor:
#      x y z
#    x 1.565750 -0.126360 0.036220 
#    y -0.126360 1.679030 0.009010 
#    z 0.036220 0.009010 1.805060 
# 
# From -- ./inp_files/295201.got.cif
#   From: 2010.05.17/outbox.cif.g08.bks.cpg/sg2_148_cif.got.tgz:295201.got - 2010.06.03 11:33:40.
