data_PCOD9090749
_publ_section_title
;
Structure prediction by ZEFSAII (Michael W. Deem and Ramdas Pophale) SiO2 
 PCOD9090749
Probable space group: P -1
;
_chemical_formula_sum "Si O2"
_cell_formula_units_Z 16
_cell_length_a 15.853887
_cell_length_b 10.767202
_cell_length_c 13.585953
_cell_angle_alpha 150.160860
_cell_angle_beta 138.857589
_cell_angle_gamma 39.545905
_cell_volume 708.283637
_symmetry_space_group_name_H-M "P -1"
_symmetry_group_IT_number 2
_symmetry_cell_setting 'triclinic'
loop_
_space_group_symop_operation_xyz
x,y,z
-x,-y,-z
loop_
_atom_site_type_symbol
_atom_site_label
_atom_site_fract_x
_atom_site_fract_y
_atom_site_fract_z
Si Si1 0.138929 0.439677 0.713275
Si Si2 0.955756 0.563807 0.169301
Si Si3 0.695703 0.986219 0.966184
Si Si4 0.904653 0.270624 0.330805
Si Si5 0.592822 0.723989 0.038463
Si Si6 0.708487 0.130843 0.366209
Si Si7 0.243802 0.453753 0.424433
Si Si8 0.259021 0.502208 0.183019
O O1 0.062678 0.573464 0.838801
O O2 0.114420 0.629187 0.728629
O O3 0.296643 0.334338 0.815159
O O4 0.060527 0.233232 0.474348
O O5 0.899136 0.432187 0.942719
O O6 0.108485 0.556576 0.304319
O O7 0.847215 0.870705 0.291875
O O8 0.680940 0.842307 0.752259
O O9 0.557542 0.241903 0.035016
O O10 0.705080 0.774494 0.915262
O O11 0.834895 0.050113 0.129869
O O12 0.810897 0.500637 0.481960
O O13 0.658068 0.534161 0.872116
O O14 0.590790 0.010176 0.193260
O O15 0.682779 0.341859 0.400956
O O16 0.716601 0.285005 0.578308
#
# Coordination Sequence:
#
# PCOD9090749 Si02
#       8
#     2   2   2   2   2   2   2   2
#     4   8  19  38  59  75 100 142 185 222 267 313
#     4   9  18  34  53  81 109 134 179 228 264 312
#     4  11  23  34  54  83 112 142 177 216 267 323
#     4  10  19  39  58  75 105 141 180 231 268 302
#     4  10  21  37  53  81 112 141 179 219 261 319
#     4   9  18  32  53  76 107 142 174 215 264 317
#     4  10  21  33  52  83 111 140 178 218 267 321
#     4   9  19  33  54  81 108 144 179 212 266 323
#
# _framework density 22.589818999999999
#
# number of rings (size 3 to 8) (size 9 to 14) (size 15 to 20)
#    0.000    2.750    0.000    2.250    0.000   10.500 
#    0.000   11.875    0.000    0.000    0.000    0.000 
#    0.000    0.000    0.000    0.000    0.000    0.000 
#
# Total GULP energy -89260.794420 kJ/mol
# GULP energy per Si atom -5578.799651 kJ/mol
# Density = 2.253840 g / cm^3
# Si number density = 22.589819 Si / 1000 Ang^3
#
#
#
# Elastic Constant Matrix: (Units=GPa)
#
#
# Indices 1 2 3 4 5 6 
#
# 1 58.8020 34.6162 17.0354 -6.3292 -11.2014 -3.4239
# 2 34.6162 56.1247 15.9333 -20.8268 -0.4048 -11.5891
# 3 17.0354 15.9333 82.0338 -8.1758 -11.2110 -3.5421
# 4 -6.3292 -20.8268 -8.1758 25.2672 1.2171 -2.4619
# 5 -11.2014 -0.4048 -11.2110 1.2171 33.0349 -13.3461
# 6 -3.4239 -11.5891 -3.5421 -2.4619 -13.3461 25.5976
#
#
#
# Elastic Compliance Matrix: (Units=1/GPa)
#
#
# Indices 1 2 3 4 5 6 
#
# 1 0.032690 -0.025849 -0.002234 -0.014700 0.008733 -0.004500
# 2 -0.025849 0.053950 0.000092 0.040449 0.000615 0.025191
# 3 -0.002234 0.000092 0.014109 0.004303 0.005986 0.005230
# 4 -0.014700 0.040449 0.004303 0.072975 0.005021 0.026578
# 5 0.008733 0.000615 0.005986 0.005021 0.045860 0.026668
# 6 -0.004500 0.025191 0.005230 0.026578 0.026668 0.067054
#
#
# Mechanical properties :
#
#
# Convention : Reuss Voigt Hill
#
# Bulk Modulus (GPa) = 22.33743 36.90337 29.62040
# Shear Modulus (GPa) = 13.98441 25.40499 19.69470
#
# Velocity S-wave (km/s) = 2.49079 3.35718 2.95590
# Velocity P-wave (km/s) = 4.26401 5.60350 4.97901
#
# Compressibility (1/GPa) = 0.04476792
#
# Stress axis : x y z
#
# Youngs Moduli (GPa) = 30.59067 18.53570 70.87749
#
# Poissons Ratio (x) = 0.47913 0.15832
# Poissons Ratio (y) = 0.79073 -0.00654
# Poissons Ratio (z) = 0.06833 -0.00171
#
# Static dielectric constant tensor:
#      x y z
#    x 1.859370 -0.031260 -0.009600 
#    y -0.031260 1.858400 0.007780 
#    z -0.009600 0.007780 1.917830 
# 
# From -- ./inp_files/538360.got.cif
#   From: 2010.05.17/outbox.cif.g08.bks.cpg/sg2_270_cif.got.tgz:538360.got - 2010.06.03 11:33:40.
