data_PCOD9090460
_publ_section_title
;
Structure prediction by ZEFSAII (Michael W. Deem and Ramdas Pophale) SiO2 
 PCOD9090460
Probable space group: P -1
;
_chemical_formula_sum "Si O2"
_cell_formula_units_Z 16
_cell_length_a 11.901851
_cell_length_b 11.996538
_cell_length_c 12.518390
_cell_angle_alpha 107.991756
_cell_angle_beta 138.348088
_cell_angle_gamma 105.319856
_cell_volume 702.628613
_symmetry_space_group_name_H-M "P -1"
_symmetry_group_IT_number 2
_symmetry_cell_setting 'triclinic'
loop_
_space_group_symop_operation_xyz
x,y,z
-x,-y,-z
loop_
_atom_site_type_symbol
_atom_site_label
_atom_site_fract_x
_atom_site_fract_y
_atom_site_fract_z
Si Si1 0.830996 0.040613 0.460064
Si Si2 0.510730 0.762737 0.769957
Si Si3 0.392052 0.274230 0.942192
Si Si4 0.486918 0.628173 0.491387
Si Si5 0.680526 0.091364 0.947701
Si Si6 0.668474 0.906366 0.536307
Si Si7 0.117680 0.758328 0.094538
Si Si8 0.916206 0.462130 0.307067
O O1 0.151851 0.235777 0.743845
O O2 0.747570 0.920829 0.261088
O O3 0.635008 0.044915 0.330442
O O4 0.750863 0.926895 0.478375
O O5 0.573345 0.741852 0.694372
O O6 0.195473 0.628770 0.493826
O O7 0.687680 0.974244 0.979797
O O8 0.542521 0.699159 0.877643
O O9 0.673246 0.424058 0.120630
O O10 0.500000 0.500000 0.500000
O O11 0.659416 0.784853 0.566444
O O12 0.170376 0.463025 0.180626
O O13 0.821851 0.154356 0.953032
O O14 0.807106 0.274828 0.143730
O O15 0.368156 0.803680 0.302179
O O16 0.861488 0.118701 0.775511
O O17 0.000000 0.500000 0.500000
#
# Coordination Sequence:
#
# PCOD9090460 Si02
#       8
#     2   2   2   2   2   2   2   2
#     4   9  20  39  64  90 124 161 209 256 307 369
#     4  11  22  39  65  92 126 165 208 256 315 380
#     4   9  20  39  62  88 125 162 202 260 309 360
#     4  12  26  40  62 100 130 160 207 268 325 375
#     4  10  19  38  66  91 122 166 207 253 308 376
#     4  10  22  42  67  91 123 169 208 258 316 384
#     4  10  21  41  65  92 124 167 213 251 314 387
#     4   9  19  36  60  87 124 162 205 251 300 366
#
# _framework density 22.771633000000001
#
# number of rings (size 3 to 8) (size 9 to 14) (size 15 to 20)
#    0.000    2.000    2.500    0.375    1.750    6.000 
#    0.000    0.625    2.750    0.000    0.000    0.000 
#    0.000    0.000    0.000    0.000    0.000    0.000 
#
# Total GULP energy -89212.329669 kJ/mol
# GULP energy per Si atom -5575.770604 kJ/mol
# Density = 2.271980 g / cm^3
# Si number density = 22.771633 Si / 1000 Ang^3
#
#
#
# Elastic Constant Matrix: (Units=GPa)
#
#
# Indices 1 2 3 4 5 6 
#
# 1 59.8286 17.6580 22.9966 0.9174 -14.8832 -2.5401
# 2 17.6580 95.7596 15.0392 10.8256 -13.0922 -17.5812
# 3 22.9966 15.0392 88.9032 6.2554 -3.8749 1.9499
# 4 0.9174 10.8256 6.2554 14.3477 2.4313 -9.3250
# 5 -14.8832 -13.0922 -3.8749 2.4313 35.4498 -4.1173
# 6 -2.5401 -17.5812 1.9499 -9.3250 -4.1173 -30.8885
#
#
#
# Elastic Compliance Matrix: (Units=1/GPa)
#
#
# Indices 1 2 3 4 5 6 
#
# 1 0.020949 -0.002486 -0.004671 0.000291 0.007156 -0.001644
# 2 -0.002486 0.012145 -0.000330 -0.011876 0.003796 -0.003650
# 3 -0.004671 -0.000330 0.012689 -0.003382 -0.000183 0.002418
# 4 0.000291 -0.011876 -0.003382 0.072927 -0.011260 -0.013993
# 5 0.007156 0.003796 -0.000183 -0.011260 0.032932 -0.003751
# 6 -0.001644 -0.003650 0.002418 -0.013993 -0.003751 -0.025285
#
#
# Mechanical properties :
#
#
# Convention : Reuss Voigt Hill
#
# Bulk Modulus (GPa) = 32.45846 39.54211 36.00029
# Shear Modulus (GPa) = 32.98127 16.36830 24.67478
#
# Velocity S-wave (km/s) = 3.80985 2.68396 3.29534
# Velocity P-wave (km/s) = 5.79983 5.19684 5.50660
#
# Compressibility (1/GPa) = 0.03080861
#
# Stress axis : x y z
#
# Youngs Moduli (GPa) = 47.73418 82.34145 78.80708
#
# Poissons Ratio (x) = 0.20470 0.36811
# Poissons Ratio (y) = 0.11867 0.02603
# Poissons Ratio (z) = 0.22297 0.02719
#
# Static dielectric constant tensor:
#      x y z
#    x 1.850380 -0.036780 0.072390 
#    y -0.036780 1.888110 0.013990 
#    z 0.072390 0.013990 1.890430 
# 
# From -- ./inp_files/428591.got.cif
#   From: 2010.05.17/outbox.cif.g08.bks.cpg/sg2_215_cif.got.tgz:428591.got - 2010.06.03 11:33:40.
