data_PCOD9090200
_publ_section_title
;
Structure prediction by ZEFSAII (Michael W. Deem and Ramdas Pophale) SiO2 
 PCOD9090200
Probable space group: P -1
;
_chemical_formula_sum "Si O2"
_cell_formula_units_Z 16
_cell_length_a 16.529970
_cell_length_b 9.798921
_cell_length_c 9.124111
_cell_angle_alpha 104.907636
_cell_angle_beta 96.848649
_cell_angle_gamma 141.687249
_cell_volume 747.461693
_symmetry_space_group_name_H-M "P -1"
_symmetry_group_IT_number 2
_symmetry_cell_setting 'triclinic'
loop_
_space_group_symop_operation_xyz
x,y,z
-x,-y,-z
loop_
_atom_site_type_symbol
_atom_site_label
_atom_site_fract_x
_atom_site_fract_y
_atom_site_fract_z
Si Si1 0.836886 0.096964 0.267654
Si Si2 0.439248 0.116011 0.849441
Si Si3 0.651278 0.645883 0.868933
Si Si4 0.570677 0.168386 0.414482
Si Si5 0.092098 0.332915 0.244456
Si Si6 0.961358 0.060781 0.861453
Si Si7 0.535740 0.362393 0.260263
Si Si8 0.891627 0.973249 0.506774
O O1 0.990021 0.316998 0.262375
O O2 0.737954 0.091495 0.264520
O O3 0.889579 0.096971 0.425624
O O4 0.716986 0.819479 0.076796
O O5 0.545915 0.364202 0.828624
O O6 0.449410 0.971012 0.760523
O O7 0.491627 0.223641 0.057208
O O8 0.796848 0.822966 0.846266
O O9 0.550897 0.615529 0.754953
O O10 0.750165 0.444443 0.573347
O O11 0.500000 0.000000 0.500000
O O12 0.502375 0.214490 0.352367
O O13 0.005434 0.056723 0.187487
O O14 0.091154 0.320766 0.064648
O O15 0.942442 0.101868 0.712367
O O16 0.717834 0.658872 0.386306
O O17 0.000000 0.000000 0.500000
#
# Coordination Sequence:
#
# PCOD9090200 Si02
#       8
#     2   2   2   2   2   2   2   2
#     4  10  19  38  64  91 120 153 205 258 298 360
#     4  11  22  39  65  91 123 163 199 248 314 362
#     4  10  20  38  65  94 119 158 202 257 306 356
#     4  12  26  41  59  88 127 168 203 246 307 372
#     4  10  21  40  56  86 121 161 201 250 302 358
#     4  10  21  34  61  86 121 155 202 251 306 342
#     4  11  22  41  61  92 126 153 208 255 298 363
#     4  12  20  33  60  94 120 150 200 255 304 351
#
# _framework density 21.405778999999999
#
# number of rings (size 3 to 8) (size 9 to 14) (size 15 to 20)
#    0.000    1.250    5.000    1.875    0.000    3.000 
#    0.000    1.250    0.000    7.500    0.000    0.000 
#    0.000    0.000    0.000    0.000    0.000    0.000 
#
# Total GULP energy -89361.779861 kJ/mol
# GULP energy per Si atom -5585.111241 kJ/mol
# Density = 2.135706 g / cm^3
# Si number density = 21.405779 Si / 1000 Ang^3
#
#
#
# Elastic Constant Matrix: (Units=GPa)
#
#
# Indices 1 2 3 4 5 6 
#
# 1 72.2556 17.9199 10.1594 3.2728 26.4507 3.1213
# 2 17.9199 29.3140 6.9087 -10.3878 10.1376 -2.7715
# 3 10.1594 6.9087 90.9467 -12.7372 22.1134 -14.6520
# 4 3.2728 -10.3878 -12.7372 30.8226 -1.4293 6.2062
# 5 26.4507 10.1376 22.1134 -1.4293 34.5830 -2.3895
# 6 3.1213 -2.7715 -14.6520 6.2062 -2.3895 22.8770
#
#
#
# Elastic Compliance Matrix: (Units=1/GPa)
#
#
# Indices 1 2 3 4 5 6 
#
# 1 0.022329 -0.011141 0.000437 -0.005804 -0.014613 -0.004068
# 2 -0.011141 0.049163 0.002033 0.017629 -0.006231 0.003345
# 3 0.000437 0.002033 0.015081 0.004907 -0.009853 0.007485
# 4 -0.005804 0.017629 0.004907 0.042039 -0.002516 -0.005597
# 5 -0.014613 -0.006231 -0.009853 -0.002516 0.048160 0.000641
# 6 -0.004068 0.003345 0.007485 -0.005597 0.000641 0.051052
#
#
# Mechanical properties :
#
#
# Convention : Reuss Voigt Hill
#
# Bulk Modulus (GPa) = 14.44439 29.16579 21.80509
# Shear Modulus (GPa) = 18.63977 28.15842 23.39909
#
# Velocity S-wave (km/s) = 2.95410 3.63086 3.30982
# Velocity P-wave (km/s) = 4.28931 5.58859 4.98149
#
# Compressibility (1/GPa) = 0.06923101
#
# Stress axis : x y z
#
# Youngs Moduli (GPa) = 44.78413 20.34055 66.30786
#
# Poissons Ratio (x) = 0.22661 -0.02897
# Poissons Ratio (y) = 0.49893 -0.13478
# Poissons Ratio (z) = -0.01956 -0.04135
#
# Static dielectric constant tensor:
#      x y z
#    x 1.805130 0.012750 -0.010600 
#    y 0.012750 1.812600 -0.015990 
#    z -0.010600 -0.015990 1.801860 
# 
# From -- ./inp_files/347331.got.cif
#   From: 2010.05.17/outbox.cif.g08.bks.cpg/sg2_174_cif.got.tgz:347331.got - 2010.06.03 11:33:40.
