data_PCOD9090295
_publ_section_title
;
Structure prediction by ZEFSAII (Michael W. Deem and Ramdas Pophale) SiO2 
 PCOD9090295
Probable space group: P -1
;
_chemical_formula_sum "Si O2"
_cell_formula_units_Z 14
_cell_length_a 16.678213
_cell_length_b 9.135562
_cell_length_c 21.462026
_cell_angle_alpha 139.136089
_cell_angle_beta 16.470443
_cell_angle_gamma 132.509193
_cell_volume 584.569389
_symmetry_space_group_name_H-M "P -1"
_symmetry_group_IT_number 2
_symmetry_cell_setting 'triclinic'
loop_
_space_group_symop_operation_xyz
x,y,z
-x,-y,-z
loop_
_atom_site_type_symbol
_atom_site_label
_atom_site_fract_x
_atom_site_fract_y
_atom_site_fract_z
Si Si1 0.713215 0.878730 0.105710
Si Si2 0.987217 0.635988 0.290607
Si Si3 0.271676 0.071818 0.749522
Si Si4 0.880409 0.407876 0.956758
Si Si5 0.792243 0.504752 0.517212
Si Si6 0.711961 0.971218 0.773616
Si Si7 0.261002 0.010934 0.010634
O O1 0.596509 0.948262 0.284684
O O2 0.751980 0.605986 0.978915
O O3 0.591997 0.004377 0.172238
O O4 0.040712 0.918690 0.874391
O O5 0.096223 0.850172 0.303244
O O6 0.769640 0.577309 0.484485
O O7 0.920848 0.663555 0.275574
O O8 0.095011 0.342885 0.958464
O O9 0.500000 0.000000 0.500000
O O10 0.539932 0.469828 0.207759
O O11 0.889319 0.196210 0.928340
O O12 0.893796 0.703203 0.543005
O O13 0.007559 0.252276 0.281339
O O14 0.500000 0.000000 0.000000
O O15 0.497997 0.021641 0.889844
#
# Coordination Sequence:
#
# PCOD9090295 Si02
#       7
#     2   2   2   2   2   2   2
#     4   9  21  36  58  90 117 152 199 243 293 351
#     4  10  19  39  59  83 124 159 194 243 296 342
#     4  10  19  38  65  85 117 157 191 244 306 352
#     4  10  21  40  61  88 125 152 196 253 290 349
#     4  10  21  37  60  85 120 159 200 237 297 346
#     4  11  21  39  60  88 124 158 198 245 290 348
#     4  10  21  39  61  89 122 156 202 244 286 355
#
# _framework density 23.949252000000001
#
# number of rings (size 3 to 8) (size 9 to 14) (size 15 to 20)
#    0.000    2.000    2.857    2.143    0.000    3.429 
#    0.000   12.143    0.000    0.000    0.000    0.000 
#    0.000    0.000    0.000    0.000    0.000    0.000 
#
# Total GULP energy -78214.379457 kJ/mol
# GULP energy per Si atom -5586.741390 kJ/mol
# Density = 2.389474 g / cm^3
# Si number density = 23.949252 Si / 1000 Ang^3
#
#
#
# Elastic Constant Matrix: (Units=GPa)
#
#
# Indices 1 2 3 4 5 6 
#
# 1 121.1540 30.3631 42.3573 7.8539 33.7583 -24.2892
# 2 30.3631 143.1902 47.6744 21.3549 14.9892 -20.1006
# 3 42.3573 47.6744 124.6083 4.7663 36.2463 -17.3287
# 4 7.8539 21.3549 4.7663 49.6587 -10.6393 10.1402
# 5 33.7583 14.9892 36.2463 -10.6393 46.9105 -6.7982
# 6 -24.2892 -20.1006 -17.3287 10.1402 -6.7982 48.1050
#
#
#
# Elastic Compliance Matrix: (Units=1/GPa)
#
#
# Indices 1 2 3 4 5 6 
#
# 1 0.012400 0.000084 -0.000717 -0.004984 -0.008677 0.005862
# 2 0.000084 0.009190 -0.002309 -0.004906 -0.001770 0.003835
# 3 -0.000717 -0.002309 0.011924 -0.002250 -0.008138 0.002293
# 4 -0.004984 -0.004906 -0.002250 0.027730 0.011797 -0.009555
# 5 -0.008677 -0.001770 -0.008138 0.011797 0.036306 -0.005408
# 6 0.005862 0.003835 0.002293 -0.009555 -0.005408 0.027426
#
#
# Mechanical properties :
#
#
# Convention : Reuss Voigt Hill
#
# Bulk Modulus (GPa) = 36.19293 69.97132 53.08212
# Shear Modulus (GPa) = 35.69635 46.83869 41.26752
#
# Velocity S-wave (km/s) = 3.86489 4.42718 4.15556
# Velocity P-wave (km/s) = 5.92129 7.44400 6.72587
#
# Compressibility (1/GPa) = 0.02762971
#
# Stress axis : x y z
#
# Youngs Moduli (GPa) = 80.64691 108.81607 83.86238
#
# Poissons Ratio (x) = -0.00915 0.06016
# Poissons Ratio (y) = -0.00678 0.19362
# Poissons Ratio (z) = 0.05785 0.25123
#
# Static dielectric constant tensor:
#      x y z
#    x 1.952290 -0.033420 -0.006740 
#    y -0.033420 1.955450 0.042100 
#    z -0.006740 0.042100 1.943860 
# 
# From -- ./inp_files/315201.got.cif
#   From: 2010.05.17/outbox.cif.g08.bks.cpg/sg2_158_cif.got.tgz:315201.got - 2010.06.03 11:33:40.
