data_PCOD9090930
_publ_section_title
;
Structure prediction by ZEFSAII (Michael W. Deem and Ramdas Pophale) SiO2 
 PCOD9090930
Probable space group: P -1
;
_chemical_formula_sum "Si O2"
_cell_formula_units_Z 16
_cell_length_a 14.094854
_cell_length_b 18.531676
_cell_length_c 7.870869
_cell_angle_alpha 128.378136
_cell_angle_beta 107.369047
_cell_angle_gamma 30.508727
_cell_volume 658.255499
_symmetry_space_group_name_H-M "P -1"
_symmetry_group_IT_number 2
_symmetry_cell_setting 'triclinic'
loop_
_space_group_symop_operation_xyz
x,y,z
-x,-y,-z
loop_
_atom_site_type_symbol
_atom_site_label
_atom_site_fract_x
_atom_site_fract_y
_atom_site_fract_z
Si Si1 0.992671 0.897917 0.380333
Si Si2 0.614207 0.994122 0.143776
Si Si3 0.865479 0.481486 0.148514
Si Si4 0.787468 0.401008 0.251759
Si Si5 0.297038 0.206986 0.570819
Si Si6 0.441818 0.757021 0.131501
Si Si7 0.546171 0.470701 0.776905
Si Si8 0.785799 0.923609 0.798064
O O1 0.182962 0.733575 0.391731
O O2 0.082599 0.766668 0.073559
O O3 0.000000 0.000000 0.500000
O O4 0.740301 0.078575 0.570392
O O5 0.432110 0.161393 0.440599
O O6 0.657993 0.027491 0.063885
O O7 0.860363 0.769358 0.036267
O O8 0.500000 0.000000 0.000000
O O9 0.774091 0.514402 0.330630
O O10 0.896646 0.552861 0.168182
O O11 0.702061 0.560095 0.046729
O O12 0.551385 0.542877 0.366829
O O13 0.955229 0.259389 0.295102
O O14 0.198135 0.196059 0.426439
O O15 0.500000 0.000000 0.500000
O O16 0.360353 0.894847 0.145646
O O17 0.418212 0.669915 0.939634
O O18 0.500000 0.500000 0.000000
#
# Coordination Sequence:
#
# PCOD9090930 Si02
#       8
#     2   2   2   2   2   2   2   2
#     4  11  20  38  68  90 121 169 215 258 307 381
#     4   9  23  45  62  89 129 165 208 260 327 368
#     4  11  22  38  70  92 125 173 213 259 313 376
#     4  10  21  41  64  92 130 168 210 263 325 374
#     4  11  23  43  68  96 125 167 222 261 305 386
#     4  12  22  39  66  96 126 164 217 263 311 380
#     4  10  19  39  61  95 124 163 216 261 312 384
#     4  10  24  41  60  95 133 166 206 267 323 369
#
# _framework density 24.306673
#
# number of rings (size 3 to 8) (size 9 to 14) (size 15 to 20)
#    0.000    1.500    6.250    0.000    3.500    5.500 
#    0.000    3.125    0.000    0.000    0.000    0.000 
#    0.000    0.000    0.000    0.000    0.000    0.000 
#
# Total GULP energy -89178.737197 kJ/mol
# GULP energy per Si atom -5573.671075 kJ/mol
# Density = 2.425135 g / cm^3
# Si number density = 24.306673 Si / 1000 Ang^3
#
#
#
# Elastic Constant Matrix: (Units=GPa)
#
#
# Indices 1 2 3 4 5 6 
#
# 1 116.6196 54.3810 23.6110 12.3280 13.3693 6.9811
# 2 54.3810 134.9949 3.1232 14.5005 3.1973 -4.2355
# 3 23.6110 3.1232 11.7166 0.3148 8.7444 9.8028
# 4 12.3280 14.5005 0.3148 18.7404 7.5731 0.1168
# 5 13.3693 3.1973 8.7444 7.5731 27.3268 12.5970
# 6 6.9811 -4.2355 9.8028 0.1168 12.5970 65.0818
#
#
#
# Elastic Compliance Matrix: (Units=1/GPa)
#
#
# Indices 1 2 3 4 5 6 
#
# 1 0.022216 -0.006552 -0.051662 -0.012006 0.008185 0.003409
# 2 -0.006552 0.010177 0.011100 -0.003568 -0.000450 -0.000213
# 3 -0.051662 0.011100 0.244700 0.044738 -0.057736 -0.019498
# 4 -0.012006 -0.003568 0.044738 0.074843 -0.028640 -0.000274
# 5 0.008185 -0.000450 -0.057736 -0.028640 0.060872 -0.003942
# 6 0.003409 -0.000213 -0.019498 -0.000274 -0.003942 0.018686
#
#
# Mechanical properties :
#
#
# Convention : Reuss Voigt Hill
#
# Bulk Modulus (GPa) = 5.46845 47.28461 26.37653
# Shear Modulus (GPa) = 8.52258 34.37753 21.45006
#
# Velocity S-wave (km/s) = 1.87454 3.76483 2.97387
# Velocity P-wave (km/s) = 2.63436 6.19630 4.76099
#
# Compressibility (1/GPa) = 0.18286722
#
# Stress axis : x y z
#
# Youngs Moduli (GPa) = 45.01189 98.25741 4.08664
#
# Poissons Ratio (x) = 0.64374 0.21112
# Poissons Ratio (y) = 0.29490 -0.04536
# Poissons Ratio (z) = 2.32540 -1.09068
#
# Static dielectric constant tensor:
#      x y z
#    x 1.929940 0.009860 0.021980 
#    y 0.009860 1.974270 0.135270 
#    z 0.021980 0.135270 2.335980 
# 
# From -- ./inp_files/317828.got.cif
#   From: 2010.05.17/outbox.cif.g08.bks.cpg/sg2_159_cif.got.tgz:317828.got - 2010.06.03 11:33:40.
