data_PCOD9090089
_publ_section_title
;
Structure prediction by ZEFSAII (Michael W. Deem and Ramdas Pophale) SiO2 
 PCOD9090089
Probable space group: P -1
;
_chemical_formula_sum "Si O2"
_cell_formula_units_Z 16
_cell_length_a 10.046269
_cell_length_b 12.212491
_cell_length_c 13.208404
_cell_angle_alpha 136.671174
_cell_angle_beta 60.121695
_cell_angle_gamma 88.737085
_cell_volume 735.922242
_symmetry_space_group_name_H-M "P -1"
_symmetry_group_IT_number 2
_symmetry_cell_setting 'triclinic'
loop_
_space_group_symop_operation_xyz
x,y,z
-x,-y,-z
loop_
_atom_site_type_symbol
_atom_site_label
_atom_site_fract_x
_atom_site_fract_y
_atom_site_fract_z
Si Si1 0.318300 0.487829 0.316280
Si Si2 0.931860 0.212576 0.041039
Si Si3 0.270227 0.334605 0.556283
Si Si4 0.210959 0.919211 0.144274
Si Si5 0.732933 0.793491 0.756399
Si Si6 0.723189 0.321394 0.753713
Si Si7 0.140228 0.096666 0.516860
Si Si8 0.695386 0.226958 0.319862
O O1 0.215703 0.385089 0.307818
O O2 0.258188 0.604202 0.310846
O O3 0.289273 0.635184 0.515810
O O4 0.555826 0.286945 0.088522
O O5 0.899727 0.421518 0.192151
O O6 0.751733 0.258160 0.209099
O O7 0.913226 0.145423 0.893480
O O8 0.135992 0.016971 0.882484
O O9 0.249399 0.288969 0.418274
O O10 0.245728 0.196727 0.543775
O O11 0.482404 0.282996 0.447709
O O12 0.161110 0.105546 0.216475
O O13 0.174493 0.000538 0.326311
O O14 0.500000 0.000000 0.000000
O O15 0.897903 0.270674 0.727941
O O16 0.766968 0.102401 0.581800
O O17 0.500000 0.500000 0.000000
#
# Coordination Sequence:
#
# PCOD9090089 Si02
#       8
#     2   2   2   2   2   2   2   2
#     4  11  19  37  65  89 123 169 200 253 313 361
#     4  11  22  37  60  92 130 172 198 238 305 378
#     4  11  21  41  62  88 131 162 197 254 306 366
#     4  10  19  38  63  93 128 159 199 253 309 369
#     4   9  19  33  60  93 123 161 197 246 310 364
#     4  11  23  43  66  89 121 160 212 261 311 356
#     4  10  24  43  65  94 120 158 209 265 307 358
#     4  11  22  36  60  92 128 168 203 239 304 379
#
# _framework density 21.741427999999999
#
# number of rings (size 3 to 8) (size 9 to 14) (size 15 to 20)
#    0.000    1.500    3.750    2.625    0.000    1.000 
#    4.500    2.500    0.000    7.500    0.000    0.000 
#    0.000    0.000    0.000    0.000    0.000    0.000 
#
# Total GULP energy -89468.471821 kJ/mol
# GULP energy per Si atom -5591.779489 kJ/mol
# Density = 2.169194 g / cm^3
# Si number density = 21.741428 Si / 1000 Ang^3
#
#
#
# Elastic Constant Matrix: (Units=GPa)
#
#
# Indices 1 2 3 4 5 6 
#
# 1 53.8447 18.8559 40.8997 12.4540 -4.2615 6.1377
# 2 18.8559 136.0328 45.7388 42.6326 1.0562 8.5496
# 3 40.8997 45.7388 117.5858 20.4813 1.0157 14.0606
# 4 12.4540 42.6326 20.4813 43.9616 3.7003 3.3610
# 5 -4.2615 1.0562 1.0157 3.7003 41.3210 -0.7973
# 6 6.1377 8.5496 14.0606 3.3610 -0.7973 24.6886
#
#
#
# Elastic Compliance Matrix: (Units=1/GPa)
#
#
# Indices 1 2 3 4 5 6 
#
# 1 0.026181 0.000599 -0.008488 -0.004225 0.003249 -0.001202
# 2 0.000599 0.011360 -0.002780 -0.009863 0.000701 -0.001134
# 3 -0.008488 -0.002780 0.013178 -0.000607 -0.001159 -0.004387
# 4 -0.004225 -0.009863 -0.000607 0.034057 -0.003217 0.000071
# 5 0.003249 0.000701 -0.001159 -0.003217 0.024851 0.000850
# 6 -0.001202 -0.001134 -0.004387 0.000071 0.000850 0.043713
#
#
# Mechanical properties :
#
#
# Convention : Reuss Voigt Hill
#
# Bulk Modulus (GPa) = 34.03381 57.60578 45.81979
# Shear Modulus (GPa) = 27.10471 35.45885 31.28178
#
# Velocity S-wave (km/s) = 3.53467 4.04286 3.79728
# Velocity P-wave (km/s) = 5.68739 6.95316 6.35188
#
# Compressibility (1/GPa) = 0.02938254
#
# Stress axis : x y z
#
# Youngs Moduli (GPa) = 38.19605 88.03030 75.88249
#
# Poissons Ratio (x) = -0.05277 0.64408
# Poissons Ratio (y) = -0.02290 0.21092
# Poissons Ratio (z) = 0.32421 0.24469
#
# Static dielectric constant tensor:
#      x y z
#    x 1.820920 0.033800 -0.016960 
#    y 0.033800 1.832580 -0.002700 
#    z -0.016960 -0.002700 1.832700 
# 
# From -- ./inp_files/519904.got.cif
#   From: 2010.05.17/outbox.cif.g08.bks.cpg/sg2_260_cif.got.tgz:519904.got - 2010.06.03 11:33:40.
