data_PCOD9090394
_publ_section_title
;
Structure prediction by ZEFSAII (Michael W. Deem and Ramdas Pophale) SiO2 
 PCOD9090394
Probable space group: P -1
;
_chemical_formula_sum "Si O2"
_cell_formula_units_Z 16
_cell_length_a 9.832444
_cell_length_b 9.396416
_cell_length_c 14.481850
_cell_angle_alpha 98.789038
_cell_angle_beta 50.152491
_cell_angle_gamma 67.358591
_cell_volume 783.054768
_symmetry_space_group_name_H-M "P -1"
_symmetry_group_IT_number 2
_symmetry_cell_setting 'triclinic'
loop_
_space_group_symop_operation_xyz
x,y,z
-x,-y,-z
loop_
_atom_site_type_symbol
_atom_site_label
_atom_site_fract_x
_atom_site_fract_y
_atom_site_fract_z
Si Si1 0.235782 0.817917 0.645016
Si Si2 0.536225 0.183252 0.081062
Si Si3 0.664375 0.488532 0.325608
Si Si4 0.653069 0.480123 0.679732
Si Si5 0.987267 0.104149 0.923021
Si Si6 0.958401 0.913220 0.593221
Si Si7 0.438919 0.149642 0.912464
Si Si8 0.734423 0.523203 0.105648
O O1 0.495677 0.661101 0.482731
O O2 0.163952 0.701350 0.711882
O O3 0.088063 0.908633 0.626026
O O4 0.197403 0.961177 0.750514
O O5 0.371777 0.360102 0.237747
O O6 0.608950 0.995062 0.076769
O O7 0.766255 0.157306 0.970041
O O8 0.437391 0.204638 0.024718
O O9 0.509295 0.449080 0.333387
O O10 0.746237 0.546231 0.212604
O O11 0.515413 0.428527 0.793923
O O12 0.902787 0.301388 0.521061
O O13 0.925774 0.301928 0.984797
O O14 0.000000 0.000000 0.000000
O O15 0.695496 0.027447 0.746086
O O16 0.000000 0.000000 0.500000
O O17 0.275503 0.333831 0.940045
#
# Coordination Sequence:
#
# PCOD9090394 Si02
#       8
#     2   2   2   2   2   2   2   2
#     4  10  16  28  51  78 101 130 165 229 255 296
#     4  10  22  34  51  76 111 145 170 214 272 316
#     4   8  16  30  50  78  98 123 175 219 268 291
#     4   8  17  33  50  76 100 133 181 218 253 306
#     4  11  19  34  57  80  99 132 187 219 254 313
#     4  11  19  31  53  80 104 136 185 214 255 315
#     4  11  21  35  49  76 114 144 170 212 273 319
#     4   9  18  32  50  74 106 130 174 220 255 309
#
# _framework density 20.432797999999998
#
# number of rings (size 3 to 8) (size 9 to 14) (size 15 to 20)
#    0.750    1.500    3.750    0.000    0.000    3.500 
#    0.000    0.625    0.000    0.000    0.000   10.500 
#    0.000    0.000    0.000    0.000    0.000    0.000 
#
# Total GULP energy -89132.507250 kJ/mol
# GULP energy per Si atom -5570.781703 kJ/mol
# Density = 2.038629 g / cm^3
# Si number density = 20.432798 Si / 1000 Ang^3
#
#
#
# Elastic Constant Matrix: (Units=GPa)
#
#
# Indices 1 2 3 4 5 6 
#
# 1 35.0106 22.8998 25.4433 -1.2980 11.5450 1.3106
# 2 22.8998 125.1644 51.1414 -7.9453 20.9466 -17.5784
# 3 25.4433 51.1414 138.0537 27.7449 33.7251 2.4273
# 4 -1.2980 -7.9453 27.7449 34.2468 -0.6947 7.6958
# 5 11.5450 20.9466 33.7251 -0.6947 31.7388 -1.0012
# 6 1.3106 -17.5784 2.4273 7.6958 -1.0012 24.4111
#
#
#
# Elastic Compliance Matrix: (Units=1/GPa)
#
#
# Indices 1 2 3 4 5 6 
#
# 1 0.037355 -0.004494 -0.004923 0.005778 -0.005479 -0.006798
# 2 -0.004494 0.012253 -0.004379 0.004379 -0.001449 0.008060
# 3 -0.004923 -0.004379 0.015555 -0.013929 -0.012170 -0.000543
# 4 0.005778 0.004379 -0.013929 0.044002 0.010481 -0.009214
# 5 -0.005479 -0.001449 -0.012170 0.010481 0.047589 -0.000892
# 6 -0.006798 0.008060 -0.000543 -0.009214 -0.000892 0.050057
#
#
# Mechanical properties :
#
#
# Convention : Reuss Voigt Hill
#
# Bulk Modulus (GPa) = 26.61569 55.24419 40.92994
# Shear Modulus (GPa) = 20.24891 31.32895 25.78893
#
# Velocity S-wave (km/s) = 3.15143 3.91994 3.55651
# Velocity P-wave (km/s) = 5.12799 6.89809 6.07783
#
# Compressibility (1/GPa) = 0.03757182
#
# Stress axis : x y z
#
# Youngs Moduli (GPa) = 26.76985 81.61032 64.28926
#
# Poissons Ratio (x) = 0.36676 0.31650
# Poissons Ratio (y) = 0.12030 0.28151
# Poissons Ratio (z) = 0.13179 0.35735
#
# Static dielectric constant tensor:
#      x y z
#    x 1.738240 -0.006770 -0.024270 
#    y -0.006770 1.762060 0.000340 
#    z -0.024270 0.000340 1.776010 
# 
# From -- ./inp_files/514356.got.cif
#   From: 2010.05.17/outbox.cif.g08.bks.cpg/sg2_258_cif.got.tgz:514356.got - 2010.06.03 11:33:40.
