data_PCOD9090178
_publ_section_title
;
Structure prediction by ZEFSAII (Michael W. Deem and Ramdas Pophale) SiO2 
 PCOD9090178
Probable space group: P -1
;
_chemical_formula_sum "Si O2"
_cell_formula_units_Z 12
_cell_length_a 9.896041
_cell_length_b 9.832236
_cell_length_c 9.776106
_cell_angle_alpha 42.926250
_cell_angle_beta 136.931391
_cell_angle_gamma 133.500297
_cell_volume 417.618258
_symmetry_space_group_name_H-M "P -1"
_symmetry_group_IT_number 2
_symmetry_cell_setting 'triclinic'
loop_
_space_group_symop_operation_xyz
x,y,z
-x,-y,-z
loop_
_atom_site_type_symbol
_atom_site_label
_atom_site_fract_x
_atom_site_fract_y
_atom_site_fract_z
Si Si1 0.946245 0.247514 0.629321
Si Si2 0.288498 0.358322 0.523499
Si Si3 0.571185 0.296547 0.395282
Si Si4 0.325552 0.752697 0.794125
Si Si5 0.154003 0.336083 0.148888
Si Si6 0.754396 0.982824 0.042992
O O1 0.728494 0.156783 0.620559
O O2 0.874619 0.203202 0.450370
O O3 0.000000 0.500000 0.500000
O O4 0.125927 0.148911 0.861296
O O5 0.500000 0.500000 0.500000
O O6 0.312201 0.505599 0.566594
O O7 0.135332 0.333062 0.300346
O O8 0.274839 0.134259 0.743831
O O9 0.587889 0.329968 0.218785
O O10 0.330421 0.230937 0.311614
O O11 0.254112 0.567432 0.987509
O O12 0.518128 0.944664 0.850439
O O13 0.925472 0.213122 0.010669
#
# Coordination Sequence:
#
# PCOD9090178 Si02
#       6
#     2   2   2   2   2   2
#     4  10  21  39  65  93 129 161 206 258 319 366
#     4  10  19  38  64  89 125 168 206 252 311 378
#     4   9  20  39  62  93 127 161 207 260 307 369
#     4  10  22  43  62  97 126 161 211 262 306 368
#     4  11  22  37  68  94 122 171 210 250 316 372
#     4  12  22  40  69  94 124 166 210 258 316 369
#
# _framework density 28.734376000000001
#
# number of rings (size 3 to 8) (size 9 to 14) (size 15 to 20)
#    1.000    0.667    5.000    1.000    2.333    1.333 
#    0.000    2.500    0.000    2.000    0.000    0.000 
#    0.000    0.000    0.000    0.000    0.000    0.000 
#
# Total GULP energy -67094.784935 kJ/mol
# GULP energy per Si atom -5591.232078 kJ/mol
# Density = 2.866898 g / cm^3
# Si number density = 28.734376 Si / 1000 Ang^3
#
#
#
# Elastic Constant Matrix: (Units=GPa)
#
#
# Indices 1 2 3 4 5 6 
#
# 1 160.0726 8.1741 10.0721 1.3223 -6.9379 7.6015
# 2 8.1741 128.1613 16.5396 36.5245 2.4286 34.4545
# 3 10.0721 16.5396 82.2127 33.2891 5.6738 14.2977
# 4 1.3223 36.5245 33.2891 62.3407 6.7517 -8.7965
# 5 -6.9379 2.4286 5.6738 6.7517 62.1477 -2.5576
# 6 7.6015 34.4545 14.2977 -8.7965 -2.5576 40.6558
#
#
#
# Elastic Compliance Matrix: (Units=1/GPa)
#
#
# Indices 1 2 3 4 5 6 
#
# 1 0.006367 -0.000214 -0.000770 0.000231 0.000738 -0.000642
# 2 -0.000214 0.017208 0.006905 -0.016630 -0.000367 -0.020592
# 3 -0.000770 0.006905 0.020976 -0.017505 -0.001066 -0.016939
# 4 0.000231 -0.016630 -0.017505 0.039257 -0.000812 0.028649
# 5 0.000738 -0.000367 -0.001066 -0.000812 0.016431 0.001406
# 6 -0.000642 -0.020592 -0.016939 0.028649 0.001406 0.054413
#
#
# Mechanical properties :
#
#
# Convention : Reuss Voigt Hill
#
# Bulk Modulus (GPa) = 17.73261 48.89093 33.31177
# Shear Modulus (GPa) = 30.93932 55.40622 43.17277
#
# Velocity S-wave (km/s) = 3.28492 4.39591 3.88039
# Velocity P-wave (km/s) = 4.53566 6.54348 5.62980
#
# Compressibility (1/GPa) = 0.05639329
#
# Stress axis : x y z
#
# Youngs Moduli (GPa) = 157.05764 58.11389 47.67322
#
# Poissons Ratio (x) = 0.01243 0.03669
# Poissons Ratio (y) = 0.03358 -0.32917
# Poissons Ratio (z) = 0.12088 -0.40126
#
# Static dielectric constant tensor:
#      x y z
#    x 2.317340 0.020830 -0.034530 
#    y 0.020830 2.322690 -0.002540 
#    z -0.034530 -0.002540 2.301390 
# 
# From -- ./inp_files/420460.got.cif
#   From: 2010.05.17/outbox.cif.g08.bks.cpg/sg2_211_cif.got.tgz:420460.got - 2010.06.03 11:33:40.
