data_PCOD9090912
_publ_section_title
;
Structure prediction by ZEFSAII (Michael W. Deem and Ramdas Pophale) SiO2 
 PCOD9090912
Probable space group: P -1
;
_chemical_formula_sum "Si O2"
_cell_formula_units_Z 15
_cell_length_a 11.248606
_cell_length_b 4.993888
_cell_length_c 30.045885
_cell_angle_alpha 101.588174
_cell_angle_beta 157.301424
_cell_angle_gamma 81.215929
_cell_volume 635.642357
_symmetry_space_group_name_H-M "P -1"
_symmetry_group_IT_number 2
_symmetry_cell_setting 'triclinic'
loop_
_space_group_symop_operation_xyz
x,y,z
-x,-y,-z
loop_
_atom_site_type_symbol
_atom_site_label
_atom_site_fract_x
_atom_site_fract_y
_atom_site_fract_z
Si Si1 0.500000 0.000000 0.500000
Si Si2 0.783614 0.840810 0.384607
Si Si3 0.935843 0.600711 0.687977
Si Si4 0.991289 0.141580 0.629845
Si Si5 0.736203 0.056080 0.000550
Si Si6 0.487669 0.188316 0.166640
Si Si7 0.400673 0.549823 0.916873
Si Si8 0.381706 0.318471 0.231098
O O1 0.264388 0.113314 0.463104
O O2 0.710840 0.827308 0.606255
O O3 0.571753 0.588524 0.323216
O O4 0.970116 0.744945 0.402404
O O5 0.563868 0.060358 0.297454
O O6 0.000000 0.000000 0.500000
O O7 0.250470 0.648713 0.768159
O O8 0.061507 0.596062 0.781660
O O9 0.816137 0.300106 0.615462
O O10 0.319773 0.056049 0.756624
O O11 0.035935 0.243148 0.125154
O O12 0.475956 0.264641 0.910671
O O13 0.780584 0.914063 0.963518
O O14 0.618568 0.815081 0.984938
O O15 0.378914 0.346093 0.177126
O O16 0.500000 0.500000 0.000000
#
# Coordination Sequence:
#
# PCOD9090912 Si02
#       8
#     1   2   2   2   2   2   2   2
#     4  10  22  36  64  98 124 166 236 294 318 398
#     4  11  24  43  65  90 134 179 218 278 349 404
#     4  10  19  39  63  94 130 173 223 274 341 393
#     4  10  19  39  61  90 128 171 222 274 340 396
#     4  11  22  40  67 100 132 172 225 280 323 408
#     4   9  19  35  63  97 132 167 208 272 348 399
#     4  11  24  43  65  93 141 187 219 266 347 409
#     4  11  22  40  66  98 128 169 223 274 332 409
#
# _framework density 23.598174
#
# number of rings (size 3 to 8) (size 9 to 14) (size 15 to 20)
#    0.000    1.600    2.667    2.400    0.000    0.000 
#    2.400    5.333    0.000    0.000    0.000    0.000 
#    0.000    0.000    0.000    0.000    0.000    0.000 
#
# Total GULP energy -83535.670603 kJ/mol
# GULP energy per Si atom -5569.044707 kJ/mol
# Density = 2.354446 g / cm^3
# Si number density = 23.598174 Si / 1000 Ang^3
#
#
#
# Elastic Constant Matrix: (Units=GPa)
#
#
# Indices 1 2 3 4 5 6 
#
# 1 62.1225 36.0485 66.7376 14.3607 -28.7065 25.8536
# 2 36.0485 139.9133 63.6491 19.4165 -31.2433 35.8958
# 3 66.7376 63.6491 157.1294 26.6124 -54.2284 34.4513
# 4 14.3607 19.4165 26.6124 59.7634 -19.0107 15.7986
# 5 -28.7065 -31.2433 -54.2284 -19.0107 68.5134 -17.6325
# 6 25.8536 35.8958 34.4513 15.7986 -17.6325 43.8454
#
#
#
# Elastic Compliance Matrix: (Units=1/GPa)
#
#
# Indices 1 2 3 4 5 6 
#
# 1 0.033383 -0.000597 -0.010975 0.000464 0.002669 -0.009666
# 2 -0.000597 0.009998 -0.002139 -0.000327 0.001084 -0.005599
# 3 -0.010975 -0.002139 0.013877 -0.001189 0.005020 -0.000234
# 4 0.000464 -0.000327 -0.001189 0.019575 0.003301 -0.004797
# 5 0.002669 0.001084 0.005020 0.003301 0.021353 0.000992
# 6 -0.009666 -0.005599 -0.000234 -0.004797 0.000992 0.035402
#
#
# Mechanical properties :
#
#
# Convention : Reuss Voigt Hill
#
# Bulk Modulus (GPa) = 33.51662 76.89283 55.20473
# Shear Modulus (GPa) = 29.24743 47.27312 38.26027
#
# Velocity S-wave (km/s) = 3.52432 4.48063 4.03093
# Velocity P-wave (km/s) = 5.54933 7.70863 6.71632
#
# Compressibility (1/GPa) = 0.02983595
#
# Stress axis : x y z
#
# Youngs Moduli (GPa) = 29.95566 100.01814 72.06056
#
# Poissons Ratio (x) = 0.05969 0.79086
# Poissons Ratio (y) = 0.01788 0.15416
# Poissons Ratio (z) = 0.32876 0.21398
#
# Static dielectric constant tensor:
#      x y z
#    x 1.983580 0.032010 0.025380 
#    y 0.032010 2.074820 0.162300 
#    z 0.025380 0.162300 1.961270 
# 
# From -- ./inp_files/622842.got.cif
#   From: 2010.05.17/outbox.cif.g08.bks.cpg/sg2_312_cif.got.tgz:622842.got - 2010.06.03 11:33:40.
