data_PCOD9090144
_publ_section_title
;
Structure prediction by ZEFSAII (Michael W. Deem and Ramdas Pophale) SiO2 
 PCOD9090144
Probable space group: P -1
;
_chemical_formula_sum "Si O2"
_cell_formula_units_Z 14
_cell_length_a 9.898577
_cell_length_b 14.781048
_cell_length_c 15.894328
_cell_angle_alpha 144.782932
_cell_angle_beta 146.026353
_cell_angle_gamma 54.721805
_cell_volume 712.437600
_symmetry_space_group_name_H-M "P -1"
_symmetry_group_IT_number 2
_symmetry_cell_setting 'triclinic'
loop_
_space_group_symop_operation_xyz
x,y,z
-x,-y,-z
loop_
_atom_site_type_symbol
_atom_site_label
_atom_site_fract_x
_atom_site_fract_y
_atom_site_fract_z
Si Si1 0.843890 0.873334 0.555617
Si Si2 0.792916 0.648775 0.515425
Si Si3 0.810204 0.033032 0.355653
Si Si4 0.925665 0.136148 0.944779
Si Si5 0.643253 0.282663 0.111274
Si Si6 0.395545 0.144105 0.308213
Si Si7 0.590600 0.337870 0.935754
O O1 0.828508 0.721965 0.495565
O O2 0.578882 0.811158 0.322363
O O3 0.892121 0.033484 0.761888
O O4 0.043810 0.897497 0.601711
O O5 0.704446 0.452827 0.322501
O O6 0.594891 0.709802 0.511912
O O7 0.074381 0.732942 0.762304
O O8 0.661462 0.145066 0.408314
O O9 0.577019 0.871721 0.085702
O O10 0.000000 0.000000 0.500000
O O11 0.866717 0.311279 0.042143
O O12 0.725324 0.016462 0.816636
O O13 0.198740 0.149336 0.136334
O O14 0.546014 0.307050 0.987738
O O15 0.500000 0.500000 0.000000
#
# Coordination Sequence:
#
# PCOD9090144 Si02
#       7
#     2   2   2   2   2   2   2
#     4  11  23  36  63  95 122 157 204 255 309 360
#     4  10  22  40  67  91 115 163 213 253 292 363
#     4  12  23  39  61  91 130 162 193 255 320 364
#     4  10  20  38  61  91 117 160 211 253 293 360
#     4  11  21  40  64  88 125 161 205 247 309 365
#     4  10  19  38  64  85 120 161 208 252 298 359
#     4  12  21  38  62  93 124 159 204 260 300 357
#
# _framework density 19.650843999999999
#
# number of rings (size 3 to 8) (size 9 to 14) (size 15 to 20)
#    0.000    1.143    5.714    2.143    0.000    3.429 
#    0.000    2.143    0.000    3.429    0.000    0.000 
#    0.000    0.000    0.000    0.000    0.000    0.000 
#
# Total GULP energy -77998.649481 kJ/mol
# GULP energy per Si atom -5571.332106 kJ/mol
# Density = 1.960612 g / cm^3
# Si number density = 19.650844 Si / 1000 Ang^3
#
#
#
# Elastic Constant Matrix: (Units=GPa)
#
#
# Indices 1 2 3 4 5 6 
#
# 1 132.3208 44.0120 25.6598 -5.0856 -8.3971 -17.8829
# 2 44.0120 85.0802 14.7685 -14.1433 0.5870 -26.5336
# 3 25.6598 14.7685 62.6061 -8.6728 -7.6653 -0.5329
# 4 -5.0856 -14.1433 -8.6728 34.1736 -1.1134 -9.9788
# 5 -8.3971 0.5870 -7.6653 -1.1134 24.9352 -2.6053
# 6 -17.8829 -26.5336 -0.5329 -9.9788 -2.6053 32.5798
#
#
#
# Elastic Compliance Matrix: (Units=1/GPa)
#
#
# Indices 1 2 3 4 5 6 
#
# 1 0.009901 -0.003919 -0.002776 -0.000059 0.002822 0.002405
# 2 -0.003919 0.023138 -0.001551 0.014822 0.000541 0.021250
# 3 -0.002776 -0.001551 0.018549 0.003513 0.004854 -0.001020
# 4 -0.000059 0.014822 0.003513 0.044053 0.005397 0.026021
# 5 0.002822 0.000541 0.004854 0.005397 0.043527 0.007202
# 6 0.002405 0.021250 -0.001020 0.026021 0.007202 0.057850
#
#
# Mechanical properties :
#
#
# Convention : Reuss Voigt Hill
#
# Bulk Modulus (GPa) = 28.49423 49.87641 39.18532
# Shear Modulus (GPa) = 22.20165 31.37552 26.78859
#
# Velocity S-wave (km/s) = 3.36491 4.00015 3.69620
# Velocity P-wave (km/s) = 5.44321 6.83895 6.18061
#
# Compressibility (1/GPa) = 0.03509482
#
# Stress axis : x y z
#
# Youngs Moduli (GPa) = 100.99878 43.21963 53.91188
#
# Poissons Ratio (x) = 0.16939 0.14964
# Poissons Ratio (y) = 0.39584 0.08364
# Poissons Ratio (z) = 0.28034 0.06705
#
# Static dielectric constant tensor:
#      x y z
#    x 1.693390 -0.033870 -0.030150 
#    y -0.033870 1.774780 0.008050 
#    z -0.030150 0.008050 1.781360 
# 
# From -- ./inp_files/503327.got.cif
#   From: 2010.05.17/outbox.cif.g08.bks.cpg/sg2_252_cif.got.tgz:503327.got - 2010.06.03 11:33:40.
