data_PCOD9090701
_publ_section_title
;
Structure prediction by ZEFSAII (Michael W. Deem and Ramdas Pophale) SiO2 
 PCOD9090701
Probable space group: P -1
;
_chemical_formula_sum "Si O2"
_cell_formula_units_Z 13
_cell_length_a 9.850280
_cell_length_b 15.129930
_cell_length_c 8.953344
_cell_angle_alpha 146.430820
_cell_angle_beta 55.753985
_cell_angle_gamma 131.364940
_cell_volume 553.510831
_symmetry_space_group_name_H-M "P -1"
_symmetry_group_IT_number 2
_symmetry_cell_setting 'triclinic'
loop_
_space_group_symop_operation_xyz
x,y,z
-x,-y,-z
loop_
_atom_site_type_symbol
_atom_site_label
_atom_site_fract_x
_atom_site_fract_y
_atom_site_fract_z
Si Si1 0.282083 0.251578 0.185566
Si Si2 0.660340 0.563603 0.276231
Si Si3 0.764521 0.246631 0.053680
Si Si4 0.398267 0.651944 0.414654
Si Si5 0.935660 0.659005 0.792778
Si Si6 0.443432 0.983852 0.683977
Si Si7 0.000000 0.500000 0.000000
O O1 0.476623 0.393114 0.197833
O O2 0.272791 0.313182 0.445415
O O3 0.116378 0.256857 0.200227
O O4 0.300803 0.068583 0.911476
O O5 0.596036 0.663364 0.332799
O O6 0.821549 0.515183 0.062728
O O7 0.655139 0.307441 0.328054
O O8 0.876743 0.397802 0.080395
O O9 0.910019 0.208953 0.009987
O O10 0.617417 0.090687 0.830594
O O11 0.261330 0.456024 0.180960
O O12 0.373626 0.786381 0.506661
O O13 0.000000 0.500000 0.500000
O O14 0.500000 0.000000 0.500000
#
# Coordination Sequence:
#
# PCOD9090701 Si02
#       7
#     2   2   2   2   2   2   1
#     4  10  20  43  69  98 132 186 232 268 345 418
#     4  10  19  38  71 101 131 180 230 284 335 407
#     4  11  23  43  69  97 142 177 227 283 340 396
#     4  10  22  44  74  99 134 187 226 276 354 416
#     4   9  20  39  70 100 128 170 236 281 325 399
#     4  12  26  44  70 102 141 182 231 279 343 415
#     4  12  22  36  70 108 132 162 234 296 326 384
#
# _framework density 23.486440999999999
#
# number of rings (size 3 to 8) (size 9 to 14) (size 15 to 20)
#    0.000    1.538    3.077    3.231    2.154    1.231 
#    0.000    9.231    0.000    0.000    0.000    0.000 
#    0.000    0.000    0.000    0.000    0.000    0.000 
#
# Total GULP energy -72420.684449 kJ/mol
# GULP energy per Si atom -5570.821881 kJ/mol
# Density = 2.343299 g / cm^3
# Si number density = 23.486441 Si / 1000 Ang^3
#
#
#
# Elastic Constant Matrix: (Units=GPa)
#
#
# Indices 1 2 3 4 5 6 
#
# 1 218.2240 10.5321 46.0843 7.5660 -7.0164 -0.3129
# 2 10.5321 66.6937 20.8860 -17.8374 -5.0604 -9.5171
# 3 46.0843 20.8860 48.6645 -11.3836 18.5500 8.5022
# 4 7.5660 -17.8374 -11.3836 21.5691 -8.0099 -2.8413
# 5 -7.0164 -5.0604 18.5500 -8.0099 33.2030 7.6203
# 6 -0.3129 -9.5171 8.5022 -2.8413 7.6203 33.2586
#
#
#
# Elastic Compliance Matrix: (Units=1/GPa)
#
#
# Indices 1 2 3 4 5 6 
#
# 1 0.007383 0.002295 -0.011999 -0.004111 0.007211 0.001790
# 2 0.002295 0.029012 -0.018254 0.021597 0.017849 0.010745
# 3 -0.011999 -0.018254 0.055214 0.004705 -0.032360 -0.011635
# 4 -0.004111 0.021597 0.004705 0.075161 0.016169 0.007655
# 5 0.007211 0.017849 -0.032360 0.016169 0.055876 0.002027
# 6 0.001790 0.010745 -0.011635 0.007655 0.002027 0.036323
#
#
# Mechanical properties :
#
#
# Convention : Reuss Voigt Hill
#
# Bulk Modulus (GPa) = 28.01675 54.28745 41.15210
# Shear Modulus (GPa) = 15.30069 34.67814 24.98942
#
# Velocity S-wave (km/s) = 2.55516 3.84672 3.26543
# Velocity P-wave (km/s) = 4.54532 6.54937 5.63711
#
# Compressibility (1/GPa) = 0.03569294
#
# Stress axis : x y z
#
# Youngs Moduli (GPa) = 135.45278 34.46890 18.11124
#
# Poissons Ratio (x) = -0.07911 0.21732
# Poissons Ratio (y) = -0.31087 0.33059
# Poissons Ratio (z) = 1.62535 0.62918
#
# Static dielectric constant tensor:
#      x y z
#    x 1.926880 -0.013380 0.002490 
#    y -0.013380 1.927030 0.002960 
#    z 0.002490 0.002960 1.928990 
# 
# From -- ./inp_files/204677.got.cif
#   From: 2010.05.17/outbox.cif.g08.bks.cpg/sg2_103_cif.got.tgz:204677.got - 2010.06.03 11:33:40.
