data_PCOD9090388
_publ_section_title
;
Structure prediction by ZEFSAII (Michael W. Deem and Ramdas Pophale) SiO2 
 PCOD9090388
Probable space group: P -1
;
_chemical_formula_sum "Si O2"
_cell_formula_units_Z 16
_cell_length_a 20.012472
_cell_length_b 8.358730
_cell_length_c 7.992155
_cell_angle_alpha 44.139569
_cell_angle_beta 135.188637
_cell_angle_gamma 137.175789
_cell_volume 583.630455
_symmetry_space_group_name_H-M "P -1"
_symmetry_group_IT_number 2
_symmetry_cell_setting 'triclinic'
loop_
_space_group_symop_operation_xyz
x,y,z
-x,-y,-z
loop_
_atom_site_type_symbol
_atom_site_label
_atom_site_fract_x
_atom_site_fract_y
_atom_site_fract_z
Si Si1 0.388436 0.438528 0.650334
Si Si2 0.392201 0.091623 0.331921
Si Si3 0.486479 0.838683 0.932026
Si Si4 0.322856 0.409830 0.177649
Si Si5 0.170794 0.772362 0.042276
Si Si6 0.840686 0.728868 0.469240
Si Si7 0.141473 0.588118 0.743812
Si Si8 0.951234 0.088834 0.697030
O O1 0.504827 0.660358 0.742719
O O2 0.377462 0.487269 0.397650
O O3 0.282628 0.386515 0.601592
O O4 0.406475 0.186688 0.875090
O O5 0.326487 0.151003 0.318378
O O6 0.449984 0.949077 0.632994
O O7 0.299108 0.912569 0.177836
O O8 0.387418 0.575444 0.009320
O O9 0.500000 0.000000 0.000000
O O10 0.225549 0.476435 0.968074
O O11 0.138673 0.529680 0.300406
O O12 0.132637 0.640251 0.889358
O O13 0.145451 0.025889 0.814318
O O14 0.916417 0.893345 0.631268
O O15 0.149515 0.856576 0.483889
O O16 0.047067 0.371958 0.625554
O O17 0.000000 0.000000 0.000000
#
# Coordination Sequence:
#
# PCOD9090388 Si02
#       8
#     2   2   2   2   2   2   2   2
#     4  11  22  38  58  91 123 167 219 262 302 369
#     4  11  25  39  60  87 133 173 210 255 317 374
#     4  11  21  35  60  85 124 171 215 262 303 363
#     4  11  21  40  59  93 121 165 218 261 308 371
#     4  11  25  42  61  96 130 173 207 261 322 382
#     4  11  25  41  67  93 130 165 213 265 319 381
#     4  10  22  39  66  95 124 157 212 268 317 379
#     4  10  19  38  65  96 119 157 206 269 322 369
#
# _framework density 27.41461
#
# number of rings (size 3 to 8) (size 9 to 14) (size 15 to 20)
#    0.000    1.250    5.000    0.750    8.750    2.000 
#    0.000    0.000    0.000    7.500    0.000    0.000 
#    0.000    0.000    0.000    0.000    0.000    0.000 
#
# Total GULP energy -89242.365047 kJ/mol
# GULP energy per Si atom -5577.647815 kJ/mol
# Density = 2.735221 g / cm^3
# Si number density = 27.414610 Si / 1000 Ang^3
#
#
#
# Elastic Constant Matrix: (Units=GPa)
#
#
# Indices 1 2 3 4 5 6 
#
# 1 77.8748 29.4638 34.6855 -12.8564 5.1347 -4.4011
# 2 29.4638 110.2697 47.8567 17.9912 3.0349 -1.4866
# 3 34.6855 47.8567 207.6657 -14.3068 15.1893 -4.3275
# 4 -12.8564 17.9912 -14.3068 64.5340 -2.3573 7.2022
# 5 5.1347 3.0349 15.1893 -2.3573 35.2969 -8.2685
# 6 -4.4011 -1.4866 -4.3275 7.2022 -8.2685 22.7045
#
#
#
# Elastic Compliance Matrix: (Units=1/GPa)
#
#
# Indices 1 2 3 4 5 6 
#
# 1 0.015787 -0.004252 -0.001304 0.003900 -0.000881 0.000975
# 2 -0.004252 0.012048 -0.002418 -0.004861 0.000594 0.001262
# 3 -0.001304 -0.002418 0.005852 0.001702 -0.002152 -0.000619
# 4 0.003900 -0.004861 0.001702 0.018582 -0.000922 -0.005468
# 5 -0.000881 0.000594 -0.002152 -0.000922 0.031939 0.011382
# 6 0.000975 0.001262 -0.000619 -0.005468 0.011382 0.050077
#
#
# Mechanical properties :
#
#
# Convention : Reuss Voigt Hill
#
# Bulk Modulus (GPa) = 56.36809 68.86913 62.61861
# Shear Modulus (GPa) = 32.02109 43.42735 37.72422
#
# Velocity S-wave (km/s) = 3.42135 3.98439 3.71356
# Velocity P-wave (km/s) = 6.01777 6.80757 6.42481
#
# Compressibility (1/GPa) = 0.01774054
#
# Stress axis : x y z
#
# Youngs Moduli (GPa) = 63.34127 83.00086 170.87285
#
# Poissons Ratio (x) = 0.35289 0.22276
# Poissons Ratio (y) = 0.26930 0.41324
# Poissons Ratio (z) = 0.08257 0.20073
#
# Static dielectric constant tensor:
#      x y z
#    x 2.167810 -0.091800 0.076220 
#    y -0.091800 2.185670 -0.133890 
#    z 0.076220 -0.133890 2.234970 
# 
# From -- ./inp_files/352003.got.cif
#   From: 2010.05.17/outbox.cif.g08.bks.cpg/sg2_177_cif.got.tgz:352003.got - 2010.06.03 11:33:40.
