data_PCOD9090555
_publ_section_title
;
Structure prediction by ZEFSAII (Michael W. Deem and Ramdas Pophale) SiO2 
 PCOD9090555
Probable space group: P -1
;
_chemical_formula_sum "Si O2"
_cell_formula_units_Z 14
_cell_length_a 9.447533
_cell_length_b 9.428253
_cell_length_c 22.711243
_cell_angle_alpha 31.184104
_cell_angle_beta 39.503158
_cell_angle_gamma 41.870022
_cell_volume 643.988567
_symmetry_space_group_name_H-M "P -1"
_symmetry_group_IT_number 2
_symmetry_cell_setting 'triclinic'
loop_
_space_group_symop_operation_xyz
x,y,z
-x,-y,-z
loop_
_atom_site_type_symbol
_atom_site_label
_atom_site_fract_x
_atom_site_fract_y
_atom_site_fract_z
Si Si1 0.323429 0.772472 0.484513
Si Si2 0.716904 0.061468 0.244834
Si Si3 0.393186 0.446588 0.990229
Si Si4 0.172521 0.067051 0.312222
Si Si5 0.060829 0.385549 0.762639
Si Si6 0.386677 0.138345 0.840778
Si Si7 0.898841 0.308485 0.211026
O O1 0.500000 0.500000 0.500000
O O2 0.204171 0.625987 0.623933
O O3 0.487413 0.978418 0.371635
O O4 0.164988 0.894736 0.435608
O O5 0.631934 0.314031 0.135745
O O6 0.846815 0.160728 0.221541
O O7 0.888450 0.800574 0.246532
O O8 0.500000 0.500000 0.000000
O O9 0.128861 0.421229 0.090270
O O10 0.548528 0.126590 0.041682
O O11 0.168071 0.387781 0.222659
O O12 0.974702 0.092666 0.317804
O O13 0.404521 0.918459 0.253857
O O14 0.165452 0.172981 0.857099
O O15 0.317198 0.432974 0.793637
#
# Coordination Sequence:
#
# PCOD9090555 Si02
#       7
#     2   2   2   2   2   2   2
#     4  10  19  38  67  87 121 158 211 252 294 362
#     4  11  21  41  60  97 123 158 202 257 307 352
#     4  11  21  41  66  89 121 161 210 245 301 372
#     4  10  19  40  63  87 119 165 203 245 301 364
#     4  10  20  38  68  88 120 160 211 254 290 361
#     4  10  20  41  60  90 122 164 202 246 302 364
#     4  10  24  39  61  90 133 155 196 256 310 361
#
# _framework density 21.739515000000001
#
# number of rings (size 3 to 8) (size 9 to 14) (size 15 to 20)
#    0.000    1.714    4.286    1.714    0.000    1.143 
#   10.286    5.714    0.000    0.000    0.000    0.000 
#    0.000    0.000    0.000    0.000    0.000    0.000 
#
# Total GULP energy -77953.825803 kJ/mol
# GULP energy per Si atom -5568.130415 kJ/mol
# Density = 2.169003 g / cm^3
# Si number density = 21.739515 Si / 1000 Ang^3
#
#
#
# Elastic Constant Matrix: (Units=GPa)
#
#
# Indices 1 2 3 4 5 6 
#
# 1 149.1873 58.5406 50.5251 -9.4182 3.9948 21.6683
# 2 58.5406 129.3361 26.2488 -20.9110 6.6045 9.5905
# 3 50.5251 26.2488 103.4144 5.8994 7.7515 -1.8544
# 4 -9.4182 -20.9110 5.8994 31.9475 -12.0179 5.0687
# 5 3.9948 6.6045 7.7515 -12.0179 29.8192 -13.8925
# 6 21.6683 9.5905 -1.8544 5.0687 -13.8925 38.3544
#
#
#
# Elastic Compliance Matrix: (Units=1/GPa)
#
#
# Indices 1 2 3 4 5 6 
#
# 1 0.010477 -0.002880 -0.004527 0.002463 -0.001530 -0.006298
# 2 -0.002880 0.010619 -0.001741 0.006863 0.000375 -0.001883
# 3 -0.004527 -0.001741 0.013038 -0.006755 -0.003628 0.003202
# 4 0.002463 0.006863 -0.006755 0.044407 0.016203 -0.003434
# 5 -0.001530 0.000375 -0.003628 0.016203 0.048614 0.016063
# 6 -0.006298 -0.001883 0.003202 -0.003434 0.016063 0.036528
#
#
# Mechanical properties :
#
#
# Convention : Reuss Voigt Hill
#
# Bulk Modulus (GPa) = 63.14041 72.50741 67.82391
# Shear Modulus (GPa) = 26.70095 36.46578 31.58336
#
# Velocity S-wave (km/s) = 3.50840 4.10005 3.81571
# Velocity P-wave (km/s) = 6.74677 7.47255 7.11892
#
# Compressibility (1/GPa) = 0.01583772
#
# Stress axis : x y z
#
# Youngs Moduli (GPa) = 95.44409 94.17043 76.69870
#
# Poissons Ratio (x) = 0.27124 0.34718
# Poissons Ratio (y) = 0.27491 0.13357
# Poissons Ratio (z) = 0.43203 0.16400
#
# Static dielectric constant tensor:
#      x y z
#    x 1.783790 -0.071890 -0.044430 
#    y -0.071890 1.969400 0.097820 
#    z -0.044430 0.097820 1.940580 
# 
# From -- ./inp_files/606301.got.cif
#   From: 2010.05.17/outbox.cif.g08.bks.cpg/sg2_304_cif.got.tgz:606301.got - 2010.06.03 11:33:40.
