data_PCOD9090120
_publ_section_title
;
Structure prediction by ZEFSAII (Michael W. Deem and Ramdas Pophale) SiO2 
 PCOD9090120
Probable space group: P -1
;
_chemical_formula_sum "Si O2"
_cell_formula_units_Z 10
_cell_length_a 11.836171
_cell_length_b 7.870380
_cell_length_c 8.784631
_cell_angle_alpha 68.484504
_cell_angle_beta 38.061187
_cell_angle_gamma 54.010870
_cell_volume 400.591253
_symmetry_space_group_name_H-M "P -1"
_symmetry_group_IT_number 2
_symmetry_cell_setting 'triclinic'
loop_
_space_group_symop_operation_xyz
x,y,z
-x,-y,-z
loop_
_atom_site_type_symbol
_atom_site_label
_atom_site_fract_x
_atom_site_fract_y
_atom_site_fract_z
Si Si1 0.692471 0.855192 0.229199
Si Si2 0.923375 0.613891 0.354201
Si Si3 0.550838 0.324606 0.632329
Si Si4 0.352369 0.252187 0.115459
Si Si5 0.978895 0.028515 0.830125
O O1 0.864265 0.670367 0.221565
O O2 0.588545 0.771392 0.250606
O O3 0.500000 0.000000 0.500000
O O4 0.789234 0.987405 0.008997
O O5 0.711838 0.696110 0.655287
O O6 0.109518 0.370950 0.263850
O O7 0.025234 0.753084 0.259065
O O8 0.500000 0.500000 0.500000
O O9 0.802219 0.155957 0.415887
O O10 0.469964 0.367498 0.877432
O O11 0.500000 0.000000 0.000000
O O12 0.000000 0.000000 0.000000
#
# Coordination Sequence:
#
# PCOD9090120 Si02
#       5
#     2   2   2   2   2
#     4  11  21  40  70  99 131 173 225 272 329 396
#     4  10  22  41  69  95 134 178 220 271 330 400
#     4  12  24  40  69 100 133 170 223 279 327 389
#     4  11  22  42  68  95 136 179 215 272 341 385
#     4  10  19  38  63  98 128 169 217 267 326 389
#
# _framework density 24.963101999999999
#
# number of rings (size 3 to 8) (size 9 to 14) (size 15 to 20)
#    0.000    1.200    6.000    2.400    0.000    3.200 
#    0.000    2.000    8.800    0.000    0.000    0.000 
#    0.000    0.000    0.000    0.000    0.000    0.000 
#
# Total GULP energy -55878.285166 kJ/mol
# GULP energy per Si atom -5587.828517 kJ/mol
# Density = 2.490629 g / cm^3
# Si number density = 24.963102 Si / 1000 Ang^3
#
#
#
# Elastic Constant Matrix: (Units=GPa)
#
#
# Indices 1 2 3 4 5 6 
#
# 1 55.1461 22.4041 27.5372 -13.3613 -25.2820 6.8015
# 2 22.4041 115.0203 60.9372 2.6299 -4.7625 -18.0118
# 3 27.5372 60.9372 224.5358 -5.2078 -0.2181 10.4567
# 4 -13.3613 2.6299 -5.2078 59.9192 -3.4411 -9.7401
# 5 -25.2820 -4.7625 -0.2181 -3.4411 44.8263 -8.3597
# 6 6.8015 -18.0118 10.4567 -9.7401 -8.3597 34.8375
#
#
#
# Elastic Compliance Matrix: (Units=1/GPa)
#
#
# Indices 1 2 3 4 5 6 
#
# 1 0.031155 -0.004498 -0.002341 0.007719 0.017420 -0.001367
# 2 -0.004498 0.012635 -0.003276 -0.000469 0.000308 0.008337
# 3 -0.002341 -0.003276 0.005786 -0.000616 -0.002381 -0.003717
# 4 0.007719 -0.000469 -0.000616 0.019678 0.006852 0.005581
# 5 0.017420 0.000308 -0.002381 0.006852 0.034092 0.007570
# 6 -0.001367 0.008337 -0.003717 0.005581 0.007570 0.037775
#
#
# Mechanical properties :
#
#
# Convention : Reuss Voigt Hill
#
# Bulk Modulus (GPa) = 34.07511 68.49546 51.28529
# Shear Modulus (GPa) = 29.21717 46.83818 38.02768
#
# Velocity S-wave (km/s) = 3.42484 4.33632 3.90725
# Velocity P-wave (km/s) = 5.41472 7.25051 6.39879
#
# Compressibility (1/GPa) = 0.02934693
#
# Stress axis : x y z
#
# Youngs Moduli (GPa) = 32.09786 79.14543 172.82077
#
# Poissons Ratio (x) = 0.35597 0.40450
# Poissons Ratio (y) = 0.14437 0.56621
# Poissons Ratio (z) = 0.07513 0.25930
#
# Static dielectric constant tensor:
#      x y z
#    x 2.126170 -0.104580 0.131140 
#    y -0.104580 2.109430 -0.096960 
#    z 0.131140 -0.096960 2.115710 
# 
# From -- ./inp_files/34238.got.cif
#   From: 2010.05.17/outbox.cif.g08.bks.cpg/sg2_18_cif.got.tgz:34238.got - 2010.06.03 11:33:40.
