data_PCOD9090885
_publ_section_title
;
Structure prediction by ZEFSAII (Michael W. Deem and Ramdas Pophale) SiO2 
 PCOD9090885
Probable space group: P -1
;
_chemical_formula_sum "Si O2"
_cell_formula_units_Z 16
_cell_length_a 12.615979
_cell_length_b 12.623606
_cell_length_c 8.421566
_cell_angle_alpha 30.525440
_cell_angle_beta 103.522657
_cell_angle_gamma 108.631734
_cell_volume 643.137532
_symmetry_space_group_name_H-M "P -1"
_symmetry_group_IT_number 2
_symmetry_cell_setting 'triclinic'
loop_
_space_group_symop_operation_xyz
x,y,z
-x,-y,-z
loop_
_atom_site_type_symbol
_atom_site_label
_atom_site_fract_x
_atom_site_fract_y
_atom_site_fract_z
Si Si1 0.528430 0.365220 0.536862
Si Si2 0.925451 0.063582 0.726114
Si Si3 0.726397 0.209334 0.276926
Si Si4 0.700843 0.483171 0.185316
Si Si5 0.916718 0.505756 0.762695
Si Si6 0.920520 0.782199 0.823584
Si Si7 0.355109 0.991709 0.804338
Si Si8 0.845952 0.242629 0.772131
O O1 0.500000 0.500000 0.500000
O O2 0.607234 0.508395 0.245874
O O3 0.422375 0.222102 0.590997
O O4 0.588541 0.189307 0.862855
O O5 0.819755 0.113225 0.525441
O O6 0.899688 0.104003 0.846618
O O7 0.038825 0.246623 0.503980
O O8 0.931944 0.839373 0.941430
O O9 0.659517 0.317145 0.241700
O O10 0.651856 0.046948 0.336449
O O11 0.803018 0.395372 0.953997
O O12 0.777515 0.362696 0.474171
O O13 0.787428 0.690724 0.874028
O O14 0.901566 0.431299 0.670311
O O15 0.020674 0.401431 0.975409
O O16 0.000000 0.000000 0.500000
O O17 0.231233 0.930176 0.914771
#
# Coordination Sequence:
#
# PCOD9090885 Si02
#       8
#     2   2   2   2   2   2   2   2
#     4  10  22  44  66  89 118 153 196 263 309 357
#     4  11  21  34  58  82 123 165 198 245 293 345
#     4  10  19  39  61  85 123 161 193 248 294 363
#     4  10  22  40  63  89 123 158 208 247 306 358
#     4  11  20  39  57  85 128 162 205 242 296 348
#     4  12  23  35  56  90 122 166 203 241 294 356
#     4   9  21  41  65  89 117 152 203 246 313 362
#     4   9  20  38  61  88 117 164 201 251 294 357
#
# _framework density 24.878039999999999
#
# number of rings (size 3 to 8) (size 9 to 14) (size 15 to 20)
#    0.000    1.750    3.750    1.500    1.750    1.000 
#    2.250    3.125    0.000    0.000    0.000    0.000 
#    0.000    0.000    0.000    0.000    0.000    0.000 
#
# Total GULP energy -89409.406011 kJ/mol
# GULP energy per Si atom -5588.087876 kJ/mol
# Density = 2.482142 g / cm^3
# Si number density = 24.878040 Si / 1000 Ang^3
#
#
#
# Elastic Constant Matrix: (Units=GPa)
#
#
# Indices 1 2 3 4 5 6 
#
# 1 43.1367 39.6277 30.2297 -4.6676 -19.0897 -24.4288
# 2 39.6277 226.2258 29.7350 -7.7192 -17.6547 -17.5875
# 3 30.2297 29.7350 83.9436 -10.2248 -15.2975 -4.3357
# 4 -4.6676 -7.7192 -10.2248 43.5712 -2.4816 -1.7194
# 5 -19.0897 -17.6547 -15.2975 -2.4816 32.3584 4.0283
# 6 -24.4288 -17.5875 -4.3357 -1.7194 4.0283 50.3982
#
#
#
# Elastic Compliance Matrix: (Units=1/GPa)
#
#
# Indices 1 2 3 4 5 6 
#
# 1 0.065833 -0.005262 -0.015120 0.005106 0.025864 0.026880
# 2 -0.005262 0.005292 0.000008 0.000343 -0.000102 -0.000683
# 3 -0.015120 0.000008 0.017363 0.002239 0.000183 -0.005771
# 4 0.005106 0.000343 0.002239 0.024536 0.005745 0.003165
# 5 0.025864 -0.000102 0.000183 0.005745 0.045504 0.009076
# 6 0.026880 -0.000683 -0.005771 0.003165 0.009076 0.031519
#
#
# Mechanical properties :
#
#
# Convention : Reuss Voigt Hill
#
# Bulk Modulus (GPa) = 20.94684 61.38790 41.16737
# Shear Modulus (GPa) = 20.26694 42.17979 31.22337
#
# Velocity S-wave (km/s) = 2.85731 4.12207 3.54652
# Velocity P-wave (km/s) = 4.39587 6.88363 5.77529
#
# Compressibility (1/GPa) = 0.04773991
#
# Stress axis : x y z
#
# Youngs Moduli (GPa) = 15.18996 188.97770 57.59438
#
# Poissons Ratio (x) = 0.99442 0.87083
# Poissons Ratio (y) = 0.07993 -0.00049
# Poissons Ratio (z) = 0.22967 -0.00160
#
# Static dielectric constant tensor:
#      x y z
#    x 2.035200 0.031600 0.000040 
#    y 0.031600 1.973770 0.056130 
#    z 0.000040 0.056130 2.029410 
# 
# From -- ./inp_files/278320.got.cif
#   From: 2010.05.17/outbox.cif.g08.bks.cpg/sg2_140_cif.got.tgz:278320.got - 2010.06.03 11:33:40.
