data_PCOD9090071
_publ_section_title
;
Structure prediction by ZEFSAII (Michael W. Deem and Ramdas Pophale) SiO2 
 PCOD9090071
Probable space group: P -1
;
_chemical_formula_sum "Si O2"
_cell_formula_units_Z 14
_cell_length_a 17.032803
_cell_length_b 8.205828
_cell_length_c 8.644285
_cell_angle_alpha 52.110540
_cell_angle_beta 49.418339
_cell_angle_gamma 36.307163
_cell_volume 532.354867
_symmetry_space_group_name_H-M "P -1"
_symmetry_group_IT_number 2
_symmetry_cell_setting 'triclinic'
loop_
_space_group_symop_operation_xyz
x,y,z
-x,-y,-z
loop_
_atom_site_type_symbol
_atom_site_label
_atom_site_fract_x
_atom_site_fract_y
_atom_site_fract_z
Si Si1 0.787709 0.945245 0.452520
Si Si2 0.128541 0.452321 0.678683
Si Si3 0.075786 0.762865 0.173718
Si Si4 0.654028 0.547742 0.133652
Si Si5 0.603547 0.240561 0.817323
Si Si6 0.147322 0.047537 0.118413
Si Si7 0.600472 0.708562 0.452808
O O1 0.713195 0.236167 0.282793
O O2 0.699434 0.051390 0.658566
O O3 0.800747 0.716744 0.472530
O O4 0.948707 0.790586 0.369762
O O5 0.237397 0.453416 0.625728
O O6 0.973801 0.757263 0.711844
O O7 0.116243 0.251635 0.903106
O O8 0.130814 0.841236 0.191202
O O9 0.213238 0.497485 0.063042
O O10 0.000000 0.000000 0.000000
O O11 0.540821 0.685249 0.062420
O O12 0.586956 0.719185 0.278687
O O13 0.569494 0.526203 0.666134
O O14 0.700140 0.101629 0.924780
O O15 0.500000 0.000000 0.500000
#
# Coordination Sequence:
#
# PCOD9090071 Si02
#       7
#     2   2   2   2   2   2   2
#     4  10  20  39  68  90 125 172 211 255 314 383
#     4  11  22  40  67  94 126 163 217 258 317 377
#     4  10  19  38  63  92 119 171 213 247 311 385
#     4  10  20  39  65  90 126 172 209 249 320 389
#     4  11  24  42  64  94 131 167 212 262 317 372
#     4  11  24  39  66  95 128 163 213 266 311 373
#     4  11  23  40  68  93 126 169 212 261 314 381
#
# _framework density 26.298247
#
# number of rings (size 3 to 8) (size 9 to 14) (size 15 to 20)
#    0.000    1.429    2.857    6.000    2.000    3.429 
#    0.000    2.143    0.000    0.000    0.000    0.000 
#    0.000    0.000    0.000    0.000    0.000    0.000 
#
# Total GULP energy -78525.772115 kJ/mol
# GULP energy per Si atom -5608.983723 kJ/mol
# Density = 2.623839 g / cm^3
# Si number density = 26.298247 Si / 1000 Ang^3
#
#
#
# Elastic Constant Matrix: (Units=GPa)
#
#
# Indices 1 2 3 4 5 6 
#
# 1 130.1193 43.4011 -5.1777 8.3902 5.7312 -21.9934
# 2 43.4011 127.3374 37.8604 13.4147 7.3067 5.1114
# 3 -5.1777 37.8604 47.0991 16.3972 5.5158 8.0885
# 4 8.3902 13.4147 16.3972 38.7596 -0.7447 -2.6470
# 5 5.7312 7.3067 5.5158 -0.7447 43.5334 16.1820
# 6 -21.9934 5.1114 8.0885 -2.6470 16.1820 51.0742
#
#
#
# Elastic Compliance Matrix: (Units=1/GPa)
#
#
# Indices 1 2 3 4 5 6 
#
# 1 0.010814 -0.005131 0.005753 -0.002710 -0.003252 0.005149
# 2 -0.005131 0.012789 -0.011026 0.001233 0.000648 -0.001885
# 3 0.005753 -0.011026 0.035834 -0.012770 -0.002994 -0.001807
# 4 -0.002710 0.001233 -0.012770 0.031520 0.001618 0.001853
# 5 -0.003252 0.000648 -0.002994 0.001618 0.027243 -0.009538
# 6 0.005149 -0.001885 -0.001807 0.001853 -0.009538 0.025389
#
#
# Mechanical properties :
#
#
# Convention : Reuss Voigt Hill
#
# Bulk Modulus (GPa) = 25.88665 50.74704 38.31685
# Shear Modulus (GPa) = 28.20526 41.90489 35.05507
#
# Velocity S-wave (km/s) = 3.27848 3.99613 3.65496
# Velocity P-wave (km/s) = 4.91895 6.37422 5.69328
#
# Compressibility (1/GPa) = 0.03862995
#
# Stress axis : x y z
#
# Youngs Moduli (GPa) = 92.47422 78.19365 27.90655
#
# Poissons Ratio (x) = 0.40121 -0.16055
# Poissons Ratio (y) = 0.47448 0.30769
# Poissons Ratio (z) = -0.53203 0.86213
#
# Static dielectric constant tensor:
#      x y z
#    x 2.001330 0.002890 0.021310 
#    y 0.002890 2.070940 -0.068450 
#    z 0.021310 -0.068450 2.089590 
# 
# From -- ./inp_files/295178.got.cif
#   From: 2010.05.17/outbox.cif.g08.bks.cpg/sg2_148_cif.got.tgz:295178.got - 2010.06.03 11:33:40.
