data_PCOD9090660
_publ_section_title
;
Structure prediction by ZEFSAII (Michael W. Deem and Ramdas Pophale) SiO2 
 PCOD9090660
Probable space group: P -1
;
_chemical_formula_sum "Si O2"
_cell_formula_units_Z 12
_cell_length_a 7.406354
_cell_length_b 6.483007
_cell_length_c 14.001184
_cell_angle_alpha 68.160872
_cell_angle_beta 82.272939
_cell_angle_gamma 121.387062
_cell_volume 484.870110
_symmetry_space_group_name_H-M "P -1"
_symmetry_group_IT_number 2
_symmetry_cell_setting 'triclinic'
loop_
_space_group_symop_operation_xyz
x,y,z
-x,-y,-z
loop_
_atom_site_type_symbol
_atom_site_label
_atom_site_fract_x
_atom_site_fract_y
_atom_site_fract_z
Si Si1 0.826702 0.392531 0.712922
Si Si2 0.322952 0.318481 0.456559
Si Si3 0.786056 0.672432 0.052412
Si Si4 0.309028 0.558968 0.099332
Si Si5 0.966795 0.056640 0.687324
Si Si6 0.293260 0.580220 0.696067
O O1 0.706370 0.495824 0.644854
O O2 0.721385 0.274422 0.847045
O O3 0.810804 0.158043 0.691664
O O4 0.108131 0.626341 0.668126
O O5 0.500000 0.500000 0.500000
O O6 0.452541 0.225940 0.401692
O O7 0.082278 0.115365 0.566365
O O8 0.571769 0.678674 0.051280
O O9 0.725364 0.472415 0.181543
O O10 0.799957 0.526529 0.983098
O O11 0.000000 0.000000 0.000000
O O12 0.173452 0.259796 0.215241
O O13 0.169479 0.265809 0.713667
#
# Coordination Sequence:
#
# PCOD9090660 Si02
#       6
#     2   2   2   2   2   2
#     4  10  21  39  65  97 131 167 218 263 320 388
#     4  10  19  38  69  90 134 177 202 268 326 373
#     4  11  21  43  67  92 132 169 215 274 325 380
#     4  11  23  40  70  94 128 175 212 273 325 376
#     4   9  21  39  63  97 127 169 214 259 318 382
#     4   9  20  39  64  94 128 168 215 258 320 382
#
# _framework density 24.748896999999999
#
# number of rings (size 3 to 8) (size 9 to 14) (size 15 to 20)
#    1.000    1.000    3.333    0.500    0.000    1.333 
#    0.000   13.333    0.000    0.000    0.000    0.000 
#    0.000    0.000    0.000    0.000    0.000    0.000 
#
# Total GULP energy -67012.776317 kJ/mol
# GULP energy per Si atom -5584.398026 kJ/mol
# Density = 2.469257 g / cm^3
# Si number density = 24.748897 Si / 1000 Ang^3
#
#
#
# Elastic Constant Matrix: (Units=GPa)
#
#
# Indices 1 2 3 4 5 6 
#
# 1 129.8861 21.6849 48.7255 20.8623 -13.9888 13.0456
# 2 21.6849 89.8421 57.8699 27.8669 -2.5332 18.9653
# 3 48.7255 57.8699 165.4059 50.2710 -8.8657 13.2026
# 4 20.8623 27.8669 50.2710 47.9356 8.5297 1.7063
# 5 -13.9888 -2.5332 -8.8657 8.5297 42.0724 2.1410
# 6 13.0456 18.9653 13.2026 1.7063 2.1410 23.1058
#
#
#
# Elastic Compliance Matrix: (Units=1/GPa)
#
#
# Indices 1 2 3 4 5 6 
#
# 1 0.009667 0.001066 -0.001358 -0.003927 0.004076 -0.005645
# 2 0.001066 0.018241 -0.003026 -0.007968 0.003120 -0.013546
# 3 -0.001358 -0.003026 0.010814 -0.009560 0.003714 -0.002567
# 4 -0.003927 -0.007968 -0.009560 0.038979 -0.012338 0.012485
# 5 0.004076 0.003120 0.003714 -0.012338 0.029041 -0.008764
# 6 -0.005645 -0.013546 -0.002567 0.012485 -0.008764 0.058942
#
#
# Mechanical properties :
#
#
# Convention : Reuss Voigt Hill
#
# Bulk Modulus (GPa) = 31.16573 71.29942 51.23257
# Shear Modulus (GPa) = 27.31986 39.74635 33.53310
#
# Velocity S-wave (km/s) = 3.32608 4.01182 3.68494
# Velocity P-wave (km/s) = 5.23168 7.09445 6.23305
#
# Compressibility (1/GPa) = 0.03208653
#
# Stress axis : x y z
#
# Youngs Moduli (GPa) = 103.44185 54.82014 92.47280
#
# Poissons Ratio (x) = -0.05844 0.12560
# Poissons Ratio (y) = -0.11028 0.27982
# Poissons Ratio (z) = 0.14050 0.16588
#
# Static dielectric constant tensor:
#      x y z
#    x 1.965060 0.010620 -0.068540 
#    y 0.010620 2.009240 0.040610 
#    z -0.068540 0.040610 1.967860 
# 
# From -- ./inp_files/492721.got.cif
#   From: 2010.05.17/outbox.cif.g08.bks.cpg/sg2_247_cif.got.tgz:492721.got - 2010.06.03 11:33:40.
