data_PCOD9090322
_publ_section_title
;
Structure prediction by ZEFSAII (Michael W. Deem and Ramdas Pophale) SiO2 
 PCOD9090322
Probable space group: P -1
;
_chemical_formula_sum "Si O2"
_cell_formula_units_Z 16
_cell_length_a 9.701255
_cell_length_b 18.590391
_cell_length_c 10.693404
_cell_angle_alpha 138.512625
_cell_angle_beta 42.644664
_cell_angle_gamma 127.915688
_cell_volume 856.793768
_symmetry_space_group_name_H-M "P -1"
_symmetry_group_IT_number 2
_symmetry_cell_setting 'triclinic'
loop_
_space_group_symop_operation_xyz
x,y,z
-x,-y,-z
loop_
_atom_site_type_symbol
_atom_site_label
_atom_site_fract_x
_atom_site_fract_y
_atom_site_fract_z
Si Si1 0.984456 0.344903 0.115078
Si Si2 0.764208 0.736505 0.386010
Si Si3 0.657077 0.920729 0.330917
Si Si4 0.925724 0.126062 0.039517
Si Si5 0.992106 0.958966 0.592350
Si Si6 0.439851 0.562208 0.497596
Si Si7 0.414145 0.773507 0.483398
Si Si8 0.677758 0.482226 0.759883
O O1 0.956490 0.232824 0.067886
O O2 0.765437 0.380603 0.272767
O O3 0.119227 0.439221 0.229907
O O4 0.112607 0.322567 0.877153
O O5 0.915545 0.830805 0.475699
O O6 0.637345 0.650620 0.450207
O O7 0.587979 0.788644 0.494887
O O8 0.535712 0.808419 0.320974
O O9 0.500000 0.000000 0.500000
O O10 0.782587 0.994477 0.449706
O O11 0.849434 0.892324 0.082961
O O12 0.756731 0.147876 0.279549
O O13 0.857426 0.023127 0.859567
O O14 0.000000 0.000000 0.500000
O O15 0.500000 0.500000 0.500000
O O16 0.389096 0.499497 0.315559
O O17 0.309894 0.647669 0.402473
O O18 0.500000 0.500000 0.000000
#
# Coordination Sequence:
#
# PCOD9090322 Si02
#       8
#     2   2   2   2   2   2   2   2
#     4  12  20  41  69  91 122 173 221 254 308 397
#     4  11  20  41  65  92 126 164 218 256 316 384
#     4  10  22  41  58  89 131 153 199 267 320 364
#     4  10  21  36  64  92 117 163 213 253 307 381
#     4  10  19  38  65  89 119 163 209 251 314 379
#     4  11  26  43  63  98 134 161 212 280 323 364
#     4  11  20  37  64  89 121 163 213 260 301 385
#     4  11  21  40  70  93 120 177 220 253 314 387
#
# _framework density 18.674271999999998
#
# number of rings (size 3 to 8) (size 9 to 14) (size 15 to 20)
#    0.750    0.500    8.750    0.375    0.000    1.500 
#    4.500    1.250    0.000    0.000    0.000    0.000 
#    0.000    0.000    0.000    0.000    0.000    0.000 
#
# Total GULP energy -89094.122375 kJ/mol
# GULP energy per Si atom -5568.382648 kJ/mol
# Density = 1.863177 g / cm^3
# Si number density = 18.674272 Si / 1000 Ang^3
#
#
#
# Elastic Constant Matrix: (Units=GPa)
#
#
# Indices 1 2 3 4 5 6 
#
# 1 71.4994 25.1602 31.3678 8.0674 -7.2237 1.6139
# 2 25.1602 86.1659 12.9838 2.2130 13.5598 15.8666
# 3 31.3678 12.9838 110.5666 -1.8812 -12.2915 9.1426
# 4 8.0674 2.2130 -1.8812 28.2758 10.5540 1.0762
# 5 -7.2237 13.5598 -12.2915 10.5540 29.4182 10.8188
# 6 1.6139 15.8666 9.1426 1.0762 10.8188 26.4114
#
#
#
# Elastic Compliance Matrix: (Units=1/GPa)
#
#
# Indices 1 2 3 4 5 6 
#
# 1 0.020013 -0.006577 -0.004103 -0.008912 0.009147 0.000765
# 2 -0.006577 0.015858 -0.000393 0.003967 -0.008414 -0.005704
# 3 -0.004103 -0.000393 0.011440 -0.000126 0.006209 -0.006012
# 4 -0.008912 0.003967 -0.000126 0.045794 -0.022549 0.005576
# 5 0.009147 -0.008414 0.006209 -0.022549 0.058397 -0.020656
# 6 0.000765 -0.005704 -0.006012 0.005576 -0.020656 0.051558
#
#
# Mechanical properties :
#
#
# Convention : Reuss Voigt Hill
#
# Bulk Modulus (GPa) = 39.73784 45.25063 42.49423
# Shear Modulus (GPa) = 21.40474 30.06907 25.73691
#
# Velocity S-wave (km/s) = 3.38925 4.01707 3.71644
# Velocity P-wave (km/s) = 6.05324 6.76756 6.42034
#
# Compressibility (1/GPa) = 0.02516493
#
# Stress axis : x y z
#
# Youngs Moduli (GPa) = 49.96725 63.06149 87.41420
#
# Poissons Ratio (x) = 0.41475 0.35869
# Poissons Ratio (y) = 0.32863 0.03431
# Poissons Ratio (z) = 0.20504 0.02475
#
# Static dielectric constant tensor:
#      x y z
#    x 1.635910 0.006190 0.004040 
#    y 0.006190 1.671600 0.021690 
#    z 0.004040 0.021690 1.720420 
# 
# From -- ./inp_files/218508.got.cif
#   From: 2010.05.17/outbox.cif.g08.bks.cpg/sg2_110_cif.got.tgz:218508.got - 2010.06.03 11:33:40.
