data_PCOD9090298
_publ_section_title
;
Structure prediction by ZEFSAII (Michael W. Deem and Ramdas Pophale) SiO2 
 PCOD9090298
Probable space group: P -1
;
_chemical_formula_sum "Si O2"
_cell_formula_units_Z 14
_cell_length_a 13.350543
_cell_length_b 22.973283
_cell_length_c 16.699184
_cell_angle_alpha 157.810996
_cell_angle_beta 24.343213
_cell_angle_gamma 145.031510
_cell_volume 787.663188
_symmetry_space_group_name_H-M "P -1"
_symmetry_group_IT_number 2
_symmetry_cell_setting 'triclinic'
loop_
_space_group_symop_operation_xyz
x,y,z
-x,-y,-z
loop_
_atom_site_type_symbol
_atom_site_label
_atom_site_fract_x
_atom_site_fract_y
_atom_site_fract_z
Si Si1 0.384582 0.568617 0.089027
Si Si2 0.100847 0.560622 0.754532
Si Si3 0.366433 0.400343 0.217358
Si Si4 0.958281 0.842354 0.788097
Si Si5 0.732999 0.766791 0.697804
Si Si6 0.106316 0.655050 0.147516
Si Si7 0.174120 0.835562 0.165450
O O1 0.180879 0.466999 0.076670
O O2 0.217614 0.733920 0.441742
O O3 0.500000 0.500000 0.000000
O O4 0.577720 0.577456 0.888214
O O5 0.206383 0.541256 0.562873
O O6 0.248022 0.411021 0.506036
O O7 0.125925 0.720100 0.982060
O O8 0.213240 0.257827 0.162980
O O9 0.631209 0.375751 0.037779
O O10 0.823362 0.864535 0.829001
O O11 0.000000 0.000000 0.000000
O O12 0.917652 0.747759 0.465385
O O13 0.463886 0.840335 0.960360
O O14 0.129026 0.751721 0.174509
O O15 0.000000 0.500000 0.000000
O O16 0.000000 0.000000 0.500000
#
# Coordination Sequence:
#
# PCOD9090298 Si02
#       7
#     2   2   2   2   2   2   2
#     4  10  21  39  60  89 118 151 208 256 292 353
#     4  10  20  37  61  88 113 162 209 236 294 380
#     4  10  19  38  65  86 114 161 211 241 293 365
#     4  10  22  38  59  88 118 158 207 248 295 365
#     4  10  20  38  61  84 116 159 217 230 286 382
#     4  12  19  36  68  87 115 166 204 239 294 372
#     4  12  24  37  57  95 129 151 191 265 310 340
#
# _framework density 17.774094999999999
#
# number of rings (size 3 to 8) (size 9 to 14) (size 15 to 20)
#    0.000    1.714    7.143    1.286    0.000    4.571 
#    0.000    1.429    0.000    0.000    0.000    0.000 
#    0.000    0.000    0.000    0.000    0.000    0.000 
#
# Total GULP energy -78099.124591 kJ/mol
# GULP energy per Si atom -5578.508899 kJ/mol
# Density = 1.773364 g / cm^3
# Si number density = 17.774095 Si / 1000 Ang^3
#
#
#
# Elastic Constant Matrix: (Units=GPa)
#
#
# Indices 1 2 3 4 5 6 
#
# 1 94.1781 48.9207 44.4141 4.1441 32.4576 5.6223
# 2 48.9207 67.5661 47.8227 -15.2275 31.6017 -0.6786
# 3 44.4141 47.8227 76.2707 -10.0350 28.1166 19.5197
# 4 4.1441 -15.2275 -10.0350 37.1219 -4.2704 20.0934
# 5 32.4576 31.6017 28.1166 -4.2704 36.6332 -0.4551
# 6 5.6223 -0.6786 19.5197 20.0934 -0.4551 35.2675
#
#
#
# Elastic Compliance Matrix: (Units=1/GPa)
#
#
# Indices 1 2 3 4 5 6 
#
# 1 0.022212 -0.010729 -0.008569 -0.014931 -0.005472 0.009432
# 2 -0.010729 0.041914 -0.014583 0.010388 -0.014192 0.004486
# 3 -0.008569 -0.014583 0.045543 0.027528 -0.012071 -0.039961
# 4 -0.014931 0.010388 0.027528 0.066668 -0.009719 -0.050765
# 5 -0.005472 -0.014192 -0.012071 -0.009719 0.052688 0.013497
# 6 0.009432 0.004486 -0.039961 -0.050765 0.013497 0.078152
#
#
# Mechanical properties :
#
#
# Convention : Reuss Voigt Hill
#
# Bulk Modulus (GPa) = 23.86108 57.81444 40.83776
# Shear Modulus (GPa) = 12.85656 28.26169 20.55913
#
# Velocity S-wave (km/s) = 2.69240 3.99187 3.40470
# Velocity P-wave (km/s) = 4.80824 7.33789 6.20338
#
# Compressibility (1/GPa) = 0.04190925
#
# Stress axis : x y z
#
# Youngs Moduli (GPa) = 45.02093 23.85845 21.95715
#
# Poissons Ratio (x) = 0.25597 0.18814
# Poissons Ratio (y) = 0.48302 0.32019
# Poissons Ratio (z) = 0.38577 0.34792
#
# Static dielectric constant tensor:
#      x y z
#    x 1.616050 -0.002430 -0.005340 
#    y -0.002430 1.622310 -0.021380 
#    z -0.005340 -0.021380 1.597910 
# 
# From -- ./inp_files/220925.got.cif
#   From: 2010.05.17/outbox.cif.g08.bks.cpg/sg2_111_cif.got.tgz:220925.got - 2010.06.03 11:33:40.
