data_PCOD9090827
_publ_section_title
;
Structure prediction by ZEFSAII (Michael W. Deem and Ramdas Pophale) SiO2 
 PCOD9090827
Probable space group: P -1
;
_chemical_formula_sum "Si O2"
_cell_formula_units_Z 14
_cell_length_a 9.061803
_cell_length_b 12.075434
_cell_length_c 14.063784
_cell_angle_alpha 42.235083
_cell_angle_beta 130.486384
_cell_angle_gamma 132.075498
_cell_volume 730.764582
_symmetry_space_group_name_H-M "P -1"
_symmetry_group_IT_number 2
_symmetry_cell_setting 'triclinic'
loop_
_space_group_symop_operation_xyz
x,y,z
-x,-y,-z
loop_
_atom_site_type_symbol
_atom_site_label
_atom_site_fract_x
_atom_site_fract_y
_atom_site_fract_z
Si Si1 0.918571 0.992190 0.229910
Si Si2 0.467877 0.866287 0.481261
Si Si3 0.617276 0.315488 0.107086
Si Si4 0.795656 0.885832 0.046432
Si Si5 0.811770 0.054099 0.350808
Si Si6 0.366892 0.318216 0.192714
Si Si7 0.001481 0.306388 0.633193
O O1 0.800935 0.014552 0.259449
O O2 0.146244 0.150339 0.214508
O O3 0.802478 0.984676 0.086190
O O4 0.942631 0.799243 0.363865
O O5 0.510815 0.700148 0.650070
O O6 0.239502 0.815891 0.374742
O O7 0.500000 0.000000 0.500000
O O8 0.625706 0.947351 0.410977
O O9 0.811291 0.252075 0.234498
O O10 0.514525 0.314139 0.168242
O O11 0.423671 0.173272 0.059322
O O12 0.672946 0.502432 0.958237
O O13 0.847686 0.713163 0.208667
O O14 0.000000 0.000000 0.000000
O O15 0.000000 0.000000 0.500000
O O16 0.000000 0.500000 0.500000
#
# Coordination Sequence:
#
# PCOD9090827 Si02
#       7
#     2   2   2   2   2   2   2
#     4  10  22  39  59  86 126 156 200 247 310 350
#     4  12  19  39  67  88 118 163 203 252 297 362
#     4  11  23  36  65  91 119 159 205 253 297 364
#     4  10  19  39  60  86 116 158 198 243 301 354
#     4  12  23  40  61  91 125 162 200 250 314 357
#     4  11  21  39  62  93 117 154 213 253 298 351
#     4  10  21  38  64  88 117 157 205 251 293 359
#
# _framework density 19.158017000000001
#
# number of rings (size 3 to 8) (size 9 to 14) (size 15 to 20)
#    0.857    0.286    5.714    1.714    0.000    1.143 
#    0.000    0.714    0.000    0.000    0.000    0.000 
#    0.000    0.000    0.000    0.000    0.000    0.000 
#
# Total GULP energy -77952.651644 kJ/mol
# GULP energy per Si atom -5568.046546 kJ/mol
# Density = 1.911441 g / cm^3
# Si number density = 19.158017 Si / 1000 Ang^3
#
#
#
# Elastic Constant Matrix: (Units=GPa)
#
#
# Indices 1 2 3 4 5 6 
#
# 1 111.1975 21.6480 30.2491 -17.8711 -9.0759 -12.7209
# 2 21.6480 46.6021 11.5561 -10.9510 0.5068 1.0046
# 3 30.2491 11.5561 108.3263 -19.1491 7.2576 -8.2461
# 4 -17.8711 -10.9510 -19.1491 35.6782 -1.7671 5.7300
# 5 -9.0759 0.5068 7.2576 -1.7671 42.6503 2.2271
# 6 -12.7209 1.0046 -8.2461 5.7300 2.2271 17.8938
#
#
#
# Elastic Compliance Matrix: (Units=1/GPa)
#
#
# Indices 1 2 3 4 5 6 
#
# 1 0.011810 -0.004563 -0.002049 0.002491 0.002676 0.006577
# 2 -0.004563 0.025387 -0.000843 0.006147 -0.000511 -0.006963
# 3 -0.002049 -0.000843 0.010963 0.004066 -0.002260 0.002622
# 4 0.002491 0.006147 0.004066 0.034713 0.001622 -0.008018
# 5 0.002676 -0.000511 -0.002260 0.001622 0.024614 -0.002694
# 6 0.006577 -0.006963 0.002622 -0.008018 -0.002694 0.065063
#
#
# Mechanical properties :
#
#
# Convention : Reuss Voigt Hill
#
# Bulk Modulus (GPa) = 30.07612 43.67023 36.87317
# Shear Modulus (GPa) = 25.18308 32.75598 28.96953
#
# Velocity S-wave (km/s) = 3.62953 4.13943 3.89284
# Velocity P-wave (km/s) = 5.77041 6.75950 6.28444
#
# Compressibility (1/GPa) = 0.03324897
#
# Stress axis : x y z
#
# Youngs Moduli (GPa) = 84.67357 39.38984 91.21332
#
# Poissons Ratio (x) = 0.17975 0.18692
# Poissons Ratio (y) = 0.38640 0.07691
# Poissons Ratio (z) = 0.17352 0.03321
#
# Static dielectric constant tensor:
#      x y z
#    x 1.658040 -0.022990 0.026970 
#    y -0.022990 1.695880 -0.020420 
#    z 0.026970 -0.020420 1.732030 
# 
# From -- ./inp_files/501671.got.cif
#   From: 2010.05.17/outbox.cif.g08.bks.cpg/sg2_251_cif.got.tgz:501671.got - 2010.06.03 11:33:40.
