data_PCOD9090428
_publ_section_title
;
Structure prediction by ZEFSAII (Michael W. Deem and Ramdas Pophale) SiO2 
 PCOD9090428
Probable space group: P -1
;
_chemical_formula_sum "Si O2"
_cell_formula_units_Z 16
_cell_length_a 25.425342
_cell_length_b 5.318626
_cell_length_c 10.192505
_cell_angle_alpha 121.138265
_cell_angle_beta 37.300031
_cell_angle_gamma 101.648551
_cell_volume 654.029794
_symmetry_space_group_name_H-M "P -1"
_symmetry_group_IT_number 2
_symmetry_cell_setting 'triclinic'
loop_
_space_group_symop_operation_xyz
x,y,z
-x,-y,-z
loop_
_atom_site_type_symbol
_atom_site_label
_atom_site_fract_x
_atom_site_fract_y
_atom_site_fract_z
Si Si1 0.944251 0.363939 0.378530
Si Si2 0.899524 0.080398 0.652872
Si Si3 0.859298 0.628492 0.061819
Si Si4 0.304639 0.802947 0.135445
Si Si5 0.702280 0.291424 0.588704
Si Si6 0.460818 0.103636 0.962862
Si Si7 0.855570 0.526598 0.326557
Si Si8 0.552735 0.740288 0.439876
O O1 0.911960 0.188011 0.509372
O O2 0.915461 0.320544 0.273994
O O3 0.888539 0.749560 0.609412
O O4 0.057054 0.284554 0.145535
O O5 0.838090 0.379515 0.945352
O O6 0.000000 0.000000 0.500000
O O7 0.905400 0.520621 0.087381
O O8 0.756826 0.913962 0.365379
O O9 0.297229 0.631795 0.237717
O O10 0.206773 0.112126 0.401901
O O11 0.342800 0.518340 0.877280
O O12 0.383283 0.951550 0.043489
O O13 0.775885 0.406733 0.406330
O O14 0.596702 0.512146 0.817822
O O15 0.539219 0.950718 0.653858
O O16 0.500000 0.000000 0.000000
O O17 0.500000 0.500000 0.500000
O O18 0.500000 0.000000 0.500000
#
# Coordination Sequence:
#
# PCOD9090428 Si02
#       8
#     2   2   2   2   2   2   2   2
#     4  11  24  41  66  95 123 169 222 264 304 374
#     4  10  23  42  63  88 126 167 211 263 319 371
#     4  10  22  39  64  88 125 172 208 257 325 372
#     4   9  20  40  59  89 122 166 201 254 316 369
#     4  10  21  38  63  86 132 161 207 259 325 367
#     4  10  21  39  64  93 122 159 209 260 310 378
#     4  10  23  38  63  91 128 161 215 265 307 369
#     4  10  19  38  66  87 116 161 200 242 308 373
#
# _framework density 24.463716000000002
#
# number of rings (size 3 to 8) (size 9 to 14) (size 15 to 20)
#    0.000    2.000    1.250    1.875    8.750    1.000 
#    2.250    0.000    0.000    0.000    0.000    0.000 
#    0.000    0.000    0.000    0.000    0.000    0.000 
#
# Total GULP energy -89288.050114 kJ/mol
# GULP energy per Si atom -5580.503132 kJ/mol
# Density = 2.440804 g / cm^3
# Si number density = 24.463716 Si / 1000 Ang^3
#
#
#
# Elastic Constant Matrix: (Units=GPa)
#
#
# Indices 1 2 3 4 5 6 
#
# 1 88.9525 32.6069 39.3715 12.5770 3.0314 -26.2755
# 2 32.6069 117.3934 44.0085 7.4129 5.7248 -23.9665
# 3 39.3715 44.0085 166.1967 22.8331 28.3690 -18.3962
# 4 12.5770 7.4129 22.8331 37.5902 -0.7592 -4.9765
# 5 3.0314 5.7248 28.3690 -0.7592 14.7085 -4.9078
# 6 -26.2755 -23.9665 -18.3962 -4.9765 -4.9078 46.3254
#
#
#
# Elastic Compliance Matrix: (Units=1/GPa)
#
#
# Indices 1 2 3 4 5 6 
#
# 1 0.015429 -0.001857 -0.003128 -0.001857 0.005804 0.006964
# 2 -0.001857 0.010552 -0.002376 0.000522 0.002135 0.003745
# 3 -0.003128 -0.002376 0.011887 -0.006325 -0.022121 -0.001306
# 4 -0.001857 0.000522 -0.006325 0.031472 0.014546 0.001627
# 5 0.005804 0.002135 -0.022121 0.014546 0.112407 0.009083
# 6 0.006964 0.003745 -0.001306 0.001627 0.009083 0.028092
#
#
# Mechanical properties :
#
#
# Convention : Reuss Voigt Hill
#
# Bulk Modulus (GPa) = 43.20299 67.16850 55.18574
# Shear Modulus (GPa) = 21.52596 36.82853 29.17724
#
# Velocity S-wave (km/s) = 2.96955 3.88420 3.45726
# Velocity P-wave (km/s) = 5.42734 6.90160 6.20838
#
# Compressibility (1/GPa) = 0.02314655
#
# Stress axis : x y z
#
# Youngs Moduli (GPa) = 64.81324 94.76632 84.12206
#
# Poissons Ratio (x) = 0.17597 0.26315
# Poissons Ratio (y) = 0.12035 0.19987
# Poissons Ratio (z) = 0.20275 0.22516
#
# Static dielectric constant tensor:
#      x y z
#    x 1.968560 0.037330 0.010370 
#    y 0.037330 2.017730 0.061300 
#    z 0.010370 0.061300 2.112700 
# 
# From -- ./inp_files/143368.got.cif
#   From: 2010.05.17/outbox.cif.g08.bks.cpg/sg2_72_cif.got.tgz:143368.got - 2010.06.03 11:33:40.
