data_PCOD9090115
_publ_section_title
;
Structure prediction by ZEFSAII (Michael W. Deem and Ramdas Pophale) SiO2 
 PCOD9090115
Probable space group: P -1
;
_chemical_formula_sum "Si O2"
_cell_formula_units_Z 16
_cell_length_a 15.031576
_cell_length_b 5.694134
_cell_length_c 22.949770
_cell_angle_alpha 125.344443
_cell_angle_beta 150.307282
_cell_angle_gamma 45.724619
_cell_volume 694.507357
_symmetry_space_group_name_H-M "P -1"
_symmetry_group_IT_number 2
_symmetry_cell_setting 'triclinic'
loop_
_space_group_symop_operation_xyz
x,y,z
-x,-y,-z
loop_
_atom_site_type_symbol
_atom_site_label
_atom_site_fract_x
_atom_site_fract_y
_atom_site_fract_z
Si Si1 0.077398 0.870700 0.589620
Si Si2 0.460234 0.185308 0.441338
Si Si3 0.693974 0.156377 0.046051
Si Si4 0.808813 0.175310 0.994066
Si Si5 0.941798 0.473670 0.812502
Si Si6 0.506192 0.719662 0.828105
Si Si7 0.701097 0.650618 0.812100
Si Si8 0.701981 0.888675 0.424996
O O1 0.262611 0.938038 0.719532
O O2 0.196155 0.476174 0.594869
O O3 0.881182 0.989149 0.536391
O O4 0.000000 0.000000 0.500000
O O5 0.500000 0.500000 0.500000
O O6 0.228868 0.335667 0.306098
O O7 0.500000 0.000000 0.500000
O O8 0.615921 0.920629 0.445390
O O9 0.812038 0.224296 0.071573
O O10 0.598096 0.952572 0.931139
O O11 0.500000 0.500000 0.000000
O O12 0.867629 0.882803 0.147550
O O13 0.585108 0.441313 0.881764
O O14 0.821644 0.836463 0.932626
O O15 0.970158 0.286819 0.080559
O O16 0.834265 0.422040 0.801967
O O17 0.618092 0.542397 0.805686
O O18 0.490200 0.892785 0.693864
#
# Coordination Sequence:
#
# PCOD9090115 Si02
#       8
#     2   2   2   2   2   2   2   2
#     4  11  21  39  65 100 131 177 240 288 373 415
#     4  11  28  52  73 105 148 193 250 298 353 433
#     4  10  24  45  63  93 137 179 233 285 348 426
#     4  10  21  39  63  96 127 168 219 288 351 423
#     4  10  24  42  69  97 130 183 228 289 362 417
#     4  10  21  37  64  96 133 173 221 292 348 431
#     4  10  19  38  63  97 132 164 218 287 360 418
#     4  10  23  40  67  98 137 184 229 303 356 428
#
# _framework density 23.037914000000001
#
# number of rings (size 3 to 8) (size 9 to 14) (size 15 to 20)
#    0.000    1.750    2.500    0.375    3.500    7.500 
#    6.750    0.000    0.000    0.000    0.000    0.000 
#    0.000    0.000    0.000    0.000    0.000    0.000 
#
# Total GULP energy -89253.025504 kJ/mol
# GULP energy per Si atom -5578.314094 kJ/mol
# Density = 2.298548 g / cm^3
# Si number density = 23.037914 Si / 1000 Ang^3
#
#
#
# Elastic Constant Matrix: (Units=GPa)
#
#
# Indices 1 2 3 4 5 6 
#
# 1 107.0746 31.0579 42.9119 -26.0141 -0.5509 2.8964
# 2 31.0579 75.9762 27.3090 -31.5358 1.4736 -9.0377
# 3 42.9119 27.3090 131.9987 -31.5235 9.9414 2.6983
# 4 -26.0141 -31.5358 -31.5235 40.0868 4.6021 2.8600
# 5 -0.5509 1.4736 9.9414 4.6021 33.4630 -6.2715
# 6 2.8964 -9.0377 2.6983 2.8600 -6.2715 25.5286
#
#
#
# Elastic Compliance Matrix: (Units=1/GPa)
#
#
# Indices 1 2 3 4 5 6 
#
# 1 0.012130 -0.002733 -0.002357 0.004052 -0.000015 -0.002552
# 2 -0.002733 0.021048 0.000067 0.014659 -0.001952 0.005633
# 3 -0.002357 0.000067 0.010551 0.007568 -0.004749 -0.002839
# 4 0.004052 0.014659 0.007568 0.046462 -0.009912 -0.003710
# 5 -0.000015 -0.001952 -0.004749 -0.009912 0.034505 0.009400
# 6 -0.002552 0.005633 -0.002839 -0.003710 0.009400 0.044480
#
#
# Mechanical properties :
#
#
# Convention : Reuss Voigt Hill
#
# Bulk Modulus (GPa) = 29.68837 57.51189 43.60013
# Shear Modulus (GPa) = 26.25353 34.06704 30.16029
#
# Velocity S-wave (km/s) = 3.37943 3.84961 3.62216
# Velocity P-wave (km/s) = 5.30491 6.69160 6.03820
#
# Compressibility (1/GPa) = 0.03368323
#
# Stress axis : x y z
#
# Youngs Moduli (GPa) = 82.44029 47.51103 94.77437
#
# Poissons Ratio (x) = 0.12983 0.22337
# Poissons Ratio (y) = 0.22528 -0.00631
# Poissons Ratio (z) = 0.19430 -0.00317
#
# Static dielectric constant tensor:
#      x y z
#    x 1.961370 0.050560 0.028150 
#    y 0.050560 1.937360 -0.004580 
#    z 0.028150 -0.004580 1.933450 
# 
# From -- ./inp_files/124098.got.cif
#   From: 2010.05.17/outbox.cif.g08.bks.cpg/sg2_63_cif.got.tgz:124098.got - 2010.06.03 11:33:40.
