data_PCOD9090491
_publ_section_title
;
Structure prediction by ZEFSAII (Michael W. Deem and Ramdas Pophale) SiO2 
 PCOD9090491
Probable space group: P -1
;
_chemical_formula_sum "Si O2"
_cell_formula_units_Z 16
_cell_length_a 11.424470
_cell_length_b 8.514623
_cell_length_c 13.587885
_cell_angle_alpha 40.573189
_cell_angle_beta 73.851622
_cell_angle_gamma 91.094826
_cell_volume 767.592968
_symmetry_space_group_name_H-M "P -1"
_symmetry_group_IT_number 2
_symmetry_cell_setting 'triclinic'
loop_
_space_group_symop_operation_xyz
x,y,z
-x,-y,-z
loop_
_atom_site_type_symbol
_atom_site_label
_atom_site_fract_x
_atom_site_fract_y
_atom_site_fract_z
Si Si1 0.518999 0.038331 0.189098
Si Si2 0.458244 0.687983 0.650297
Si Si3 0.641308 0.749316 0.750021
Si Si4 0.352085 0.497433 0.425943
Si Si5 0.047094 0.763144 0.080332
Si Si6 0.202559 0.728350 0.655198
Si Si7 0.709244 0.315073 0.858139
Si Si8 0.778703 0.061336 0.229015
O O1 0.427817 0.198607 0.161712
O O2 0.644933 0.091562 0.205409
O O3 0.420875 0.742618 0.360912
O O4 0.580884 0.092470 0.039840
O O5 0.516798 0.620868 0.767612
O O6 0.536624 0.605746 0.588116
O O7 0.305709 0.585025 0.714680
O O8 0.500000 0.000000 0.500000
O O9 0.718889 0.555571 0.815265
O O10 0.732927 0.024975 0.549523
O O11 0.301347 0.593081 0.293467
O O12 0.246859 0.245710 0.619859
O O13 0.168044 0.769997 0.117030
O O14 0.931126 0.484248 0.249302
O O15 0.105640 0.793701 0.941626
O O16 0.000000 0.000000 0.000000
O O17 0.193191 0.841784 0.711726
#
# Coordination Sequence:
#
# PCOD9090491 Si02
#       8
#     2   2   2   2   2   2   2   2
#     4  11  22  34  64 102 128 153 199 255 322 364
#     4   9  16  32  60  92 119 154 192 250 301 366
#     4  10  19  38  66  94 123 154 203 255 309 376
#     4  11  21  38  64  94 130 160 197 258 323 360
#     4  11  28  43  62  89 123 165 216 258 297 357
#     4  11  20  40  66  88 124 167 209 247 304 361
#     4  10  23  44  58  88 134 162 201 252 309 373
#     4  11  21  41  62  93 124 165 211 247 297 380
#
# _framework density 20.844380000000001
#
# number of rings (size 3 to 8) (size 9 to 14) (size 15 to 20)
#    0.000    1.500    5.000    2.250    5.250    0.500 
#    0.000    1.875    0.000    0.000    0.000    0.000 
#    0.000    0.000    0.000    0.000    0.000    0.000 
#
# Total GULP energy -89316.531700 kJ/mol
# GULP energy per Si atom -5582.283231 kJ/mol
# Density = 2.079694 g / cm^3
# Si number density = 20.844380 Si / 1000 Ang^3
#
#
#
# Elastic Constant Matrix: (Units=GPa)
#
#
# Indices 1 2 3 4 5 6 
#
# 1 83.3790 28.9329 35.7960 0.6179 5.6135 -19.5299
# 2 28.9329 48.9413 -4.2799 -8.4978 5.2306 -9.7368
# 3 35.7960 -4.2799 87.8864 2.7417 6.1773 7.7402
# 4 0.6179 -8.4978 2.7417 30.8025 -1.9848 3.9411
# 5 5.6135 5.2306 6.1773 -1.9848 29.0708 -3.3594
# 6 -19.5299 -9.7368 7.7402 3.9411 -3.3594 26.4948
#
#
#
# Elastic Compliance Matrix: (Units=1/GPa)
#
#
# Indices 1 2 3 4 5 6 
#
# 1 0.027588 -0.014761 -0.013691 -0.005834 0.002157 0.020052
# 2 -0.014761 0.031043 0.007875 0.008340 -0.004250 -0.003552
# 3 -0.013691 0.007875 0.018754 0.002242 -0.004170 -0.013539
# 4 -0.005834 0.008340 0.002242 0.035640 0.000763 -0.007095
# 5 0.002157 -0.004250 -0.004170 0.000763 0.036349 0.005742
# 6 0.020052 -0.003552 -0.013539 -0.007095 0.005742 0.056957
#
#
# Mechanical properties :
#
#
# Convention : Reuss Voigt Hill
#
# Bulk Modulus (GPa) = 27.60022 37.90051 32.75037
# Shear Modulus (GPa) = 19.26329 27.92413 23.59371
#
# Velocity S-wave (km/s) = 3.04328 3.66409 3.36802
# Velocity P-wave (km/s) = 5.06148 6.01023 5.55614
#
# Compressibility (1/GPa) = 0.03623160
#
# Stress axis : x y z
#
# Youngs Moduli (GPa) = 36.24757 32.21333 53.32288
#
# Poissons Ratio (x) = 0.47549 0.73004
# Poissons Ratio (y) = 0.53504 -0.41992
# Poissons Ratio (z) = 0.49627 -0.25368
#
# Static dielectric constant tensor:
#      x y z
#    x 1.748320 -0.010620 0.015260 
#    y -0.010620 1.762230 -0.007430 
#    z 0.015260 -0.007430 1.807360 
# 
# From -- ./inp_files/271237.got.cif
#   From: 2010.05.17/outbox.cif.g08.bks.cpg/sg2_136_cif.got.tgz:271237.got - 2010.06.03 11:33:40.
