data_PCOD9090470
_publ_section_title
;
Structure prediction by ZEFSAII (Michael W. Deem and Ramdas Pophale) SiO2 
 PCOD9090470
Probable space group: P -1
;
_chemical_formula_sum "Si O2"
_cell_formula_units_Z 14
_cell_length_a 7.042625
_cell_length_b 18.666329
_cell_length_c 11.095780
_cell_angle_alpha 155.876205
_cell_angle_beta 72.447865
_cell_angle_gamma 108.848731
_cell_volume 564.109918
_symmetry_space_group_name_H-M "P -1"
_symmetry_group_IT_number 2
_symmetry_cell_setting 'triclinic'
loop_
_space_group_symop_operation_xyz
x,y,z
-x,-y,-z
loop_
_atom_site_type_symbol
_atom_site_label
_atom_site_fract_x
_atom_site_fract_y
_atom_site_fract_z
Si Si1 0.452172 0.660034 0.673932
Si Si2 0.496214 0.969161 0.307319
Si Si3 0.873210 0.576297 0.782425
Si Si4 0.080299 0.705466 0.296235
Si Si5 0.086900 0.276248 0.381529
Si Si6 0.474221 0.335059 0.840555
Si Si7 0.041821 0.071208 0.844770
O O1 0.500000 0.500000 0.500000
O O2 0.265743 0.572262 0.496409
O O3 0.667791 0.721766 0.657924
O O4 0.389188 0.802295 0.999893
O O5 0.723940 0.943096 0.200717
O O6 0.500000 0.000000 0.500000
O O7 0.432044 0.133694 0.497732
O O8 0.041977 0.471519 0.647353
O O9 0.707225 0.630925 0.989104
O O10 0.953898 0.758520 0.980491
O O11 0.306215 0.686744 0.179876
O O12 0.035677 0.756461 0.521477
O O13 0.985820 0.867227 0.497453
O O14 0.000000 0.500000 0.000000
O O15 0.982338 0.138057 0.090195
O O16 0.500000 0.500000 0.000000
#
# Coordination Sequence:
#
# PCOD9090470 Si02
#       7
#     2   2   2   2   2   2   2
#     4  11  22  40  69 100 129 172 225 269 328 404
#     4  10  19  38  66  92 125 172 212 268 329 381
#     4  12  22  44  69 100 131 175 225 273 328 397
#     4  11  24  43  67  96 132 180 219 268 337 400
#     4  11  23  43  68  95 139 170 216 280 330 385
#     4  11  22  42  65  91 134 175 212 273 335 377
#     4  10  22  40  68  93 131 176 214 273 335 385
#
# _framework density 24.817858999999999
#
# number of rings (size 3 to 8) (size 9 to 14) (size 15 to 20)
#    0.000    1.143    5.714    1.714    0.000    1.143 
#    2.571    1.429    0.000    2.571    0.000    0.000 
#    0.000    0.000    0.000    0.000    0.000    0.000 
#
# Total GULP energy -77947.274898 kJ/mol
# GULP energy per Si atom -5567.662493 kJ/mol
# Density = 2.476137 g / cm^3
# Si number density = 24.817859 Si / 1000 Ang^3
#
#
#
# Elastic Constant Matrix: (Units=GPa)
#
#
# Indices 1 2 3 4 5 6 
#
# 1 119.1538 19.1874 24.9105 10.1616 -15.4990 8.2131
# 2 19.1874 83.6890 52.0221 4.8045 -4.4458 7.1441
# 3 24.9105 52.0221 198.5018 36.0016 -20.4102 -4.7044
# 4 10.1616 4.8045 36.0016 55.3610 2.1137 -15.0363
# 5 -15.4990 -4.4458 -20.4102 2.1137 32.9716 1.2145
# 6 8.2131 7.1441 -4.7044 -15.0363 1.2145 24.7700
#
#
#
# Elastic Compliance Matrix: (Units=1/GPa)
#
#
# Indices 1 2 3 4 5 6 
#
# 1 0.009878 -0.001460 0.000137 -0.003350 0.004934 -0.005104
# 2 -0.001460 0.015098 -0.004069 0.000474 -0.001041 -0.004304
# 3 0.000137 -0.004069 0.007402 -0.004820 0.004429 -0.000609
# 4 -0.003350 0.000474 -0.004820 0.026508 -0.006801 0.016484
# 5 0.004934 -0.001041 0.004429 -0.006801 0.035921 -0.006385
# 6 -0.005104 -0.004304 -0.000609 0.016484 -0.006385 0.053509
#
#
# Mechanical properties :
#
#
# Convention : Reuss Voigt Hill
#
# Bulk Modulus (GPa) = 46.30657 65.95384 56.13020
# Shear Modulus (GPa) = 30.06660 42.96881 36.51770
#
# Velocity S-wave (km/s) = 3.48442 4.16548 3.84008
# Velocity P-wave (km/s) = 5.90655 7.05463 6.50597
#
# Compressibility (1/GPa) = 0.02159521
#
# Stress axis : x y z
#
# Youngs Moduli (GPa) = 101.23201 66.23543 135.09812
#
# Poissons Ratio (x) = 0.09669 -0.01849
# Poissons Ratio (y) = 0.14777 0.54965
# Poissons Ratio (z) = -0.01386 0.26948
#
# Static dielectric constant tensor:
#      x y z
#    x 2.076260 0.077440 0.178020 
#    y 0.077440 2.081590 0.103350 
#    z 0.178020 0.103350 2.194900 
# 
# From -- ./inp_files/405761.got.cif
#   From: 2010.05.17/outbox.cif.g08.bks.cpg/sg2_203_cif.got.tgz:405761.got - 2010.06.03 11:33:40.
