data_PCOD9090850
_publ_section_title
;
Structure prediction by ZEFSAII (Michael W. Deem and Ramdas Pophale) SiO2 
 PCOD9090850
Probable space group: P -1
;
_chemical_formula_sum "Si O2"
_cell_formula_units_Z 13
_cell_length_a 12.574500
_cell_length_b 8.625504
_cell_length_c 7.405223
_cell_angle_alpha 122.883382
_cell_angle_beta 104.653867
_cell_angle_gamma 46.782272
_cell_volume 482.190428
_symmetry_space_group_name_H-M "P -1"
_symmetry_group_IT_number 2
_symmetry_cell_setting 'triclinic'
loop_
_space_group_symop_operation_xyz
x,y,z
-x,-y,-z
loop_
_atom_site_type_symbol
_atom_site_label
_atom_site_fract_x
_atom_site_fract_y
_atom_site_fract_z
Si Si1 0.013239 0.108261 0.340715
Si Si2 0.301385 0.439617 0.409185
Si Si3 0.968868 0.326033 0.069114
Si Si4 0.335315 0.797098 0.235565
Si Si5 0.405184 0.689766 0.792693
Si Si6 0.500000 0.000000 0.500000
Si Si7 0.749544 0.781789 0.039977
O O1 0.874941 0.321120 0.535988
O O2 0.976685 0.257828 0.235104
O O3 0.177593 0.985515 0.386078
O O4 0.018828 0.882712 0.163694
O O5 0.366256 0.564626 0.567905
O O6 0.332800 0.281177 0.148249
O O7 0.362602 0.244354 0.473988
O O8 0.106906 0.298850 0.054617
O O9 0.817390 0.606528 0.133306
O O10 0.431798 0.521978 0.186424
O O11 0.433303 0.867347 0.347068
O O12 0.310208 0.792037 0.005929
O O13 0.361803 0.920733 0.808809
#
# Coordination Sequence:
#
# PCOD9090850 Si02
#       7
#     2   2   2   2   2   1   2
#     4  11  20  41  62  98 120 164 195 274 304 357
#     4  11  22  36  69  89 127 155 217 247 311 353
#     4  10  22  38  63  89 133 153 211 247 320 351
#     4  10  20  35  64  88 125 159 209 250 309 358
#     4  10  19  39  60  89 122 169 199 254 296 380
#     4  10  20  36  58  98 114 168 206 246 290 396
#     4  11  21  41  61  97 117 172 204 251 293 394
#
# _framework density 26.960305000000002
#
# number of rings (size 3 to 8) (size 9 to 14) (size 15 to 20)
#    0.000    1.538    4.615    0.923    0.000    3.077 
#    0.000    0.769    0.000    1.846    0.000    0.000 
#    0.000    0.000    0.000    0.000    0.000    0.000 
#
# Total GULP energy -72662.411041 kJ/mol
# GULP energy per Si atom -5589.416234 kJ/mol
# Density = 2.689894 g / cm^3
# Si number density = 26.960305 Si / 1000 Ang^3
#
#
#
# Elastic Constant Matrix: (Units=GPa)
#
#
# Indices 1 2 3 4 5 6 
#
# 1 89.7550 46.7998 50.6879 -3.5215 23.5013 5.2037
# 2 46.7998 248.4175 57.4080 21.2110 10.3745 2.1242
# 3 50.6879 57.4080 98.3875 12.8409 33.0907 13.7577
# 4 -3.5215 21.2110 12.8409 45.8777 10.4785 5.1788
# 5 23.5013 10.3745 33.0907 10.4785 39.8456 3.8050
# 6 5.2037 2.1242 13.7577 5.1788 3.8050 50.2861
#
#
#
# Elastic Compliance Matrix: (Units=1/GPa)
#
#
# Indices 1 2 3 4 5 6 
#
# 1 0.017719 -0.002013 -0.006720 0.005498 -0.005789 -0.000038
# 2 -0.002013 0.005100 -0.002594 -0.002463 0.002589 0.000760
# 3 -0.006720 -0.002594 0.019481 -0.001929 -0.010696 -0.003517
# 4 0.005498 -0.002463 -0.001929 0.025864 -0.007608 -0.002025
# 5 -0.005789 0.002589 -0.010696 -0.007608 0.038598 0.001279
# 6 -0.000038 0.000760 -0.003517 -0.002025 0.001279 0.020932
#
#
# Mechanical properties :
#
#
# Convention : Reuss Voigt Hill
#
# Bulk Modulus (GPa) = 50.90039 82.92792 66.91416
# Shear Modulus (GPa) = 31.86810 45.97949 38.92379
#
# Velocity S-wave (km/s) = 3.44181 4.13419 3.80379
# Velocity P-wave (km/s) = 5.89198 7.32221 6.64568
#
# Compressibility (1/GPa) = 0.01964621
#
# Stress axis : x y z
#
# Youngs Moduli (GPa) = 56.43547 196.08119 51.33327
#
# Poissons Ratio (x) = 0.39464 0.34494
# Poissons Ratio (y) = 0.11359 0.13318
# Poissons Ratio (z) = 0.37923 0.50873
#
# Static dielectric constant tensor:
#      x y z
#    x 2.220940 -0.017390 -0.122520 
#    y -0.017390 2.020400 0.010250 
#    z -0.122520 0.010250 2.063080 
# 
# From -- ./inp_files/236757.got.cif
#   From: 2010.05.17/outbox.cif.g08.bks.cpg/sg2_119_cif.got.tgz:236757.got - 2010.06.03 11:33:40.
