data_PCOD9090299
_publ_section_title
;
Structure prediction by ZEFSAII (Michael W. Deem and Ramdas Pophale) SiO2 
 PCOD9090299
Probable space group: P -1
;
_chemical_formula_sum "Si O2"
_cell_formula_units_Z 16
_cell_length_a 6.455662
_cell_length_b 12.499275
_cell_length_c 12.956561
_cell_angle_alpha 118.203848
_cell_angle_beta 116.523934
_cell_angle_gamma 58.161776
_cell_volume 755.068420
_symmetry_space_group_name_H-M "P -1"
_symmetry_group_IT_number 2
_symmetry_cell_setting 'triclinic'
loop_
_space_group_symop_operation_xyz
x,y,z
-x,-y,-z
loop_
_atom_site_type_symbol
_atom_site_label
_atom_site_fract_x
_atom_site_fract_y
_atom_site_fract_z
Si Si1 0.753100 0.132443 0.611838
Si Si2 0.288506 0.896657 0.641177
Si Si3 0.533182 0.683669 0.196606
Si Si4 0.421254 0.562525 0.766319
Si Si5 0.068467 0.631254 0.292084
Si Si6 0.645998 0.962786 0.907260
Si Si7 0.214740 0.788855 0.982900
Si Si8 0.750954 0.380826 0.460712
O O1 0.647065 0.105056 0.467312
O O2 0.558734 0.191698 0.688564
O O3 0.844922 0.250427 0.660455
O O4 0.001094 0.004623 0.638483
O O5 0.475349 0.931742 0.770904
O O6 0.292585 0.754325 0.606826
O O7 0.582605 0.550997 0.210459
O O8 0.799798 0.662840 0.196556
O O9 0.319636 0.710127 0.075773
O O10 0.705990 0.503085 0.756728
O O11 0.348415 0.696158 0.874293
O O12 0.228202 0.586526 0.638631
O O13 0.044693 0.630210 0.411234
O O14 0.914687 0.840938 0.928071
O O15 0.500000 0.000000 0.000000
O O16 0.711109 0.085313 0.941419
O O17 0.500000 0.500000 0.500000
#
# Coordination Sequence:
#
# PCOD9090299 Si02
#       8
#     2   2   2   2   2   2   2   2
#     4   9  20  38  60  91 121 146 193 246 288 352
#     4  10  19  38  65  86 116 159 191 237 303 345
#     4  11  22  38  60  86 120 158 193 238 293 344
#     4  10  22  39  58  84 121 156 195 244 285 342
#     4   9  20  38  61  88 118 153 191 241 298 346
#     4  11  24  42  63  85 118 158 193 243 295 339
#     4  11  25  40  58  90 118 151 207 242 276 350
#     4   9  19  37  60  89 118 147 194 242 288 352
#
# _framework density 21.190132999999999
#
# number of rings (size 3 to 8) (size 9 to 14) (size 15 to 20)
#    0.000    2.000    0.000    3.375    0.000    7.000 
#    0.000   10.000    0.000    0.000    0.000    0.000 
#    0.000    0.000    0.000    0.000    0.000    0.000 
#
# Total GULP energy -89403.503818 kJ/mol
# GULP energy per Si atom -5587.718989 kJ/mol
# Density = 2.114190 g / cm^3
# Si number density = 21.190133 Si / 1000 Ang^3
#
#
#
# Elastic Constant Matrix: (Units=GPa)
#
#
# Indices 1 2 3 4 5 6 
#
# 1 62.9038 21.7496 47.9607 -1.0534 1.1952 -21.8839
# 2 21.7496 106.2688 49.3251 -5.4984 3.5675 -22.5679
# 3 47.9607 49.3251 127.1808 -3.0943 8.9108 -22.5556
# 4 -1.0534 -5.4984 -3.0943 28.4811 -5.2520 -9.3251
# 5 1.1952 3.5675 8.9108 -5.2520 25.8445 0.9360
# 6 -21.8839 -22.5679 -22.5556 -9.3251 0.9360 28.6661
#
#
#
# Elastic Compliance Matrix: (Units=1/GPa)
#
#
# Indices 1 2 3 4 5 6 
#
# 1 0.027956 0.002394 -0.008020 0.007272 0.001924 0.019219
# 2 0.002394 0.013460 -0.004006 0.005960 0.000218 0.011204
# 3 -0.008020 -0.004006 0.012858 -0.000016 -0.003547 0.000951
# 4 0.007272 0.005960 -0.000016 0.046052 0.007301 0.024974
# 5 0.001924 0.000218 -0.003547 0.007301 0.041285 -0.000124
# 6 0.019219 0.011204 0.000951 0.024974 -0.000124 0.067252
#
#
# Mechanical properties :
#
#
# Convention : Reuss Voigt Hill
#
# Bulk Modulus (GPa) = 28.56440 59.38044 43.97242
# Shear Modulus (GPa) = 20.85092 28.41954 24.63523
#
# Velocity S-wave (km/s) = 3.14027 3.66617 3.41336
# Velocity P-wave (km/s) = 5.16311 6.78267 6.02753
#
# Compressibility (1/GPa) = 0.03500862
#
# Stress axis : x y z
#
# Youngs Moduli (GPa) = 35.77080 74.29397 77.77321
#
# Poissons Ratio (x) = -0.17787 0.62376
# Poissons Ratio (y) = -0.08564 0.31159
# Poissons Ratio (z) = 0.28689 0.29765
#
# Static dielectric constant tensor:
#      x y z
#    x 1.753620 0.008470 -0.019480 
#    y 0.008470 1.761090 -0.019920 
#    z -0.019480 -0.019920 1.773870 
# 
# From -- ./inp_files/365088.got.cif
#   From: 2010.05.17/outbox.cif.g08.bks.cpg/sg2_183_cif.got.tgz:365088.got - 2010.06.03 11:33:40.
