data_PCOD9090171
_publ_section_title
;
Structure prediction by ZEFSAII (Michael W. Deem and Ramdas Pophale) SiO2 
 PCOD9090171
Probable space group: P -1
;
_chemical_formula_sum "Si O2"
_cell_formula_units_Z 16
_cell_length_a 9.654256
_cell_length_b 14.539646
_cell_length_c 10.446593
_cell_angle_alpha 36.720395
_cell_angle_beta 125.147964
_cell_angle_gamma 132.138433
_cell_volume 647.764468
_symmetry_space_group_name_H-M "P -1"
_symmetry_group_IT_number 2
_symmetry_cell_setting 'triclinic'
loop_
_space_group_symop_operation_xyz
x,y,z
-x,-y,-z
loop_
_atom_site_type_symbol
_atom_site_label
_atom_site_fract_x
_atom_site_fract_y
_atom_site_fract_z
Si Si1 0.595894 0.874007 0.165858
Si Si2 0.149018 0.889650 0.760718
Si Si3 0.082087 0.594393 0.577195
Si Si4 0.728342 0.818247 0.664812
Si Si5 0.861154 0.077871 0.883433
Si Si6 0.155492 0.542742 0.147950
Si Si7 0.214065 0.339052 0.898389
Si Si8 0.509684 0.557728 0.628701
O O1 0.772254 0.957398 0.264686
O O2 0.496471 0.677383 0.373291
O O3 0.679707 0.926181 0.012067
O O4 0.500000 0.000000 0.000000
O O5 0.925136 0.813315 0.733556
O O6 0.231298 0.988807 0.561273
O O7 0.215693 0.742636 0.982164
O O8 0.174110 0.794840 0.373141
O O9 0.214653 0.503509 0.786628
O O10 0.000000 0.500000 0.500000
O O11 0.938036 0.554160 0.662208
O O12 0.570187 0.686201 0.638201
O O13 0.693906 0.756689 0.860472
O O14 0.994841 0.209764 0.914056
O O15 0.000000 0.000000 0.000000
O O16 0.324449 0.498221 0.245377
O O17 0.000000 0.500000 0.000000
O O18 0.318378 0.403761 0.746534
#
# Coordination Sequence:
#
# PCOD9090171 Si02
#       8
#     2   2   2   2   2   2   2   2
#     4  11  23  43  64  89 123 172 219 262 314 393
#     4  10  20  37  64  91 120 166 218 261 315 385
#     4  10  21  39  62  87 124 174 219 255 316 388
#     4  10  19  38  64  89 121 168 217 257 316 391
#     4  11  23  39  60  88 123 167 210 262 321 377
#     4  12  22  39  63 100 131 167 210 275 329 378
#     4  11  21  41  61  91 126 171 210 266 315 393
#     4  11  24  37  64  99 129 160 215 272 327 377
#
# _framework density 24.700334000000002
#
# number of rings (size 3 to 8) (size 9 to 14) (size 15 to 20)
#    0.000    1.250    3.750    2.625    0.000    3.000 
#    0.000    4.375    0.000    0.000    0.000    0.000 
#    0.000    0.000    0.000    0.000    0.000    0.000 
#
# Total GULP energy -89400.644120 kJ/mol
# GULP energy per Si atom -5587.540258 kJ/mol
# Density = 2.464411 g / cm^3
# Si number density = 24.700334 Si / 1000 Ang^3
#
#
#
# Elastic Constant Matrix: (Units=GPa)
#
#
# Indices 1 2 3 4 5 6 
#
# 1 101.2203 -18.5778 38.5594 -14.3955 -14.5870 13.8726
# 2 -18.5778 57.9636 3.1739 -3.5527 -12.2928 0.5955
# 3 38.5594 3.1739 206.4454 -15.0918 -25.4254 0.1988
# 4 -14.3955 -3.5527 -15.0918 30.3352 1.8223 0.6640
# 5 -14.5870 -12.2928 -25.4254 1.8223 47.9576 -6.4086
# 6 13.8726 0.5955 0.1988 0.6640 -6.4086 25.0586
#
#
#
# Elastic Compliance Matrix: (Units=1/GPa)
#
#
# Indices 1 2 3 4 5 6 
#
# 1 0.014042 0.005831 -0.001793 0.006394 0.003618 -0.007142
# 2 0.005831 0.020827 -0.000260 0.004734 0.006502 -0.002184
# 3 -0.001793 -0.000260 0.005616 0.001728 0.002507 0.001549
# 4 0.006394 0.004734 0.001728 0.037377 0.002104 -0.004118
# 5 0.003618 0.006502 0.002507 0.002104 0.025439 0.004273
# 6 -0.007142 -0.002184 0.001549 -0.004118 0.004273 0.045102
#
#
# Mechanical properties :
#
#
# Convention : Reuss Voigt Hill
#
# Bulk Modulus (GPa) = 20.81485 45.77115 33.29300
# Shear Modulus (GPa) = 31.87533 43.50187 37.68860
#
# Velocity S-wave (km/s) = 3.59622 4.20120 3.91043
# Velocity P-wave (km/s) = 5.06843 6.48878 5.82208
#
# Compressibility (1/GPa) = 0.04804262
#
# Stress axis : x y z
#
# Youngs Moduli (GPa) = 71.21387 48.01440 178.05247
#
# Poissons Ratio (x) = -0.27999 0.31916
# Poissons Ratio (y) = -0.41528 0.04636
# Poissons Ratio (z) = 0.12765 0.01250
#
# Static dielectric constant tensor:
#      x y z
#    x 2.214150 -0.122060 0.338710 
#    y -0.122060 2.203610 -0.059820 
#    z 0.338710 -0.059820 2.521290 
# 
# From -- ./inp_files/225748.got.cif
#   From: 2010.05.17/outbox.cif.g08.bks.cpg/sg2_113_cif.got.tgz:225748.got - 2010.06.03 11:33:40.
