data_PCOD9090665
_publ_section_title
;
Structure prediction by ZEFSAII (Michael W. Deem and Ramdas Pophale) SiO2 
 PCOD9090665
Probable space group: P -1
;
_chemical_formula_sum "Si O2"
_cell_formula_units_Z 16
_cell_length_a 15.702670
_cell_length_b 12.914831
_cell_length_c 12.169632
_cell_angle_alpha 57.152475
_cell_angle_beta 26.311277
_cell_angle_gamma 44.830340
_cell_volume 736.034468
_symmetry_space_group_name_H-M "P -1"
_symmetry_group_IT_number 2
_symmetry_cell_setting 'triclinic'
loop_
_space_group_symop_operation_xyz
x,y,z
-x,-y,-z
loop_
_atom_site_type_symbol
_atom_site_label
_atom_site_fract_x
_atom_site_fract_y
_atom_site_fract_z
Si Si1 0.891811 0.928163 0.091871
Si Si2 0.081459 0.042032 0.211870
Si Si3 0.526351 0.299384 0.666466
Si Si4 0.603707 0.372416 0.318276
Si Si5 0.458687 0.715244 0.987182
Si Si6 0.260362 0.146516 0.485935
Si Si7 0.690170 0.392291 0.980759
Si Si8 0.590690 0.907957 0.061991
O O1 0.711941 0.926443 0.383620
O O2 0.831830 0.990288 0.999717
O O3 0.111888 0.748966 0.920678
O O4 0.000000 0.000000 0.000000
O O5 0.796332 0.159049 0.468994
O O6 0.189185 0.112479 0.118079
O O7 0.208065 0.875708 0.218559
O O8 0.494699 0.318372 0.560023
O O9 0.478779 0.457238 0.663670
O O10 0.360985 0.253460 0.925231
O O11 0.569002 0.363086 0.236536
O O12 0.618741 0.768024 0.729403
O O13 0.602401 0.568195 0.985588
O O14 0.386378 0.650035 0.013302
O O15 0.976194 0.273118 0.727087
O O16 0.374598 0.011632 0.340466
O O17 0.500000 0.000000 0.000000
#
# Coordination Sequence:
#
# PCOD9090665 Si02
#       8
#     2   2   2   2   2   2   2   2
#     4  10  19  38  69  93 119 152 199 261 307 361
#     4  10  22  40  62  91 117 158 208 246 302 356
#     4  10  21  42  60  84 122 158 203 249 294 355
#     4   9  20  37  64  87 115 161 194 247 306 348
#     4  10  21  34  56  88 118 148 198 244 294 372
#     4  10  21  38  60  85 115 156 195 248 313 341
#     4  10  20  38  57  85 120 151 193 251 304 355
#     4  11  25  40  59  90 123 167 205 244 292 366
#
# _framework density 21.738112999999998
#
# number of rings (size 3 to 8) (size 9 to 14) (size 15 to 20)
#    0.000    2.000    0.000    4.125    3.500    3.500 
#    4.500    5.625    0.000    0.000    0.000    0.000 
#    0.000    0.000    0.000    0.000    0.000    0.000 
#
# Total GULP energy -89181.097907 kJ/mol
# GULP energy per Si atom -5573.818619 kJ/mol
# Density = 2.168864 g / cm^3
# Si number density = 21.738113 Si / 1000 Ang^3
#
#
#
# Elastic Constant Matrix: (Units=GPa)
#
#
# Indices 1 2 3 4 5 6 
#
# 1 63.9926 14.5143 19.3234 -5.1056 -30.8500 -4.6269
# 2 14.5143 89.9210 15.2289 -10.9298 -8.3500 3.8065
# 3 19.3234 15.2289 21.3061 -7.6380 5.4441 -1.9503
# 4 -5.1056 -10.9298 -7.6380 30.2279 7.7298 0.8473
# 5 -30.8500 -8.3500 5.4441 7.7298 5.3854 -8.3095
# 6 -4.6269 3.8065 -1.9503 0.8473 -8.3095 19.8936
#
#
#
# Elastic Compliance Matrix: (Units=1/GPa)
#
#
# Indices 1 2 3 4 5 6 
#
# 1 0.002210 -0.002637 0.008050 0.007842 -0.024041 -0.008568
# 2 -0.002637 0.012845 -0.005251 0.003672 -0.002599 -0.004828
# 3 0.008050 -0.005251 0.036366 -0.000626 0.034009 0.020674
# 4 0.007842 0.003672 -0.000626 0.032497 0.011549 0.004500
# 5 -0.024041 -0.002599 0.034009 0.011549 -0.029515 -0.014580
# 6 -0.008568 -0.004828 0.020674 0.004500 -0.014580 0.044943
#
#
# Mechanical properties :
#
#
# Convention : Reuss Voigt Hill
#
# Bulk Modulus (GPa) = 19.32560 30.37253 24.84907
# Shear Modulus (GPa) = 43.00292 19.51158 31.25725
#
# Velocity S-wave (km/s) = 4.45255 2.99920 3.79608
# Velocity P-wave (km/s) = 5.94501 5.09863 5.53801
#
# Compressibility (1/GPa) = 0.05174483
#
# Stress axis : x y z
#
# Youngs Moduli (GPa) = 452.44158 77.84988 27.49848
#
# Poissons Ratio (x) = 0.20526 -0.22136
# Poissons Ratio (y) = 1.19293 0.14441
# Poissons Ratio (z) = -3.64215 0.40883
#
# Static dielectric constant tensor:
#      x y z
#    x 1.835670 -0.016940 0.047210 
#    y -0.016940 1.836210 0.003080 
#    z 0.047210 0.003080 1.833000 
# 
# From -- ./inp_files/451211.got.cif
#   From: 2010.05.17/outbox.cif.g08.bks.cpg/sg2_226_cif.got.tgz:451211.got - 2010.06.03 11:33:40.
