data_PCOD9090190
_publ_section_title
;
Structure prediction by ZEFSAII (Michael W. Deem and Ramdas Pophale) SiO2 
 PCOD9090190
Probable space group: P -1
;
_chemical_formula_sum "Si O2"
_cell_formula_units_Z 16
_cell_length_a 10.908612
_cell_length_b 15.391843
_cell_length_c 10.381147
_cell_angle_alpha 61.652503
_cell_angle_beta 41.135391
_cell_angle_gamma 38.078844
_cell_volume 676.591827
_symmetry_space_group_name_H-M "P -1"
_symmetry_group_IT_number 2
_symmetry_cell_setting 'triclinic'
loop_
_space_group_symop_operation_xyz
x,y,z
-x,-y,-z
loop_
_atom_site_type_symbol
_atom_site_label
_atom_site_fract_x
_atom_site_fract_y
_atom_site_fract_z
Si Si1 0.538754 0.938638 0.339871
Si Si2 0.863907 0.610062 0.714874
Si Si3 0.550762 0.125627 0.803716
Si Si4 0.047660 0.825763 0.251624
Si Si5 0.357921 0.687965 0.374425
Si Si6 0.272927 0.942583 0.004938
Si Si7 0.084161 0.616929 0.784610
Si Si8 0.979120 0.359026 0.705578
O O1 0.404516 0.960137 0.293913
O O2 0.725618 0.777406 0.361673
O O3 0.733620 0.955711 0.143285
O O4 0.276309 0.069856 0.541646
O O5 0.571790 0.775353 0.860161
O O6 0.977830 0.615682 0.490695
O O7 0.055780 0.560803 0.718684
O O8 0.833580 0.505377 0.791843
O O9 0.635564 0.204322 0.652175
O O10 0.715936 0.034714 0.868025
O O11 0.219395 0.254516 0.004204
O O12 0.209758 0.748156 0.311988
O O13 0.154474 0.697259 0.163214
O O14 0.067457 0.935176 0.134966
O O15 0.200024 0.675848 0.602389
O O16 0.675125 0.526555 0.220201
#
# Coordination Sequence:
#
# PCOD9090190 Si02
#       8
#     2   2   2   2   2   2   2   2
#     4  12  24  42  62  92 126 169 202 248 304 370
#     4  10  21  43  66  92 120 162 208 254 307 362
#     4  10  22  38  61  90 125 157 203 254 305 363
#     4  11  23  41  62  91 128 162 204 252 303 366
#     4  10  20  35  62  93 120 161 197 253 312 359
#     4  10  23  41  68  90 121 162 205 256 312 355
#     4  10  19  38  64  90 125 156 202 254 310 361
#     4  11  23  41  67  87 125 168 204 252 305 359
#
# _framework density 23.647936000000001
#
# number of rings (size 3 to 8) (size 9 to 14) (size 15 to 20)
#    0.000    1.500    2.500    2.625    0.000    6.000 
#    0.000    0.000    0.000    0.000    0.000    0.000 
#    0.000    0.000    0.000    0.000    0.000    0.000 
#
# Total GULP energy -89562.951165 kJ/mol
# GULP energy per Si atom -5597.684448 kJ/mol
# Density = 2.359411 g / cm^3
# Si number density = 23.647936 Si / 1000 Ang^3
#
#
#
# Elastic Constant Matrix: (Units=GPa)
#
#
# Indices 1 2 3 4 5 6 
#
# 1 91.2510 38.3599 37.3219 -10.5625 -5.5386 8.6407
# 2 38.3599 88.8619 10.2677 -15.1105 1.8683 4.0861
# 3 37.3219 10.2677 51.6199 -13.8044 -8.4866 4.4256
# 4 -10.5625 -15.1105 -13.8044 30.5205 8.8237 -8.0051
# 5 -5.5386 1.8683 -8.4866 8.8237 34.7717 -6.3542
# 6 8.6407 4.0861 4.4256 -8.0051 -6.3542 43.4811
#
#
#
# Elastic Compliance Matrix: (Units=1/GPa)
#
#
# Indices 1 2 3 4 5 6 
#
# 1 0.019253 -0.007340 -0.013135 -0.003759 0.000775 -0.002378
# 2 -0.007340 0.015339 0.003803 0.007786 -0.002925 0.000636
# 3 -0.013135 0.003803 0.031424 0.011131 0.002826 0.001517
# 4 -0.003759 0.007786 0.011131 0.044330 -0.008489 0.005803
# 5 0.000775 -0.002925 0.002826 -0.008489 0.032434 0.003010
# 6 -0.002378 0.000636 0.001517 0.005803 0.003010 0.024765
#
#
# Mechanical properties :
#
#
# Convention : Reuss Voigt Hill
#
# Bulk Modulus (GPa) = 30.60696 44.84800 37.72748
# Shear Modulus (GPa) = 23.60953 31.47353 27.54153
#
# Velocity S-wave (km/s) = 3.16314 3.65214 3.41640
# Velocity P-wave (km/s) = 5.12947 6.06549 5.61701
#
# Compressibility (1/GPa) = 0.03267231
#
# Stress axis : x y z
#
# Youngs Moduli (GPa) = 51.93867 65.19423 31.82314
#
# Poissons Ratio (x) = 0.47852 0.41798
# Poissons Ratio (y) = 0.38122 -0.12101
# Poissons Ratio (z) = 0.68219 -0.24791
#
# Static dielectric constant tensor:
#      x y z
#    x 1.908730 0.010910 -0.014310 
#    y 0.010910 1.844840 -0.032060 
#    z -0.014310 -0.032060 1.904210 
# 
# From -- ./inp_files/433779.got.cif
#   From: 2010.05.17/outbox.cif.g08.bks.cpg/sg2_217_cif.got.tgz:433779.got - 2010.06.03 11:33:40.
