data_PCOD9090565
_publ_section_title
;
Structure prediction by ZEFSAII (Michael W. Deem and Ramdas Pophale) SiO2 
 PCOD9090565
Probable space group: P -1
;
_chemical_formula_sum "Si O2"
_cell_formula_units_Z 16
_cell_length_a 23.446250
_cell_length_b 14.873065
_cell_length_c 9.360022
_cell_angle_alpha 128.772769
_cell_angle_beta 47.459270
_cell_angle_gamma 159.997813
_cell_volume 822.077247
_symmetry_space_group_name_H-M "P -1"
_symmetry_group_IT_number 2
_symmetry_cell_setting 'triclinic'
loop_
_space_group_symop_operation_xyz
x,y,z
-x,-y,-z
loop_
_atom_site_type_symbol
_atom_site_label
_atom_site_fract_x
_atom_site_fract_y
_atom_site_fract_z
Si Si1 0.783528 0.976884 0.101716
Si Si2 0.054278 0.564620 0.637800
Si Si3 0.480615 0.679355 0.505999
Si Si4 0.720317 0.974601 0.657347
Si Si5 0.577027 0.990282 0.432298
Si Si6 0.819056 0.840941 0.322026
Si Si7 0.571313 0.772859 0.018459
Si Si8 0.177267 0.212680 0.065167
O O1 0.606636 0.761432 0.283065
O O2 0.702800 0.862103 0.965940
O O3 0.904186 0.250900 0.193550
O O4 0.883728 0.998096 0.002645
O O5 0.236965 0.742318 0.535703
O O6 0.000000 0.500000 0.500000
O O7 0.893364 0.281686 0.699085
O O8 0.604193 0.872881 0.625573
O O9 0.306790 0.387665 0.574852
O O10 0.459566 0.761560 0.519512
O O11 0.770334 0.910558 0.466012
O O12 0.610560 0.823247 0.836510
O O13 0.500000 0.000000 0.500000
O O14 0.611238 0.946829 0.201868
O O15 0.793057 0.747708 0.116899
O O16 0.026825 0.099741 0.254575
O O17 0.363131 0.474590 0.090270
#
# Coordination Sequence:
#
# PCOD9090565 Si02
#       8
#     2   2   2   2   2   2   2   2
#     4  10  21  40  61  87 126 164 207 256 307 377
#     4  10  19  38  67  91 114 170 218 246 303 375
#     4  10  19  41  64  88 119 168 210 249 305 374
#     4  12  20  39  67  94 120 165 219 251 299 382
#     4  10  24  44  64  89 135 164 198 266 324 366
#     4  11  23  35  63  96 126 158 207 274 296 363
#     4  10  23  39  63  90 121 167 207 253 318 371
#     4  11  21  39  59  93 129 159 207 257 325 352
#
# _framework density 19.462892
#
# number of rings (size 3 to 8) (size 9 to 14) (size 15 to 20)
#    0.000    1.750    5.000    1.500    1.750    3.000 
#    4.500    3.750    0.000    0.000    0.000    0.000 
#    0.000    0.000    0.000    0.000    0.000    0.000 
#
# Total GULP energy -89231.652792 kJ/mol
# GULP energy per Si atom -5576.978299 kJ/mol
# Density = 1.941859 g / cm^3
# Si number density = 19.462892 Si / 1000 Ang^3
#
#
#
# Elastic Constant Matrix: (Units=GPa)
#
#
# Indices 1 2 3 4 5 6 
#
# 1 125.4210 18.4157 26.3969 -2.3276 -1.8980 -2.7484
# 2 18.4157 96.7124 12.8652 -1.7617 -6.7421 1.4879
# 3 26.3969 12.8652 52.6156 -3.6118 3.7007 -0.8006
# 4 -2.3276 -1.7617 -3.6118 17.7138 2.6883 12.4202
# 5 -1.8980 -6.7421 3.7007 2.6883 22.3272 5.9885
# 6 -2.7484 1.4879 -0.8006 12.4202 5.9885 22.8137
#
#
#
# Elastic Compliance Matrix: (Units=1/GPa)
#
#
# Indices 1 2 3 4 5 6 
#
# 1 0.009086 -0.001114 -0.004388 -0.000795 0.000937 0.001200
# 2 -0.001114 0.011260 -0.002404 0.002088 0.004317 -0.003223
# 3 -0.004388 -0.002404 0.022509 0.005360 -0.005168 -0.001143
# 4 -0.000795 0.002088 0.005360 0.093409 0.002236 -0.051485
# 5 0.000937 0.004317 -0.005168 0.002236 0.050753 -0.014890
# 6 0.001200 -0.003223 -0.001143 -0.051485 -0.014890 0.076086
#
#
# Mechanical properties :
#
#
# Convention : Reuss Voigt Hill
#
# Bulk Modulus (GPa) = 36.97751 43.34494 40.16123
# Shear Modulus (GPa) = 17.36535 27.04233 22.20384
#
# Velocity S-wave (km/s) = 2.99026 3.73155 3.38128
# Velocity P-wave (km/s) = 5.56439 6.39413 5.99363
#
# Compressibility (1/GPa) = 0.02704346
#
# Stress axis : x y z
#
# Youngs Moduli (GPa) = 110.05920 88.80684 44.42640
#
# Poissons Ratio (x) = 0.09893 0.19495
# Poissons Ratio (y) = 0.12261 0.10679
# Poissons Ratio (z) = 0.48297 0.21347
#
# Static dielectric constant tensor:
#      x y z
#    x 1.714040 -0.013500 0.010040 
#    y -0.013500 1.714340 0.006490 
#    z 0.010040 0.006490 1.670330 
# 
# From -- ./inp_files/354585.got.cif
#   From: 2010.05.17/outbox.cif.g08.bks.cpg/sg2_178_cif.got.tgz:354585.got - 2010.06.03 11:33:40.
