data_PCOD9090758
_publ_section_title
;
Structure prediction by ZEFSAII (Michael W. Deem and Ramdas Pophale) SiO2 
 PCOD9090758
Probable space group: P -1
;
_chemical_formula_sum "Si O2"
_cell_formula_units_Z 16
_cell_length_a 17.288713
_cell_length_b 13.346320
_cell_length_c 7.831089
_cell_angle_alpha 71.815644
_cell_angle_beta 118.853771
_cell_angle_gamma 155.315994
_cell_volume 620.203879
_symmetry_space_group_name_H-M "P -1"
_symmetry_group_IT_number 2
_symmetry_cell_setting 'triclinic'
loop_
_space_group_symop_operation_xyz
x,y,z
-x,-y,-z
loop_
_atom_site_type_symbol
_atom_site_label
_atom_site_fract_x
_atom_site_fract_y
_atom_site_fract_z
Si Si1 0.143324 0.056085 0.821840
Si Si2 0.571040 0.863092 0.386854
Si Si3 0.903743 0.637647 0.536681
Si Si4 0.231141 0.373313 0.118758
Si Si5 0.728204 0.189627 0.111094
Si Si6 0.599738 0.469905 0.173884
Si Si7 0.009921 0.692995 0.241817
Si Si8 0.305962 0.762874 0.295859
O O1 0.255016 0.277127 0.731845
O O2 0.349607 0.226227 0.042427
O O3 0.041040 0.861462 0.685852
O O4 0.954123 0.890451 0.836109
O O5 0.393842 0.757625 0.291663
O O6 0.691748 0.041632 0.252510
O O7 0.441471 0.618109 0.329410
O O8 0.736207 0.042413 0.623503
O O9 0.674241 0.446006 0.362865
O O10 0.978392 0.709807 0.384836
O O11 0.882646 0.496059 0.661158
O O12 0.323767 0.449061 0.988535
O O13 0.103019 0.345520 0.978396
O O14 0.898133 0.458142 0.226166
O O15 0.750334 0.210761 0.917750
O O16 0.500000 0.000000 0.000000
O O17 0.500000 0.000000 0.500000
#
# Coordination Sequence:
#
# PCOD9090758 Si02
#       8
#     2   2   2   2   2   2   2   2
#     4  11  22  44  64  97 129 165 218 262 328 381
#     4  11  22  39  62  87 124 169 215 261 315 381
#     4  11  22  41  62  92 128 161 212 267 319 375
#     4  11  22  41  65  92 130 167 214 263 323 382
#     4  10  19  39  58  83 126 167 210 263 316 371
#     4  10  25  40  68  94 128 170 209 271 323 385
#     4  11  22  38  63  91 121 175 213 263 320 379
#     4  11  23  39  62  90 126 166 208 264 316 375
#
# _framework density 25.797971
#
# number of rings (size 3 to 8) (size 9 to 14) (size 15 to 20)
#    0.000    1.250    3.750    3.375    3.500    0.000 
#    0.000    1.250    0.000    8.250    0.000    0.000 
#    0.000    0.000    0.000    0.000    0.000    0.000 
#
# Total GULP energy -89451.390336 kJ/mol
# GULP energy per Si atom -5590.711896 kJ/mol
# Density = 2.573925 g / cm^3
# Si number density = 25.797971 Si / 1000 Ang^3
#
#
#
# Elastic Constant Matrix: (Units=GPa)
#
#
# Indices 1 2 3 4 5 6 
#
# 1 41.6923 6.1254 2.5989 8.7336 -5.6594 5.1919
# 2 6.1254 109.3649 31.4189 26.5924 -8.5528 17.0464
# 3 2.5989 31.4189 108.9587 23.9095 -7.4326 -7.2593
# 4 8.7336 26.5924 23.9095 49.7820 -5.8919 2.0828
# 5 -5.6594 -8.5528 -7.4326 -5.8919 51.5358 2.4293
# 6 5.1919 17.0464 -7.2593 2.0828 2.4293 33.2750
#
#
#
# Elastic Compliance Matrix: (Units=1/GPa)
#
#
# Indices 1 2 3 4 5 6 
#
# 1 0.025685 0.000422 0.000114 -0.004305 0.002609 -0.004120
# 2 0.000422 0.012278 -0.002848 -0.004810 0.001443 -0.006781
# 3 0.000114 -0.002848 0.011176 -0.003978 0.000504 0.004092
# 4 -0.004305 -0.004810 -0.003978 0.025420 0.001033 0.000601
# 5 0.002609 0.001443 0.000504 0.001033 0.020242 -0.002579
# 6 -0.004120 -0.006781 0.004092 0.000601 -0.002579 0.035213
#
#
# Mechanical properties :
#
#
# Convention : Reuss Voigt Hill
#
# Bulk Modulus (GPa) = 22.46505 37.81137 30.13821
# Shear Modulus (GPa) = 33.44990 41.57674 37.51332
#
# Velocity S-wave (km/s) = 3.60475 4.01886 3.81743
# Velocity P-wave (km/s) = 5.10418 6.01860 5.58015
#
# Compressibility (1/GPa) = 0.04451359
#
# Stress axis : x y z
#
# Youngs Moduli (GPa) = 38.93297 81.44829 89.47529
#
# Poissons Ratio (x) = -0.03434 -0.01019
# Poissons Ratio (y) = -0.01641 0.25485
# Poissons Ratio (z) = -0.00444 0.23199
#
# Static dielectric constant tensor:
#      x y z
#    x 2.186920 -0.009920 0.093480 
#    y -0.009920 2.210010 -0.058470 
#    z 0.093480 -0.058470 2.037360 
# 
# From -- ./inp_files/206688.got.cif
#   From: 2010.05.17/outbox.cif.g08.bks.cpg/sg2_104_cif.got.tgz:206688.got - 2010.06.03 11:33:40.
