data_PCOD9090655
_publ_section_title
;
Structure prediction by ZEFSAII (Michael W. Deem and Ramdas Pophale) SiO2 
 PCOD9090655
Probable space group: P -1
;
_chemical_formula_sum "Si O2"
_cell_formula_units_Z 16
_cell_length_a 15.611062
_cell_length_b 8.951478
_cell_length_c 10.259527
_cell_angle_alpha 54.249823
_cell_angle_beta 119.760304
_cell_angle_gamma 74.739496
_cell_volume 625.457381
_symmetry_space_group_name_H-M "P -1"
_symmetry_group_IT_number 2
_symmetry_cell_setting 'triclinic'
loop_
_space_group_symop_operation_xyz
x,y,z
-x,-y,-z
loop_
_atom_site_type_symbol
_atom_site_label
_atom_site_fract_x
_atom_site_fract_y
_atom_site_fract_z
Si Si1 0.080767 0.940924 0.956314
Si Si2 0.776321 0.220234 0.469307
Si Si3 0.697524 0.129429 0.709526
Si Si4 0.580924 0.910090 0.831351
Si Si5 0.187014 0.122334 0.554837
Si Si6 0.239181 0.361839 0.276754
Si Si7 0.511483 0.245618 0.853615
Si Si8 0.099645 0.666208 0.735828
O O1 0.171803 0.997938 0.019813
O O2 0.218480 0.593315 0.206494
O O3 0.000000 0.000000 0.000000
O O4 0.936047 0.109273 0.663774
O O5 0.779967 0.050739 0.671205
O O6 0.738127 0.557516 0.108502
O O7 0.763695 0.121342 0.377787
O O8 0.634209 0.020680 0.743397
O O9 0.547779 0.489039 0.407017
O O10 0.427294 0.045656 0.577995
O O11 0.529396 0.053690 0.863203
O O12 0.625404 0.553541 0.241261
O O13 0.161767 0.329593 0.332716
O O14 0.028354 0.297775 0.422313
O O15 0.324914 0.964542 0.840545
O O16 0.155250 0.511398 0.999053
O O17 0.000000 0.000000 0.500000
#
# Coordination Sequence:
#
# PCOD9090655 Si02
#       8
#     2   2   2   2   2   2   2   2
#     4  10  19  38  69 110 139 184 242 305 360 434
#     4   9  20  40  70 109 143 188 245 304 364 435
#     4   9  21  39  76 108 143 194 243 299 376 434
#     4  12  25  49  73 110 152 196 249 303 371 449
#     4  12  26  46  73 109 149 196 250 303 370 438
#     4  12  26  48  78 108 144 195 256 301 371 447
#     4  10  24  41  73 107 150 194 242 303 368 435
#     4  12  31  50  74 108 152 198 246 307 376 442
#
# _framework density 25.581277
#
# number of rings (size 3 to 8) (size 9 to 14) (size 15 to 20)
#    0.750    0.500    2.500    2.250    5.250    3.000 
#    2.250    0.000    0.000    0.000    0.000    0.000 
#    0.000    0.000    0.000    0.000    0.000    0.000 
#
# Total GULP energy -89516.563271 kJ/mol
# GULP energy per Si atom -5594.785204 kJ/mol
# Density = 2.552305 g / cm^3
# Si number density = 25.581277 Si / 1000 Ang^3
#
#
#
# Elastic Constant Matrix: (Units=GPa)
#
#
# Indices 1 2 3 4 5 6 
#
# 1 104.3129 -23.8053 19.2808 -1.3324 17.5449 1.3511
# 2 -23.8053 47.0721 20.5681 -10.5478 4.5273 1.7756
# 3 19.2808 20.5681 153.7013 1.1146 27.6674 -3.1659
# 4 -1.3324 -10.5478 1.1146 47.0526 -1.9301 2.1983
# 5 17.5449 4.5273 27.6674 -1.9301 37.3398 -7.2125
# 6 1.3511 1.7756 -3.1659 2.1983 -7.2125 39.1209
#
#
#
# Elastic Compliance Matrix: (Units=1/GPa)
#
#
# Indices 1 2 3 4 5 6 
#
# 1 0.012916 0.008432 -0.001703 0.002148 -0.006147 -0.002221
# 2 0.008432 0.029498 -0.004289 0.006914 -0.004625 -0.003218
# 3 -0.001703 -0.004289 0.008167 -0.001405 -0.004782 0.000112
# 4 0.002148 0.006914 -0.001405 0.022982 0.000036 -0.001786
# 5 -0.006147 -0.004625 -0.004782 0.000036 0.035029 0.006491
# 6 -0.002221 -0.003218 0.000112 -0.001786 0.006491 0.027091
#
#
# Mechanical properties :
#
#
# Convention : Reuss Voigt Hill
#
# Bulk Modulus (GPa) = 18.03080 37.46372 27.74726
# Shear Modulus (GPa) = 33.49195 43.97217 38.73206
#
# Velocity S-wave (km/s) = 3.62226 4.15048 3.89534
# Velocity P-wave (km/s) = 4.95562 6.13559 5.57690
#
# Compressibility (1/GPa) = 0.05546064
#
# Stress axis : x y z
#
# Youngs Moduli (GPa) = 77.42429 33.90064 122.44297
#
# Poissons Ratio (x) = -0.28586 0.20857
# Poissons Ratio (y) = -0.65287 0.52517
# Poissons Ratio (z) = 0.13189 0.14540
#
# Static dielectric constant tensor:
#      x y z
#    x 2.065380 -0.046990 -0.096350 
#    y -0.046990 1.900640 -0.070490 
#    z -0.096350 -0.070490 2.045150 
# 
# From -- ./inp_files/436785.got.cif
#   From: 2010.05.17/outbox.cif.g08.bks.cpg/sg2_219_cif.got.tgz:436785.got - 2010.06.03 11:33:40.
