data_PCOD9090695
_publ_section_title
;
Structure prediction by ZEFSAII (Michael W. Deem and Ramdas Pophale) SiO2 
 PCOD9090695
Probable space group: P -1
;
_chemical_formula_sum "Si O2"
_cell_formula_units_Z 14
_cell_length_a 11.348861
_cell_length_b 7.339140
_cell_length_c 11.009625
_cell_angle_alpha 104.862771
_cell_angle_beta 128.924975
_cell_angle_gamma 107.138882
_cell_volume 548.374805
_symmetry_space_group_name_H-M "P -1"
_symmetry_group_IT_number 2
_symmetry_cell_setting 'triclinic'
loop_
_space_group_symop_operation_xyz
x,y,z
-x,-y,-z
loop_
_atom_site_type_symbol
_atom_site_label
_atom_site_fract_x
_atom_site_fract_y
_atom_site_fract_z
Si Si1 0.756528 0.760311 0.849471
Si Si2 0.978172 0.278617 0.120351
Si Si3 0.608515 0.386818 0.037780
Si Si4 0.026767 0.734312 0.604397
Si Si5 0.019278 0.286071 0.803560
Si Si6 0.688975 0.025472 0.376219
Si Si7 0.621794 0.386937 0.313426
O O1 0.883648 0.775135 0.045919
O O2 0.818978 0.670417 0.765452
O O3 0.543302 0.616618 0.733883
O O4 0.827530 0.026554 0.914953
O O5 0.914001 0.226091 0.210263
O O6 0.987394 0.500705 0.124303
O O7 0.187611 0.349716 0.542968
O O8 0.516216 0.210721 0.832722
O O9 0.828984 0.591801 0.187882
O O10 0.574296 0.270010 0.127836
O O11 0.669484 0.238475 0.397707
O O12 0.000000 0.500000 0.500000
O O13 0.179001 0.935820 0.646948
O O14 0.812607 0.073757 0.583179
O O15 0.500000 0.500000 0.000000
#
# Coordination Sequence:
#
# PCOD9090695 Si02
#       7
#     2   2   2   2   2   2   2
#     4  11  26  41  71  97 132 183 226 276 327 403
#     4  11  23  46  67  95 135 180 228 269 338 399
#     4  12  24  38  64 104 137 168 225 283 330 399
#     4  10  19  38  70  96 127 177 218 272 339 396
#     4  12  23  47  68  99 136 176 224 279 335 397
#     4  11  23  41  70  97 136 177 216 280 343 395
#     4  11  20  42  63  99 132 174 222 274 339 392
#
# _framework density 25.529986000000001
#
# number of rings (size 3 to 8) (size 9 to 14) (size 15 to 20)
#    0.000    0.857    5.714    3.429    0.000    2.286 
#    0.000    0.000    0.000    3.429    0.000    0.000 
#    0.000    0.000    0.000    0.000    0.000    0.000 
#
# Total GULP energy -78337.540354 kJ/mol
# GULP energy per Si atom -5595.538597 kJ/mol
# Density = 2.547188 g / cm^3
# Si number density = 25.529986 Si / 1000 Ang^3
#
#
#
# Elastic Constant Matrix: (Units=GPa)
#
#
# Indices 1 2 3 4 5 6 
#
# 1 116.0598 5.8718 -13.6931 -11.5514 1.2719 -5.2553
# 2 5.8718 52.3709 14.3553 0.3744 -7.1109 -25.3040
# 3 -13.6931 14.3553 60.5532 -18.2502 13.9958 -13.0546
# 4 -11.5514 0.3744 -18.2502 30.4595 -1.9146 -8.7841
# 5 1.2719 -7.1109 13.9958 -1.9146 40.6648 3.9394
# 6 -5.2553 -25.3040 -13.0546 -8.7841 3.9394 45.6967
#
#
#
# Elastic Compliance Matrix: (Units=1/GPa)
#
#
# Indices 1 2 3 4 5 6 
#
# 1 0.010791 -0.001488 0.007475 0.009745 -0.003167 0.004699
# 2 -0.001488 0.027885 -0.005321 0.000083 0.005470 0.013294
# 3 0.007475 -0.005321 0.033033 0.025761 -0.012618 0.013390
# 4 0.009745 0.000083 0.025761 0.057274 -0.008423 0.020262
# 5 -0.003167 0.005470 -0.012618 -0.008423 0.030092 -0.005153
# 6 0.004699 0.013294 0.013390 0.020262 -0.005153 0.037950
#
#
# Mechanical properties :
#
#
# Convention : Reuss Voigt Hill
#
# Bulk Modulus (GPa) = 13.69064 26.89465 20.29264
# Shear Modulus (GPa) = 22.72306 38.19419 30.45862
#
# Velocity S-wave (km/s) = 2.98661 3.87208 3.45781
# Velocity P-wave (km/s) = 4.15540 5.52703 4.88955
#
# Compressibility (1/GPa) = 0.07304261
#
# Stress axis : x y z
#
# Youngs Moduli (GPa) = 92.67044 35.86105 30.27236
#
# Poissons Ratio (x) = 0.05337 -0.22629
# Poissons Ratio (y) = 0.13792 0.16106
# Poissons Ratio (z) = -0.69273 0.19080
#
# Static dielectric constant tensor:
#      x y z
#    x 2.015400 0.030670 0.004610 
#    y 0.030670 2.055340 -0.039630 
#    z 0.004610 -0.039630 2.119620 
# 
# From -- ./inp_files/415484.got.cif
#   From: 2010.05.17/outbox.cif.g08.bks.cpg/sg2_208_cif.got.tgz:415484.got - 2010.06.03 11:33:40.
