data_PCOD9090347
_publ_section_title
;
Structure prediction by ZEFSAII (Michael W. Deem and Ramdas Pophale) SiO2 
 PCOD9090347
Probable space group: P -1
;
_chemical_formula_sum "Si O2"
_cell_formula_units_Z 16
_cell_length_a 11.465132
_cell_length_b 10.330457
_cell_length_c 9.513464
_cell_angle_alpha 120.316644
_cell_angle_beta 112.021048
_cell_angle_gamma 60.356901
_cell_volume 833.515110
_symmetry_space_group_name_H-M "P -1"
_symmetry_group_IT_number 2
_symmetry_cell_setting 'triclinic'
loop_
_space_group_symop_operation_xyz
x,y,z
-x,-y,-z
loop_
_atom_site_type_symbol
_atom_site_label
_atom_site_fract_x
_atom_site_fract_y
_atom_site_fract_z
Si Si1 0.853678 0.916537 0.982739
Si Si2 0.403920 0.100031 0.636106
Si Si3 0.145867 0.606983 0.625384
Si Si4 0.161475 0.756231 0.993937
Si Si5 0.842794 0.749717 0.599006
Si Si6 0.420868 0.585081 0.647408
Si Si7 0.542253 0.352643 0.831644
Si Si8 0.608927 0.052078 0.156171
O O1 0.806955 0.839141 0.782996
O O2 0.012424 0.804512 0.021707
O O3 0.752629 0.954604 0.089660
O O4 0.847948 0.089894 0.020700
O O5 0.260347 0.176599 0.533712
O O6 0.472568 0.228326 0.776767
O O7 0.392588 0.997268 0.708709
O O8 0.500000 0.000000 0.500000
O O9 0.184130 0.613371 0.811452
O O10 0.146687 0.434346 0.484612
O O11 0.258570 0.636840 0.600456
O O12 0.993190 0.738573 0.620577
O O13 0.292828 0.722981 0.132633
O O14 0.500000 0.500000 0.500000
O O15 0.478895 0.441340 0.708079
O O16 0.436123 0.754482 0.777184
O O17 0.500000 0.500000 0.000000
O O18 0.500000 0.000000 0.000000
#
# Coordination Sequence:
#
# PCOD9090347 Si02
#       8
#     2   2   2   2   2   2   2   2
#     4  10  21  38  64  90 127 158 204 251 316 365
#     4  12  24  40  63  92 124 161 208 250 309 367
#     4  10  20  40  65  86 120 161 211 241 304 364
#     4  10  19  38  65  92 117 167 207 249 304 373
#     4  10  21  39  66  90 117 167 205 250 297 376
#     4  12  25  41  61  91 125 163 204 255 310 363
#     4  12  21  40  67  88 119 162 211 250 297 370
#     4  12  25  41  62  95 128 159 202 264 312 356
#
# _framework density 19.195812
#
# number of rings (size 3 to 8) (size 9 to 14) (size 15 to 20)
#    0.000    1.000    3.750    3.750    1.750    0.000 
#    2.250    0.625    0.000    3.750    0.000    0.000 
#    0.000    0.000    0.000    0.000    0.000    0.000 
#
# Total GULP energy -89278.168356 kJ/mol
# GULP energy per Si atom -5579.885522 kJ/mol
# Density = 1.915212 g / cm^3
# Si number density = 19.195812 Si / 1000 Ang^3
#
#
#
# Elastic Constant Matrix: (Units=GPa)
#
#
# Indices 1 2 3 4 5 6 
#
# 1 132.1267 25.3369 32.2312 -0.5364 -7.6909 -12.0375
# 2 25.3369 39.3351 -0.5346 3.8758 1.7072 -3.1362
# 3 32.2312 -0.5346 55.4419 16.5236 -4.3367 -2.4820
# 4 -0.5364 3.8758 16.5236 36.2617 0.6681 8.5760
# 5 -7.6909 1.7072 -4.3367 0.6681 45.2627 -1.9907
# 6 -12.0375 -3.1362 -2.4820 8.5760 -1.9907 31.0985
#
#
#
# Elastic Compliance Matrix: (Units=1/GPa)
#
#
# Indices 1 2 3 4 5 6 
#
# 1 0.011130 -0.007563 -0.007501 0.003898 0.001487 0.001967
# 2 -0.007563 0.031376 0.006834 -0.007179 -0.001591 0.002660
# 3 -0.007501 0.006834 0.026943 -0.014069 0.001429 0.003907
# 4 0.003898 -0.007179 -0.014069 0.037379 -0.001439 -0.010738
# 5 0.001487 -0.001591 0.001429 -0.001439 0.022669 0.002377
# 6 0.001967 0.002660 0.003907 -0.010738 0.002377 0.036611
#
#
# Mechanical properties :
#
#
# Convention : Reuss Voigt Hill
#
# Bulk Modulus (GPa) = 18.87217 37.88564 28.37891
# Shear Modulus (GPa) = 24.97112 33.84926 29.41019
#
# Velocity S-wave (km/s) = 3.61066 4.20380 3.91847
# Velocity P-wave (km/s) = 5.21874 6.58345 5.94042
#
# Compressibility (1/GPa) = 0.05298807
#
# Stress axis : x y z
#
# Youngs Moduli (GPa) = 89.84589 31.87200 37.11499
#
# Poissons Ratio (x) = 0.24105 0.27840
# Poissons Ratio (y) = 0.67951 -0.25363
# Poissons Ratio (z) = 0.67393 -0.21780
#
# Static dielectric constant tensor:
#      x y z
#    x 1.713660 -0.042110 0.035380 
#    y -0.042110 1.719710 -0.040080 
#    z 0.035380 -0.040080 1.761040 
# 
# From -- ./inp_files/245603.got.cif
#   From: 2010.05.17/outbox.cif.g08.bks.cpg/sg2_123_cif.got.tgz:245603.got - 2010.06.03 11:33:40.
