data_PCOD9090854
_publ_section_title
;
Structure prediction by ZEFSAII (Michael W. Deem and Ramdas Pophale) SiO2 
 PCOD9090854
Probable space group: P -1
;
_chemical_formula_sum "Si O2"
_cell_formula_units_Z 12
_cell_length_a 9.933198
_cell_length_b 10.183292
_cell_length_c 8.426276
_cell_angle_alpha 113.010240
_cell_angle_beta 42.110907
_cell_angle_gamma 117.594036
_cell_volume 504.934134
_symmetry_space_group_name_H-M "P -1"
_symmetry_group_IT_number 2
_symmetry_cell_setting 'triclinic'
loop_
_space_group_symop_operation_xyz
x,y,z
-x,-y,-z
loop_
_atom_site_type_symbol
_atom_site_label
_atom_site_fract_x
_atom_site_fract_y
_atom_site_fract_z
Si Si1 0.542572 0.895780 0.272652
Si Si2 0.863849 0.308558 0.398616
Si Si3 0.403468 0.640426 0.807727
Si Si4 0.701884 0.703188 0.284580
Si Si5 0.702705 0.580089 0.755068
Si Si6 0.849421 0.166310 0.991693
O O1 0.310302 0.799043 0.386113
O O2 0.652511 0.784956 0.210919
O O3 0.500000 0.000000 0.500000
O O4 0.695166 0.001446 0.065031
O O5 0.787040 0.457462 0.528695
O O6 0.859461 0.237675 0.195033
O O7 0.092415 0.339194 0.287356
O O8 0.509056 0.677808 0.561129
O O9 0.285537 0.464299 0.837131
O O10 0.598161 0.672619 0.772515
O O11 0.243462 0.737879 0.003867
O O12 0.906600 0.809216 0.238359
O O13 0.500000 0.500000 0.000000
#
# Coordination Sequence:
#
# PCOD9090854 Si02
#       6
#     2   2   2   2   2   2
#     4  10  19  39  60  90 121 154 194 242 294 358
#     4  10  21  38  59  88 117 157 198 240 283 357
#     4  11  21  37  58  93 120 146 201 254 287 342
#     4  11  20  36  62  90 121 154 195 245 299 340
#     4  11  23  39  60  84 121 161 200 237 295 350
#     4  11  22  37  65  92 119 153 196 245 298 351
#
# _framework density 23.765477000000001
#
# number of rings (size 3 to 8) (size 9 to 14) (size 15 to 20)
#    0.000    1.333    5.000    3.000    0.000    2.667 
#    0.000    0.833    0.000    2.000    0.000    0.000 
#    0.000    0.000    0.000    0.000    0.000    0.000 
#
# Total GULP energy -67095.674524 kJ/mol
# GULP energy per Si atom -5591.306210 kJ/mol
# Density = 2.371139 g / cm^3
# Si number density = 23.765477 Si / 1000 Ang^3
#
#
#
# Elastic Constant Matrix: (Units=GPa)
#
#
# Indices 1 2 3 4 5 6 
#
# 1 155.2839 31.9983 22.3948 -15.4883 -42.6876 2.9314
# 2 31.9983 87.6611 29.1771 -18.5842 -21.1149 -7.1884
# 3 22.3948 29.1771 50.7467 -18.1845 -21.7445 8.8626
# 4 -15.4883 -18.5842 -18.1845 28.5952 16.9669 -3.6778
# 5 -42.6876 -21.1149 -21.7445 16.9669 42.3738 -5.5217
# 6 2.9314 -7.1884 8.8626 -3.6778 -5.5217 28.0185
#
#
#
# Elastic Compliance Matrix: (Units=1/GPa)
#
#
# Indices 1 2 3 4 5 6 
#
# 1 0.009066 -0.001446 0.000230 -0.001224 0.009051 0.000231
# 2 -0.001446 0.016677 -0.007707 0.005037 0.001912 0.007906
# 3 0.000230 -0.007707 0.032653 0.009961 0.007926 -0.009460
# 4 -0.001224 0.005037 0.009961 0.052787 -0.014441 0.002352
# 5 0.009051 0.001912 0.007926 -0.014441 0.044017 0.003815
# 6 0.000231 0.007906 -0.009460 0.002352 0.003815 0.041748
#
#
# Mechanical properties :
#
#
# Convention : Reuss Voigt Hill
#
# Bulk Modulus (GPa) = 24.66094 51.20358 37.93226
# Shear Modulus (GPa) = 21.89976 33.80560 27.85268
#
# Velocity S-wave (km/s) = 3.03891 3.77565 3.42713
# Velocity P-wave (km/s) = 4.76577 6.37178 5.62637
#
# Compressibility (1/GPa) = 0.04054996
#
# Stress axis : x y z
#
# Youngs Moduli (GPa) = 110.29773 59.96176 30.62466
#
# Poissons Ratio (x) = 0.08673 -0.00704
# Poissons Ratio (y) = 0.15954 0.23603
# Poissons Ratio (z) = -0.02537 0.46213
#
# Static dielectric constant tensor:
#      x y z
#    x 1.922980 0.050140 0.047480 
#    y 0.050140 1.959670 0.037560 
#    z 0.047480 0.037560 1.958560 
# 
# From -- ./inp_files/159040.got.cif
#   From: 2010.05.17/outbox.cif.g08.bks.cpg/sg2_80_cif.got.tgz:159040.got - 2010.06.03 11:33:40.
