data_PCOD9090694
_publ_section_title
;
Structure prediction by ZEFSAII (Michael W. Deem and Ramdas Pophale) SiO2 
 PCOD9090694
Probable space group: P -1
;
_chemical_formula_sum "Si O2"
_cell_formula_units_Z 14
_cell_length_a 13.637415
_cell_length_b 4.960050
_cell_length_c 18.974598
_cell_angle_alpha 136.194577
_cell_angle_beta 36.689601
_cell_angle_gamma 128.979996
_cell_volume 526.880736
_symmetry_space_group_name_H-M "P -1"
_symmetry_group_IT_number 2
_symmetry_cell_setting 'triclinic'
loop_
_space_group_symop_operation_xyz
x,y,z
-x,-y,-z
loop_
_atom_site_type_symbol
_atom_site_label
_atom_site_fract_x
_atom_site_fract_y
_atom_site_fract_z
Si Si1 0.257434 0.286124 0.521394
Si Si2 0.976343 0.641647 0.136030
Si Si3 0.587067 0.451740 0.661409
Si Si4 0.721987 0.449015 0.971212
Si Si5 0.922260 0.516528 0.722644
Si Si6 0.366810 0.416721 0.184869
Si Si7 0.234310 0.979790 0.774065
O O1 0.372979 0.340567 0.396277
O O2 0.280006 0.678650 0.629570
O O3 0.067026 0.249854 0.599731
O O4 0.309676 0.920755 0.464722
O O5 0.829911 0.317401 0.183224
O O6 0.148879 0.479695 0.025614
O O7 0.920508 0.814741 0.127572
O O8 0.992604 0.032825 0.250338
O O9 0.636890 0.676886 0.747917
O O10 0.395692 0.283911 0.747258
O O11 0.820696 0.528441 0.856719
O O12 0.659456 0.984796 0.920403
O O13 0.550193 0.635643 0.105345
O O14 0.793970 0.395370 0.711640
#
# Coordination Sequence:
#
# PCOD9090694 Si02
#       7
#     2   2   2   2   2   2   2
#     4  11  23  40  66  91 130 171 207 255 314 373
#     4  10  19  38  70  96 116 162 218 258 306 370
#     4  12  26  42  60 100 133 166 206 260 314 377
#     4  10  20  45  69  93 121 170 213 267 308 378
#     4  10  21  40  71  91 125 163 221 255 314 377
#     4  10  25  40  66  96 128 167 210 261 321 372
#     4  11  21  41  67  93 129 166 213 253 312 379
#
# _framework density 26.571480000000001
#
# number of rings (size 3 to 8) (size 9 to 14) (size 15 to 20)
#    0.000    1.429    2.857    3.857    4.000    1.143 
#    0.000    1.429    0.000    0.000    0.000    0.000 
#    0.000    0.000    0.000    0.000    0.000    0.000 
#
# Total GULP energy -78432.917997 kJ/mol
# GULP energy per Si atom -5602.351286 kJ/mol
# Density = 2.651100 g / cm^3
# Si number density = 26.571480 Si / 1000 Ang^3
#
#
#
# Elastic Constant Matrix: (Units=GPa)
#
#
# Indices 1 2 3 4 5 6 
#
# 1 111.3160 21.0180 -4.1629 -1.6711 -10.1007 18.8307
# 2 21.0180 79.4747 15.9519 -7.1117 -2.3834 -1.4255
# 3 -4.1629 15.9519 93.9119 -3.8376 -10.8364 2.4399
# 4 -1.6711 -7.1117 -3.8376 40.1089 -1.2806 1.7919
# 5 -10.1007 -2.3834 -10.8364 -1.2806 45.7224 -6.5006
# 6 18.8307 -1.4255 2.4399 1.7919 -6.5006 37.3550
#
#
#
# Elastic Compliance Matrix: (Units=1/GPa)
#
#
# Indices 1 2 3 4 5 6 
#
# 1 0.010684 -0.003111 0.001358 0.000317 0.001775 -0.005300
# 2 -0.003111 0.014128 -0.002532 0.002031 -0.000190 0.002143
# 3 0.001358 -0.002532 0.011521 0.000847 0.002767 -0.001093
# 4 0.000317 0.002031 0.000847 0.025469 0.000919 -0.001199
# 5 0.001775 -0.000190 0.002767 0.000919 0.023352 0.002937
# 6 -0.005300 0.002143 -0.001093 -0.001199 0.002937 0.030163
#
#
# Mechanical properties :
#
#
# Convention : Reuss Voigt Hill
#
# Bulk Modulus (GPa) = 36.02202 38.92407 37.47304
# Shear Modulus (GPa) = 37.55317 41.43028 39.49173
#
# Velocity S-wave (km/s) = 3.76345 3.95296 3.85937
# Velocity P-wave (km/s) = 5.69832 5.95945 5.83035
#
# Compressibility (1/GPa) = 0.02776080
#
# Stress axis : x y z
#
# Youngs Moduli (GPa) = 93.59765 70.77996 86.79916
#
# Poissons Ratio (x) = 0.22023 -0.11784
# Poissons Ratio (y) = 0.29123 0.21980
# Poissons Ratio (z) = -0.12707 0.17924
#
# Static dielectric constant tensor:
#      x y z
#    x 2.070800 0.019660 -0.012940 
#    y 0.019660 2.052540 0.059720 
#    z -0.012940 0.059720 2.104240 
# 
# From -- ./inp_files/72189.got.cif
#   From: 2010.05.17/outbox.cif.g08.bks.cpg/sg2_37_cif.got.tgz:72189.got - 2010.06.03 11:33:40.
