data_PCOD9090944
_publ_section_title
;
Structure prediction by ZEFSAII (Michael W. Deem and Ramdas Pophale) SiO2 
 PCOD9090944
Probable space group: P -1
;
_chemical_formula_sum "Si O2"
_cell_formula_units_Z 14
_cell_length_a 12.446552
_cell_length_b 7.968482
_cell_length_c 15.261911
_cell_angle_alpha 31.622738
_cell_angle_beta 58.929638
_cell_angle_gamma 61.943497
_cell_volume 678.185846
_symmetry_space_group_name_H-M "P -1"
_symmetry_group_IT_number 2
_symmetry_cell_setting 'triclinic'
loop_
_space_group_symop_operation_xyz
x,y,z
-x,-y,-z
loop_
_atom_site_type_symbol
_atom_site_label
_atom_site_fract_x
_atom_site_fract_y
_atom_site_fract_z
Si Si1 0.028509 0.209945 0.775254
Si Si2 0.524631 0.367503 0.645009
Si Si3 0.182622 0.692694 0.054798
Si Si4 0.774360 0.127409 0.863515
Si Si5 0.767659 0.667647 0.491499
Si Si6 0.599951 0.258369 0.321066
Si Si7 0.366337 0.270306 0.045417
O O1 0.105590 0.390911 0.591042
O O2 0.940851 0.409183 0.794388
O O3 0.922022 0.010170 0.861762
O O4 0.128417 0.980128 0.888004
O O5 0.500000 0.500000 0.500000
O O6 0.653887 0.518767 0.553593
O O7 0.415756 0.501348 0.697728
O O8 0.549797 0.988723 0.819157
O O9 0.265433 0.827789 0.038786
O O10 0.259988 0.431111 0.081811
O O11 0.773929 0.479052 0.663666
O O12 0.696661 0.918924 0.924046
O O13 0.730556 0.046017 0.350878
O O14 0.500000 0.000000 0.500000
O O15 0.568793 0.450452 0.158982
#
# Coordination Sequence:
#
# PCOD9090944 Si02
#       7
#     2   2   2   2   2   2   2
#     4   9  18  38  57  92 125 155 199 241 295 376
#     4  10  24  40  59  92 119 153 215 255 298 358
#     4   9  20  36  60  90 126 153 202 237 306 365
#     4   9  21  35  62  91 123 157 201 236 306 368
#     4  10  19  39  62  82 127 162 191 253 305 349
#     4  10  22  41  61  83 117 162 206 251 306 354
#     4  11  21  42  64  87 125 160 199 258 305 355
#
# _framework density 20.64331
#
# number of rings (size 3 to 8) (size 9 to 14) (size 15 to 20)
#    0.857    1.429    1.429    0.857    2.000    1.714 
#    0.000    5.714    0.000    0.000    0.000    0.000 
#    0.000    0.000    0.000    0.000    0.000    0.000 
#
# Total GULP energy -77992.122588 kJ/mol
# GULP energy per Si atom -5570.865899 kJ/mol
# Density = 2.059632 g / cm^3
# Si number density = 20.643310 Si / 1000 Ang^3
#
#
#
# Elastic Constant Matrix: (Units=GPa)
#
#
# Indices 1 2 3 4 5 6 
#
# 1 48.6565 11.4905 45.1588 6.4368 28.9153 4.1109
# 2 11.4905 117.0262 53.8874 -1.0547 17.9743 -21.1727
# 3 45.1588 53.8874 123.1058 -1.1089 25.6080 -10.5656
# 4 6.4368 -1.0547 -1.1089 23.0357 -1.3697 -1.8601
# 5 28.9153 17.9743 25.6080 -1.3697 37.0070 9.5303
# 6 4.1109 -21.1727 -10.5656 -1.8601 9.5303 16.8897
#
#
#
# Elastic Compliance Matrix: (Units=1/GPa)
#
#
# Indices 1 2 3 4 5 6 
#
# 1 0.063660 0.010793 -0.017698 -0.020020 -0.046277 0.010872
# 2 0.010793 0.018370 -0.005051 -0.001335 -0.021426 0.029185
# 3 -0.017698 -0.005051 0.016964 0.006319 0.002791 0.007709
# 4 -0.020020 -0.001335 0.006319 0.050445 0.012300 0.005767
# 5 -0.046277 -0.021426 0.002791 0.012300 0.088136 -0.062227
# 6 0.010872 0.029185 0.007709 0.005767 -0.062227 0.133718
#
#
# Mechanical properties :
#
#
# Convention : Reuss Voigt Hill
#
# Bulk Modulus (GPa) = 13.31854 56.65133 34.98494
# Shear Modulus (GPa) = 11.89823 27.26993 19.58408
#
# Velocity S-wave (km/s) = 2.40338 3.63851 3.08342
# Velocity P-wave (km/s) = 3.76396 6.71969 5.44617
#
# Compressibility (1/GPa) = 0.07508329
#
# Stress axis : x y z
#
# Youngs Moduli (GPa) = 15.70847 54.43650 58.94850
#
# Poissons Ratio (x) = -0.58754 1.04325
# Poissons Ratio (y) = -0.16954 0.29773
# Poissons Ratio (z) = 0.27800 0.27494
#
# Static dielectric constant tensor:
#      x y z
#    x 1.775420 -0.002560 -0.008830 
#    y -0.002560 1.752480 -0.014940 
#    z -0.008830 -0.014940 1.769490 
# 
# From -- ./inp_files/305613.got.cif
#   From: 2010.05.17/outbox.cif.g08.bks.cpg/sg2_153_cif.got.tgz:305613.got - 2010.06.03 11:33:40.
