data_PCOD9090826
_publ_section_title
;
Structure prediction by ZEFSAII (Michael W. Deem and Ramdas Pophale) SiO2 
 PCOD9090826
Probable space group: P -1
;
_chemical_formula_sum "Si O2"
_cell_formula_units_Z 16
_cell_length_a 13.243320
_cell_length_b 24.990520
_cell_length_c 20.694441
_cell_angle_alpha 163.614010
_cell_angle_beta 154.813352
_cell_angle_gamma 32.909913
_cell_volume 798.511576
_symmetry_space_group_name_H-M "P -1"
_symmetry_group_IT_number 2
_symmetry_cell_setting 'triclinic'
loop_
_space_group_symop_operation_xyz
x,y,z
-x,-y,-z
loop_
_atom_site_type_symbol
_atom_site_label
_atom_site_fract_x
_atom_site_fract_y
_atom_site_fract_z
Si Si1 0.242946 0.024138 0.209325
Si Si2 0.878073 0.715822 0.091907
Si Si3 0.972279 0.352651 0.654067
Si Si4 0.729560 0.160673 0.848492
Si Si5 0.506952 0.520607 0.104711
Si Si6 0.975369 0.926283 0.197532
Si Si7 0.477061 0.272908 0.213605
Si Si8 0.269554 0.017694 0.597883
O O1 0.359411 0.255853 0.547456
O O2 0.442395 0.937073 0.186269
O O3 0.213528 0.921204 0.143688
O O4 0.000000 0.000000 0.000000
O O5 0.138471 0.857488 0.388542
O O6 0.814741 0.783894 0.204499
O O7 0.884889 0.497197 0.821950
O O8 0.672732 0.775616 0.995778
O O9 0.757068 0.267146 0.378118
O O10 0.016128 0.156600 0.481469
O O11 0.227055 0.469131 0.906867
O O12 0.948757 0.166877 0.931552
O O13 0.500000 0.000000 0.500000
O O14 0.645952 0.364834 0.035842
O O15 0.500000 0.500000 0.000000
O O16 0.162317 0.912024 0.346755
O O17 0.702398 0.838488 0.963537
O O18 0.500000 0.500000 0.500000
#
# Coordination Sequence:
#
# PCOD9090826 Si02
#       8
#     2   2   2   2   2   2   2   2
#     4  12  26  45  68 102 138 179 223 286 343 396
#     4   9  20  35  59  87 119 168 212 257 321 391
#     4  11  20  37  61  91 125 164 222 261 330 399
#     4  12  23  43  69 102 130 176 233 275 338 401
#     4  12  23  40  73  99 131 184 227 273 336 410
#     4  11  21  39  64  90 131 163 216 283 321 393
#     4   9  21  36  60  91 124 161 211 273 319 387
#     4  10  19  39  60  84 125 169 212 265 321 395
#
# _framework density 20.037279000000002
#
# number of rings (size 3 to 8) (size 9 to 14) (size 15 to 20)
#    0.000    1.250    5.000    0.375    3.500    3.000 
#    2.250    1.250    0.000    0.000    0.000    0.000 
#    0.000    0.000    0.000    0.000    0.000    0.000 
#
# Total GULP energy -89224.167398 kJ/mol
# GULP energy per Si atom -5576.510462 kJ/mol
# Density = 1.999167 g / cm^3
# Si number density = 20.037279 Si / 1000 Ang^3
#
#
#
# Elastic Constant Matrix: (Units=GPa)
#
#
# Indices 1 2 3 4 5 6 
#
# 1 108.4246 55.4986 42.0293 -5.8422 4.1595 -9.0785
# 2 55.4986 110.1750 33.3740 -4.6948 10.9130 -0.7663
# 3 42.0293 33.3740 78.9789 -9.4826 20.4676 -5.2303
# 4 -5.8422 -4.6948 -9.4826 37.9590 -0.7850 -4.3073
# 5 4.1595 10.9130 20.4676 -0.7850 18.5798 5.2216
# 6 -9.0785 -0.7663 -5.2303 -4.3073 5.2216 26.0910
#
#
#
# Elastic Compliance Matrix: (Units=1/GPa)
#
#
# Indices 1 2 3 4 5 6 
#
# 1 0.015057 -0.006125 -0.007242 0.000148 0.007618 0.002107
# 2 -0.006125 0.012945 -0.000985 0.000205 -0.004874 -0.000939
# 3 -0.007242 -0.000985 0.025534 0.005596 -0.028264 0.009150
# 4 0.000148 0.000205 0.005596 0.028472 -0.007171 0.007315
# 5 0.007618 -0.004874 -0.028264 -0.007171 0.092219 -0.022798
# 6 0.002107 -0.000939 0.009150 0.007315 -0.022798 0.046638
#
#
# Mechanical properties :
#
#
# Convention : Reuss Voigt Hill
#
# Bulk Modulus (GPa) = 40.26864 62.15361 51.21113
# Shear Modulus (GPa) = 19.39135 27.63773 23.51454
#
# Velocity S-wave (km/s) = 3.11427 3.71794 3.42941
# Velocity P-wave (km/s) = 5.75083 7.03684 6.42609
#
# Compressibility (1/GPa) = 0.02483322
#
# Stress axis : x y z
#
# Youngs Moduli (GPa) = 66.41241 77.24852 39.16317
#
# Poissons Ratio (x) = 0.47314 0.28361
# Poissons Ratio (y) = 0.40677 0.03858
# Poissons Ratio (z) = 0.48094 0.07611
#
# Static dielectric constant tensor:
#      x y z
#    x 1.755650 0.013730 -0.008400 
#    y 0.013730 1.773300 0.007260 
#    z -0.008400 0.007260 1.724840 
# 
# From -- ./inp_files/456022.got.cif
#   From: 2010.05.17/outbox.cif.g08.bks.cpg/sg2_229_cif.got.tgz:456022.got - 2010.06.03 11:33:40.
