data_PCOD9090866
_publ_section_title
;
Structure prediction by ZEFSAII (Michael W. Deem and Ramdas Pophale) SiO2 
 PCOD9090866
Probable space group: P -1
;
_chemical_formula_sum "Si O2"
_cell_formula_units_Z 14
_cell_length_a 12.251082
_cell_length_b 8.573918
_cell_length_c 16.249499
_cell_angle_alpha 86.556516
_cell_angle_beta 127.179944
_cell_angle_gamma 48.923053
_cell_volume 664.891999
_symmetry_space_group_name_H-M "P -1"
_symmetry_group_IT_number 2
_symmetry_cell_setting 'triclinic'
loop_
_space_group_symop_operation_xyz
x,y,z
-x,-y,-z
loop_
_atom_site_type_symbol
_atom_site_label
_atom_site_fract_x
_atom_site_fract_y
_atom_site_fract_z
Si Si1 0.131795 0.806821 0.981303
Si Si2 0.821159 0.617244 0.992528
Si Si3 0.813171 0.128710 0.664224
Si Si4 0.245283 0.739372 0.735409
Si Si5 0.603335 0.855332 0.337044
Si Si6 0.084521 0.166571 0.522448
Si Si7 0.268650 0.141711 0.333755
O O1 0.422480 0.599387 0.093608
O O2 0.189163 0.561770 0.012534
O O3 0.000000 0.000000 0.000000
O O4 0.906680 0.067115 0.801202
O O5 0.976651 0.506580 0.152907
O O6 0.000000 0.500000 0.000000
O O7 0.527413 0.987388 0.818784
O O8 0.500000 0.500000 0.500000
O O9 0.807661 0.946495 0.657106
O O10 0.047555 0.968919 0.716095
O O11 0.111517 0.716805 0.637686
O O12 0.205063 0.912084 0.642576
O O13 0.881373 0.477699 0.472833
O O14 0.674716 0.959533 0.396629
O O15 0.413824 0.965241 0.316672
O O16 0.500000 0.000000 0.500000
#
# Coordination Sequence:
#
# PCOD9090866 Si02
#       7
#     2   2   2   2   2   2   2
#     4  11  25  41  66  94 128 169 213 256 319 379
#     4   9  20  37  60  87 123 154 206 259 303 363
#     4  11  25  42  64  93 130 167 208 261 321 375
#     4  11  23  41  63  95 133 161 210 265 317 372
#     4  10  19  39  60  93 118 161 211 259 307 373
#     4  10  22  35  67  89 123 162 213 257 318 374
#     4  10  21  37  61  85 124 161 206 252 317 366
#
# _framework density 21.056052000000001
#
# number of rings (size 3 to 8) (size 9 to 14) (size 15 to 20)
#    0.000    1.714    1.429    2.143   10.000    2.286 
#    0.000    0.000    0.000    3.429    0.000    0.000 
#    0.000    0.000    0.000    0.000    0.000    0.000 
#
# Total GULP energy -77997.690117 kJ/mol
# GULP energy per Si atom -5571.263580 kJ/mol
# Density = 2.100813 g / cm^3
# Si number density = 21.056052 Si / 1000 Ang^3
#
#
#
# Elastic Constant Matrix: (Units=GPa)
#
#
# Indices 1 2 3 4 5 6 
#
# 1 84.2532 3.7119 19.7754 5.0469 12.7754 -10.7232
# 2 3.7119 28.5079 19.9241 9.4660 1.8611 -11.3238
# 3 19.7754 19.9241 166.3958 10.9081 13.8037 0.5562
# 4 5.0469 9.4660 10.9081 33.0981 1.0199 3.1871
# 5 12.7754 1.8611 13.8037 1.0199 23.7731 -2.7445
# 6 -10.7232 -11.3238 0.5562 3.1871 -2.7445 27.0872
#
#
#
# Elastic Compliance Matrix: (Units=1/GPa)
#
#
# Indices 1 2 3 4 5 6 
#
# 1 0.013999 0.003174 -0.001362 -0.003045 -0.006083 0.006639
# 2 0.003174 0.054866 -0.006042 -0.016768 0.001277 0.026420
# 3 -0.001362 -0.006042 0.007186 0.000014 -0.003379 -0.003556
# 4 -0.003045 -0.016768 0.000014 0.036678 -0.000080 -0.012539
# 5 -0.006083 0.001277 -0.003379 -0.000080 0.047548 0.003022
# 6 0.006639 0.026420 -0.003556 -0.012539 0.003022 0.052445
#
#
# Mechanical properties :
#
#
# Convention : Reuss Voigt Hill
#
# Bulk Modulus (GPa) = 14.79453 40.66442 27.72947
# Shear Modulus (GPa) = 20.51601 32.50804 26.51202
#
# Velocity S-wave (km/s) = 3.12485 3.93349 3.55225
# Velocity P-wave (km/s) = 4.47896 6.32330 5.47929
#
# Compressibility (1/GPa) = 0.06759255
#
# Stress axis : x y z
#
# Youngs Moduli (GPa) = 71.43611 18.22619 139.15263
#
# Poissons Ratio (x) = -0.05786 0.18947
# Poissons Ratio (y) = -0.22676 0.84074
# Poissons Ratio (z) = 0.09727 0.11012
#
# Static dielectric constant tensor:
#      x y z
#    x 1.800220 0.003630 0.086400 
#    y 0.003630 1.782160 -0.010470 
#    z 0.086400 -0.010470 1.892850 
# 
# From -- ./inp_files/189114.got.cif
#   From: 2010.05.17/outbox.cif.g08.bks.cpg/sg2_95_cif.got.tgz:189114.got - 2010.06.03 11:33:40.
