data_PCOD9090369
_publ_section_title
;
Structure prediction by ZEFSAII (Michael W. Deem and Ramdas Pophale) SiO2 
 PCOD9090369
Probable space group: P -1
;
_chemical_formula_sum "Si O2"
_cell_formula_units_Z 16
_cell_length_a 9.080509
_cell_length_b 23.418954
_cell_length_c 8.819735
_cell_angle_alpha 35.575933
_cell_angle_beta 38.308632
_cell_angle_gamma 48.240696
_cell_volume 674.403870
_symmetry_space_group_name_H-M "P -1"
_symmetry_group_IT_number 2
_symmetry_cell_setting 'triclinic'
loop_
_space_group_symop_operation_xyz
x,y,z
-x,-y,-z
loop_
_atom_site_type_symbol
_atom_site_label
_atom_site_fract_x
_atom_site_fract_y
_atom_site_fract_z
Si Si1 0.539729 0.814785 0.405871
Si Si2 0.666569 0.459619 0.084283
Si Si3 0.456470 0.695958 0.226040
Si Si4 0.022446 0.742210 0.256241
Si Si5 0.900964 0.309710 0.028195
Si Si6 0.272409 0.448370 0.873084
Si Si7 0.808230 0.048034 0.432011
Si Si8 0.701920 0.850852 0.856936
O O1 0.352434 0.735601 0.688322
O O2 0.420413 0.909707 0.381121
O O3 0.743441 0.765908 0.456069
O O4 0.629238 0.847833 0.099148
O O5 0.575741 0.372903 0.451880
O O6 0.891603 0.407648 0.925042
O O7 0.673912 0.550223 0.996357
O O8 0.500000 0.500000 0.000000
O O9 0.213984 0.696959 0.319820
O O10 0.683861 0.651684 0.039552
O O11 0.509697 0.803299 0.010342
O O12 0.027889 0.680658 0.226376
O O13 0.102828 0.851716 0.922354
O O14 0.066491 0.226149 0.160665
O O15 0.500000 0.500000 0.500000
O O16 0.000000 0.500000 0.000000
O O17 0.756719 0.962396 0.541545
O O18 0.000000 0.000000 0.500000
#
# Coordination Sequence:
#
# PCOD9090369 Si02
#       8
#     2   2   2   2   2   2   2   2
#     4  10  19  38  65  93 131 178 222 268 324 399
#     4  11  23  44  72 100 128 174 232 285 345 419
#     4  11  24  45  65 102 139 177 220 284 361 407
#     4  10  23  40  63  98 140 177 220 269 340 407
#     4  10  20  40  65 101 123 175 227 273 331 400
#     4  10  23  47  72 102 139 183 226 295 362 422
#     4  11  20  37  65  99 129 174 226 273 322 391
#     4  11  21  37  68  93 133 171 221 278 324 406
#
# _framework density 23.724656
#
# number of rings (size 3 to 8) (size 9 to 14) (size 15 to 20)
#    0.000    1.500    5.000    1.875    0.000    0.500 
#   18.000    6.250    0.000    0.000    0.000    0.000 
#    0.000    0.000    0.000    0.000    0.000    0.000 
#
# Total GULP energy -89280.587304 kJ/mol
# GULP energy per Si atom -5580.036706 kJ/mol
# Density = 2.367066 g / cm^3
# Si number density = 23.724656 Si / 1000 Ang^3
#
#
#
# Elastic Constant Matrix: (Units=GPa)
#
#
# Indices 1 2 3 4 5 6 
#
# 1 131.0481 55.2065 13.5176 13.0505 14.3757 -3.3055
# 2 55.2065 161.8444 27.5997 9.7190 6.5506 2.6512
# 3 13.5176 27.5997 71.2269 -6.8909 6.1766 -4.2255
# 4 13.0505 9.7190 -6.8909 28.0931 -4.3072 -14.0791
# 5 14.3757 6.5506 6.1766 -4.3072 28.6581 -2.2663
# 6 -3.3055 2.6512 -4.2255 -14.0791 -2.2663 48.7859
#
#
#
# Elastic Compliance Matrix: (Units=1/GPa)
#
#
# Indices 1 2 3 4 5 6 
#
# 1 0.009899 -0.002683 -0.000964 -0.005170 -0.005000 -0.000991
# 2 -0.002683 0.007822 -0.002892 -0.003127 -0.000429 -0.001780
# 3 -0.000964 -0.002892 0.016322 0.007042 -0.001039 0.003489
# 4 -0.005170 -0.003127 0.007042 0.050135 0.010542 0.015388
# 5 -0.005000 -0.000429 -0.001039 0.010542 0.039663 0.004480
# 6 -0.000991 -0.001780 0.003489 0.015388 0.004480 0.025478
#
#
# Mechanical properties :
#
#
# Convention : Reuss Voigt Hill
#
# Bulk Modulus (GPa) = 47.70436 61.86301 54.78368
# Shear Modulus (GPa) = 29.51852 38.96046 34.23949
#
# Velocity S-wave (km/s) = 3.53117 4.05679 3.80307
# Velocity P-wave (km/s) = 6.06438 6.93365 6.51353
#
# Compressibility (1/GPa) = 0.02096245
#
# Stress axis : x y z
#
# Youngs Moduli (GPa) = 101.02124 127.85242 61.26789
#
# Poissons Ratio (x) = 0.34303 0.05909
# Poissons Ratio (y) = 0.27104 0.17721
# Poissons Ratio (z) = 0.09743 0.36980
#
# Static dielectric constant tensor:
#      x y z
#    x 1.895910 -0.028780 -0.031890 
#    y -0.028780 1.934530 0.021290 
#    z -0.031890 0.021290 2.019120 
# 
# From -- ./inp_files/225915.got.cif
#   From: 2010.05.17/outbox.cif.g08.bks.cpg/sg2_113_cif.got.tgz:225915.got - 2010.06.03 11:33:40.
