data_PCOD9090176
_publ_section_title
;
Structure prediction by ZEFSAII (Michael W. Deem and Ramdas Pophale) SiO2 
 PCOD9090176
Probable space group: P -1
;
_chemical_formula_sum "Si O2"
_cell_formula_units_Z 16
_cell_length_a 11.312580
_cell_length_b 16.179996
_cell_length_c 15.971067
_cell_angle_alpha 38.807290
_cell_angle_beta 32.107970
_cell_angle_gamma 62.034300
_cell_volume 797.522797
_symmetry_space_group_name_H-M "P -1"
_symmetry_group_IT_number 2
_symmetry_cell_setting 'triclinic'
loop_
_space_group_symop_operation_xyz
x,y,z
-x,-y,-z
loop_
_atom_site_type_symbol
_atom_site_label
_atom_site_fract_x
_atom_site_fract_y
_atom_site_fract_z
Si Si1 0.503952 0.335143 0.734756
Si Si2 0.299457 0.948143 0.736918
Si Si3 0.258519 0.174450 0.179582
Si Si4 0.728914 0.205608 0.966049
Si Si5 0.306507 0.302268 0.699744
Si Si6 0.269607 0.224146 0.602872
Si Si7 0.411067 0.495112 0.927694
Si Si8 0.109266 0.472133 0.290017
O O1 0.421021 0.276696 0.735175
O O2 0.560825 0.512793 0.552934
O O3 0.784992 0.357340 0.571377
O O4 0.289886 0.228393 0.020876
O O5 0.415257 0.927752 0.769449
O O6 0.500000 0.000000 0.500000
O O7 0.237496 0.079279 0.686690
O O8 0.011556 0.779735 0.027223
O O9 0.522346 0.176189 0.041902
O O10 0.289157 0.316406 0.107032
O O11 0.000000 0.000000 0.500000
O O12 0.826150 0.371737 0.822467
O O13 0.995308 0.217120 0.769524
O O14 0.321010 0.217405 0.675595
O O15 0.516656 0.388670 0.285201
O O16 0.702140 0.567761 0.741702
O O17 0.221575 0.500260 0.105817
#
# Coordination Sequence:
#
# PCOD9090176 Si02
#       8
#     2   2   2   2   2   2   2   2
#     4  11  21  41  63  88 130 165 206 255 320 375
#     4  11  23  39  65  96 127 161 210 265 309 366
#     4  11  24  42  64  90 129 165 208 266 315 373
#     4  10  20  39  64  89 121 166 212 252 313 367
#     4  10  22  39  62  92 125 167 208 251 315 380
#     4  11  20  40  67  92 124 161 216 260 301 382
#     4  10  21  38  63  95 120 160 219 256 311 370
#     4  10  19  38  64  89 125 161 208 261 307 375
#
# _framework density 20.062121999999999
#
# number of rings (size 3 to 8) (size 9 to 14) (size 15 to 20)
#    0.000    1.500    3.750    3.000    1.750    2.000 
#    4.500    1.250    0.000    0.000    0.000    0.000 
#    0.000    0.000    0.000    0.000    0.000    0.000 
#
# Total GULP energy -89274.262852 kJ/mol
# GULP energy per Si atom -5579.641428 kJ/mol
# Density = 2.001646 g / cm^3
# Si number density = 20.062122 Si / 1000 Ang^3
#
#
#
# Elastic Constant Matrix: (Units=GPa)
#
#
# Indices 1 2 3 4 5 6 
#
# 1 82.6509 31.9904 61.7080 4.9743 11.5962 12.5116
# 2 31.9904 63.8966 32.0927 16.8216 7.1091 7.8722
# 3 61.7080 32.0927 121.9934 3.7758 34.3350 19.4441
# 4 4.9743 16.8216 3.7758 30.9379 5.6690 6.3561
# 5 11.5962 7.1091 34.3350 5.6690 31.2684 2.8546
# 6 12.5116 7.8722 19.4441 6.3561 2.8546 20.1460
#
#
#
# Elastic Compliance Matrix: (Units=1/GPa)
#
#
# Indices 1 2 3 4 5 6 
#
# 1 0.021941 -0.006134 -0.010599 0.000579 0.004963 -0.001886
# 2 -0.006134 0.023270 -0.003843 -0.012162 0.003245 0.001803
# 3 -0.010599 -0.003843 0.021750 0.007227 -0.019251 -0.012460
# 4 0.000579 -0.012162 0.007227 0.043117 -0.011878 -0.014502
# 5 0.004963 0.003245 -0.019251 -0.011878 0.051724 0.010649
# 6 -0.001886 0.001803 -0.012460 -0.014502 0.010649 0.065197
#
#
# Mechanical properties :
#
#
# Convention : Reuss Voigt Hill
#
# Bulk Modulus (GPa) = 38.74578 57.79146 48.26862
# Shear Modulus (GPa) = 18.06666 25.98713 22.02689
#
# Velocity S-wave (km/s) = 3.00415 3.60298 3.31710
# Velocity P-wave (km/s) = 5.60250 6.79539 6.22758
#
# Compressibility (1/GPa) = 0.02580927
#
# Stress axis : x y z
#
# Youngs Moduli (GPa) = 45.57748 42.97353 45.97672
#
# Poissons Ratio (x) = 0.26358 0.48731
# Poissons Ratio (y) = 0.27955 0.17670
# Poissons Ratio (z) = 0.48308 0.16516
#
# Static dielectric constant tensor:
#      x y z
#    x 1.763070 0.007360 0.010530 
#    y 0.007360 1.715830 -0.023350 
#    z 0.010530 -0.023350 1.719870 
# 
# From -- ./inp_files/521537.got.cif
#   From: 2010.05.17/outbox.cif.g08.bks.cpg/sg2_261_cif.got.tgz:521537.got - 2010.06.03 11:33:40.
