data_PCOD9090939
_publ_section_title
;
Structure prediction by ZEFSAII (Michael W. Deem and Ramdas Pophale) SiO2 
 PCOD9090939
Probable space group: P -1
;
_chemical_formula_sum "Si O2"
_cell_formula_units_Z 16
_cell_length_a 10.902197
_cell_length_b 12.886281
_cell_length_c 24.725465
_cell_angle_alpha 159.669445
_cell_angle_beta 138.757524
_cell_angle_gamma 36.846045
_cell_volume 723.700702
_symmetry_space_group_name_H-M "P -1"
_symmetry_group_IT_number 2
_symmetry_cell_setting 'triclinic'
loop_
_space_group_symop_operation_xyz
x,y,z
-x,-y,-z
loop_
_atom_site_type_symbol
_atom_site_label
_atom_site_fract_x
_atom_site_fract_y
_atom_site_fract_z
Si Si1 0.566609 0.500503 0.304713
Si Si2 0.119460 0.317806 0.897262
Si Si3 0.449006 0.839000 0.321652
Si Si4 0.341026 0.002846 0.175648
Si Si5 0.409280 0.117348 0.143929
Si Si6 0.007628 0.785882 0.985227
Si Si7 0.996530 0.151229 0.317477
Si Si8 0.343228 0.360164 0.815311
O O1 0.488926 0.584919 0.259501
O O2 0.431772 0.374664 0.235470
O O3 0.802455 0.231371 0.253300
O O4 0.560569 0.829545 0.491579
O O5 0.055719 0.558651 0.942995
O O6 0.360988 0.160307 0.911052
O O7 0.054054 0.009974 0.724384
O O8 0.000000 0.500000 0.000000
O O9 0.617428 0.725942 0.275797
O O10 0.225558 0.923465 0.263325
O O11 0.507832 0.947344 0.249795
O O12 0.342064 0.237514 0.242153
O O13 0.127855 0.022860 0.139374
O O14 0.413811 0.651874 0.996157
O O15 0.229024 0.034314 0.019512
O O16 0.115971 0.526103 0.845048
O O17 0.000000 0.500000 0.500000
#
# Coordination Sequence:
#
# PCOD9090939 Si02
#       8
#     2   2   2   2   2   2   2   2
#     4   9  21  38  58  86 114 151 186 250 280 343
#     4  11  23  36  59  86 118 150 195 244 286 348
#     4  10  19  39  62  81 115 149 200 231 291 340
#     4   9  19  38  57  78 119 150 187 232 283 343
#     4  11  20  40  56  83 120 149 189 238 295 335
#     4  10  21  38  57  83 116 159 184 234 298 339
#     4   9  20  37  59  82 113 156 187 236 295 341
#     4   9  19  36  61  81 107 161 189 230 284 343
#
# _framework density 22.108587
#
# number of rings (size 3 to 8) (size 9 to 14) (size 15 to 20)
#    0.750    1.500    1.250    1.125    3.500    0.500 
#    6.750    1.250    0.000    0.000    0.000    0.000 
#    0.000    0.000    0.000    0.000    0.000    0.000 
#
# Total GULP energy -89240.702081 kJ/mol
# GULP energy per Si atom -5577.543880 kJ/mol
# Density = 2.205827 g / cm^3
# Si number density = 22.108587 Si / 1000 Ang^3
#
#
#
# Elastic Constant Matrix: (Units=GPa)
#
#
# Indices 1 2 3 4 5 6 
#
# 1 158.7034 61.5067 33.2427 8.1145 4.4820 14.2026
# 2 61.5067 110.3175 17.6847 3.3923 2.2372 4.3709
# 3 33.2427 17.6847 34.4312 5.7094 3.7740 3.9121
# 4 8.1145 3.3923 5.7094 15.3618 2.7375 5.2158
# 5 4.4820 2.2372 3.7740 2.7375 18.2545 -7.9083
# 6 14.2026 4.3709 3.9121 5.2158 -7.9083 46.0816
#
#
#
# Elastic Compliance Matrix: (Units=1/GPa)
#
#
# Indices 1 2 3 4 5 6 
#
# 1 0.009548 -0.004134 -0.006591 -0.000728 -0.001288 -0.002130
# 2 -0.004134 0.011683 -0.002103 0.000248 0.000127 0.000338
# 3 -0.006591 -0.002103 0.038678 -0.009214 -0.005124 -0.000889
# 4 -0.000728 0.000248 -0.009214 0.074537 -0.013345 -0.009744
# 5 -0.001288 0.000127 -0.005124 -0.013345 0.063903 0.013297
# 6 -0.002130 0.000338 -0.000889 -0.009744 0.013297 0.025785
#
#
# Mechanical properties :
#
#
# Convention : Reuss Voigt Hill
#
# Bulk Modulus (GPa) = 29.19480 58.70227 43.94853
# Shear Modulus (GPa) = 19.14182 28.67413 23.90797
#
# Velocity S-wave (km/s) = 2.94566 3.60525 3.29201
# Velocity P-wave (km/s) = 4.98026 6.62872 5.86272
#
# Compressibility (1/GPa) = 0.03425268
#
# Stress axis : x y z
#
# Youngs Moduli (GPa) = 104.73350 85.59374 25.85467
#
# Poissons Ratio (x) = 0.35384 0.17041
# Poissons Ratio (y) = 0.43296 0.05437
# Poissons Ratio (z) = 0.69032 0.18000
#
# Static dielectric constant tensor:
#      x y z
#    x 1.850140 0.025250 0.036020 
#    y 0.025250 1.849860 0.024210 
#    z 0.036020 0.024210 1.864090 
# 
# From -- ./inp_files/607691.got.cif
#   From: 2010.05.17/outbox.cif.g08.bks.cpg/sg2_304_cif.got.tgz:607691.got - 2010.06.03 11:33:40.
