data_PCOD9090397
_publ_section_title
;
Structure prediction by ZEFSAII (Michael W. Deem and Ramdas Pophale) SiO2 
 PCOD9090397
Probable space group: P -1
;
_chemical_formula_sum "Si O2"
_cell_formula_units_Z 14
_cell_length_a 8.493746
_cell_length_b 12.114681
_cell_length_c 11.722397
_cell_angle_alpha 44.119014
_cell_angle_beta 141.087597
_cell_angle_gamma 124.876508
_cell_volume 527.209817
_symmetry_space_group_name_H-M "P -1"
_symmetry_group_IT_number 2
_symmetry_cell_setting 'triclinic'
loop_
_space_group_symop_operation_xyz
x,y,z
-x,-y,-z
loop_
_atom_site_type_symbol
_atom_site_label
_atom_site_fract_x
_atom_site_fract_y
_atom_site_fract_z
Si Si1 0.635720 0.569846 0.858854
Si Si2 0.419300 0.769875 0.009689
Si Si3 0.903743 0.789195 0.128349
Si Si4 0.789298 0.990326 0.702058
Si Si5 0.120591 0.162122 0.354257
Si Si6 0.613149 0.681465 0.401346
Si Si7 0.879788 0.434681 0.322332
O O1 0.571713 0.420925 0.853290
O O2 0.809044 0.692638 0.798655
O O3 0.374837 0.635239 0.711546
O O4 0.781411 0.489335 0.103191
O O5 0.650408 0.833543 0.018433
O O6 0.439227 0.787041 0.144055
O O7 0.162265 0.827415 0.770233
O O8 0.942366 0.602623 0.293039
O O9 0.865701 0.843001 0.936399
O O10 0.121455 0.874067 0.260198
O O11 0.895206 0.981290 0.639836
O O12 0.500000 0.000000 0.500000
O O13 0.312666 0.208786 0.529355
O O14 0.500000 0.500000 0.500000
O O15 0.870036 0.658205 0.490967
#
# Coordination Sequence:
#
# PCOD9090397 Si02
#       7
#     2   2   2   2   2   2   2
#     4  10  19  38  65  97 133 171 203 261 337 383
#     4  11  24  42  66  99 137 172 207 270 329 393
#     4  10  25  47  68  93 130 175 224 269 321 376
#     4  11  27  46  71  92 122 175 231 277 315 382
#     4  12  24  42  65  95 138 169 211 274 330 379
#     4  12  25  37  65 106 137 170 212 254 332 405
#     4  10  21  39  66  98 134 171 210 265 324 394
#
# _framework density 26.554894000000001
#
# number of rings (size 3 to 8) (size 9 to 14) (size 15 to 20)
#    0.000    1.143    4.286    1.286    2.000    6.286 
#    0.000    1.429    0.000    0.000    0.000    0.000 
#    0.000    0.000    0.000    0.000    0.000    0.000 
#
# Total GULP energy -78336.231776 kJ/mol
# GULP energy per Si atom -5595.445127 kJ/mol
# Density = 2.649445 g / cm^3
# Si number density = 26.554894 Si / 1000 Ang^3
#
#
#
# Elastic Constant Matrix: (Units=GPa)
#
#
# Indices 1 2 3 4 5 6 
#
# 1 78.1773 24.8608 20.7379 13.6739 -3.1081 -10.8651
# 2 24.8608 118.2595 47.3671 36.0355 -12.9702 -13.4454
# 3 20.7379 47.3671 95.1726 35.3928 -22.3943 -7.0902
# 4 13.6739 36.0355 35.3928 47.1693 -6.9642 -9.0856
# 5 -3.1081 -12.9702 -22.3943 -6.9642 45.6565 11.1871
# 6 -10.8651 -13.4454 -7.0902 -9.0856 11.1871 36.9857
#
#
#
# Elastic Compliance Matrix: (Units=1/GPa)
#
#
# Indices 1 2 3 4 5 6 
#
# 1 0.014461 -0.001713 -0.002062 -0.000890 -0.001498 0.003465
# 2 -0.001713 0.012176 -0.003232 -0.005989 0.000426 0.001703
# 3 -0.002062 -0.003232 0.017527 -0.009631 0.006763 -0.002832
# 4 -0.000890 -0.005989 -0.009631 0.033812 -0.002499 0.004777
# 5 -0.001498 0.000426 0.006763 -0.002499 0.026743 -0.007691
# 6 0.003465 0.001703 -0.002832 0.004777 -0.007691 0.031631
#
#
# Mechanical properties :
#
#
# Convention : Reuss Voigt Hill
#
# Bulk Modulus (GPa) = 33.16815 53.06012 43.11413
# Shear Modulus (GPa) = 31.16927 39.20520 35.18724
#
# Velocity S-wave (km/s) = 3.42975 3.84654 3.64411
# Velocity P-wave (km/s) = 5.31053 6.30496 5.82899
#
# Compressibility (1/GPa) = 0.03014941
#
# Stress axis : x y z
#
# Youngs Moduli (GPa) = 69.15237 82.12744 57.05385
#
# Poissons Ratio (x) = 0.14072 0.11763
# Poissons Ratio (y) = 0.11849 0.18442
# Poissons Ratio (z) = 0.14257 0.26546
#
# Static dielectric constant tensor:
#      x y z
#    x 2.090060 -0.043150 -0.020810 
#    y -0.043150 2.197220 -0.049470 
#    z -0.020810 -0.049470 2.085700 
# 
# From -- ./inp_files/263246.got.cif
#   From: 2010.05.17/outbox.cif.g08.bks.cpg/sg2_132_cif.got.tgz:263246.got - 2010.06.03 11:33:40.
