data_PCOD9090591
_publ_section_title
;
Structure prediction by ZEFSAII (Michael W. Deem and Ramdas Pophale) SiO2 
 PCOD9090591
Probable space group: P -1
;
_chemical_formula_sum "Si O2"
_cell_formula_units_Z 16
_cell_length_a 6.049954
_cell_length_b 18.583541
_cell_length_c 7.729060
_cell_angle_alpha 75.157955
_cell_angle_beta 72.740540
_cell_angle_gamma 119.401198
_cell_volume 633.057912
_symmetry_space_group_name_H-M "P -1"
_symmetry_group_IT_number 2
_symmetry_cell_setting 'triclinic'
loop_
_space_group_symop_operation_xyz
x,y,z
-x,-y,-z
loop_
_atom_site_type_symbol
_atom_site_label
_atom_site_fract_x
_atom_site_fract_y
_atom_site_fract_z
Si Si1 0.555461 0.780158 0.913506
Si Si2 0.961805 0.573341 0.886494
Si Si3 0.080942 0.100709 0.908429
Si Si4 0.452576 0.718738 0.437546
Si Si5 0.394643 0.903491 0.802941
Si Si6 0.077548 0.290893 0.529886
Si Si7 0.577729 0.613454 0.976366
Si Si8 0.877291 0.109682 0.499542
O O1 0.344216 0.807291 0.913690
O O2 0.491358 0.679893 0.004275
O O3 0.793754 0.837477 0.671927
O O4 0.725058 0.834653 0.014517
O O5 0.830298 0.613675 0.007778
O O6 0.260907 0.661102 0.684390
O O7 0.699965 0.495466 0.867614
O O8 0.000000 0.500000 0.000000
O O9 0.311025 0.168437 0.666032
O O10 0.786556 0.088024 0.015723
O O11 0.000000 0.000000 0.000000
O O12 0.683273 0.692660 0.393355
O O13 0.173926 0.693944 0.397350
O O14 0.281866 0.897214 0.638595
O O15 0.718557 0.004355 0.671291
O O16 0.271979 0.348895 0.275365
O O17 0.885418 0.181386 0.581940
#
# Coordination Sequence:
#
# PCOD9090591 Si02
#       8
#     2   2   2   2   2   2   2   2
#     4  10  22  38  61  89 124 167 211 271 320 384
#     4  10  19  38  67  98 125 158 202 268 333 390
#     4  11  26  42  58  86 128 180 225 258 308 378
#     4  11  24  39  62  94 130 170 216 260 317 386
#     4  10  21  38  60  83 122 167 219 266 324 373
#     4  10  21  36  63  93 127 163 206 268 324 380
#     4   9  20  37  62  99 127 153 205 267 334 384
#     4   9  20  35  58  91 118 158 213 273 323 376
#
# _framework density 25.274145999999998
#
# number of rings (size 3 to 8) (size 9 to 14) (size 15 to 20)
#    0.000    2.000    1.250    1.125    7.000    2.500 
#    0.000    0.625    0.000    1.500    0.000    0.000 
#    0.000    0.000    0.000    0.000    0.000    0.000 
#
# Total GULP energy -89101.274208 kJ/mol
# GULP energy per Si atom -5568.829638 kJ/mol
# Density = 2.521662 g / cm^3
# Si number density = 25.274146 Si / 1000 Ang^3
#
#
#
# Elastic Constant Matrix: (Units=GPa)
#
#
# Indices 1 2 3 4 5 6 
#
# 1 150.9231 42.4058 14.3685 -2.4067 -5.8342 -42.8718
# 2 42.4058 147.6352 48.9397 -37.6130 -4.7956 -28.1997
# 3 14.3685 48.9397 73.5344 -25.3235 -12.1921 -1.0390
# 4 -2.4067 -37.6130 -25.3235 40.2593 4.4824 2.4165
# 5 -5.8342 -4.7956 -12.1921 4.4824 41.0895 -4.8807
# 6 -42.8718 -28.1997 -1.0390 2.4165 -4.8807 50.6391
#
#
#
# Elastic Compliance Matrix: (Units=1/GPa)
#
#
# Indices 1 2 3 4 5 6 
#
# 1 0.009240 -0.001316 -0.001238 -0.002107 0.001894 0.007348
# 2 -0.001316 0.011573 -0.004912 0.007413 -0.000529 0.004825
# 3 -0.001238 -0.004912 0.020480 0.007968 0.004060 -0.003352
# 4 -0.002107 0.007413 0.007968 0.036722 -0.000997 0.000659
# 5 0.001894 -0.000529 0.004060 -0.000997 0.026330 0.003977
# 6 0.007348 0.004825 -0.003352 0.000659 0.003977 0.028939
#
#
# Mechanical properties :
#
#
# Convention : Reuss Voigt Hill
#
# Bulk Modulus (GPa) = 37.93238 64.83561 51.38399
# Shear Modulus (GPa) = 31.84683 44.15617 38.00150
#
# Velocity S-wave (km/s) = 3.55358 4.18435 3.88180
# Velocity P-wave (km/s) = 5.64608 7.00384 6.36128
#
# Compressibility (1/GPa) = 0.02636270
#
# Stress axis : x y z
#
# Youngs Moduli (GPa) = 108.22143 86.41125 48.82891
#
# Poissons Ratio (x) = 0.11368 0.06044
# Poissons Ratio (y) = 0.14238 0.23982
# Poissons Ratio (z) = 0.13396 0.42441
#
# Static dielectric constant tensor:
#      x y z
#    x 2.085450 0.048320 -0.305100 
#    y 0.048320 1.978950 0.087800 
#    z -0.305100 0.087800 1.459380 
# 
# From -- ./inp_files/138863.got.cif
#   From: 2010.05.17/outbox.cif.g08.bks.cpg/sg2_70_cif.got.tgz:138863.got - 2010.06.03 11:33:40.
