data_PCOD9090883
_publ_section_title
;
Structure prediction by ZEFSAII (Michael W. Deem and Ramdas Pophale) SiO2 
 PCOD9090883
Probable space group: P -1
;
_chemical_formula_sum "Si O2"
_cell_formula_units_Z 16
_cell_length_a 9.987319
_cell_length_b 8.992603
_cell_length_c 11.489778
_cell_angle_alpha 54.809209
_cell_angle_beta 108.356847
_cell_angle_gamma 126.843911
_cell_volume 674.147445
_symmetry_space_group_name_H-M "P -1"
_symmetry_group_IT_number 2
_symmetry_cell_setting 'triclinic'
loop_
_space_group_symop_operation_xyz
x,y,z
-x,-y,-z
loop_
_atom_site_type_symbol
_atom_site_label
_atom_site_fract_x
_atom_site_fract_y
_atom_site_fract_z
Si Si1 0.064155 0.510470 0.142620
Si Si2 0.329601 0.993282 0.978773
Si Si3 0.715948 0.781927 0.929760
Si Si4 0.345727 0.283335 0.667052
Si Si5 0.825045 0.319827 0.374641
Si Si6 0.106235 0.771493 0.328345
Si Si7 0.408813 0.569886 0.778482
Si Si8 0.715959 0.462545 0.628595
O O1 0.168482 0.768300 0.075055
O O2 0.209214 0.476010 0.247565
O O3 0.916047 0.357033 0.260023
O O4 0.000000 0.500000 0.000000
O O5 0.371233 0.155648 0.022738
O O6 0.500000 0.000000 0.000000
O O7 0.272536 0.064603 0.817254
O O8 0.586935 0.667288 0.842202
O O9 0.864677 0.012105 0.819688
O O10 0.727869 0.603124 0.085721
O O11 0.399614 0.460322 0.703775
O O12 0.515656 0.325239 0.637697
O O13 0.239249 0.325664 0.527792
O O14 0.852802 0.191528 0.539899
O O15 0.636879 0.252006 0.333876
O O16 0.922348 0.564155 0.346382
O O17 0.218860 0.678590 0.351294
#
# Coordination Sequence:
#
# PCOD9090883 Si02
#       8
#     2   2   2   2   2   2   2   2
#     4  11  24  40  61  89 121 158 203 251 302 359
#     4  11  20  39  62  89 115 160 210 244 296 363
#     4  10  21  37  58  89 121 154 203 247 292 356
#     4  10  20  36  63  89 122 156 199 252 296 354
#     4  10  21  38  56  85 121 155 193 241 299 362
#     4  10  19  39  61  85 116 160 201 236 302 358
#     4  10  22  35  57  92 124 154 196 250 303 341
#     4  10  19  39  62  89 118 158 198 251 301 350
#
# _framework density 23.733681000000001
#
# number of rings (size 3 to 8) (size 9 to 14) (size 15 to 20)
#    0.000    1.750    5.000    0.000    1.750    2.000 
#    0.000    1.875    0.000    0.000    0.000    0.000 
#    0.000    0.000    0.000    0.000    0.000    0.000 
#
# Total GULP energy -89176.223073 kJ/mol
# GULP energy per Si atom -5573.513942 kJ/mol
# Density = 2.367966 g / cm^3
# Si number density = 23.733681 Si / 1000 Ang^3
#
#
#
# Elastic Constant Matrix: (Units=GPa)
#
#
# Indices 1 2 3 4 5 6 
#
# 1 57.8074 -5.7948 -0.4117 10.7682 -1.4786 4.2292
# 2 -5.7948 33.7004 17.2905 9.9040 4.5852 -2.7744
# 3 -0.4117 17.2905 180.8015 20.8205 6.6146 -3.8009
# 4 10.7682 9.9040 20.8205 43.9462 5.5142 -1.5281
# 5 -1.4786 4.5852 6.6146 5.5142 31.7066 2.0462
# 6 4.2292 -2.7744 -3.8009 -1.5281 2.0462 6.1614
#
#
#
# Elastic Compliance Matrix: (Units=1/GPa)
#
#
# Indices 1 2 3 4 5 6 
#
# 1 0.020034 0.003840 0.000046 -0.006606 0.002451 -0.014446
# 2 0.003840 0.034942 -0.002154 -0.006903 -0.003958 0.011372
# 3 0.000046 -0.002154 0.006071 -0.002227 -0.000723 0.002431
# 4 -0.006606 -0.006903 -0.002227 0.027804 -0.004220 0.008349
# 5 0.002451 -0.003958 -0.000723 -0.004220 0.034162 -0.016302
# 6 -0.014446 0.011372 0.002431 0.008349 -0.016302 0.186323
#
#
# Mechanical properties :
#
#
# Convention : Reuss Voigt Hill
#
# Bulk Modulus (GPa) = 15.50128 32.71972 24.11050
# Shear Modulus (GPa) = 15.27293 33.77786 24.52539
#
# Velocity S-wave (km/s) = 2.53951 3.77663 3.21808
# Velocity P-wave (km/s) = 3.89157 5.73004 4.89784
#
# Compressibility (1/GPa) = 0.06451079
#
# Stress axis : x y z
#
# Youngs Moduli (GPa) = 49.91467 28.61878 164.71713
#
# Poissons Ratio (x) = -0.10990 -0.00754
# Poissons Ratio (y) = -0.19168 0.35481
# Poissons Ratio (z) = -0.00228 0.06165
#
# Static dielectric constant tensor:
#      x y z
#    x 1.921970 0.006130 -0.026440 
#    y 0.006130 1.920240 -0.026990 
#    z -0.026440 -0.026990 2.022670 
# 
# From -- ./inp_files/427648.got.cif
#   From: 2010.05.17/outbox.cif.g08.bks.cpg/sg2_214_cif.got.tgz:427648.got - 2010.06.03 11:33:40.
