data_PCOD9090409
_publ_section_title
;
Structure prediction by ZEFSAII (Michael W. Deem and Ramdas Pophale) SiO2 
 PCOD9090409
Probable space group: P -1
;
_chemical_formula_sum "Si O2"
_cell_formula_units_Z 16
_cell_length_a 8.665529
_cell_length_b 8.180808
_cell_length_c 19.623066
_cell_angle_alpha 58.167874
_cell_angle_beta 117.454969
_cell_angle_gamma 146.432793
_cell_volume 652.785956
_symmetry_space_group_name_H-M "P -1"
_symmetry_group_IT_number 2
_symmetry_cell_setting 'triclinic'
loop_
_space_group_symop_operation_xyz
x,y,z
-x,-y,-z
loop_
_atom_site_type_symbol
_atom_site_label
_atom_site_fract_x
_atom_site_fract_y
_atom_site_fract_z
Si Si1 0.424607 0.442643 0.821975
Si Si2 0.273710 0.770942 0.946760
Si Si3 0.301399 0.175195 0.999569
Si Si4 0.316567 0.861799 0.404080
Si Si5 0.134370 0.840253 0.230280
Si Si6 0.889603 0.287533 0.219306
Si Si7 0.557770 0.392801 0.714892
Si Si8 0.744659 0.496314 0.422575
O O1 0.323998 0.219884 0.912360
O O2 0.541832 0.428506 0.784846
O O3 0.144752 0.297808 0.769282
O O4 0.641936 0.793316 0.816243
O O5 0.122674 0.738549 0.859163
O O6 0.509726 0.845485 0.935579
O O7 0.000000 0.500000 0.000000
O O8 0.500000 0.000000 0.000000
O O9 0.500000 0.500000 0.000000
O O10 0.000000 0.000000 0.000000
O O11 0.253802 0.819705 0.321246
O O12 0.306782 0.642941 0.483369
O O13 0.072114 0.772346 0.411839
O O14 0.600326 0.216355 0.403483
O O15 0.001077 0.595042 0.196440
O O16 0.115365 0.344335 0.287905
O O17 0.593024 0.941981 0.255767
O O18 0.402215 0.428351 0.636396
#
# Coordination Sequence:
#
# PCOD9090409 Si02
#       8
#     2   2   2   2   2   2   2   2
#     4  12  24  41  71  95 130 174 239 286 339 418
#     4  12  26  49  70  95 135 190 237 283 362 437
#     4  12  26  44  67 100 134 174 230 302 359 410
#     4  10  19  38  65  99 135 175 221 282 343 408
#     4  12  23  43  64 103 135 179 221 284 357 415
#     4  12  27  42  67  96 142 176 223 292 355 420
#     4  12  23  44  65 103 130 180 235 284 335 413
#     4  10  20  37  66  99 133 174 229 282 330 408
#
# _framework density 24.51033
#
# number of rings (size 3 to 8) (size 9 to 14) (size 15 to 20)
#    0.000    0.500    2.500    6.750    0.000    2.000 
#    0.000    1.250    0.000    0.000    0.000    0.000 
#    0.000    0.000    0.000    0.000    0.000    0.000 
#
# Total GULP energy -89155.164564 kJ/mol
# GULP energy per Si atom -5572.197785 kJ/mol
# Density = 2.445454 g / cm^3
# Si number density = 24.510330 Si / 1000 Ang^3
#
#
#
# Elastic Constant Matrix: (Units=GPa)
#
#
# Indices 1 2 3 4 5 6 
#
# 1 70.4513 31.6238 14.6557 0.3938 14.0668 18.3568
# 2 31.6238 155.2647 31.8718 14.1932 2.5766 14.9387
# 3 14.6557 31.8718 113.9424 3.4458 14.5136 3.1922
# 4 0.3938 14.1932 3.4458 37.2860 4.8812 -0.1675
# 5 14.0668 2.5766 14.5136 4.8812 31.2351 9.1478
# 6 18.3568 14.9387 3.1922 -0.1675 9.1478 46.8203
#
#
#
# Elastic Compliance Matrix: (Units=1/GPa)
#
#
# Indices 1 2 3 4 5 6 
#
# 1 0.018320 -0.003225 -0.000534 0.001929 -0.006628 -0.004816
# 2 -0.003225 0.007912 -0.002001 -0.003155 0.002710 -0.001664
# 3 -0.000534 -0.002001 0.009947 0.000455 -0.004601 0.001070
# 4 0.001929 -0.003155 0.000455 0.028715 -0.005730 0.001441
# 5 -0.006628 0.002710 -0.004601 -0.005730 0.039475 -0.005686
# 6 -0.004816 -0.001664 0.001070 0.001441 -0.005686 0.024820
#
#
# Mechanical properties :
#
#
# Convention : Reuss Voigt Hill
#
# Bulk Modulus (GPa) = 40.55269 55.10678 47.82974
# Shear Modulus (GPa) = 33.57304 40.50208 37.03756
#
# Velocity S-wave (km/s) = 3.70503 4.06944 3.89150
# Velocity P-wave (km/s) = 5.90627 6.67925 6.30462
#
# Compressibility (1/GPa) = 0.02465927
#
# Stress axis : x y z
#
# Youngs Moduli (GPa) = 54.58491 126.39242 100.53115
#
# Poissons Ratio (x) = 0.40761 0.05364
# Poissons Ratio (y) = 0.17603 0.20121
# Poissons Ratio (z) = 0.02912 0.25297
#
# Static dielectric constant tensor:
#      x y z
#    x 2.233650 -0.097230 0.136630 
#    y -0.097230 1.897310 -0.114250 
#    z 0.136630 -0.114250 1.987490 
# 
# From -- ./inp_files/227978.got.cif
#   From: 2010.05.17/outbox.cif.g08.bks.cpg/sg2_114_cif.got.tgz:227978.got - 2010.06.03 11:33:40.
