data_PCOD9090795
_publ_section_title
;
Structure prediction by ZEFSAII (Michael W. Deem and Ramdas Pophale) SiO2 
 PCOD9090795
Probable space group: P -1
;
_chemical_formula_sum "Si O2"
_cell_formula_units_Z 14
_cell_length_a 12.647492
_cell_length_b 9.524959
_cell_length_c 11.343020
_cell_angle_alpha 52.801324
_cell_angle_beta 134.196160
_cell_angle_gamma 148.450847
_cell_volume 512.403087
_symmetry_space_group_name_H-M "P -1"
_symmetry_group_IT_number 2
_symmetry_cell_setting 'triclinic'
loop_
_space_group_symop_operation_xyz
x,y,z
-x,-y,-z
loop_
_atom_site_type_symbol
_atom_site_label
_atom_site_fract_x
_atom_site_fract_y
_atom_site_fract_z
Si Si1 0.972015 0.498767 0.620662
Si Si2 0.163002 0.998656 0.434126
Si Si3 0.554773 0.079945 0.665383
Si Si4 0.991806 0.784369 0.815226
Si Si5 0.280926 0.734822 0.031184
Si Si6 0.382581 0.242864 0.053767
Si Si7 0.909484 0.769765 0.100905
O O1 0.724393 0.257023 0.600295
O O2 0.102928 0.457786 0.805551
O O3 0.000000 0.500000 0.500000
O O4 0.053848 0.771452 0.559956
O O5 0.384687 0.090718 0.525689
O O6 0.146590 0.185071 0.369524
O O7 0.024714 0.885262 0.262395
O O8 0.655239 0.188302 0.819937
O O9 0.503116 0.822740 0.760118
O O10 0.818875 0.554351 0.897926
O O11 0.233012 0.067489 0.909513
O O12 0.079396 0.687629 0.868731
O O13 0.500000 0.000000 0.000000
O O14 0.371395 0.451977 0.976456
O O15 0.131836 0.026020 0.057753
#
# Coordination Sequence:
#
# PCOD9090795 Si02
#       7
#     2   2   2   2   2   2   2
#     4  10  22  40  62  94 142 182 222 274 349 409
#     4  10  23  40  63  99 138 177 221 282 358 413
#     4  11  23  41  65  99 135 183 230 287 338 417
#     4   9  22  45  66  98 140 176 226 296 340 412
#     4  10  23  46  74 100 131 179 241 293 346 407
#     4  10  20  39  64  98 133 178 227 273 344 414
#     4  10  19  39  59  89 133 183 219 277 328 402
#
# _framework density 27.322237999999999
#
# number of rings (size 3 to 8) (size 9 to 14) (size 15 to 20)
#    0.000    2.000    1.429    0.857    0.000    8.571 
#   18.000    1.429    0.000    0.000    0.000    0.000 
#    0.000    0.000    0.000    0.000    0.000    0.000 
#
# Total GULP energy -78080.729203 kJ/mol
# GULP energy per Si atom -5577.194943 kJ/mol
# Density = 2.726005 g / cm^3
# Si number density = 27.322238 Si / 1000 Ang^3
#
#
#
# Elastic Constant Matrix: (Units=GPa)
#
#
# Indices 1 2 3 4 5 6 
#
# 1 103.0811 62.3402 81.9413 -15.5241 35.3353 38.8995
# 2 62.3402 186.4416 80.1256 -53.7026 21.5450 48.0495
# 3 81.9413 80.1256 226.5361 -41.1871 50.5064 29.2699
# 4 -15.5241 -53.7026 -41.1871 61.6344 1.2674 -7.4369
# 5 35.3353 21.5450 50.5064 1.2674 87.0636 5.5537
# 6 38.8995 48.0495 29.2699 -7.4369 5.5537 51.9483
#
#
#
# Elastic Compliance Matrix: (Units=1/GPa)
#
#
# Indices 1 2 3 4 5 6 
#
# 1 0.019285 -0.001695 -0.004210 -0.000566 -0.004311 -0.010120
# 2 -0.001695 0.010073 -0.000518 0.007232 -0.001189 -0.006593
# 3 -0.004210 -0.000518 0.007246 0.003417 -0.002435 0.000298
# 4 -0.000566 0.007232 0.003417 0.024218 -0.003618 -0.004337
# 5 -0.004311 -0.001189 -0.002435 -0.003618 0.014765 0.003604
# 6 -0.010120 -0.006593 0.000298 -0.004337 0.003604 0.031752
#
#
# Mechanical properties :
#
#
# Convention : Reuss Voigt Hill
#
# Bulk Modulus (GPa) = 42.09190 107.20811 74.65000
# Shear Modulus (GPa) = 39.03064 59.57272 49.30168
#
# Velocity S-wave (km/s) = 3.78369 4.67451 4.25249
# Velocity P-wave (km/s) = 5.87602 8.27396 7.17586
#
# Compressibility (1/GPa) = 0.02375754
#
# Stress axis : x y z
#
# Youngs Moduli (GPa) = 51.85414 99.27788 138.01039
#
# Poissons Ratio (x) = 0.16832 0.58102
# Poissons Ratio (y) = 0.08792 0.07142
# Poissons Ratio (z) = 0.21830 0.05138
#
# Static dielectric constant tensor:
#      x y z
#    x 2.473720 -0.133670 0.133600 
#    y -0.133670 2.369670 -0.058530 
#    z 0.133600 -0.058530 2.112970 
# 
# From -- ./inp_files/531652.got.cif
#   From: 2010.05.17/outbox.cif.g08.bks.cpg/sg2_266_cif.got.tgz:531652.got - 2010.06.03 11:33:40.
