data_PCOD9090036
_publ_section_title
;
Structure prediction by ZEFSAII (Michael W. Deem and Ramdas Pophale) SiO2 
 PCOD9090036
Probable space group: P -1
;
_chemical_formula_sum "Si O2"
_cell_formula_units_Z 16
_cell_length_a 8.651625
_cell_length_b 27.910727
_cell_length_c 8.406382
_cell_angle_alpha 42.038657
_cell_angle_beta 132.707080
_cell_angle_gamma 145.801719
_cell_volume 752.887557
_symmetry_space_group_name_H-M "P -1"
_symmetry_group_IT_number 2
_symmetry_cell_setting 'triclinic'
loop_
_space_group_symop_operation_xyz
x,y,z
-x,-y,-z
loop_
_atom_site_type_symbol
_atom_site_label
_atom_site_fract_x
_atom_site_fract_y
_atom_site_fract_z
Si Si1 0.536194 0.289126 0.000930
Si Si2 0.911187 0.528401 0.216786
Si Si3 0.972767 0.768920 0.032821
Si Si4 0.835042 0.027777 0.745711
Si Si5 0.676035 0.630742 0.877277
Si Si6 0.648932 0.176008 0.572991
Si Si7 0.675202 0.016737 0.318136
Si Si8 0.164118 0.224148 0.620792
O O1 0.576335 0.231120 0.289877
O O2 0.385461 0.234870 0.863100
O O3 0.313088 0.292816 0.914354
O O4 0.824038 0.391213 0.903303
O O5 0.656566 0.439461 0.153492
O O6 0.000000 0.500000 0.500000
O O7 0.781502 0.573310 0.082300
O O8 0.220720 0.782695 0.263752
O O9 0.086669 0.875689 0.836137
O O10 0.879689 0.715268 0.934244
O O11 0.749404 0.992794 0.592207
O O12 0.038331 0.141664 0.608640
O O13 0.578158 0.990377 0.774655
O O14 0.000000 0.000000 0.000000
O O15 0.708672 0.678465 0.614607
O O16 0.901524 0.193168 0.614506
O O17 0.410111 0.061642 0.677794
#
# Coordination Sequence:
#
# PCOD9090036 Si02
#       8
#     2   2   2   2   2   2   2   2
#     4  11  23  41  65  93 125 168 210 256 318 379
#     4  11  24  43  71  94 118 161 214 263 324 384
#     4  11  25  40  62  96 135 164 205 259 314 372
#     4  10  20  33  59  94 128 163 215 263 296 357
#     4  11  23  42  67  94 122 158 210 270 311 373
#     4  10  22  40  61  89 132 174 202 252 308 373
#     4  10  21  38  58  91 131 173 211 249 305 367
#     4  10  19  38  63  88 125 162 212 255 308 366
#
# _framework density 21.251514
#
# number of rings (size 3 to 8) (size 9 to 14) (size 15 to 20)
#    0.000    1.500    3.750    1.125    0.000    4.000 
#    0.000    1.250    0.000    0.000    0.000    0.000 
#    0.000    0.000    0.000    0.000    0.000    0.000 
#
# Total GULP energy -89332.815523 kJ/mol
# GULP energy per Si atom -5583.300970 kJ/mol
# Density = 2.120314 g / cm^3
# Si number density = 21.251514 Si / 1000 Ang^3
#
#
#
# Elastic Constant Matrix: (Units=GPa)
#
#
# Indices 1 2 3 4 5 6 
#
# 1 3.0299 3.0405 21.4486 4.1700 -7.8492 8.0656
# 2 3.0405 86.9318 40.0808 2.4800 -5.2944 4.7931
# 3 21.4486 40.0808 137.2831 19.0930 9.3690 -2.9203
# 4 4.1700 2.4800 19.0930 35.6725 -0.9886 -9.1311
# 5 -7.8492 -5.2944 9.3690 -0.9886 20.4106 4.0526
# 6 8.0656 4.7931 -2.9203 -9.1311 4.0526 31.1320
#
#
#
# Elastic Compliance Matrix: (Units=1/GPa)
#
#
# Indices 1 2 3 4 5 6 
#
# 1 -0.100716 -0.013490 0.023440 0.008951 -0.060677 0.040893
# 2 -0.013490 0.012472 -0.001680 0.002141 -0.001523 0.002243
# 3 0.023440 -0.001680 0.004351 -0.006898 0.007927 -0.008461
# 4 0.008951 0.002141 -0.006898 0.032049 0.007703 0.005101
# 5 -0.060677 -0.001523 0.007927 0.007703 0.018719 0.016521
# 6 0.040893 0.002243 -0.008461 0.005101 0.016521 0.019733
#
#
# Mechanical properties :
#
#
# Convention : Reuss Voigt Hill
#
# Bulk Modulus (GPa) = -14.84718 39.59828 12.37555
# Shear Modulus (GPa) = -95.44983 28.28801 -33.58091
#
# Velocity S-wave (km/s) = -6.70909 3.65239 -3.97944
# Velocity P-wave (km/s) = 8.18642 6.03823 3.90878
#
# Compressibility (1/GPa) = -0.06735285
#
# Stress axis : x y z
#
# Youngs Moduli (GPa) = -9.92891 80.17968 229.84215
#
# Poissons Ratio (x) = 1.08163 -5.38749
# Poissons Ratio (y) = -0.13394 0.38607
# Poissons Ratio (z) = 0.23273 0.13468
#
# Static dielectric constant tensor:
#      x y z
#    x 1.749290 -0.001510 -0.023600 
#    y -0.001510 1.851000 0.020300 
#    z -0.023600 0.020300 1.766880 
# 
# From -- ./inp_files/37569.got.cif
#   From: 2010.05.17/outbox.cif.g08.bks.cpg/sg2_19_cif.got.tgz:37569.got - 2010.06.03 11:33:40.
