data_PCOD9090908
_publ_section_title
;
Structure prediction by ZEFSAII (Michael W. Deem and Ramdas Pophale) SiO2 
 PCOD9090908
Probable space group: P -1
;
_chemical_formula_sum "Si O2"
_cell_formula_units_Z 16
_cell_length_a 12.767162
_cell_length_b 11.686101
_cell_length_c 13.719389
_cell_angle_alpha 30.829778
_cell_angle_beta 119.416683
_cell_angle_gamma 97.226300
_cell_volume 684.079904
_symmetry_space_group_name_H-M "P -1"
_symmetry_group_IT_number 2
_symmetry_cell_setting 'triclinic'
loop_
_space_group_symop_operation_xyz
x,y,z
-x,-y,-z
loop_
_atom_site_type_symbol
_atom_site_label
_atom_site_fract_x
_atom_site_fract_y
_atom_site_fract_z
Si Si1 0.615267 0.062840 0.350345
Si Si2 0.054308 0.075107 0.119401
Si Si3 0.651217 0.337101 0.893659
Si Si4 0.122903 0.157522 0.769780
Si Si5 0.861312 0.632181 0.920364
Si Si6 0.286005 0.365383 0.450503
Si Si7 0.285457 0.599920 0.903204
Si Si8 0.323994 0.683076 0.377495
O O1 0.433713 0.318025 0.114963
O O2 0.696354 0.817200 0.650602
O O3 0.628740 0.945745 0.333691
O O4 0.728968 0.143076 0.343981
O O5 0.140980 0.145096 0.177225
O O6 0.168851 0.856903 0.245784
O O7 0.991615 0.916500 0.247318
O O8 0.900333 0.410125 0.768982
O O9 0.721456 0.456129 0.775950
O O10 0.661050 0.385251 0.975468
O O11 0.471529 0.552234 0.611115
O O12 0.759436 0.989192 0.164334
O O13 0.000000 0.500000 0.500000
O O14 0.254659 0.936560 0.076974
O O15 0.857353 0.405179 0.146484
O O16 0.000000 0.500000 0.000000
O O17 0.370178 0.399980 0.548541
#
# Coordination Sequence:
#
# PCOD9090908 Si02
#       8
#     2   2   2   2   2   2   2   2
#     4  11  24  42  64  95 132 172 223 270 331 391
#     4  10  21  38  63  92 125 174 214 261 333 399
#     4  10  20  41  65  92 124 176 219 264 329 400
#     4  10  21  41  62  95 135 163 210 275 334 389
#     4  12  22  44  65  94 132 171 220 270 330 388
#     4  10  19  39  61  89 129 171 212 269 329 391
#     4  11  25  42  66  95 131 174 221 274 330 391
#     4  10  21  38  65  93 122 171 222 259 331 397
#
# _framework density 23.389078999999999
#
# number of rings (size 3 to 8) (size 9 to 14) (size 15 to 20)
#    0.000    1.750    2.500    4.875    1.750    2.500 
#    2.250    5.000    0.000    0.000    0.000    0.000 
#    0.000    0.000    0.000    0.000    0.000    0.000 
#
# Total GULP energy -89121.475402 kJ/mol
# GULP energy per Si atom -5570.092213 kJ/mol
# Density = 2.333584 g / cm^3
# Si number density = 23.389079 Si / 1000 Ang^3
#
#
#
# Elastic Constant Matrix: (Units=GPa)
#
#
# Indices 1 2 3 4 5 6 
#
# 1 90.8960 23.7606 21.8625 -22.5964 12.1990 -5.9898
# 2 23.7606 134.4672 30.9222 -19.7923 12.7130 -4.6590
# 3 21.8625 30.9222 58.5201 -12.6420 22.7766 1.6050
# 4 -22.5964 -19.7923 -12.6420 34.0538 -8.7601 4.0166
# 5 12.1990 12.7130 22.7766 -8.7601 29.3658 -13.0222
# 6 -5.9898 -4.6590 1.6050 4.0166 -13.0222 33.3438
#
#
#
# Elastic Compliance Matrix: (Units=1/GPa)
#
#
# Indices 1 2 3 4 5 6 
#
# 1 0.013917 -0.000528 -0.003369 0.007489 0.000051 0.001706
# 2 -0.000528 0.008962 -0.004408 0.003416 0.001454 0.001526
# 3 -0.003369 -0.004408 0.031872 0.001709 -0.026869 -0.013455
# 4 0.007489 0.003416 0.001709 0.038382 0.005147 -0.000873
# 5 0.000051 0.001454 -0.026869 0.005147 0.067937 0.027418
# 6 0.001706 0.001526 -0.013455 -0.000873 0.027418 0.041971
#
#
# Mechanical properties :
#
#
# Convention : Reuss Voigt Hill
#
# Bulk Modulus (GPa) = 26.21862 48.55267 37.38564
# Shear Modulus (GPa) = 21.51783 33.17521 27.34652
#
# Velocity S-wave (km/s) = 3.03643 3.77026 3.42307
# Velocity P-wave (km/s) = 4.85050 6.30531 5.62513
#
# Compressibility (1/GPa) = 0.03814084
#
# Stress axis : x y z
#
# Youngs Moduli (GPa) = 71.85301 111.58283 31.37510
#
# Poissons Ratio (x) = 0.05889 0.10571
# Poissons Ratio (y) = 0.03792 0.13831
# Poissons Ratio (z) = 0.24209 0.49189
#
# Static dielectric constant tensor:
#      x y z
#    x 1.834790 -0.085630 -0.069780 
#    y -0.085630 1.824430 -0.078640 
#    z -0.069780 -0.078640 1.903100 
# 
# From -- ./inp_files/519500.got.cif
#   From: 2010.05.17/outbox.cif.g08.bks.cpg/sg2_260_cif.got.tgz:519500.got - 2010.06.03 11:33:40.
