data_PCOD9090886
_publ_section_title
;
Structure prediction by ZEFSAII (Michael W. Deem and Ramdas Pophale) SiO2 
 PCOD9090886
Probable space group: P -1
;
_chemical_formula_sum "Si O2"
_cell_formula_units_Z 14
_cell_length_a 7.089686
_cell_length_b 12.689583
_cell_length_c 12.102820
_cell_angle_alpha 38.299291
_cell_angle_beta 97.165892
_cell_angle_gamma 80.846826
_cell_volume 608.289045
_symmetry_space_group_name_H-M "P -1"
_symmetry_group_IT_number 2
_symmetry_cell_setting 'triclinic'
loop_
_space_group_symop_operation_xyz
x,y,z
-x,-y,-z
loop_
_atom_site_type_symbol
_atom_site_label
_atom_site_fract_x
_atom_site_fract_y
_atom_site_fract_z
Si Si1 0.896128 0.156907 0.568723
Si Si2 0.689073 0.866468 0.480534
Si Si3 0.718694 0.562517 0.589991
Si Si4 0.905933 0.208930 0.778906
Si Si5 0.349383 0.219622 0.813299
Si Si6 0.180546 0.458701 0.806822
Si Si7 0.759218 0.830179 0.763163
O O1 0.831905 0.213629 0.644514
O O2 0.787697 0.351532 0.332291
O O3 0.144548 0.100152 0.613259
O O4 0.852305 0.979637 0.679084
O O5 0.606938 0.717782 0.547071
O O6 0.795279 0.789851 0.669272
O O7 0.489959 0.058851 0.328127
O O8 0.748729 0.352600 0.737490
O O9 0.626201 0.668787 0.381755
O O10 0.956940 0.526668 0.671580
O O11 0.110625 0.249114 0.754504
O O12 0.000000 0.000000 0.000000
O O13 0.347986 0.314459 0.852963
O O14 0.500000 0.000000 0.000000
O O15 0.166977 0.347823 0.005261
#
# Coordination Sequence:
#
# PCOD9090886 Si02
#       7
#     2   2   2   2   2   2   2
#     4  11  21  42  66  90 129 171 210 265 329 374
#     4  10  23  43  66  89 136 165 213 279 305 385
#     4  10  19  39  61  85 125 167 202 254 332 370
#     4  11  21  38  59  93 125 160 214 265 313 395
#     4  11  19  35  60  85 122 164 200 251 328 371
#     4  10  20  37  63  90 127 166 211 265 315 380
#     4  11  24  43  64  99 123 171 228 257 320 381
#
# _framework density 23.015374000000001
#
# number of rings (size 3 to 8) (size 9 to 14) (size 15 to 20)
#    0.000    1.429    4.286    3.857    0.000    2.286 
#    2.571    8.571    0.000    0.000    0.000    0.000 
#    0.000    0.000    0.000    0.000    0.000    0.000 
#
# Total GULP energy -78129.164236 kJ/mol
# GULP energy per Si atom -5580.654588 kJ/mol
# Density = 2.296299 g / cm^3
# Si number density = 23.015374 Si / 1000 Ang^3
#
#
#
# Elastic Constant Matrix: (Units=GPa)
#
#
# Indices 1 2 3 4 5 6 
#
# 1 67.4338 -3.9134 0.7405 10.3256 -7.7830 5.3552
# 2 -3.9134 71.7187 12.4691 9.4331 -17.6397 10.4658
# 3 0.7405 12.4691 143.2446 -5.3976 -17.0751 12.1381
# 4 10.3256 9.4331 -5.3976 31.7010 -0.4002 1.3826
# 5 -7.7830 -17.6397 -17.0751 -0.4002 29.2488 -7.9087
# 6 5.3552 10.4658 12.1381 1.3826 -7.9087 28.9881
#
#
#
# Elastic Compliance Matrix: (Units=1/GPa)
#
#
# Indices 1 2 3 4 5 6 
#
# 1 0.016904 0.003565 0.000303 -0.006326 0.006039 -0.002587
# 2 0.003565 0.018199 -0.000240 -0.006312 0.010636 -0.003926
# 3 0.000303 -0.000240 0.007701 0.001429 0.003853 -0.002211
# 4 -0.006326 -0.006312 0.001429 0.035674 -0.004164 0.000011
# 5 0.006039 0.010636 0.003853 -0.004164 0.046080 0.006201
# 6 -0.002587 -0.003926 -0.002211 0.000011 0.006201 0.039009
#
#
# Mechanical properties :
#
#
# Convention : Reuss Voigt Hill
#
# Bulk Modulus (GPa) = 19.97652 33.44330 26.70991
# Shear Modulus (GPa) = 28.90215 36.19431 32.54823
#
# Velocity S-wave (km/s) = 3.54754 3.96992 3.76466
# Velocity P-wave (km/s) = 5.04762 5.96457 5.52515
#
# Compressibility (1/GPa) = 0.05005877
#
# Stress axis : x y z
#
# Youngs Moduli (GPa) = 59.15772 54.94921 129.85501
#
# Poissons Ratio (x) = -0.19587 -0.03935
# Poissons Ratio (y) = -0.21087 0.03115
# Poissons Ratio (z) = -0.01793 0.01318
#
# Static dielectric constant tensor:
#      x y z
#    x 1.932470 -0.041090 -0.004280 
#    y -0.041090 1.890330 -0.018930 
#    z -0.004280 -0.018930 1.840160 
# 
# From -- ./inp_files/178354.got.cif
#   From: 2010.05.17/outbox.cif.g08.bks.cpg/sg2_90_cif.got.tgz:178354.got - 2010.06.03 11:33:40.
