data_PCOD9090052
_publ_section_title
;
Structure prediction by ZEFSAII (Michael W. Deem and Ramdas Pophale) SiO2 
 PCOD9090052
Probable space group: P -1
;
_chemical_formula_sum "Si O2"
_cell_formula_units_Z 16
_cell_length_a 9.442724
_cell_length_b 12.170711
_cell_length_c 10.463576
_cell_angle_alpha 55.453882
_cell_angle_beta 75.351632
_cell_angle_gamma 56.157292
_cell_volume 819.177106
_symmetry_space_group_name_H-M "P -1"
_symmetry_group_IT_number 2
_symmetry_cell_setting 'triclinic'
loop_
_space_group_symop_operation_xyz
x,y,z
-x,-y,-z
loop_
_atom_site_type_symbol
_atom_site_label
_atom_site_fract_x
_atom_site_fract_y
_atom_site_fract_z
Si Si1 0.394790 0.658310 0.005450
Si Si2 0.067224 0.464825 0.712708
Si Si3 0.072083 0.678375 0.970804
Si Si4 0.058122 0.993420 0.342512
Si Si5 0.720206 0.028870 0.323115
Si Si6 0.754398 0.711935 0.465955
Si Si7 0.613451 0.215272 0.476430
Si Si8 0.695847 0.476910 0.213952
O O1 0.507293 0.621475 0.130828
O O2 0.500000 0.500000 0.000000
O O3 0.206071 0.683709 0.035696
O O4 0.372878 0.810997 0.841470
O O5 0.141176 0.357699 0.641923
O O6 0.202398 0.510863 0.699052
O O7 0.884492 0.614394 0.615691
O O8 0.040619 0.372107 0.893390
O O9 0.185541 0.554900 0.916442
O O10 0.974715 0.842860 0.810534
O O11 0.924497 0.963238 0.317782
O O12 0.258990 0.867355 0.379661
O O13 0.000000 0.000000 0.500000
O O14 0.656620 0.084101 0.445708
O O15 0.692279 0.892964 0.374278
O O16 0.587411 0.697516 0.511256
O O17 0.669130 0.331372 0.330410
#
# Coordination Sequence:
#
# PCOD9090052 Si02
#       8
#     2   2   2   2   2   2   2   2
#     4   9  17  34  62  94 120 145 198 258 311 353
#     4  11  26  42  57  86 129 170 204 243 302 368
#     4  10  19  38  63  90 121 155 201 256 308 355
#     4   9  17  34  62  94 120 145 198 258 311 353
#     4  10  19  38  63  90 121 155 201 256 308 355
#     4  11  26  42  57  86 129 170 204 243 302 368
#     4  11  20  37  65  91 118 156 206 259 302 357
#     4  11  20  37  65  91 118 156 206 259 302 357
#
# _framework density 19.531797000000001
#
# number of rings (size 3 to 8) (size 9 to 14) (size 15 to 20)
#    0.000    1.750    5.000    2.250    3.500    1.500 
#    0.000    6.250    0.000    0.000    0.000    0.000 
#    0.000    0.000    0.000    0.000    0.000    0.000 
#
# Total GULP energy -89227.644938 kJ/mol
# GULP energy per Si atom -5576.727809 kJ/mol
# Density = 1.948734 g / cm^3
# Si number density = 19.531797 Si / 1000 Ang^3
#
#
#
# Elastic Constant Matrix: (Units=GPa)
#
#
# Indices 1 2 3 4 5 6 
#
# 1 96.1867 24.6373 47.0267 -17.2412 13.1753 -5.6494
# 2 24.6373 35.7956 35.1861 -8.2314 -9.6581 -1.3674
# 3 47.0267 35.1861 73.0919 -18.2632 8.2146 2.9372
# 4 -17.2412 -8.2314 -18.2632 13.7291 -6.1036 7.6219
# 5 13.1753 -9.6581 8.2146 -6.1036 38.4877 -12.2210
# 6 -5.6494 -1.3674 2.9372 7.6219 -12.2210 20.8673
#
#
#
# Elastic Compliance Matrix: (Units=1/GPa)
#
#
# Indices 1 2 3 4 5 6 
#
# 1 0.016579 -0.006168 -0.004593 0.009722 -0.005315 -0.001933
# 2 -0.006168 0.103860 -0.065265 -0.042227 0.055099 0.062015
# 3 -0.004593 -0.065265 0.072518 0.069690 -0.039688 -0.064426
# 4 0.009722 -0.042227 0.069690 0.193771 -0.029115 -0.097771
# 5 -0.005315 0.055099 -0.039688 -0.029115 0.063046 0.055316
# 6 -0.001933 0.062015 -0.064426 -0.097771 0.055316 0.128638
#
#
# Mechanical properties :
#
#
# Convention : Reuss Voigt Hill
#
# Bulk Modulus (GPa) = 24.44728 46.53049 35.48888
# Shear Modulus (GPa) = 6.71953 21.16509 13.94231
#
# Velocity S-wave (km/s) = 1.85682 3.29541 2.67465
# Velocity P-wave (km/s) = 4.14015 6.19309 5.26760
#
# Compressibility (1/GPa) = 0.04090435
#
# Stress axis : x y z
#
# Youngs Moduli (GPa) = 60.31623 9.62831 13.78977
#
# Poissons Ratio (x) = 0.05939 0.06334
# Poissons Ratio (y) = 0.37204 0.89999
# Poissons Ratio (z) = 0.27706 0.62839
#
# Static dielectric constant tensor:
#      x y z
#    x 1.730480 -0.018660 0.037170 
#    y -0.018660 1.679670 -0.005320 
#    z 0.037170 -0.005320 1.688560 
# 
# From -- ./inp_files/386876.got.cif
#   From: 2010.05.17/outbox.cif.g08.bks.cpg/sg2_194_cif.got.tgz:386876.got - 2010.06.03 11:33:40.
