data_PCOD9090616
_publ_section_title
;
Structure prediction by ZEFSAII (Michael W. Deem and Ramdas Pophale) SiO2 
 PCOD9090616
Probable space group: P -1
;
_chemical_formula_sum "Si O2"
_cell_formula_units_Z 16
_cell_length_a 18.957244
_cell_length_b 13.083567
_cell_length_c 11.547407
_cell_angle_alpha 128.952203
_cell_angle_beta 149.193682
_cell_angle_gamma 33.259075
_cell_volume 762.458612
_symmetry_space_group_name_H-M "P -1"
_symmetry_group_IT_number 2
_symmetry_cell_setting 'triclinic'
loop_
_space_group_symop_operation_xyz
x,y,z
-x,-y,-z
loop_
_atom_site_type_symbol
_atom_site_label
_atom_site_fract_x
_atom_site_fract_y
_atom_site_fract_z
Si Si1 0.838362 0.708675 0.994943
Si Si2 0.038793 0.128390 0.135369
Si Si3 0.226538 0.808286 0.592400
Si Si4 0.268127 0.703629 0.836227
Si Si5 0.863248 0.935993 0.028282
Si Si6 0.580154 0.536368 0.744125
Si Si7 0.118208 0.176728 0.633004
Si Si8 0.422364 0.921236 0.691508
O O1 0.608729 0.830318 0.803025
O O2 0.803784 0.859954 0.973061
O O3 0.932667 0.688922 0.237753
O O4 0.000000 0.500000 0.000000
O O5 0.222129 0.026409 0.409012
O O6 0.114082 0.122197 0.111701
O O7 0.814397 0.353133 0.981493
O O8 0.000000 0.000000 0.000000
O O9 0.186112 0.797109 0.658075
O O10 0.448753 0.601366 0.719517
O O11 0.075451 0.844671 0.314524
O O12 0.213189 0.974508 0.676315
O O13 0.098378 0.720400 0.654717
O O14 0.274401 0.836275 0.006379
O O15 0.500000 0.500000 0.000000
O O16 0.500000 0.500000 0.500000
O O17 0.519951 0.724609 0.751218
O O18 0.298261 0.094931 0.739697
#
# Coordination Sequence:
#
# PCOD9090616 Si02
#       8
#     2   2   2   2   2   2   2   2
#     4  12  25  43  72  93 132 186 231 271 337 413
#     4  12  23  39  66  99 136 167 220 281 339 401
#     4  10  19  38  68  90 127 169 213 277 339 382
#     4  11  22  35  67 103 128 167 219 279 342 392
#     4  11  22  42  63  96 134 171 219 279 337 395
#     4  11  21  38  65  95 131 167 217 276 338 396
#     4  10  21  46  66  93 131 174 225 276 332 401
#     4  11  26  43  67  98 131 186 225 273 342 402
#
# _framework density 20.984746000000001
#
# number of rings (size 3 to 8) (size 9 to 14) (size 15 to 20)
#    0.000    1.000    5.000    3.375    3.500    1.500 
#    0.000    1.250    0.000    5.250    0.000    0.000 
#    0.000    0.000    0.000    0.000    0.000    0.000 
#
# Total GULP energy -89127.921496 kJ/mol
# GULP energy per Si atom -5570.495093 kJ/mol
# Density = 2.093698 g / cm^3
# Si number density = 20.984746 Si / 1000 Ang^3
#
#
#
# Elastic Constant Matrix: (Units=GPa)
#
#
# Indices 1 2 3 4 5 6 
#
# 1 103.6001 30.8645 30.2826 -0.5026 19.3031 -29.2010
# 2 30.8645 101.3734 41.2259 -21.1022 22.8675 -31.6844
# 3 30.2826 41.2259 78.7445 -22.8649 12.4082 -3.6190
# 4 -0.5026 -21.1022 -22.8649 37.7485 -4.6371 2.1019
# 5 19.3031 22.8675 12.4082 -4.6371 33.2536 -10.4428
# 6 -29.2010 -31.6844 -3.6190 2.1019 -10.4428 33.2028
#
#
#
# Elastic Compliance Matrix: (Units=1/GPa)
#
#
# Indices 1 2 3 4 5 6 
#
# 1 0.015973 0.003038 -0.007516 -0.004018 -0.004408 0.014996
# 2 0.003038 0.021027 -0.009012 0.004499 -0.006093 0.019554
# 3 -0.007516 -0.009012 0.022461 0.009124 -0.000819 -0.013597
# 4 -0.004018 0.004499 0.009124 0.034564 0.000574 -0.000253
# 5 -0.004408 -0.006093 -0.000819 0.000574 0.037863 0.002092
# 6 0.014996 0.019554 -0.013597 -0.000253 0.002092 0.061159
#
#
# Mechanical properties :
#
#
# Convention : Reuss Voigt Hill
#
# Bulk Modulus (GPa) = 30.78659 54.27376 42.53017
# Shear Modulus (GPa) = 21.65882 32.93065 27.29474
#
# Velocity S-wave (km/s) = 3.21615 3.96569 3.61043
# Velocity P-wave (km/s) = 5.33800 6.84752 6.13933
#
# Compressibility (1/GPa) = 0.03248167
#
# Stress axis : x y z
#
# Youngs Moduli (GPa) = 62.60584 47.55828 44.52125
#
# Poissons Ratio (x) = -0.14450 0.33464
# Poissons Ratio (y) = -0.19023 0.40121
# Poissons Ratio (z) = 0.47057 0.42858
#
# Static dielectric constant tensor:
#      x y z
#    x 1.835750 -0.144780 0.033750 
#    y -0.144780 2.185640 0.050580 
#    z 0.033750 0.050580 1.774140 
# 
# From -- ./inp_files/471942.got.cif
#   From: 2010.05.17/outbox.cif.g08.bks.cpg/sg2_236_cif.got.tgz:471942.got - 2010.06.03 11:33:40.
