data_PCOD9090842
_publ_section_title
;
Structure prediction by ZEFSAII (Michael W. Deem and Ramdas Pophale) SiO2 
 PCOD9090842
Probable space group: P -1
;
_chemical_formula_sum "Si O2"
_cell_formula_units_Z 16
_cell_length_a 10.910939
_cell_length_b 26.428717
_cell_length_c 5.825637
_cell_angle_alpha 125.073712
_cell_angle_beta 57.636493
_cell_angle_gamma 147.528621
_cell_volume 733.234742
_symmetry_space_group_name_H-M "P -1"
_symmetry_group_IT_number 2
_symmetry_cell_setting 'triclinic'
loop_
_space_group_symop_operation_xyz
x,y,z
-x,-y,-z
loop_
_atom_site_type_symbol
_atom_site_label
_atom_site_fract_x
_atom_site_fract_y
_atom_site_fract_z
Si Si1 0.624785 0.829045 0.838735
Si Si2 0.139418 0.686658 0.716321
Si Si3 0.293033 0.342443 0.282834
Si Si4 0.905407 0.819915 0.260896
Si Si5 0.348665 0.484511 0.309631
Si Si6 0.835814 0.996525 0.770277
Si Si7 0.123174 0.802393 0.330888
Si Si8 0.564726 0.163275 0.571879
O O1 0.376387 0.740634 0.732182
O O2 0.780327 0.826139 0.575496
O O3 0.754917 0.936785 0.927017
O O4 0.565715 0.821446 0.142131
O O5 0.219011 0.736232 0.515541
O O6 0.900116 0.570972 0.658991
O O7 0.076492 0.726097 0.029535
O O8 0.288951 0.408821 0.346354
O O9 0.505917 0.416604 0.438935
O O10 0.074096 0.257247 0.438363
O O11 0.275436 0.287543 0.950266
O O12 0.097624 0.848917 0.296606
O O13 0.027079 0.895593 0.124604
O O14 0.500000 0.500000 0.000000
O O15 0.602176 0.922852 0.667330
O O16 0.000000 0.000000 0.500000
O O17 0.352913 0.860179 0.387888
#
# Coordination Sequence:
#
# PCOD9090842 Si02
#       8
#     2   2   2   2   2   2   2   2
#     4   9  22  38  62  84 119 162 201 239 292 355
#     4  10  19  39  60  88 118 150 202 248 289 351
#     4  11  22  35  60  91 120 153 191 245 307 346
#     4  11  22  38  56  90 124 154 198 250 293 349
#     4  11  20  37  64  92 114 151 201 242 293 363
#     4   9  21  39  58  84 120 159 208 241 284 354
#     4  11  20  36  59  87 122 150 200 245 297 349
#     4  10  20  38  60  86 113 163 202 240 297 340
#
# _framework density 21.821114999999999
#
# number of rings (size 3 to 8) (size 9 to 14) (size 15 to 20)
#    0.000    1.750    3.750    0.000    0.000    6.500 
#    0.000    9.375    0.000    3.750    0.000    0.000 
#    0.000    0.000    0.000    0.000    0.000    0.000 
#
# Total GULP energy -89215.064616 kJ/mol
# GULP energy per Si atom -5575.941538 kJ/mol
# Density = 2.177145 g / cm^3
# Si number density = 21.821115 Si / 1000 Ang^3
#
#
#
# Elastic Constant Matrix: (Units=GPa)
#
#
# Indices 1 2 3 4 5 6 
#
# 1 39.9755 0.7749 13.8375 4.2110 -0.7213 11.6811
# 2 0.7749 65.4216 19.8110 -1.9083 -4.6495 13.3439
# 3 13.8375 19.8110 82.9194 0.4268 -1.1391 -4.2122
# 4 4.2110 -1.9083 0.4268 27.8023 -1.8385 -1.9752
# 5 -0.7213 -4.6495 -1.1391 -1.8385 19.0287 -3.6276
# 6 11.6811 13.3439 -4.2122 -1.9752 -3.6276 24.2574
#
#
#
# Elastic Compliance Matrix: (Units=1/GPa)
#
#
# Indices 1 2 3 4 5 6 
#
# 1 0.035211 0.006488 -0.008593 -0.006558 -0.002601 -0.022940
# 2 0.006488 0.020492 -0.006729 -0.000436 0.001888 -0.015319
# 3 -0.008593 -0.006729 0.015662 0.001448 0.001177 0.010853
# 4 -0.006558 -0.000436 0.001448 0.037755 0.004798 0.007441
# 5 -0.002601 0.001888 0.001177 0.004798 0.055176 0.009061
# 6 -0.022940 -0.015319 0.010853 0.007441 0.009061 0.064544
#
#
# Mechanical properties :
#
#
# Convention : Reuss Voigt Hill
#
# Bulk Modulus (GPa) = 18.62298 28.57370 23.59834
# Shear Modulus (GPa) = 18.91024 24.47723 21.69373
#
# Velocity S-wave (km/s) = 2.94701 3.35285 3.15645
# Velocity P-wave (km/s) = 4.48695 5.30205 4.91144
#
# Compressibility (1/GPa) = 0.05369709
#
# Stress axis : x y z
#
# Youngs Moduli (GPa) = 28.39993 48.79914 63.85037
#
# Poissons Ratio (x) = -0.31662 0.54870
# Poissons Ratio (y) = -0.18426 0.42963
# Poissons Ratio (z) = 0.24405 0.32835
#
# Static dielectric constant tensor:
#      x y z
#    x 1.881400 0.023580 0.039730 
#    y 0.023580 1.820410 0.010830 
#    z 0.039730 0.010830 1.779300 
# 
# From -- ./inp_files/47808.got.cif
#   From: 2010.05.17/outbox.cif.g08.bks.cpg/sg2_24_cif.got.tgz:47808.got - 2010.06.03 11:33:40.
