data_PCOD9090977
_publ_section_title
;
Structure prediction by ZEFSAII (Michael W. Deem and Ramdas Pophale) SiO2 
 PCOD9090977
Probable space group: P -1
;
_chemical_formula_sum "Si O2"
_cell_formula_units_Z 16
_cell_length_a 16.801609
_cell_length_b 8.857320
_cell_length_c 9.317155
_cell_angle_alpha 50.867308
_cell_angle_beta 56.791732
_cell_angle_gamma 88.181766
_cell_volume 787.605360
_symmetry_space_group_name_H-M "P -1"
_symmetry_group_IT_number 2
_symmetry_cell_setting 'triclinic'
loop_
_space_group_symop_operation_xyz
x,y,z
-x,-y,-z
loop_
_atom_site_type_symbol
_atom_site_label
_atom_site_fract_x
_atom_site_fract_y
_atom_site_fract_z
Si Si1 0.904829 0.907479 0.035934
Si Si2 0.444479 0.125551 0.402000
Si Si3 0.130573 0.374203 0.135640
Si Si4 0.187495 0.858756 0.835721
Si Si5 0.263823 0.544278 0.611281
Si Si6 0.068935 0.958845 0.625942
Si Si7 0.481276 0.522772 0.338421
Si Si8 0.417114 0.042528 0.152990
O O1 0.969625 0.985228 0.777940
O O2 0.833212 0.019554 0.082527
O O3 0.837760 0.639755 0.267415
O O4 0.000000 0.000000 0.000000
O O5 0.472916 0.340764 0.341434
O O6 0.500000 0.000000 0.500000
O O7 0.315291 0.979103 0.616133
O O8 0.416839 0.247029 0.951595
O O9 0.147442 0.600147 0.056286
O O10 0.220237 0.459130 0.867134
O O11 0.139800 0.188938 0.334280
O O12 0.005741 0.252324 0.272852
O O13 0.130600 0.899916 0.725373
O O14 0.366215 0.523724 0.461685
O O15 0.469788 0.138010 0.199644
O O16 0.500000 0.500000 0.500000
O O17 0.306479 0.808302 0.408773
O O18 0.500000 0.000000 0.000000
#
# Coordination Sequence:
#
# PCOD9090977 Si02
#       8
#     2   2   2   2   2   2   2   2
#     4   9  19  38  63  89 126 165 210 264 325 388
#     4  12  24  43  64  96 131 174 226 280 333 403
#     4  10  20  38  64  95 129 163 218 267 332 404
#     4  11  21  39  64  92 125 172 217 269 337 392
#     4  10  19  39  62  88 126 164 211 268 321 399
#     4   9  21  39  63  92 128 169 212 274 331 396
#     4  11  24  42  66  91 130 173 219 281 338 395
#     4  10  22  42  66  94 126 170 221 274 339 395
#
# _framework density 20.314743
#
# number of rings (size 3 to 8) (size 9 to 14) (size 15 to 20)
#    0.000    1.750    2.500    2.250    0.000    1.500 
#    2.250    2.500    0.000    0.000    0.000    0.000 
#    0.000    0.000    0.000    0.000    0.000    0.000 
#
# Total GULP energy -89089.321798 kJ/mol
# GULP energy per Si atom -5568.082612 kJ/mol
# Density = 2.026851 g / cm^3
# Si number density = 20.314743 Si / 1000 Ang^3
#
#
#
# Elastic Constant Matrix: (Units=GPa)
#
#
# Indices 1 2 3 4 5 6 
#
# 1 43.6866 24.4280 17.2209 1.1668 -6.1966 0.8782
# 2 24.4280 144.7959 61.9816 -20.9461 -1.8252 17.4913
# 3 17.2209 61.9816 138.2987 -20.3051 -1.2187 7.0024
# 4 1.1668 -20.9461 -20.3051 38.6219 1.1680 -5.4454
# 5 -6.1966 -1.8252 -1.2187 1.1680 21.9448 4.0502
# 6 0.8782 17.4913 7.0024 -5.4454 4.0502 30.0549
#
#
#
# Elastic Compliance Matrix: (Units=1/GPa)
#
#
# Indices 1 2 3 4 5 6 
#
# 1 0.027273 -0.004310 -0.002068 -0.004416 0.007390 0.000397
# 2 -0.004310 0.010026 -0.003260 0.003235 0.000071 -0.004373
# 3 -0.002068 -0.003260 0.009409 0.003322 -0.000592 0.000447
# 4 -0.004416 0.003235 0.003322 0.030087 -0.003009 0.003329
# 5 0.007390 0.000071 -0.000592 -0.003009 0.049133 -0.007286
# 6 0.000397 -0.004373 0.000447 0.003329 -0.007286 0.037287
#
#
# Mechanical properties :
#
#
# Convention : Reuss Voigt Hill
#
# Bulk Modulus (GPa) = 36.45136 59.33804 47.89470
# Shear Modulus (GPa) = 26.09139 33.00103 29.54621
#
# Velocity S-wave (km/s) = 3.58768 4.03486 3.81783
# Velocity P-wave (km/s) = 5.92825 7.14000 6.56216
#
# Compressibility (1/GPa) = 0.02743382
#
# Stress axis : x y z
#
# Youngs Moduli (GPa) = 36.66575 99.74298 106.28090
#
# Poissons Ratio (x) = 0.42985 0.21979
# Poissons Ratio (y) = 0.15801 0.34643
# Poissons Ratio (z) = 0.07582 0.32512
#
# Static dielectric constant tensor:
#      x y z
#    x 1.584170 -0.330600 0.034660 
#    y -0.330600 1.022530 0.092960 
#    z 0.034660 0.092960 1.761090 
# 
# From -- ./inp_files/328387.got.cif
#   From: 2010.05.17/outbox.cif.g08.bks.cpg/sg2_165_cif.got.tgz:328387.got - 2010.06.03 11:33:40.
