data_PCOD9090017
_publ_section_title
;
Structure prediction by ZEFSAII (Michael W. Deem and Ramdas Pophale) SiO2 
 PCOD9090017
Probable space group: P -1
;
_chemical_formula_sum "Si O2"
_cell_formula_units_Z 14
_cell_length_a 10.634039
_cell_length_b 9.320670
_cell_length_c 9.114792
_cell_angle_alpha 42.252008
_cell_angle_beta 99.992567
_cell_angle_gamma 93.258805
_cell_volume 594.734899
_symmetry_space_group_name_H-M "P -1"
_symmetry_group_IT_number 2
_symmetry_cell_setting 'triclinic'
loop_
_space_group_symop_operation_xyz
x,y,z
-x,-y,-z
loop_
_atom_site_type_symbol
_atom_site_label
_atom_site_fract_x
_atom_site_fract_y
_atom_site_fract_z
Si Si1 0.269024 0.179828 0.872961
Si Si2 0.496553 0.547026 0.294396
Si Si3 0.713173 0.136668 0.134247
Si Si4 0.989611 0.212459 0.235652
Si Si5 0.118289 0.566191 0.692180
Si Si6 0.602889 0.327665 0.231837
Si Si7 0.101805 0.975657 0.174471
O O1 0.397795 0.287886 0.842331
O O2 0.150150 0.355123 0.759532
O O3 0.272101 0.084830 0.782930
O O4 0.240482 0.985854 0.120765
O O5 0.500000 0.500000 0.500000
O O6 0.539184 0.329963 0.376399
O O7 0.365129 0.674861 0.117384
O O8 0.852657 0.208733 0.133667
O O9 0.637136 0.130887 0.277570
O O10 0.982496 0.399121 0.217681
O O11 0.088264 0.156193 0.164986
O O12 0.000000 0.000000 0.500000
O O13 0.256508 0.594536 0.773031
O O14 0.088923 0.758700 0.424594
O O15 0.500000 0.500000 0.000000
O O16 0.000000 0.000000 0.000000
#
# Coordination Sequence:
#
# PCOD9090017 Si02
#       7
#     2   2   2   2   2   2   2
#     4  11  23  37  64  95 120 159 207 246 312 362
#     4  10  22  39  65  91 121 159 202 253 306 360
#     4  10  19  38  63  87 125 156 198 250 303 363
#     4   9  19  39  64  85 121 168 199 249 303 349
#     4   9  21  39  62  86 125 157 202 251 297 360
#     4   8  17  36  63  83 118 162 191 244 307 350
#     4  11  22  39  63  90 124 162 202 252 302 356
#
# _framework density 23.539899999999999
#
# number of rings (size 3 to 8) (size 9 to 14) (size 15 to 20)
#    0.000    2.286    1.429    0.429    4.000    1.143 
#    0.000    0.714   56.571    0.000    0.000    0.000 
#    0.000    0.000    0.000    0.000    0.000    0.000 
#
# Total GULP energy -78042.494109 kJ/mol
# GULP energy per Si atom -5574.463865 kJ/mol
# Density = 2.348632 g / cm^3
# Si number density = 23.539900 Si / 1000 Ang^3
#
#
#
# Elastic Constant Matrix: (Units=GPa)
#
#
# Indices 1 2 3 4 5 6 
#
# 1 81.3422 19.3646 34.8117 20.3700 5.2703 -4.2727
# 2 19.3646 193.4784 32.3788 14.3623 -2.0531 -53.2964
# 3 34.8117 32.3788 61.3194 28.2814 2.8568 -2.2459
# 4 20.3700 14.3623 28.2814 36.2043 -6.1280 -8.5402
# 5 5.2703 -2.0531 2.8568 -6.1280 19.9367 11.3766
# 6 -4.2727 -53.2964 -2.2459 -8.5402 11.3766 49.7856
#
#
#
# Elastic Compliance Matrix: (Units=1/GPa)
#
#
# Indices 1 2 3 4 5 6 
#
# 1 0.016998 0.000414 -0.007497 -0.004367 -0.005961 0.002177
# 2 0.000414 0.008631 -0.005310 0.002300 -0.003604 0.010254
# 3 -0.007497 -0.005310 0.034032 -0.023058 -0.006368 -0.007293
# 4 -0.004367 0.002300 -0.023058 0.051483 0.017115 0.005967
# 5 -0.005961 -0.003604 -0.006368 0.017115 0.067293 -0.017099
# 6 0.002177 0.010254 -0.007293 0.005967 -0.017099 0.035852
#
#
# Mechanical properties :
#
#
# Convention : Reuss Voigt Hill
#
# Bulk Modulus (GPa) = 28.67301 56.58338 42.62820
# Shear Modulus (GPa) = 19.94414 37.82431 28.88423
#
# Velocity S-wave (km/s) = 2.91391 4.01286 3.50670
# Velocity P-wave (km/s) = 4.85059 6.74983 5.87743
#
# Compressibility (1/GPa) = 0.03487600
#
# Stress axis : x y z
#
# Youngs Moduli (GPa) = 58.83130 115.85587 29.38396
#
# Poissons Ratio (x) = -0.04795 0.22028
# Poissons Ratio (y) = -0.02435 0.15602
# Poissons Ratio (z) = 0.44104 0.61517
#
# Static dielectric constant tensor:
#      x y z
#    x 1.849460 -0.037160 -0.013520 
#    y -0.037160 2.014990 -0.033930 
#    z -0.013520 -0.033930 1.926350 
# 
# From -- ./inp_files/179543.got.cif
#   From: 2010.05.17/outbox.cif.g08.bks.cpg/sg2_90_cif.got.tgz:179543.got - 2010.06.03 11:33:40.
