data_PCOD9090294
_publ_section_title
;
Structure prediction by ZEFSAII (Michael W. Deem and Ramdas Pophale) SiO2 
 PCOD9090294
Probable space group: P -1
;
_chemical_formula_sum "Si O2"
_cell_formula_units_Z 14
_cell_length_a 11.688927
_cell_length_b 12.579137
_cell_length_c 13.260988
_cell_angle_alpha 40.636345
_cell_angle_beta 32.691302
_cell_angle_gamma 36.422739
_cell_volume 604.674533
_symmetry_space_group_name_H-M "P -1"
_symmetry_group_IT_number 2
_symmetry_cell_setting 'triclinic'
loop_
_space_group_symop_operation_xyz
x,y,z
-x,-y,-z
loop_
_atom_site_type_symbol
_atom_site_label
_atom_site_fract_x
_atom_site_fract_y
_atom_site_fract_z
Si Si1 0.970954 0.816151 0.654954
Si Si2 0.462777 0.698267 0.463047
Si Si3 0.844278 0.803424 0.399688
Si Si4 0.142135 0.986058 0.110503
Si Si5 0.817758 0.706686 0.023672
Si Si6 0.547585 0.976533 0.316271
Si Si7 0.818229 0.353086 0.574814
O O1 0.763311 0.822399 0.876028
O O2 0.978065 0.729525 0.603569
O O3 0.757147 0.184672 0.762029
O O4 0.000000 0.000000 0.500000
O O5 0.615641 0.706450 0.247204
O O6 0.402681 0.885503 0.433696
O O7 0.609967 0.533880 0.550603
O O8 0.232433 0.685943 0.604197
O O9 0.761750 0.812572 0.340273
O O10 0.066091 0.634300 0.413562
O O11 0.614034 0.868735 0.595476
O O12 0.924724 0.964735 0.236511
O O13 0.334706 0.954524 0.904782
O O14 0.072977 0.182656 0.070925
O O15 0.000000 0.500000 0.000000
#
# Coordination Sequence:
#
# PCOD9090294 Si02
#       7
#     2   2   2   2   2   2   2
#     4  12  22  42  59  82 124 158 193 244 291 353
#     4  11  24  39  58  92 119 155 197 243 292 351
#     4   9  20  39  63  83 115 155 196 246 290 346
#     4   9  20  38  57  89 116 157 194 241 293 348
#     4  11  22  37  59  87 119 159 196 238 290 344
#     4  10  19  38  65  85 111 154 206 238 290 345
#     4  10  21  38  56  85 123 155 190 238 299 341
#
# _framework density 23.152951000000002
#
# number of rings (size 3 to 8) (size 9 to 14) (size 15 to 20)
#    0.857    0.857    2.857    2.571    0.000    1.143 
#    5.143    0.000    0.000    1.714    0.000    0.000 
#    0.000    0.000    0.000    0.000    0.000    0.000 
#
# Total GULP energy -78083.680202 kJ/mol
# GULP energy per Si atom -5577.405729 kJ/mol
# Density = 2.310025 g / cm^3
# Si number density = 23.152951 Si / 1000 Ang^3
#
#
#
# Elastic Constant Matrix: (Units=GPa)
#
#
# Indices 1 2 3 4 5 6 
#
# 1 89.2095 -1.2511 29.1610 -4.5699 -0.5637 -13.2548
# 2 -1.2511 65.0167 13.1986 -14.0344 4.0871 -15.0743
# 3 29.1610 13.1986 116.3133 -7.9308 14.7702 0.3504
# 4 -4.5699 -14.0344 -7.9308 22.5986 -0.4922 3.0299
# 5 -0.5637 4.0871 14.7702 -0.4922 36.9397 -4.1718
# 6 -13.2548 -15.0743 0.3504 3.0299 -4.1718 41.5452
#
#
#
# Elastic Compliance Matrix: (Units=1/GPa)
#
#
# Indices 1 2 3 4 5 6 
#
# 1 0.013401 0.002631 -0.003774 0.002354 0.002052 0.005296
# 2 0.002631 0.019992 -0.002141 0.011215 -0.000346 0.007259
# 3 -0.003774 -0.002141 0.010463 0.001839 -0.004277 -0.002633
# 4 0.002354 0.011215 0.001839 0.052193 -0.001145 0.000883
# 5 0.002052 -0.000346 -0.004277 -0.001145 0.029241 0.003585
# 6 0.005296 0.007259 -0.002633 0.000883 0.003585 0.028711
#
#
# Mechanical properties :
#
#
# Convention : Reuss Voigt Hill
#
# Bulk Modulus (GPa) = 26.81940 39.19518 33.00729
# Shear Modulus (GPa) = 28.90193 35.51209 32.20701
#
# Velocity S-wave (km/s) = 3.53697 3.92063 3.73373
# Velocity P-wave (km/s) = 5.31873 6.12051 5.73365
#
# Compressibility (1/GPa) = 0.03728645
#
# Stress axis : x y z
#
# Youngs Moduli (GPa) = 74.62293 50.02095 95.57333
#
# Poissons Ratio (x) = -0.13161 0.36072
# Poissons Ratio (y) = -0.19634 0.20466
# Poissons Ratio (z) = 0.28165 0.10711
#
# Static dielectric constant tensor:
#      x y z
#    x 1.913260 -0.058440 0.035410 
#    y -0.058440 1.995910 -0.023400 
#    z 0.035410 -0.023400 1.860240 
# 
# From -- ./inp_files/520101.got.cif
#   From: 2010.05.17/outbox.cif.g08.bks.cpg/sg2_261_cif.got.tgz:520101.got - 2010.06.03 11:33:40.
