data_PCOD9090117
_publ_section_title
;
Structure prediction by ZEFSAII (Michael W. Deem and Ramdas Pophale) SiO2 
 PCOD9090117
Probable space group: P -1
;
_chemical_formula_sum "Si O2"
_cell_formula_units_Z 14
_cell_length_a 7.582539
_cell_length_b 11.702485
_cell_length_c 9.394160
_cell_angle_alpha 84.880772
_cell_angle_beta 67.298852
_cell_angle_gamma 43.226371
_cell_volume 501.780127
_symmetry_space_group_name_H-M "P -1"
_symmetry_group_IT_number 2
_symmetry_cell_setting 'triclinic'
loop_
_space_group_symop_operation_xyz
x,y,z
-x,-y,-z
loop_
_atom_site_type_symbol
_atom_site_label
_atom_site_fract_x
_atom_site_fract_y
_atom_site_fract_z
Si Si1 0.349545 0.242832 0.626832
Si Si2 0.884600 0.114148 0.764872
Si Si3 0.713418 0.321339 0.046019
Si Si4 0.003947 0.745633 0.484493
Si Si5 0.659702 0.608907 0.614654
Si Si6 0.328737 0.029133 0.185072
Si Si7 0.222560 0.479918 0.852835
O O1 0.153080 0.240389 0.604947
O O2 0.526185 0.218711 0.441875
O O3 0.470962 0.122551 0.738461
O O4 0.221041 0.421475 0.705464
O O5 0.884424 0.977976 0.794131
O O6 0.540522 0.304044 0.833613
O O7 0.988275 0.126782 0.583689
O O8 0.945522 0.152605 0.890294
O O9 0.499515 0.328532 0.191475
O O10 0.845466 0.356466 0.110305
O O11 0.500000 0.500000 0.000000
O O12 0.308172 0.540185 0.419386
O O13 0.841131 0.805930 0.677347
O O14 0.000000 0.500000 0.500000
O O15 0.500000 0.000000 0.000000
O O16 0.000000 0.500000 0.000000
#
# Coordination Sequence:
#
# PCOD9090117 Si02
#       7
#     2   2   2   2   2   2   2
#     4  10  24  41  67 101 137 171 227 276 343 394
#     4  10  22  40  67  91 135 181 225 274 335 404
#     4  10  19  38  63  97 137 172 221 271 340 401
#     4  11  21  45  70  95 138 180 226 272 342 406
#     4  10  22  36  70 102 132 177 220 279 345 396
#     4  11  26  45  69  95 131 186 229 279 338 404
#     4  10  20  34  62  98 136 169 216 280 336 393
#
# _framework density 27.900663999999999
#
# number of rings (size 3 to 8) (size 9 to 14) (size 15 to 20)
#    0.000    1.714    2.857    1.714   10.000    1.714 
#    0.000    0.714    6.286    0.000    0.000    0.000 
#    0.000    0.000    0.000    0.000    0.000    0.000 
#
# Total GULP energy -78138.737567 kJ/mol
# GULP energy per Si atom -5581.338398 kJ/mol
# Density = 2.783716 g / cm^3
# Si number density = 27.900664 Si / 1000 Ang^3
#
#
#
# Elastic Constant Matrix: (Units=GPa)
#
#
# Indices 1 2 3 4 5 6 
#
# 1 113.1595 -4.1358 33.2737 -1.7862 11.0097 21.0590
# 2 -4.1358 85.9563 -0.4742 -32.0961 -5.5532 3.2155
# 3 33.2737 -0.4742 178.8831 -39.2107 -18.4613 3.5262
# 4 -1.7862 -32.0961 -39.2107 50.4382 22.2763 5.3969
# 5 11.0097 -5.5532 -18.4613 22.2763 57.7158 1.5204
# 6 21.0590 3.2155 3.5262 5.3969 1.5204 38.2810
#
#
#
# Elastic Compliance Matrix: (Units=1/GPa)
#
#
# Indices 1 2 3 4 5 6 
#
# 1 0.010865 0.001170 -0.001844 0.001683 -0.003041 -0.006022
# 2 0.001170 0.017389 0.002931 0.015371 -0.003429 -0.004405
# 3 -0.001844 0.002931 0.007692 0.007852 0.000091 -0.001051
# 4 0.001683 0.015371 0.007852 0.042133 -0.012371 -0.008389
# 5 -0.003041 -0.003429 0.000091 -0.012371 0.022307 0.002811
# 6 -0.006022 -0.004405 -0.001051 -0.008389 0.002811 0.030973
#
#
# Mechanical properties :
#
#
# Convention : Reuss Voigt Hill
#
# Bulk Modulus (GPa) = 24.71609 48.36958 36.54283
# Shear Modulus (GPa) = 35.62962 52.57600 44.10281
#
# Velocity S-wave (km/s) = 3.57741 4.34568 3.98013
# Velocity P-wave (km/s) = 5.09330 6.52333 5.85216
#
# Compressibility (1/GPa) = 0.04045948
#
# Stress axis : x y z
#
# Youngs Moduli (GPa) = 92.03681 57.50727 130.00083
#
# Poissons Ratio (x) = -0.06727 0.23974
# Poissons Ratio (y) = -0.10767 -0.38100
# Poissons Ratio (z) = 0.16973 -0.16854
#
# Static dielectric constant tensor:
#      x y z
#    x 2.321360 -0.048840 0.124410 
#    y -0.048840 2.307570 0.040400 
#    z 0.124410 0.040400 2.378140 
# 
# From -- ./inp_files/186475.got.cif
#   From: 2010.05.17/outbox.cif.g08.bks.cpg/sg2_94_cif.got.tgz:186475.got - 2010.06.03 11:33:40.
