data_PCOD9090310
_publ_section_title
;
Structure prediction by ZEFSAII (Michael W. Deem and Ramdas Pophale) SiO2 
 PCOD9090310
Probable space group: P -1
;
_chemical_formula_sum "Si O2"
_cell_formula_units_Z 16
_cell_length_a 17.403050
_cell_length_b 8.493994
_cell_length_c 12.509050
_cell_angle_alpha 84.755075
_cell_angle_beta 128.123648
_cell_angle_gamma 136.254433
_cell_volume 762.768344
_symmetry_space_group_name_H-M "P -1"
_symmetry_group_IT_number 2
_symmetry_cell_setting 'triclinic'
loop_
_space_group_symop_operation_xyz
x,y,z
-x,-y,-z
loop_
_atom_site_type_symbol
_atom_site_label
_atom_site_fract_x
_atom_site_fract_y
_atom_site_fract_z
Si Si1 0.697912 0.741971 0.605274
Si Si2 0.126781 0.796700 0.814224
Si Si3 0.023684 0.411093 0.930115
Si Si4 0.746789 0.688420 0.025918
Si Si5 0.065184 0.968067 0.394586
Si Si6 0.205422 0.357058 0.151508
Si Si7 0.486246 0.801931 0.961106
Si Si8 0.134685 0.389495 0.551250
O O1 0.500000 0.500000 0.500000
O O2 0.748101 0.824546 0.518063
O O3 0.726275 0.598678 0.676100
O O4 0.839960 0.056848 0.767246
O O5 0.075168 0.584765 0.861442
O O6 0.949490 0.592477 0.599479
O O7 0.184094 0.038272 0.910265
O O8 0.314249 0.997973 0.904181
O O9 0.183455 0.509232 0.097152
O O10 0.000000 0.500000 0.000000
O O11 0.607359 0.439761 0.014445
O O12 0.688178 0.579766 0.859944
O O13 0.918079 0.801736 0.184607
O O14 0.078454 0.152335 0.455829
O O15 0.974188 0.735021 0.421835
O O16 0.000000 0.000000 0.000000
O O17 0.344943 0.634863 0.750474
O O18 0.500000 0.000000 0.000000
#
# Coordination Sequence:
#
# PCOD9090310 Si02
#       8
#     2   2   2   2   2   2   2   2
#     4  11  24  41  66  97 129 172 221 276 335 400
#     4  11  23  41  66  94 130 174 219 269 333 398
#     4  11  24  42  66  96 129 171 221 270 332 402
#     4  10  19  39  67  90 125 172 223 265 326 395
#     4   9  18  39  65  90 126 166 219 266 329 387
#     4  10  19  38  65  88 120 173 209 266 324 382
#     4  11  24  40  62  99 133 170 220 272 330 398
#     4   9  22  39  65  92 128 173 212 275 325 389
#
# _framework density 20.976226
#
# number of rings (size 3 to 8) (size 9 to 14) (size 15 to 20)
#    0.000    1.750    2.500    3.375    3.500    3.500 
#    4.500    0.625    0.000    0.000    0.000    0.000 
#    0.000    0.000    0.000    0.000    0.000    0.000 
#
# Total GULP energy -89142.497091 kJ/mol
# GULP energy per Si atom -5571.406068 kJ/mol
# Density = 2.092848 g / cm^3
# Si number density = 20.976226 Si / 1000 Ang^3
#
#
#
# Elastic Constant Matrix: (Units=GPa)
#
#
# Indices 1 2 3 4 5 6 
#
# 1 80.9291 14.2143 3.4837 1.6473 2.7873 6.8091
# 2 14.2143 100.1519 16.7178 -8.4145 5.8047 -5.7039
# 3 3.4837 16.7178 29.0126 -3.4917 2.9218 4.9921
# 4 1.6473 -8.4145 -3.4917 24.9867 3.1472 7.4624
# 5 2.7873 5.8047 2.9218 3.1472 28.4492 2.4348
# 6 6.8091 -5.7039 4.9921 7.4624 2.4348 37.7718
#
#
#
# Elastic Compliance Matrix: (Units=1/GPa)
#
#
# Indices 1 2 3 4 5 6 
#
# 1 0.012950 -0.002005 -0.000007 -0.000725 -0.000569 -0.002456
# 2 -0.002005 0.011850 -0.006504 0.002695 -0.002075 0.002612
# 3 -0.000007 -0.006504 0.040492 0.006021 -0.002869 -0.007337
# 4 -0.000725 0.002695 0.006021 0.045127 -0.005334 -0.008830
# 5 -0.000569 -0.002075 -0.002869 -0.005334 0.036612 -0.001138
# 6 -0.002456 0.002612 -0.007337 -0.008830 -0.001138 0.030100
#
#
# Mechanical properties :
#
#
# Convention : Reuss Voigt Hill
#
# Bulk Modulus (GPa) = 20.72039 30.99170 25.85605
# Shear Modulus (GPa) = 23.78130 29.95340 26.86735
#
# Velocity S-wave (km/s) = 3.37074 3.78295 3.58278
# Velocity P-wave (km/s) = 5.00486 5.82131 5.42846
#
# Compressibility (1/GPa) = 0.04826163
#
# Stress axis : x y z
#
# Youngs Moduli (GPa) = 77.22073 84.38471 24.69600
#
# Poissons Ratio (x) = 0.16916 0.00018
# Poissons Ratio (y) = 0.15479 0.16062
# Poissons Ratio (z) = 0.00055 0.54883
#
# Static dielectric constant tensor:
#      x y z
#    x 1.790010 0.037620 -0.015520 
#    y 0.037620 1.794080 -0.030770 
#    z -0.015520 -0.030770 1.901920 
# 
# From -- ./inp_files/207584.got.cif
#   From: 2010.05.17/outbox.cif.g08.bks.cpg/sg2_104_cif.got.tgz:207584.got - 2010.06.03 11:33:40.
