data_PCOD9090899
_publ_section_title
;
Structure prediction by ZEFSAII (Michael W. Deem and Ramdas Pophale) SiO2 
 PCOD9090899
Probable space group: P -1
;
_chemical_formula_sum "Si O2"
_cell_formula_units_Z 13
_cell_length_a 10.765886
_cell_length_b 6.686660
_cell_length_c 7.535212
_cell_angle_alpha 113.877648
_cell_angle_beta 93.156105
_cell_angle_gamma 63.177482
_cell_volume 437.205135
_symmetry_space_group_name_H-M "P -1"
_symmetry_group_IT_number 2
_symmetry_cell_setting 'triclinic'
loop_
_space_group_symop_operation_xyz
x,y,z
-x,-y,-z
loop_
_atom_site_type_symbol
_atom_site_label
_atom_site_fract_x
_atom_site_fract_y
_atom_site_fract_z
Si Si1 0.438608 0.701296 0.382996
Si Si2 0.851979 0.888356 0.096336
Si Si3 0.254599 0.473394 0.404501
Si Si4 0.016701 0.772506 0.704717
Si Si5 0.662981 0.774701 0.239257
Si Si6 0.386563 0.908795 0.093530
Si Si7 0.000000 0.000000 0.500000
O O1 0.387541 0.525125 0.411836
O O2 0.596867 0.647730 0.320579
O O3 0.378429 0.961454 0.575930
O O4 0.374704 0.745172 0.193310
O O5 0.701831 0.098517 0.084214
O O6 0.950346 0.801723 0.899384
O O7 0.812021 0.702756 0.130554
O O8 0.922415 0.023910 0.267932
O O9 0.155820 0.523024 0.590633
O O10 0.305908 0.195820 0.248454
O O11 0.132533 0.698569 0.364168
O O12 0.916400 0.872350 0.566073
O O13 0.552338 0.827364 0.083895
#
# Coordination Sequence:
#
# PCOD9090899 Si02
#       7
#     2   2   2   2   2   2   1
#     4   9  19  38  59  84 117 156 192 239 280 349
#     4  11  19  37  56  91 120 149 191 242 305 333
#     4  10  19  39  61  88 109 156 205 231 286 351
#     4   9  21  35  64  79 117 161 188 240 290 344
#     4   9  19  37  60  84 120 158 184 245 292 338
#     4  10  22  34  64  90 113 151 199 241 287 348
#     4   8  18  38  60  78 110 156 194 232 274 346
#
# _framework density 29.734328000000001
#
# number of rings (size 3 to 8) (size 9 to 14) (size 15 to 20)
#    1.846    0.615    1.538    1.385    0.000    1.231 
#    0.000    1.538   10.154    0.000    0.000    0.000 
#    0.000    0.000    0.000    0.000    0.000    0.000 
#
# Total GULP energy -72393.873873 kJ/mol
# GULP energy per Si atom -5568.759529 kJ/mol
# Density = 2.966665 g / cm^3
# Si number density = 29.734328 Si / 1000 Ang^3
#
#
#
# Elastic Constant Matrix: (Units=GPa)
#
#
# Indices 1 2 3 4 5 6 
#
# 1 179.8211 80.7090 58.5883 -8.6335 -17.1431 45.7534
# 2 80.7090 132.4302 73.9107 -7.4382 -25.8401 44.8528
# 3 58.5883 73.9107 160.3546 -25.0448 -39.9082 30.0973
# 4 -8.6335 -7.4382 -25.0448 58.6392 7.2799 -14.1840
# 5 -17.1431 -25.8401 -39.9082 7.2799 58.9030 -12.9718
# 6 45.7534 44.8528 30.0973 -14.1840 -12.9718 50.0767
#
#
#
# Elastic Compliance Matrix: (Units=1/GPa)
#
#
# Indices 1 2 3 4 5 6 
#
# 1 0.008373 -0.003153 -0.000983 -0.000621 -0.000537 -0.004551
# 2 -0.003153 0.014644 -0.004162 -0.002501 0.001205 -0.008130
# 3 -0.000983 -0.004162 0.009984 0.003208 0.004405 0.000675
# 4 -0.000621 -0.002501 0.003208 0.019576 -0.000116 0.006394
# 5 -0.000537 0.001205 0.004405 -0.000116 0.020816 0.002124
# 6 -0.004551 -0.008130 0.000675 0.006394 0.002124 0.033365
#
#
# Mechanical properties :
#
#
# Convention : Reuss Voigt Hill
#
# Bulk Modulus (GPa) = 60.95532 99.89132 80.42332
# Shear Modulus (GPa) = 38.81307 50.81696 44.81501
#
# Velocity S-wave (km/s) = 3.61685 4.13853 3.88645
# Velocity P-wave (km/s) = 6.16333 7.51692 6.87353
#
# Compressibility (1/GPa) = 0.01640546
#
# Stress axis : x y z
#
# Youngs Moduli (GPa) = 119.42787 68.28673 100.15661
#
# Poissons Ratio (x) = 0.21532 0.09841
# Poissons Ratio (y) = 0.37657 0.41690
# Poissons Ratio (z) = 0.11735 0.28424
#
# Static dielectric constant tensor:
#      x y z
#    x 2.466630 -0.102110 0.126540 
#    y -0.102110 2.342560 -0.154860 
#    z 0.126540 -0.154860 2.566660 
# 
# From -- ./inp_files/229240.got.cif
#   From: 2010.05.17/outbox.cif.g08.bks.cpg/sg2_115_cif.got.tgz:229240.got - 2010.06.03 11:33:40.
