data_PCOD9090926
_publ_section_title
;
Structure prediction by ZEFSAII (Michael W. Deem and Ramdas Pophale) SiO2 
 PCOD9090926
Probable space group: P -1
;
_chemical_formula_sum "Si O2"
_cell_formula_units_Z 16
_cell_length_a 13.127584
_cell_length_b 9.309467
_cell_length_c 11.704278
_cell_angle_alpha 132.252921
_cell_angle_beta 63.083093
_cell_angle_gamma 78.556626
_cell_volume 611.548721
_symmetry_space_group_name_H-M "P -1"
_symmetry_group_IT_number 2
_symmetry_cell_setting 'triclinic'
loop_
_space_group_symop_operation_xyz
x,y,z
-x,-y,-z
loop_
_atom_site_type_symbol
_atom_site_label
_atom_site_fract_x
_atom_site_fract_y
_atom_site_fract_z
Si Si1 0.815767 0.869000 0.433600
Si Si2 0.609016 0.154655 0.921667
Si Si3 0.538554 0.707942 0.281747
Si Si4 0.210525 0.081223 0.064743
Si Si5 0.204430 0.662996 0.378770
Si Si6 0.812092 0.609849 0.945828
Si Si7 0.890475 0.289817 0.291732
Si Si8 0.611162 0.528519 0.398137
O O1 0.728360 0.955368 0.647118
O O2 0.663541 0.991243 0.491435
O O3 0.826605 0.084905 0.520298
O O4 0.016670 0.534382 0.150242
O O5 0.696628 0.965105 0.892956
O O6 0.578719 0.428521 0.086550
O O7 0.410649 0.338456 0.101821
O O8 0.546681 0.718695 0.419680
O O9 0.683145 0.644784 0.105738
O O10 0.278879 0.100913 0.926933
O O11 0.001130 0.341525 0.288862
O O12 0.245962 0.805847 0.908205
O O13 0.115921 0.621168 0.318058
O O14 0.146569 0.744830 0.582823
O O15 0.705645 0.538906 0.450030
O O16 0.000000 0.000000 0.000000
O O17 0.500000 0.500000 0.500000
#
# Coordination Sequence:
#
# PCOD9090926 Si02
#       8
#     2   2   2   2   2   2   2   2
#     4  11  21  36  63  96 130 170 217 255 331 402
#     4  10  19  39  61  93 128 167 220 264 314 403
#     4  10  21  41  64  93 127 167 221 271 315 391
#     4  10  24  40  60 100 132 161 216 272 328 390
#     4  11  21  38  68  96 126 174 220 268 328 389
#     4  12  24  39  64 100 137 168 201 276 353 377
#     4  10  22  39  64  90 124 169 224 266 307 386
#     4  10  21  45  73  89 120 177 228 267 311 383
#
# _framework density 26.163086
#
# number of rings (size 3 to 8) (size 9 to 14) (size 15 to 20)
#    0.000    1.500    2.500    4.125    5.250    2.500 
#    4.500    1.250    0.000    0.000    0.000    0.000 
#    0.000    0.000    0.000    0.000    0.000    0.000 
#
# Total GULP energy -89489.142879 kJ/mol
# GULP energy per Si atom -5593.071430 kJ/mol
# Density = 2.610354 g / cm^3
# Si number density = 26.163086 Si / 1000 Ang^3
#
#
#
# Elastic Constant Matrix: (Units=GPa)
#
#
# Indices 1 2 3 4 5 6 
#
# 1 76.6644 67.9421 27.6677 10.0780 -23.8778 -6.9813
# 2 67.9421 211.5453 60.7834 -8.5055 -29.3250 -29.9536
# 3 27.6677 60.7834 83.8035 -9.3879 -21.7663 -8.4812
# 4 10.0780 -8.5055 -9.3879 38.5168 0.8931 -1.1079
# 5 -23.8778 -29.3250 -21.7663 0.8931 50.2575 11.3690
# 6 -6.9813 -29.9536 -8.4812 -1.1079 11.3690 45.5503
#
#
#
# Elastic Compliance Matrix: (Units=1/GPa)
#
#
# Indices 1 2 3 4 5 6 
#
# 1 0.022382 -0.006366 -0.002219 -0.008048 0.006794 -0.003060
# 2 -0.006366 0.008356 -0.003381 0.002819 -0.000592 0.004106
# 3 -0.002219 -0.003381 0.016583 0.003766 0.004185 -0.000429
# 4 -0.008048 0.002819 0.003766 0.029717 -0.001631 0.002451
# 5 0.006794 -0.000592 0.004185 -0.001631 0.025761 -0.005038
# 6 -0.003060 0.004106 -0.000429 0.002451 -0.005038 0.025422
#
#
# Mechanical properties :
#
#
# Convention : Reuss Voigt Hill
#
# Bulk Modulus (GPa) = 42.75640 76.08885 59.42263
# Shear Modulus (GPa) = 31.25992 41.23957 36.24974
#
# Velocity S-wave (km/s) = 3.46035 3.97451 3.72631
# Velocity P-wave (km/s) = 5.68710 7.08576 6.42460
#
# Compressibility (1/GPa) = 0.02338831
#
# Stress axis : x y z
#
# Youngs Moduli (GPa) = 44.67970 119.67676 60.30170
#
# Poissons Ratio (x) = 0.76186 0.13380
# Poissons Ratio (y) = 0.28443 0.20391
# Poissons Ratio (z) = 0.09914 0.40468
#
# Static dielectric constant tensor:
#      x y z
#    x 2.049870 -0.025000 -0.010780 
#    y -0.025000 2.079590 0.121540 
#    z -0.010780 0.121540 2.288560 
# 
# From -- ./inp_files/447824.got.cif
#   From: 2010.05.17/outbox.cif.g08.bks.cpg/sg2_224_cif.got.tgz:447824.got - 2010.06.03 11:33:40.
