data_PCOD9090285
_publ_section_title
;
Structure prediction by ZEFSAII (Michael W. Deem and Ramdas Pophale) SiO2 
 PCOD9090285
Probable space group: P -1
;
_chemical_formula_sum "Si O2"
_cell_formula_units_Z 16
_cell_length_a 9.046513
_cell_length_b 10.722026
_cell_length_c 12.714743
_cell_angle_alpha 36.169969
_cell_angle_beta 70.501432
_cell_angle_gamma 82.061377
_cell_volume 666.729169
_symmetry_space_group_name_H-M "P -1"
_symmetry_group_IT_number 2
_symmetry_cell_setting 'triclinic'
loop_
_space_group_symop_operation_xyz
x,y,z
-x,-y,-z
loop_
_atom_site_type_symbol
_atom_site_label
_atom_site_fract_x
_atom_site_fract_y
_atom_site_fract_z
Si Si1 0.254943 0.102850 0.148750
Si Si2 0.593501 0.254649 0.559203
Si Si3 0.036711 0.841508 0.688653
Si Si4 0.980713 0.709264 0.423226
Si Si5 0.825512 0.050172 0.115711
Si Si6 0.944474 0.492949 0.256694
Si Si7 0.395264 0.158011 0.872768
Si Si8 0.372082 0.024808 0.603156
O O1 0.121948 0.200494 0.172306
O O2 0.360302 0.984527 0.280387
O O3 0.344350 0.248543 0.933270
O O4 0.695675 0.119766 0.177467
O O5 0.762309 0.427570 0.387785
O O6 0.508221 0.288165 0.666044
O O7 0.473439 0.235340 0.501378
O O8 0.057107 0.624070 0.775051
O O9 0.200926 0.970213 0.618425
O O10 0.000000 0.000000 0.500000
O O11 0.147841 0.887999 0.264715
O O12 0.022923 0.747264 0.064253
O O13 0.000000 0.500000 0.500000
O O14 0.951720 0.621953 0.609127
O O15 0.752198 0.978213 0.069045
O O16 0.864502 0.837826 0.305965
O O17 0.500000 0.000000 0.000000
O O18 0.500000 0.000000 0.500000
#
# Coordination Sequence:
#
# PCOD9090285 Si02
#       8
#     2   2   2   2   2   2   2   2
#     4  10  19  38  65 101 136 187 236 295 348 424
#     4   9  19  38  64  97 139 193 227 301 359 417
#     4  12  20  39  69 103 141 190 237 296 351 428
#     4  11  23  42  70 105 137 181 240 301 352 416
#     4  11  24  43  73 110 139 186 248 300 355 435
#     4  11  23  41  71 105 142 185 241 293 365 423
#     4   9  20  39  70 102 142 192 240 300 362 423
#     4  11  20  39  67 104 144 186 237 294 355 426
#
# _framework density 23.997748000000001
#
# number of rings (size 3 to 8) (size 9 to 14) (size 15 to 20)
#    0.000    1.500    5.000    0.750    0.000    2.500 
#    0.000    0.000    0.000   93.000    0.000    0.000 
#    0.000    0.000    0.000    0.000    0.000    0.000 
#
# Total GULP energy -89251.653279 kJ/mol
# GULP energy per Si atom -5578.228330 kJ/mol
# Density = 2.394313 g / cm^3
# Si number density = 23.997748 Si / 1000 Ang^3
#
#
#
# Elastic Constant Matrix: (Units=GPa)
#
#
# Indices 1 2 3 4 5 6 
#
# 1 131.2707 41.5197 46.6491 -1.4288 4.7454 15.0630
# 2 41.5197 91.6657 72.1145 3.4743 -3.3712 1.0025
# 3 46.6491 72.1145 148.2332 24.7326 -19.0902 -16.3557
# 4 -1.4288 3.4743 24.7326 45.1960 -9.6648 -0.7740
# 5 4.7454 -3.3712 -19.0902 -9.6648 60.0861 6.6892
# 6 15.0630 1.0025 -16.3557 -0.7740 6.6892 30.7258
#
#
#
# Elastic Compliance Matrix: (Units=1/GPa)
#
#
# Indices 1 2 3 4 5 6 
#
# 1 0.010284 -0.001971 -0.003469 0.002057 -0.000964 -0.006562
# 2 -0.001971 0.019759 -0.010268 0.003773 -0.000850 -0.004864
# 3 -0.003469 -0.010268 0.015368 -0.007057 0.002386 0.009519
# 4 0.002057 0.003773 -0.007057 0.026228 0.002558 -0.004784
# 5 -0.000964 -0.000850 0.002386 0.002558 0.018075 -0.002100
# 6 -0.006562 -0.004864 0.009519 -0.004784 -0.002100 0.041326
#
#
# Mechanical properties :
#
#
# Convention : Reuss Voigt Hill
#
# Bulk Modulus (GPa) = 71.45025 76.85959 74.15492
# Shear Modulus (GPa) = 29.91871 41.26066 35.58969
#
# Velocity S-wave (km/s) = 3.53474 4.15101 3.85521
# Velocity P-wave (km/s) = 6.81891 7.42104 7.12634
#
# Compressibility (1/GPa) = 0.01399575
#
# Stress axis : x y z
#
# Youngs Moduli (GPa) = 97.23691 50.61078 65.06976
#
# Poissons Ratio (x) = 0.09974 0.22573
# Poissons Ratio (y) = 0.19162 0.66813
# Poissons Ratio (z) = 0.33732 0.51967
#
# Static dielectric constant tensor:
#      x y z
#    x 2.091710 -0.072560 0.036150 
#    y -0.072560 1.941250 0.049370 
#    z 0.036150 0.049370 2.014150 
# 
# From -- ./inp_files/316274.got.cif
#   From: 2010.05.17/outbox.cif.g08.bks.cpg/sg2_159_cif.got.tgz:316274.got - 2010.06.03 11:33:40.
