data_PCOD9090308
_publ_section_title
;
Structure prediction by ZEFSAII (Michael W. Deem and Ramdas Pophale) SiO2 
 PCOD9090308
Probable space group: P -1
;
_chemical_formula_sum "Si O2"
_cell_formula_units_Z 16
_cell_length_a 8.076853
_cell_length_b 16.340019
_cell_length_c 8.510687
_cell_angle_alpha 121.371876
_cell_angle_beta 62.786257
_cell_angle_gamma 76.307883
_cell_volume 665.557475
_symmetry_space_group_name_H-M "P -1"
_symmetry_group_IT_number 2
_symmetry_cell_setting 'triclinic'
loop_
_space_group_symop_operation_xyz
x,y,z
-x,-y,-z
loop_
_atom_site_type_symbol
_atom_site_label
_atom_site_fract_x
_atom_site_fract_y
_atom_site_fract_z
Si Si1 0.370808 0.193017 0.780778
Si Si2 0.790354 0.635538 0.671489
Si Si3 0.166505 0.952556 0.033590
Si Si4 0.663949 0.736365 0.496011
Si Si5 0.647777 0.364271 0.098705
Si Si6 0.807342 0.178050 0.598729
Si Si7 0.033710 0.784454 0.945559
Si Si8 0.596565 0.363496 0.608709
O O1 0.288535 0.247006 0.690615
O O2 0.648835 0.131307 0.620762
O O3 0.259540 0.284057 0.072088
O O4 0.244559 0.132535 0.812397
O O5 0.825129 0.675699 0.524825
O O6 0.560656 0.640460 0.764997
O O7 0.000000 0.500000 0.500000
O O8 0.439101 0.873258 0.785496
O O9 0.129410 0.858443 0.022956
O O10 0.058444 0.067381 0.307100
O O11 0.000000 0.000000 0.000000
O O12 0.568421 0.658609 0.434670
O O13 0.808686 0.343651 0.154524
O O14 0.525080 0.494687 0.201667
O O15 0.830566 0.239744 0.796747
O O16 0.631988 0.302830 0.698938
O O17 0.136906 0.729983 0.673403
#
# Coordination Sequence:
#
# PCOD9090308 Si02
#       8
#     2   2   2   2   2   2   2   2
#     4  10  23  41  60  98 133 163 217 264 331 379
#     4  11  23  41  64  97 134 175 212 267 329 387
#     4  11  19  43  71  88 124 178 220 259 322 391
#     4  10  22  43  66  95 131 176 215 265 328 387
#     4  11  22  39  62  98 125 163 222 264 319 390
#     4  10  22  41  63  93 123 170 214 264 321 384
#     4  11  22  38  65  94 126 167 212 266 324 381
#     4  10  19  38  65  87 128 166 213 259 321 385
#
# _framework density 24.039995999999999
#
# number of rings (size 3 to 8) (size 9 to 14) (size 15 to 20)
#    0.000    1.500    6.250    1.500    1.750    1.500 
#    9.000    0.000    0.000    1.500    0.000    0.000 
#    0.000    0.000    0.000    0.000    0.000    0.000 
#
# Total GULP energy -89110.182842 kJ/mol
# GULP energy per Si atom -5569.386428 kJ/mol
# Density = 2.398528 g / cm^3
# Si number density = 24.039996 Si / 1000 Ang^3
#
#
#
# Elastic Constant Matrix: (Units=GPa)
#
#
# Indices 1 2 3 4 5 6 
#
# 1 43.2395 4.0021 6.4057 -5.3932 3.2187 -6.9170
# 2 4.0021 39.8823 18.5212 6.5914 11.2876 -10.7863
# 3 6.4057 18.5212 79.5119 1.3589 20.9245 -0.4967
# 4 -5.3932 6.5914 1.3589 29.4612 -7.3612 -1.6654
# 5 3.2187 11.2876 20.9245 -7.3612 28.6630 -6.8094
# 6 -6.9170 -10.7863 -0.4967 -1.6654 -6.8094 39.4246
#
#
#
# Elastic Compliance Matrix: (Units=1/GPa)
#
#
# Indices 1 2 3 4 5 6 
#
# 1 0.024908 -0.001831 -0.002202 0.005844 0.002090 0.004449
# 2 -0.001831 0.033928 -0.004728 -0.010006 -0.010698 0.006631
# 3 -0.002202 -0.004728 0.017073 -0.003364 -0.012097 -0.003696
# 4 0.005844 -0.010006 -0.003364 0.041874 0.017203 0.002986
# 5 0.002090 -0.010698 -0.012097 0.017203 0.053854 0.007316
# 6 0.004449 0.006631 -0.003696 0.002986 0.007316 0.029303
#
#
# Mechanical properties :
#
#
# Convention : Reuss Voigt Hill
#
# Bulk Modulus (GPa) = 17.12684 24.49906 20.81295
# Shear Modulus (GPa) = 21.01515 28.42341 24.71928
#
# Velocity S-wave (km/s) = 2.95985 3.44225 3.21012
# Velocity P-wave (km/s) = 4.33829 5.10018 4.73458
#
# Compressibility (1/GPa) = 0.05838787
#
# Stress axis : x y z
#
# Youngs Moduli (GPa) = 40.14796 29.47412 58.57116
#
# Poissons Ratio (x) = 0.05396 0.12898
# Poissons Ratio (y) = 0.07350 0.27691
# Poissons Ratio (z) = 0.08841 0.13935
#
# Static dielectric constant tensor:
#      x y z
#    x 2.061840 -0.048100 -0.018710 
#    y -0.048100 2.077640 -0.024630 
#    z -0.018710 -0.024630 2.028070 
# 
# From -- ./inp_files/208629.got.cif
#   From: 2010.05.17/outbox.cif.g08.bks.cpg/sg2_105_cif.got.tgz:208629.got - 2010.06.03 11:33:40.
