data_PCOD9090613
_publ_section_title
;
Structure prediction by ZEFSAII (Michael W. Deem and Ramdas Pophale) SiO2 
 PCOD9090613
Probable space group: P -1
;
_chemical_formula_sum "Si O2"
_cell_formula_units_Z 14
_cell_length_a 5.017548
_cell_length_b 15.668594
_cell_length_c 18.148063
_cell_angle_alpha 30.241144
_cell_angle_beta 115.710051
_cell_angle_gamma 117.300042
_cell_volume 636.282906
_symmetry_space_group_name_H-M "P -1"
_symmetry_group_IT_number 2
_symmetry_cell_setting 'triclinic'
loop_
_space_group_symop_operation_xyz
x,y,z
-x,-y,-z
loop_
_atom_site_type_symbol
_atom_site_label
_atom_site_fract_x
_atom_site_fract_y
_atom_site_fract_z
Si Si1 0.019910 0.144529 0.630539
Si Si2 0.678315 0.383592 0.060552
Si Si3 0.690247 0.004669 0.346949
Si Si4 0.089612 0.317606 0.364370
Si Si5 0.370508 0.470866 0.820880
Si Si6 0.833343 0.836952 0.196229
Si Si7 0.836369 0.228305 0.854047
O O1 0.178416 0.000016 0.717476
O O2 0.660053 0.084786 0.627724
O O3 0.117394 0.303916 0.467178
O O4 0.114090 0.183017 0.696436
O O5 0.500885 0.356793 0.981904
O O6 0.500000 0.500000 0.000000
O O7 0.715063 0.197947 0.233022
O O8 0.000000 0.500000 0.000000
O O9 0.876747 0.877570 0.506049
O O10 0.358789 0.443373 0.263221
O O11 0.776640 0.380322 0.267922
O O12 0.093413 0.358911 0.828406
O O13 0.502641 0.742050 0.202314
O O14 0.079363 0.778259 0.217022
O O15 0.843968 0.039344 0.029655
#
# Coordination Sequence:
#
# PCOD9090613 Si02
#       7
#     2   2   2   2   2   2   2
#     4  10  19  38  68  87 125 176 217 240 297 380
#     4  12  27  45  69 101 123 154 213 270 317 378
#     4  10  21  42  68  90 127 169 211 243 316 387
#     4  10  22  41  66  92 127 176 211 239 318 393
#     4  12  23  44  65  93 129 167 203 273 317 369
#     4  10  20  37  57  95 126 167 215 266 287 374
#     4  10  22  35  59  90 130 163 214 256 325 345
#
# _framework density 22.002791999999999
#
# number of rings (size 3 to 8) (size 9 to 14) (size 15 to 20)
#    0.857    0.571    1.429    4.286    0.000    3.429 
#    0.000    8.571    0.000    0.000    0.000    0.000 
#    0.000    0.000    0.000    0.000    0.000    0.000 
#
# Total GULP energy -78184.505729 kJ/mol
# GULP energy per Si atom -5584.607552 kJ/mol
# Density = 2.195271 g / cm^3
# Si number density = 22.002792 Si / 1000 Ang^3
#
#
#
# Elastic Constant Matrix: (Units=GPa)
#
#
# Indices 1 2 3 4 5 6 
#
# 1 134.8001 5.3911 23.1388 2.2710 2.5087 6.2937
# 2 5.3911 41.9988 8.6498 3.6476 -3.4967 -11.8008
# 3 23.1388 8.6498 61.3038 1.2660 7.0249 -10.9146
# 4 2.2710 3.6476 1.2660 18.3507 -5.2398 -0.9452
# 5 2.5087 -3.4967 7.0249 -5.2398 28.6978 0.5957
# 6 6.2937 -11.8008 -10.9146 -0.9452 0.5957 22.0378
#
#
#
# Elastic Compliance Matrix: (Units=1/GPa)
#
#
# Indices 1 2 3 4 5 6 
#
# 1 0.008405 -0.001700 -0.003849 -0.000713 -0.000021 -0.005247
# 2 -0.001700 0.029124 -0.000989 -0.003889 0.002911 0.015346
# 3 -0.003849 -0.000989 0.020470 -0.001706 -0.005330 0.010779
# 4 -0.000713 -0.003889 -0.001706 0.058502 0.010698 -0.000504
# 5 -0.000021 0.002911 -0.005330 0.010698 0.038495 -0.001657
# 6 -0.005247 0.015346 0.010779 -0.000504 -0.001657 0.060454
#
#
# Mechanical properties :
#
#
# Convention : Reuss Voigt Hill
#
# Bulk Modulus (GPa) = 22.26094 34.71802 28.48948
# Shear Modulus (GPa) = 20.53395 27.21213 23.87304
#
# Velocity S-wave (km/s) = 3.05822 3.52057 3.29751
# Velocity P-wave (km/s) = 4.75495 5.68675 5.24159
#
# Compressibility (1/GPa) = 0.04492173
#
# Stress axis : x y z
#
# Youngs Moduli (GPa) = 118.98318 34.33592 48.85258
#
# Poissons Ratio (x) = 0.05838 0.18806
# Poissons Ratio (y) = 0.20230 0.04830
# Poissons Ratio (z) = 0.45802 0.03394
#
# Static dielectric constant tensor:
#      x y z
#    x 1.787310 -0.049580 0.019340 
#    y -0.049580 1.816080 -0.015950 
#    z 0.019340 -0.015950 1.820680 
# 
# From -- ./inp_files/583969.got.cif
#   From: 2010.05.17/outbox.cif.g08.bks.cpg/sg2_292_cif.got.tgz:583969.got - 2010.06.03 11:33:40.
