data_PCOD9090590
_publ_section_title
;
Structure prediction by ZEFSAII (Michael W. Deem and Ramdas Pophale) SiO2 
 PCOD9090590
Probable space group: P -1
;
_chemical_formula_sum "Si O2"
_cell_formula_units_Z 16
_cell_length_a 14.618588
_cell_length_b 9.091685
_cell_length_c 14.236374
_cell_angle_alpha 135.149399
_cell_angle_beta 33.452189
_cell_angle_gamma 144.616193
_cell_volume 601.510326
_symmetry_space_group_name_H-M "P -1"
_symmetry_group_IT_number 2
_symmetry_cell_setting 'triclinic'
loop_
_space_group_symop_operation_xyz
x,y,z
-x,-y,-z
loop_
_atom_site_type_symbol
_atom_site_label
_atom_site_fract_x
_atom_site_fract_y
_atom_site_fract_z
Si Si1 0.825094 0.380316 0.492930
Si Si2 0.628297 0.718062 0.609530
Si Si3 0.090372 0.046306 0.797255
Si Si4 0.983918 0.780049 0.246692
Si Si5 0.323914 0.700643 0.623687
Si Si6 0.274137 0.787695 0.297483
Si Si7 0.329373 0.190639 0.851382
Si Si8 0.561870 0.757294 0.899463
O O1 0.700504 0.330432 0.482339
O O2 0.748797 0.360041 0.654691
O O3 0.037768 0.649378 0.414079
O O4 0.868459 0.162756 0.359900
O O5 0.868286 0.840436 0.449333
O O6 0.554497 0.428492 0.517965
O O7 0.564707 0.748764 0.780450
O O8 0.603863 0.908095 0.654627
O O9 0.110561 0.219445 0.771869
O O10 0.228538 0.174778 0.829376
O O11 0.855496 0.898095 0.960395
O O12 0.893011 0.490854 0.224187
O O13 0.221658 0.993439 0.142080
O O14 0.380357 0.981270 0.719512
O O15 0.385077 0.756010 0.102082
O O16 0.508560 0.482404 0.847813
#
# Coordination Sequence:
#
# PCOD9090590 Si02
#       8
#     2   2   2   2   2   2   2   2
#     4  10  19  38  67  97 135 186 232 268 352 418
#     4  10  23  43  67  98 143 185 231 278 357 416
#     4  10  20  45  71  95 138 192 230 271 348 437
#     4  10  23  44  71 101 136 189 230 280 352 411
#     4   9  22  42  72  92 134 195 225 273 349 427
#     4  11  22  37  67 103 136 177 232 292 338 406
#     4  10  23  43  70 104 138 179 235 287 345 416
#     4  12  24  41  70 114 138 169 234 311 336 392
#
# _framework density 26.599709000000001
#
# number of rings (size 3 to 8) (size 9 to 14) (size 15 to 20)
#    0.750    1.000    2.500    1.500    1.750    1.500 
#    2.250    0.625    0.000    3.000    0.000    0.000 
#    0.000    0.000    0.000    0.000    0.000    0.000 
#
# Total GULP energy -89431.895521 kJ/mol
# GULP energy per Si atom -5589.493470 kJ/mol
# Density = 2.653917 g / cm^3
# Si number density = 26.599709 Si / 1000 Ang^3
#
#
#
# Elastic Constant Matrix: (Units=GPa)
#
#
# Indices 1 2 3 4 5 6 
#
# 1 67.5203 47.1579 26.2271 -9.1305 5.7020 -18.5812
# 2 47.1579 165.5726 36.2941 -8.6398 -10.3778 -25.2537
# 3 26.2271 36.2941 98.2076 -22.3462 26.5406 -25.9100
# 4 -9.1305 -8.6398 -22.3462 54.1119 -5.4178 -2.8565
# 5 5.7020 -10.3778 26.5406 -5.4178 19.8556 2.2221
# 6 -18.5812 -25.2537 -25.9100 -2.8565 2.2221 39.7705
#
#
#
# Elastic Compliance Matrix: (Units=1/GPa)
#
#
# Indices 1 2 3 4 5 6 
#
# 1 0.022287 -0.006481 0.003981 0.003364 -0.015309 0.009988
# 2 -0.006481 0.010219 -0.007695 -0.001025 0.017500 -0.002604
# 3 0.003981 -0.007695 0.033399 0.009429 -0.049720 0.022188
# 4 0.003364 -0.001025 0.009429 0.022358 -0.009032 0.009174
# 5 -0.015309 0.017500 -0.049720 -0.009032 0.131982 -0.036455
# 6 0.009988 -0.002604 0.022188 0.009174 -0.036455 0.045308
#
#
# Mechanical properties :
#
#
# Convention : Reuss Voigt Hill
#
# Bulk Modulus (GPa) = 21.97096 61.18429 41.57763
# Shear Modulus (GPa) = 16.60494 37.52235 27.06364
#
# Velocity S-wave (km/s) = 2.50122 3.75991 3.19320
# Velocity P-wave (km/s) = 4.07667 6.47310 5.40926
#
# Compressibility (1/GPa) = 0.04551463
#
# Stress axis : x y z
#
# Youngs Moduli (GPa) = 44.86963 97.86138 29.94058
#
# Poissons Ratio (x) = 0.63423 -0.11920
# Poissons Ratio (y) = 0.29080 0.23040
# Poissons Ratio (z) = -0.17863 0.75307
#
# Static dielectric constant tensor:
#      x y z
#    x 2.085950 0.020240 -0.039840 
#    y 0.020240 2.099420 -0.034540 
#    z -0.039840 -0.034540 2.136540 
# 
# From -- ./inp_files/529056.got.cif
#   From: 2010.05.17/outbox.cif.g08.bks.cpg/sg2_265_cif.got.tgz:529056.got - 2010.06.03 11:33:40.
