data_PCOD9090345
_publ_section_title
;
Structure prediction by ZEFSAII (Michael W. Deem and Ramdas Pophale) SiO2 
 PCOD9090345
Probable space group: P -1
;
_chemical_formula_sum "Si O2"
_cell_formula_units_Z 16
_cell_length_a 18.777614
_cell_length_b 25.216289
_cell_length_c 15.616472
_cell_angle_alpha 20.069234
_cell_angle_beta 29.080550
_cell_angle_gamma 16.562318
_cell_volume 696.536500
_symmetry_space_group_name_H-M "P -1"
_symmetry_group_IT_number 2
_symmetry_cell_setting 'triclinic'
loop_
_space_group_symop_operation_xyz
x,y,z
-x,-y,-z
loop_
_atom_site_type_symbol
_atom_site_label
_atom_site_fract_x
_atom_site_fract_y
_atom_site_fract_z
Si Si1 0.917646 0.559734 0.215108
Si Si2 0.656075 0.023737 0.306857
Si Si3 0.464549 0.665667 0.872115
Si Si4 0.913290 0.058811 0.903678
Si Si5 0.532698 0.598166 0.389210
Si Si6 0.136322 0.508991 0.900974
Si Si7 0.639445 0.076462 0.781066
Si Si8 0.711782 0.135301 0.423215
O O1 0.643539 0.754855 0.163958
O O2 0.047261 0.295306 0.516029
O O3 0.120056 0.453113 0.096499
O O4 0.848742 0.758281 0.050205
O O5 0.500000 0.000000 0.500000
O O6 0.560774 0.194444 0.234170
O O7 0.689799 0.121414 0.047940
O O8 0.462440 0.747055 0.657329
O O9 0.686487 0.343685 0.139630
O O10 0.189309 0.808866 0.945334
O O11 0.773802 0.329867 0.600331
O O12 0.000000 0.000000 0.000000
O O13 0.500000 0.500000 0.500000
O O14 0.322771 0.824377 0.338328
O O15 0.597770 0.689857 0.124578
O O16 0.975139 0.810705 0.618955
O O17 0.000000 0.500000 0.000000
O O18 0.634538 0.141472 0.589608
#
# Coordination Sequence:
#
# PCOD9090345 Si02
#       8
#     2   2   2   2   2   2   2   2
#     4  10  21  38  64  91 124 165 215 269 311 375
#     4  11  23  39  62  98 132 168 213 268 335 381
#     4  10  19  38  65  91 123 170 219 264 310 386
#     4  10  21  41  67  88 123 173 218 258 303 391
#     4  12  25  42  64  98 131 169 208 266 338 387
#     4  11  21  39  66  92 126 163 217 264 315 383
#     4  10  20  40  62  94 121 165 216 264 317 381
#     4  10  20  36  66  95 119 162 223 268 306 371
#
# _framework density 22.970797999999998
#
# number of rings (size 3 to 8) (size 9 to 14) (size 15 to 20)
#    0.000    1.500    2.500    4.500    1.750    0.000 
#    2.250    1.250    0.000    4.500    0.000    0.000 
#    0.000    0.000    0.000    0.000    0.000    0.000 
#
# Total GULP energy -89149.448027 kJ/mol
# GULP energy per Si atom -5571.840502 kJ/mol
# Density = 2.291852 g / cm^3
# Si number density = 22.970798 Si / 1000 Ang^3
#
#
#
# Elastic Constant Matrix: (Units=GPa)
#
#
# Indices 1 2 3 4 5 6 
#
# 1 107.9008 36.1348 35.9403 -3.2383 -21.1206 33.7456
# 2 36.1348 58.8032 18.8862 8.2953 -4.5241 23.8213
# 3 35.9403 18.8862 84.2476 -5.8727 -2.2765 23.1646
# 4 -3.2383 8.2953 -5.8727 48.0482 -0.1008 -7.5469
# 5 -21.1206 -4.5241 -2.2765 -0.1008 40.7532 -1.0688
# 6 33.7456 23.8213 23.1646 -7.5469 -1.0688 37.7295
#
#
#
# Elastic Compliance Matrix: (Units=1/GPa)
#
#
# Indices 1 2 3 4 5 6 
#
# 1 0.016291 -0.004565 -0.003089 0.000020 0.007513 -0.009575
# 2 -0.004565 0.026617 -0.000750 -0.007144 0.000171 -0.013686
# 3 -0.003089 -0.000750 0.014989 0.000836 -0.000998 -0.005828
# 4 0.000020 -0.007144 0.000836 0.023510 -0.000450 0.008669
# 5 0.007513 0.000171 -0.000998 -0.000450 0.028249 -0.005504
# 6 -0.009575 -0.013686 -0.005828 0.008669 -0.005504 0.048866
#
#
# Mechanical properties :
#
#
# Convention : Reuss Voigt Hill
#
# Bulk Modulus (GPa) = 24.33682 48.09714 36.21698
# Shear Modulus (GPa) = 26.45128 35.97222 31.21175
#
# Velocity S-wave (km/s) = 3.39708 3.96156 3.69013
# Velocity P-wave (km/s) = 5.09947 6.47373 5.82725
#
# Compressibility (1/GPa) = 0.04109001
#
# Stress axis : x y z
#
# Youngs Moduli (GPa) = 61.38258 37.57015 66.71377
#
# Poissons Ratio (x) = 0.17149 0.20610
# Poissons Ratio (y) = 0.28019 0.05002
# Poissons Ratio (z) = 0.18963 0.02817
#
# Static dielectric constant tensor:
#      x y z
#    x 2.798010 0.241990 -0.179840 
#    y 0.241990 2.009940 -0.018970 
#    z -0.179840 -0.018970 1.897010 
# 
# From -- ./inp_files/345210.got.cif
#   From: 2010.05.17/outbox.cif.g08.bks.cpg/sg2_173_cif.got.tgz:345210.got - 2010.06.03 11:33:40.
