data_PCOD9090320
_publ_section_title
;
Structure prediction by ZEFSAII (Michael W. Deem and Ramdas Pophale) SiO2 
 PCOD9090320
Probable space group: P -1
;
_chemical_formula_sum "Si O2"
_cell_formula_units_Z 16
_cell_length_a 11.493658
_cell_length_b 9.445605
_cell_length_c 17.764755
_cell_angle_alpha 76.232603
_cell_angle_beta 137.339415
_cell_angle_gamma 69.690921
_cell_volume 772.962702
_symmetry_space_group_name_H-M "P -1"
_symmetry_group_IT_number 2
_symmetry_cell_setting 'triclinic'
loop_
_space_group_symop_operation_xyz
x,y,z
-x,-y,-z
loop_
_atom_site_type_symbol
_atom_site_label
_atom_site_fract_x
_atom_site_fract_y
_atom_site_fract_z
Si Si1 0.167217 0.653181 0.760906
Si Si2 0.840593 0.792988 0.199769
Si Si3 0.611380 0.848060 0.834845
Si Si4 0.601087 0.585664 0.568475
Si Si5 0.247090 0.089297 0.327603
Si Si6 0.764668 0.601920 0.794671
Si Si7 0.903971 0.624494 0.519059
Si Si8 0.616615 0.183991 0.130649
O O1 0.289974 0.730392 0.795983
O O2 0.969669 0.799536 0.722724
O O3 0.032628 0.677638 0.618372
O O4 0.399749 0.384151 0.937791
O O5 0.058769 0.636472 0.254474
O O6 0.988728 0.575106 0.350641
O O7 0.858784 0.935958 0.232158
O O8 0.500000 0.000000 0.000000
O O9 0.605043 0.731391 0.780451
O O10 0.505554 0.847018 0.862417
O O11 0.415966 0.111454 0.681138
O O12 0.935439 0.676338 0.017567
O O13 0.500000 0.500000 0.500000
O O14 0.581621 0.642441 0.639932
O O15 0.401457 0.841819 0.400663
O O16 0.149361 0.288047 0.202748
O O17 0.500000 0.000000 0.500000
O O18 0.000000 0.500000 0.500000
#
# Coordination Sequence:
#
# PCOD9090320 Si02
#       8
#     2   2   2   2   2   2   2   2
#     4  11  23  41  64  95 121 167 222 262 315 379
#     4  12  23  42  68  94 129 173 219 263 315 387
#     4  11  22  41  65  94 129 166 217 260 324 383
#     4  11  23  39  64  97 130 162 214 271 320 373
#     4  10  19  38  65  89 117 162 219 264 298 372
#     4  10  21  39  68  90 123 171 214 264 314 383
#     4  12  24  39  62  94 128 167 211 264 320 385
#     4  11  23  41  66  90 129 168 210 267 320 381
#
# _framework density 20.699574999999999
#
# number of rings (size 3 to 8) (size 9 to 14) (size 15 to 20)
#    0.000    1.000    3.750    5.250    0.000    0.500 
#    2.250    0.000    0.000    2.250    0.000    0.000 
#    0.000    0.000    0.000    0.000    0.000    0.000 
#
# Total GULP energy -89112.927496 kJ/mol
# GULP energy per Si atom -5569.557969 kJ/mol
# Density = 2.065246 g / cm^3
# Si number density = 20.699575 Si / 1000 Ang^3
#
#
#
# Elastic Constant Matrix: (Units=GPa)
#
#
# Indices 1 2 3 4 5 6 
#
# 1 36.2726 14.6158 5.0920 4.7664 -5.1992 -5.9342
# 2 14.6158 124.7356 47.2813 -12.9307 -9.0212 2.6617
# 3 5.0920 47.2813 106.0472 -20.9983 -11.4907 10.8494
# 4 4.7664 -12.9307 -20.9983 39.8809 -10.4352 -8.3220
# 5 -5.1992 -9.0212 -11.4907 -10.4352 20.8753 -1.9716
# 6 -5.9342 2.6617 10.8494 -8.3220 -1.9716 35.5869
#
#
#
# Elastic Compliance Matrix: (Units=1/GPa)
#
#
# Indices 1 2 3 4 5 6 
#
# 1 0.030969 -0.003474 -0.000431 -0.002612 0.005163 0.005230
# 2 -0.003474 0.010282 -0.003599 0.002765 0.003032 0.000563
# 3 -0.000431 -0.003599 0.014027 0.008637 0.010235 -0.001492
# 4 -0.002612 0.002765 0.008637 0.039015 0.025487 0.007260
# 5 0.005163 0.003032 0.010235 0.025487 0.069566 0.007328
# 6 0.005230 0.000563 -0.001492 0.007260 0.007328 0.031489
#
#
# Mechanical properties :
#
#
# Convention : Reuss Voigt Hill
#
# Bulk Modulus (GPa) = 24.83310 44.55928 34.69619
# Shear Modulus (GPa) = 22.34351 32.60639 27.47495
#
# Velocity S-wave (km/s) = 3.28901 3.97321 3.64719
# Velocity P-wave (km/s) = 5.14261 6.52855 5.87658
#
# Compressibility (1/GPa) = 0.04026884
#
# Stress axis : x y z
#
# Youngs Moduli (GPa) = 32.29086 97.25506 71.29157
#
# Poissons Ratio (x) = 0.33791 0.03072
# Poissons Ratio (y) = 0.11219 0.25658
# Poissons Ratio (z) = 0.01391 0.35003
#
# Static dielectric constant tensor:
#      x y z
#    x 2.008700 -0.226920 -0.203930 
#    y -0.226920 2.123120 0.209030 
#    z -0.203930 0.209030 1.927940 
# 
# From -- ./inp_files/565952.got.cif
#   From: 2010.05.17/outbox.cif.g08.bks.cpg/sg2_283_cif.got.tgz:565952.got - 2010.06.03 11:33:40.
