data_PCOD9090152
_publ_section_title
;
Structure prediction by ZEFSAII (Michael W. Deem and Ramdas Pophale) SiO2 
 PCOD9090152
Probable space group: P -1
;
_chemical_formula_sum "Si O2"
_cell_formula_units_Z 16
_cell_length_a 8.755474
_cell_length_b 12.219300
_cell_length_c 12.460905
_cell_angle_alpha 80.070767
_cell_angle_beta 43.688083
_cell_angle_gamma 110.779624
_cell_volume 643.564569
_symmetry_space_group_name_H-M "P -1"
_symmetry_group_IT_number 2
_symmetry_cell_setting 'triclinic'
loop_
_space_group_symop_operation_xyz
x,y,z
-x,-y,-z
loop_
_atom_site_type_symbol
_atom_site_label
_atom_site_fract_x
_atom_site_fract_y
_atom_site_fract_z
Si Si1 0.019499 0.241153 0.257673
Si Si2 0.088723 0.843825 0.454724
Si Si3 0.594816 0.269859 0.764668
Si Si4 0.106432 0.158195 0.872631
Si Si5 0.209552 0.983044 0.154270
Si Si6 0.248188 0.546884 0.158078
Si Si7 0.614135 0.383118 0.159819
Si Si8 0.846270 0.251761 0.125564
O O1 0.875004 0.114740 0.445522
O O2 0.009940 0.362657 0.290102
O O3 0.845218 0.178796 0.245401
O O4 0.390955 0.363871 0.025698
O O5 0.723757 0.683801 0.662881
O O6 0.280324 0.802172 0.332291
O O7 0.137871 0.954900 0.321311
O O8 0.431086 0.283529 0.751937
O O9 0.830786 0.415196 0.700642
O O10 0.337118 0.139211 0.007645
O O11 0.070559 0.148602 0.763391
O O12 0.879888 0.176355 0.025701
O O13 0.000000 0.000000 0.000000
O O14 0.500000 0.000000 0.000000
O O15 0.266210 0.609903 0.021316
O O16 0.593037 0.258772 0.251711
O O17 0.847307 0.558459 0.057149
#
# Coordination Sequence:
#
# PCOD9090152 Si02
#       8
#     2   2   2   2   2   2   2   2
#     4   9  18  34  57  84 121 147 195 240 297 358
#     4  10  21  37  57  91 124 152 199 251 291 357
#     4  10  20  36  63  83 117 161 204 243 297 349
#     4  10  21  38  64  86 111 159 210 244 288 359
#     4   9  21  39  59  80 118 157 201 239 295 356
#     4   9  17  34  58  84 112 161 195 233 294 366
#     4   9  21  36  60  92 123 157 199 240 305 356
#     4  10  19  38  64  86 122 163 196 242 301 365
#
# _framework density 24.861529999999998
#
# number of rings (size 3 to 8) (size 9 to 14) (size 15 to 20)
#    0.000    2.500    1.250    0.750    3.500    1.500 
#    0.000    3.125    0.000    8.250    0.000    0.000 
#    0.000    0.000    0.000    0.000    0.000    0.000 
#
# Total GULP energy -89260.757412 kJ/mol
# GULP energy per Si atom -5578.797338 kJ/mol
# Density = 2.480494 g / cm^3
# Si number density = 24.861530 Si / 1000 Ang^3
#
#
#
# Elastic Constant Matrix: (Units=GPa)
#
#
# Indices 1 2 3 4 5 6 
#
# 1 112.4553 9.4962 20.8564 6.9271 22.5763 3.4735
# 2 9.4962 83.0612 2.9058 9.5799 -4.1423 -1.1284
# 3 20.8564 2.9058 81.7400 3.4818 27.7050 -1.1323
# 4 6.9271 9.5799 3.4818 12.5089 3.4317 -4.8828
# 5 22.5763 -4.1423 27.7050 3.4317 41.3941 3.3189
# 6 3.4735 -1.1284 -1.1323 -4.8828 3.3189 30.8608
#
#
#
# Elastic Compliance Matrix: (Units=1/GPa)
#
#
# Indices 1 2 3 4 5 6 
#
# 1 0.010371 -0.000948 -0.000855 -0.004010 -0.004738 -0.001358
# 2 -0.000948 0.013641 -0.001013 -0.011259 0.003622 -0.001603
# 3 -0.000855 -0.001013 0.016083 0.000398 -0.010581 0.001850
# 4 -0.004010 -0.011259 0.000398 0.099637 -0.008811 0.016767
# 5 -0.004738 0.003622 -0.010581 -0.008811 0.035311 -0.004914
# 6 -0.001358 -0.001603 0.001850 0.016767 -0.004914 0.035747
#
#
# Mechanical properties :
#
#
# Convention : Reuss Voigt Hill
#
# Bulk Modulus (GPa) = 29.01710 38.19704 33.60707
# Shear Modulus (GPa) = 21.93852 33.21930 27.57891
#
# Velocity S-wave (km/s) = 2.97379 3.65934 3.33423
# Velocity P-wave (km/s) = 4.84645 5.76642 5.32633
#
# Compressibility (1/GPa) = 0.03446243
#
# Stress axis : x y z
#
# Youngs Moduli (GPa) = 96.42178 73.31073 62.17749
#
# Poissons Ratio (x) = 0.06950 0.05314
# Poissons Ratio (y) = 0.09142 0.06301
# Poissons Ratio (z) = 0.08241 0.07429
#
# Static dielectric constant tensor:
#      x y z
#    x 2.025400 0.051180 0.030750 
#    y 0.051180 2.076580 -0.037230 
#    z 0.030750 -0.037230 2.045670 
# 
# From -- ./inp_files/395835.got.cif
#   From: 2010.05.17/outbox.cif.g08.bks.cpg/sg2_198_cif.got.tgz:395835.got - 2010.06.03 11:33:40.
