data_PCOD9090715
_publ_section_title
;
Structure prediction by ZEFSAII (Michael W. Deem and Ramdas Pophale) SiO2 
 PCOD9090715
Probable space group: P -1
;
_chemical_formula_sum "Si O2"
_cell_formula_units_Z 12
_cell_length_a 7.988064
_cell_length_b 9.059762
_cell_length_c 13.242613
_cell_angle_alpha 122.932369
_cell_angle_beta 40.360011
_cell_angle_gamma 131.350700
_cell_volume 464.294628
_symmetry_space_group_name_H-M "P -1"
_symmetry_group_IT_number 2
_symmetry_cell_setting 'triclinic'
loop_
_space_group_symop_operation_xyz
x,y,z
-x,-y,-z
loop_
_atom_site_type_symbol
_atom_site_label
_atom_site_fract_x
_atom_site_fract_y
_atom_site_fract_z
Si Si1 0.696900 0.855950 0.384887
Si Si2 0.216975 0.777799 0.743557
Si Si3 0.596204 0.622066 0.871473
Si Si4 0.052211 0.315025 0.446540
Si Si5 0.987212 0.414442 0.862750
Si Si6 0.547265 0.210227 0.756478
O O1 0.440908 0.774461 0.555112
O O2 0.561416 0.836215 0.328775
O O3 0.882088 0.737371 0.259659
O O4 0.894173 0.084975 0.402227
O O5 0.916668 0.741723 0.814560
O O6 0.145045 0.601839 0.787979
O O7 0.369776 0.994708 0.804616
O O8 0.486866 0.395574 0.872919
O O9 0.641955 0.625139 0.728969
O O10 0.359420 0.689930 0.038332
O O11 0.897703 0.287509 0.617874
O O12 0.000000 0.500000 0.500000
O O13 0.000000 0.500000 0.000000
#
# Coordination Sequence:
#
# PCOD9090715 Si02
#       6
#     2   2   2   2   2   2
#     4  11  20  43  68 101 129 175 218 280 334 383
#     4  11  23  44  71  94 126 183 235 266 310 411
#     4  11  21  40  68  98 132 174 223 267 327 405
#     4   9  18  35  68 102 122 169 225 273 314 395
#     4  12  27  42  61 100 147 173 207 281 352 381
#     4  10  19  38  72  99 122 170 234 269 321 389
#
# _framework density 25.845659000000001
#
# number of rings (size 3 to 8) (size 9 to 14) (size 15 to 20)
#    0.000    1.333    5.000    2.000    0.000    1.333 
#    0.000    1.667    0.000    6.000    0.000    0.000 
#    0.000    0.000    0.000    0.000    0.000    0.000 
#
# Total GULP energy -67070.955627 kJ/mol
# GULP energy per Si atom -5589.246302 kJ/mol
# Density = 2.578683 g / cm^3
# Si number density = 25.845659 Si / 1000 Ang^3
#
#
#
# Elastic Constant Matrix: (Units=GPa)
#
#
# Indices 1 2 3 4 5 6 
#
# 1 71.6379 45.8539 38.8194 8.1807 -13.2552 -12.3889
# 2 45.8539 197.3236 87.1695 10.8133 -19.5759 -1.7769
# 3 38.8194 87.1695 177.3718 7.5686 -37.8588 -19.1662
# 4 8.1807 10.8133 7.5686 40.5354 -4.8115 8.5214
# 5 -13.2552 -19.5759 -37.8588 -4.8115 46.2042 6.8016
# 6 -12.3889 -1.7769 -19.1662 8.5214 6.8016 33.4222
#
#
#
# Elastic Compliance Matrix: (Units=1/GPa)
#
#
# Indices 1 2 3 4 5 6 
#
# 1 0.018665 -0.003380 -0.001203 -0.003870 0.001545 0.006722
# 2 -0.003380 0.007192 -0.003088 -0.000125 -0.000084 -0.002592
# 3 -0.001203 -0.003088 0.008924 -0.000776 0.005037 0.003681
# 4 -0.003870 -0.000125 -0.000776 0.027928 0.002510 -0.009518
# 5 0.001545 -0.000084 0.005037 0.002510 0.026828 -0.002643
# 6 0.006722 -0.002592 0.003681 -0.009518 -0.002643 0.037349
#
#
# Mechanical properties :
#
#
# Convention : Reuss Voigt Hill
#
# Bulk Modulus (GPa) = 51.43866 87.77989 69.60928
# Shear Modulus (GPa) = 33.62305 42.33171 37.97738
#
# Velocity S-wave (km/s) = 3.61073 4.05145 3.83742
# Velocity P-wave (km/s) = 6.10972 7.47813 6.82829
#
# Compressibility (1/GPa) = 0.01944063
#
# Stress axis : x y z
#
# Youngs Moduli (GPa) = 53.57763 139.03412 112.05304
#
# Poissons Ratio (x) = 0.46996 0.13475
# Poissons Ratio (y) = 0.18110 0.34598
# Poissons Ratio (z) = 0.06443 0.42928
#
# Static dielectric constant tensor:
#      x y z
#    x 2.229280 0.110900 0.077090 
#    y 0.110900 1.985200 -0.034490 
#    z 0.077090 -0.034490 2.111550 
# 
# From -- ./inp_files/292130.got.cif
#   From: 2010.05.17/outbox.cif.g08.bks.cpg/sg2_147_cif.got.tgz:292130.got - 2010.06.03 11:33:40.
