data_PCOD9090927
_publ_section_title
;
Structure prediction by ZEFSAII (Michael W. Deem and Ramdas Pophale) SiO2 
 PCOD9090927
Probable space group: P -1
;
_chemical_formula_sum "Si O2"
_cell_formula_units_Z 14
_cell_length_a 9.167095
_cell_length_b 8.406864
_cell_length_c 8.976998
_cell_angle_alpha 116.277210
_cell_angle_beta 79.915636
_cell_angle_gamma 82.050972
_cell_volume 592.220601
_symmetry_space_group_name_H-M "P -1"
_symmetry_group_IT_number 2
_symmetry_cell_setting 'triclinic'
loop_
_space_group_symop_operation_xyz
x,y,z
-x,-y,-z
loop_
_atom_site_type_symbol
_atom_site_label
_atom_site_fract_x
_atom_site_fract_y
_atom_site_fract_z
Si Si1 0.360131 0.026027 0.912941
Si Si2 0.228555 0.467426 0.647278
Si Si3 0.543423 0.173983 0.487043
Si Si4 0.511596 0.673940 0.979603
Si Si5 0.827559 0.170284 0.987782
Si Si6 0.990440 0.345903 0.816669
Si Si7 0.262703 0.568841 0.354286
O O1 0.406078 0.882733 0.713751
O O2 0.195875 0.011169 0.999447
O O3 0.500000 0.000000 0.000000
O O4 0.373560 0.218487 0.923353
O O5 0.402106 0.351753 0.583140
O O6 0.188035 0.658301 0.825660
O O7 0.196498 0.521106 0.502905
O O8 0.134697 0.331629 0.678749
O O9 0.679374 0.245926 0.567449
O O10 0.500000 0.000000 0.500000
O O11 0.336686 0.782871 0.045745
O O12 0.592737 0.597855 0.779691
O O13 0.500000 0.500000 0.000000
O O14 0.957772 0.177556 0.848309
O O15 0.850253 0.414382 0.757188
O O16 0.000000 0.500000 0.000000
#
# Coordination Sequence:
#
# PCOD9090927 Si02
#       7
#     2   2   2   2   2   2   2
#     4  10  22  36  60  96 130 163 209 273 317 382
#     4  11  22  42  65  95 132 171 217 267 331 390
#     4  12  25  40  68 101 132 165 218 280 330 382
#     4  11  20  35  66  95 124 163 219 262 320 380
#     4  10  19  39  61  93 128 168 213 260 322 388
#     4  10  24  40  67  94 132 176 221 266 323 403
#     4  12  22  42  70  98 127 172 221 275 325 385
#
# _framework density 23.639838000000001
#
# number of rings (size 3 to 8) (size 9 to 14) (size 15 to 20)
#    0.000    1.143    4.286    3.429    2.000    0.000 
#    0.000    0.714    3.143    2.571    0.000    0.000 
#    0.000    0.000    0.000    0.000    0.000    0.000 
#
# Total GULP energy -78161.118355 kJ/mol
# GULP energy per Si atom -5582.937025 kJ/mol
# Density = 2.358603 g / cm^3
# Si number density = 23.639838 Si / 1000 Ang^3
#
#
#
# Elastic Constant Matrix: (Units=GPa)
#
#
# Indices 1 2 3 4 5 6 
#
# 1 86.8246 43.8526 41.1445 -15.6771 16.7857 32.9740
# 2 43.8526 95.4935 26.9623 -19.2350 6.7937 34.1519
# 3 41.1445 26.9623 94.8348 -16.4805 12.8256 19.9969
# 4 -15.6771 -19.2350 -16.4805 41.1915 8.1737 -5.0149
# 5 16.7857 6.7937 12.8256 8.1737 35.8566 -12.3800
# 6 32.9740 34.1519 19.9969 -5.0149 -12.3800 50.6803
#
#
#
# Elastic Compliance Matrix: (Units=1/GPa)
#
#
# Indices 1 2 3 4 5 6 
#
# 1 0.026362 -0.000907 -0.002538 0.010255 -0.020328 -0.019490
# 2 -0.000907 0.017870 0.001005 0.008742 -0.009944 -0.013412
# 3 -0.002538 0.001005 0.014805 0.006233 -0.007848 -0.006168
# 4 0.010255 0.008742 0.006233 0.037262 -0.023037 -0.016963
# 5 -0.020328 -0.009944 -0.007848 -0.023037 0.059531 0.035286
# 6 -0.019490 -0.013412 -0.006168 -0.016963 0.035286 0.050825
#
#
# Mechanical properties :
#
#
# Convention : Reuss Voigt Hill
#
# Bulk Modulus (GPa) = 18.46513 55.67465 37.06989
# Shear Modulus (GPa) = 21.77816 36.55858 29.16837
#
# Velocity S-wave (km/s) = 3.03850 3.93680 3.51645
# Velocity P-wave (km/s) = 4.48753 6.65333 5.67472
#
# Compressibility (1/GPa) = 0.05415612
#
# Stress axis : x y z
#
# Youngs Moduli (GPa) = 37.93345 55.96058 67.54294
#
# Poissons Ratio (x) = 0.05077 0.17146
# Poissons Ratio (y) = 0.03441 -0.06790
# Poissons Ratio (z) = 0.09629 -0.05625
#
# Static dielectric constant tensor:
#      x y z
#    x 1.912320 -0.011870 -0.001840 
#    y -0.011870 1.919950 0.070720 
#    z -0.001840 0.070720 1.861050 
# 
# From -- ./inp_files/158615.got.cif
#   From: 2010.05.17/outbox.cif.g08.bks.cpg/sg2_80_cif.got.tgz:158615.got - 2010.06.03 11:33:40.
