data_PCOD9090657
_publ_section_title
;
Structure prediction by ZEFSAII (Michael W. Deem and Ramdas Pophale) SiO2 
 PCOD9090657
Probable space group: P -1
;
_chemical_formula_sum "Si O2"
_cell_formula_units_Z 12
_cell_length_a 14.224012
_cell_length_b 20.472603
_cell_length_c 10.596459
_cell_angle_alpha 153.791799
_cell_angle_beta 146.857845
_cell_angle_gamma 19.561558
_cell_volume 455.593677
_symmetry_space_group_name_H-M "P -1"
_symmetry_group_IT_number 2
_symmetry_cell_setting 'triclinic'
loop_
_space_group_symop_operation_xyz
x,y,z
-x,-y,-z
loop_
_atom_site_type_symbol
_atom_site_label
_atom_site_fract_x
_atom_site_fract_y
_atom_site_fract_z
Si Si1 0.732407 0.274114 0.132470
Si Si2 0.696683 0.666967 0.368138
Si Si3 0.175279 0.711628 0.053433
Si Si4 0.232381 0.174853 0.786289
Si Si5 0.003302 0.381384 0.608090
Si Si6 0.796738 0.242922 0.536466
O O1 0.861600 0.330271 0.306903
O O2 0.531820 0.488578 0.383417
O O3 0.546607 0.277644 0.861788
O O4 0.000000 0.000000 0.000000
O O5 0.814703 0.663272 0.370235
O O6 0.524342 0.896557 0.658154
O O7 0.891815 0.418421 0.231959
O O8 0.191120 0.753496 0.291087
O O9 0.500000 0.500000 0.000000
O O10 0.939737 0.988914 0.218283
O O11 0.174949 0.227012 0.661504
O O12 0.989065 0.240071 0.687235
O O13 0.223924 0.343791 0.126386
#
# Coordination Sequence:
#
# PCOD9090657 Si02
#       6
#     2   2   2   2   2   2
#     4  11  23  41  63  91 133 168 204 260 313 377
#     4  11  22  43  64  92 127 167 213 252 315 373
#     4  10  19  38  69  88 120 170 212 256 307 373
#     4  11  21  39  64  94 126 164 204 260 314 369
#     4  11  24  40  61  94 131 165 206 259 314 376
#     4  10  22  39  62  97 123 162 217 254 310 375
#
# _framework density 26.339258999999998
#
# number of rings (size 3 to 8) (size 9 to 14) (size 15 to 20)
#    0.000    1.333    6.667    0.500    0.000    0.667 
#    3.000    0.833    0.000    5.000    0.000    0.000 
#    0.000    0.000    0.000    0.000    0.000    0.000 
#
# Total GULP energy -67113.352141 kJ/mol
# GULP energy per Si atom -5592.779345 kJ/mol
# Density = 2.627931 g / cm^3
# Si number density = 26.339259 Si / 1000 Ang^3
#
#
#
# Elastic Constant Matrix: (Units=GPa)
#
#
# Indices 1 2 3 4 5 6 
#
# 1 154.8466 39.2085 39.6500 2.4695 27.3182 -33.4522
# 2 39.2085 132.8451 58.7590 32.8082 11.3811 -19.7180
# 3 39.6500 58.7590 203.5741 58.9142 19.5239 -20.8877
# 4 2.4695 32.8082 58.9142 55.8935 -11.8313 -7.8979
# 5 27.3182 11.3811 19.5239 -11.8313 47.1225 -9.5717
# 6 -33.4522 -19.7180 -20.8877 -7.8979 -9.5717 33.2623
#
#
#
# Elastic Compliance Matrix: (Units=1/GPa)
#
#
# Indices 1 2 3 4 5 6 
#
# 1 0.009075 -0.001426 -0.000893 0.001885 -0.002564 0.007431
# 2 -0.001426 0.010070 -0.000648 -0.005321 -0.002221 0.002226
# 3 -0.000893 -0.000648 0.008637 -0.009762 -0.005294 0.000300
# 4 0.001885 -0.005321 -0.009762 0.034878 0.013993 0.004919
# 5 -0.002564 -0.002221 -0.005294 0.013993 0.029908 0.004709
# 6 0.007431 0.002226 0.000300 0.004919 0.004709 0.041568
#
#
# Mechanical properties :
#
#
# Convention : Reuss Voigt Hill
#
# Bulk Modulus (GPa) = 45.77101 85.16675 65.46888
# Shear Modulus (GPa) = 33.93228 50.83222 42.38225
#
# Velocity S-wave (km/s) = 3.59315 4.39783 4.01570
# Velocity P-wave (km/s) = 5.88469 7.62841 6.81257
#
# Compressibility (1/GPa) = 0.02184789
#
# Stress axis : x y z
#
# Youngs Moduli (GPa) = 110.18758 99.30893 115.78320
#
# Poissons Ratio (x) = 0.14166 0.10339
# Poissons Ratio (y) = 0.15718 0.07497
# Poissons Ratio (z) = 0.09840 0.06430
#
# Static dielectric constant tensor:
#      x y z
#    x 2.238340 0.122380 0.001560 
#    y 0.122380 2.192930 0.016510 
#    z 0.001560 0.016510 2.070510 
# 
# From -- ./inp_files/418171.got.cif
#   From: 2010.05.17/outbox.cif.g08.bks.cpg/sg2_210_cif.got.tgz:418171.got - 2010.06.03 11:33:40.
