data_PCOD9090118
_publ_section_title
;
Structure prediction by ZEFSAII (Michael W. Deem and Ramdas Pophale) SiO2 
 PCOD9090118
Probable space group: P -1
;
_chemical_formula_sum "Si O2"
_cell_formula_units_Z 16
_cell_length_a 12.598261
_cell_length_b 11.474801
_cell_length_c 15.368380
_cell_angle_alpha 99.074596
_cell_angle_beta 129.555937
_cell_angle_gamma 39.426077
_cell_volume 795.074377
_symmetry_space_group_name_H-M "P -1"
_symmetry_group_IT_number 2
_symmetry_cell_setting 'triclinic'
loop_
_space_group_symop_operation_xyz
x,y,z
-x,-y,-z
loop_
_atom_site_type_symbol
_atom_site_label
_atom_site_fract_x
_atom_site_fract_y
_atom_site_fract_z
Si Si1 0.305468 0.271925 0.753223
Si Si2 0.303627 0.966023 0.441274
Si Si3 0.163216 0.942988 0.207794
Si Si4 0.907356 0.695607 0.936462
Si Si5 0.104230 0.352025 0.279201
Si Si6 0.291142 0.624898 0.114803
Si Si7 0.935378 0.163271 0.429573
Si Si8 0.772257 0.530117 0.423454
O O1 0.284786 0.408529 0.702267
O O2 0.207305 0.367790 0.812256
O O3 0.035858 0.405308 0.584395
O O4 0.607359 0.976355 0.854401
O O5 0.183120 0.179608 0.361257
O O6 0.189927 0.023476 0.485386
O O7 0.169676 0.957286 0.315469
O O8 0.651471 0.729400 0.594473
O O9 0.219150 0.775362 0.170753
O O10 0.451605 0.804143 0.322137
O O11 0.885302 0.204065 0.043345
O O12 0.884807 0.695812 0.820532
O O13 0.000000 0.500000 0.000000
O O14 0.161694 0.598608 0.073910
O O15 0.634535 0.364242 0.245290
O O16 0.846754 0.340667 0.464331
O O17 0.000000 0.000000 0.500000
#
# Coordination Sequence:
#
# PCOD9090118 Si02
#       8
#     2   2   2   2   2   2   2   2
#     4  11  21  39  71  96 130 177 223 283 327 392
#     4  11  21  41  65 106 129 167 232 287 319 389
#     4  10  19  40  67  89 131 166 226 278 320 398
#     4  12  27  45  67  97 142 179 216 281 345 398
#     4  11  23  40  72 103 133 168 237 280 325 400
#     4  10  23  41  61  93 130 181 217 262 343 399
#     4  11  25  40  63  92 137 180 218 269 338 404
#     4  10  19  38  63  98 126 169 224 268 337 387
#
# _framework density 20.123902999999999
#
# number of rings (size 3 to 8) (size 9 to 14) (size 15 to 20)
#    0.000    1.250    5.000    0.750    7.000    1.000 
#    2.250    3.750    0.000    0.000    0.000    0.000 
#    0.000    0.000    0.000    0.000    0.000    0.000 
#
# Total GULP energy -89129.104498 kJ/mol
# GULP energy per Si atom -5570.569031 kJ/mol
# Density = 2.007810 g / cm^3
# Si number density = 20.123903 Si / 1000 Ang^3
#
#
#
# Elastic Constant Matrix: (Units=GPa)
#
#
# Indices 1 2 3 4 5 6 
#
# 1 97.5564 29.9191 22.9604 -16.9435 -1.5762 6.9564
# 2 29.9191 85.2545 15.3260 -8.8772 -5.9813 -9.2053
# 3 22.9604 15.3260 33.8942 -1.6320 11.7752 3.7944
# 4 -16.9435 -8.8772 -1.6320 31.0457 3.6316 5.5834
# 5 -1.5762 -5.9813 11.7752 3.6316 30.6197 -3.3549
# 6 6.9564 -9.2053 3.7944 5.5834 -3.3549 38.9290
#
#
#
# Elastic Compliance Matrix: (Units=1/GPa)
#
#
# Indices 1 2 3 4 5 6 
#
# 1 0.014731 -0.003076 -0.008675 0.007034 0.002295 -0.003325
# 2 -0.003076 0.015241 -0.007543 0.000593 0.006235 0.005341
# 3 -0.008675 -0.007543 0.046557 -0.000904 -0.020419 -0.006402
# 4 0.007034 0.000593 -0.000904 0.037920 -0.004422 -0.006849
# 5 0.002295 0.006235 -0.020419 -0.004422 0.043183 0.007410
# 6 -0.003325 0.005341 -0.006402 -0.006849 0.007410 0.029790
#
#
# Mechanical properties :
#
#
# Convention : Reuss Voigt Hill
#
# Bulk Modulus (GPa) = 26.35588 39.23511 32.79549
# Shear Modulus (GPa) = 20.95047 30.01885 25.48466
#
# Velocity S-wave (km/s) = 3.23007 3.86644 3.56249
# Velocity P-wave (km/s) = 5.19965 6.28264 5.76663
#
# Compressibility (1/GPa) = 0.03794220
#
# Stress axis : x y z
#
# Youngs Moduli (GPa) = 67.88274 65.61284 21.47883
#
# Poissons Ratio (x) = 0.20183 0.18632
# Poissons Ratio (y) = 0.20881 0.16202
# Poissons Ratio (z) = 0.58886 0.49493
#
# Static dielectric constant tensor:
#      x y z
#    x 1.740420 -0.039220 0.007420 
#    y -0.039220 1.804940 0.025700 
#    z 0.007420 0.025700 1.723040 
# 
# From -- ./inp_files/418252.got.cif
#   From: 2010.05.17/outbox.cif.g08.bks.cpg/sg2_210_cif.got.tgz:418252.got - 2010.06.03 11:33:40.
