data_PCOD9090289
_publ_section_title
;
Structure prediction by ZEFSAII (Michael W. Deem and Ramdas Pophale) SiO2 
 PCOD9090289
Probable space group: P -1
;
_chemical_formula_sum "Si O2"
_cell_formula_units_Z 14
_cell_length_a 19.237669
_cell_length_b 8.076330
_cell_length_c 6.974480
_cell_angle_alpha 110.108875
_cell_angle_beta 60.530481
_cell_angle_gamma 138.564472
_cell_volume 623.745625
_symmetry_space_group_name_H-M "P -1"
_symmetry_group_IT_number 2
_symmetry_cell_setting 'triclinic'
loop_
_space_group_symop_operation_xyz
x,y,z
-x,-y,-z
loop_
_atom_site_type_symbol
_atom_site_label
_atom_site_fract_x
_atom_site_fract_y
_atom_site_fract_z
Si Si1 0.441326 0.157236 0.465953
Si Si2 0.645607 0.247656 0.306082
Si Si3 0.825907 0.729056 0.043478
Si Si4 0.370338 0.074151 0.109823
Si Si5 0.311402 0.210676 0.928529
Si Si6 0.128796 0.748908 0.221545
Si Si7 0.028227 0.813021 0.703013
O O1 0.563928 0.288728 0.427860
O O2 0.363545 0.871244 0.530703
O O3 0.439485 0.173139 0.247907
O O4 0.386543 0.242114 0.672993
O O5 0.768603 0.497713 0.170007
O O6 0.601569 0.036672 0.123035
O O7 0.729732 0.659315 0.009800
O O8 0.930851 0.808087 0.822835
O O9 0.873629 0.958498 0.204338
O O10 0.234912 0.842641 0.242665
O O11 0.373858 0.264536 0.065121
O O12 0.195065 0.914513 0.007310
O O13 0.032537 0.451674 0.224358
O O14 0.076857 0.830969 0.440087
#
# Coordination Sequence:
#
# PCOD9090289 Si02
#       7
#     2   2   2   2   2   2   2
#     4  10  19  38  65  82 115 163 192 234 291 353
#     4  10  21  37  59  91 117 149 202 239 285 353
#     4  11  21  38  55  93 124 145 193 252 295 335
#     4   9  18  38  58  85 114 154 197 236 277 359
#     4   9  21  36  59  86 120 147 195 239 287 355
#     4   9  19  39  58  88 111 157 207 222 279 371
#     4  10  20  36  64  79 120 162 190 241 295 333
#
# _framework density 22.445046999999999
#
# number of rings (size 3 to 8) (size 9 to 14) (size 15 to 20)
#    0.857    1.429    1.429    1.286    0.000    1.714 
#    2.571    6.429    0.000    0.000    0.000    0.000 
#    0.000    0.000    0.000    0.000    0.000    0.000 
#
# Total GULP energy -78108.392844 kJ/mol
# GULP energy per Si atom -5579.170917 kJ/mol
# Density = 2.239396 g / cm^3
# Si number density = 22.445047 Si / 1000 Ang^3
#
#
#
# Elastic Constant Matrix: (Units=GPa)
#
#
# Indices 1 2 3 4 5 6 
#
# 1 85.5168 0.2555 36.5845 -0.4551 2.0954 -7.6675
# 2 0.2555 55.1936 8.8697 -1.5191 3.7535 7.2019
# 3 36.5845 8.8697 89.1895 -2.3464 -13.1920 -0.2345
# 4 -0.4551 -1.5191 -2.3464 23.2611 1.7716 -5.3772
# 5 2.0954 3.7535 -13.1920 1.7716 35.2363 -7.9616
# 6 -7.6675 7.2019 -0.2345 -5.3772 -7.9616 21.7443
#
#
#
# Elastic Compliance Matrix: (Units=1/GPa)
#
#
# Indices 1 2 3 4 5 6 
#
# 1 0.014930 0.000607 -0.006515 0.000857 -0.002462 0.004303
# 2 0.000607 0.020054 -0.003051 -0.000556 -0.005208 -0.008505
# 3 -0.006515 -0.003051 0.015213 0.001066 0.006716 0.001600
# 4 0.000857 -0.000556 0.001066 0.045820 0.000846 0.012139
# 5 -0.002462 -0.005208 0.006716 0.000846 0.034679 0.013836
# 6 0.004303 -0.008505 0.001600 0.012139 0.013836 0.058409
#
#
# Mechanical properties :
#
#
# Convention : Reuss Voigt Hill
#
# Bulk Modulus (GPa) = 30.97818 35.70214 33.34016
# Shear Modulus (GPa) = 22.95882 28.32768 25.64325
#
# Velocity S-wave (km/s) = 3.20173 3.55645 3.38374
# Velocity P-wave (km/s) = 5.24403 5.72760 5.49114
#
# Compressibility (1/GPa) = 0.03228079
#
# Stress axis : x y z
#
# Youngs Moduli (GPa) = 66.98135 49.86481 65.73184
#
# Poissons Ratio (x) = -0.03028 0.42822
# Poissons Ratio (y) = -0.04068 0.20054
# Poissons Ratio (z) = 0.43636 0.15213
#
# Static dielectric constant tensor:
#      x y z
#    x 1.881940 -0.007890 0.003600 
#    y -0.007890 1.868560 0.003620 
#    z 0.003600 0.003620 1.810320 
# 
# From -- ./inp_files/105559.got.cif
#   From: 2010.05.17/outbox.cif.g08.bks.cpg/sg2_53_cif.got.tgz:105559.got - 2010.06.03 11:33:40.
