data_PCOD9090303
_publ_section_title
;
Structure prediction by ZEFSAII (Michael W. Deem and Ramdas Pophale) SiO2 
 PCOD9090303
Probable space group: P -1
;
_chemical_formula_sum "Si O2"
_cell_formula_units_Z 16
_cell_length_a 8.952845
_cell_length_b 29.048046
_cell_length_c 14.539811
_cell_angle_alpha 20.547657
_cell_angle_beta 48.276372
_cell_angle_gamma 40.246807
_cell_volume 837.059600
_symmetry_space_group_name_H-M "P -1"
_symmetry_group_IT_number 2
_symmetry_cell_setting 'triclinic'
loop_
_space_group_symop_operation_xyz
x,y,z
-x,-y,-z
loop_
_atom_site_type_symbol
_atom_site_label
_atom_site_fract_x
_atom_site_fract_y
_atom_site_fract_z
Si Si1 0.385885 0.903838 0.456562
Si Si2 0.131082 0.829194 0.850744
Si Si3 0.209856 0.526390 0.342651
Si Si4 0.239831 0.035281 0.555177
Si Si5 0.477539 0.296720 0.398072
Si Si6 0.850243 0.379556 0.020270
Si Si7 0.667095 0.217397 0.674992
Si Si8 0.193163 0.069237 0.716644
O O1 0.275459 0.823276 0.711558
O O2 0.481469 0.832230 0.450609
O O3 0.610528 0.886479 0.447749
O O4 0.153473 0.077302 0.222000
O O5 0.177003 0.933872 0.705707
O O6 0.210984 0.654173 0.167879
O O7 0.462688 0.366550 0.533291
O O8 0.000000 0.500000 0.500000
O O9 0.154307 0.595979 0.132160
O O10 0.199268 0.004632 0.733735
O O11 0.078107 0.219128 0.257508
O O12 0.500000 0.000000 0.500000
O O13 0.644628 0.351559 0.186189
O O14 0.569851 0.231866 0.583964
O O15 0.219686 0.455474 0.214924
O O16 0.919766 0.203622 0.593607
O O17 0.724712 0.061707 0.994197
#
# Coordination Sequence:
#
# PCOD9090303 Si02
#       8
#     2   2   2   2   2   2   2   2
#     4  11  20  36  63  94 121 158 210 258 298 362
#     4  11  21  37  60  95 123 158 214 251 296 372
#     4  11  23  40  66  92 124 163 206 257 310 364
#     4  12  23  39  64  91 126 166 202 254 311 362
#     4  10  19  38  65  87 119 157 206 256 293 362
#     4  10  20  38  63  90 116 159 207 249 302 360
#     4  10  23  42  60  88 125 168 199 251 315 364
#     4  11  23  40  62  90 129 164 203 253 314 364
#
# _framework density 19.114529999999998
#
# number of rings (size 3 to 8) (size 9 to 14) (size 15 to 20)
#    0.000    1.250    5.000    1.500    1.750    0.500 
#    2.250    6.875    0.000    0.000    0.000    0.000 
#    0.000    0.000    0.000    0.000    0.000    0.000 
#
# Total GULP energy -89192.152839 kJ/mol
# GULP energy per Si atom -5574.509552 kJ/mol
# Density = 1.907102 g / cm^3
# Si number density = 19.114530 Si / 1000 Ang^3
#
#
#
# Elastic Constant Matrix: (Units=GPa)
#
#
# Indices 1 2 3 4 5 6 
#
# 1 40.9270 37.1005 35.0983 -49.3572 27.0282 -24.1953
# 2 37.1005 104.7252 49.6688 -36.6411 11.3983 -21.4497
# 3 35.0983 49.6688 74.9974 -9.0811 3.3002 10.1712
# 4 -49.3572 -36.6411 -9.0811 7.9738 29.8790 -13.1577
# 5 27.0282 11.3983 3.3002 29.8790 -3.3423 23.9369
# 6 -24.1953 -21.4497 10.1712 -13.1577 23.9369 15.6221
#
#
#
# Elastic Compliance Matrix: (Units=1/GPa)
#
#
# Indices 1 2 3 4 5 6 
#
# 1 0.016913 -0.009624 -0.001340 -0.003217 0.012835 -0.008523
# 2 -0.009624 0.016959 -0.007729 -0.000560 0.005014 0.005257
# 3 -0.001340 -0.007729 0.021111 0.005954 -0.009730 -0.006508
# 4 -0.003217 -0.000560 0.005954 0.018977 0.016129 -0.018358
# 5 0.012835 0.005014 -0.009730 0.016129 0.024270 0.009494
# 6 -0.008523 0.005257 -0.006508 -0.018358 0.009494 0.032258
#
#
# Mechanical properties :
#
#
# Convention : Reuss Voigt Hill
#
# Bulk Modulus (GPa) = 56.82592 51.59832 54.21212
# Shear Modulus (GPa) = 28.77864 10.63619 19.70742
#
# Velocity S-wave (km/s) = 3.88440 2.36147 3.21443
# Velocity P-wave (km/s) = 7.06483 5.87267 6.49616
#
# Compressibility (1/GPa) = 0.01759760
#
# Stress axis : x y z
#
# Youngs Moduli (GPa) = 59.12480 58.96627 47.36843
#
# Poissons Ratio (x) = 0.56751 0.06347
# Poissons Ratio (y) = 0.56904 0.36609
# Poissons Ratio (z) = 0.07922 0.45573
#
# Static dielectric constant tensor:
#      x y z
#    x 1.670520 0.030780 -0.011980 
#    y 0.030780 1.713350 -0.048170 
#    z -0.011980 -0.048170 1.708670 
# 
# From -- ./inp_files/354593.got.cif
#   From: 2010.05.17/outbox.cif.g08.bks.cpg/sg2_178_cif.got.tgz:354593.got - 2010.06.03 11:33:40.
