data_PCOD9090809
_publ_section_title
;
Structure prediction by ZEFSAII (Michael W. Deem and Ramdas Pophale) SiO2 
 PCOD9090809
Probable space group: P -1
;
_chemical_formula_sum "Si O2"
_cell_formula_units_Z 11
_cell_length_a 12.008565
_cell_length_b 9.185073
_cell_length_c 7.197315
_cell_angle_alpha 97.537964
_cell_angle_beta 117.801225
_cell_angle_gamma 38.720175
_cell_volume 398.516808
_symmetry_space_group_name_H-M "P -1"
_symmetry_group_IT_number 2
_symmetry_cell_setting 'triclinic'
loop_
_space_group_symop_operation_xyz
x,y,z
-x,-y,-z
loop_
_atom_site_type_symbol
_atom_site_label
_atom_site_fract_x
_atom_site_fract_y
_atom_site_fract_z
Si Si1 0.782512 0.403517 0.898952
Si Si2 0.507017 0.808215 0.184091
Si Si3 0.000000 0.500000 0.000000
Si Si4 0.556362 0.071671 0.284350
Si Si5 0.991098 0.701459 0.411273
Si Si6 0.147905 0.921302 0.868152
O O1 0.554709 0.678239 0.676971
O O2 0.916128 0.426902 0.025007
O O3 0.772195 0.318445 0.065551
O O4 0.913749 0.172461 0.824584
O O5 0.753940 0.540233 0.387926
O O6 0.442289 0.030124 0.259078
O O7 0.499285 0.849074 0.964098
O O8 0.335345 0.845046 0.094879
O O9 0.029206 0.374076 0.805789
O O10 0.817209 0.805835 0.442967
O O11 0.892759 0.959843 0.339908
#
# Coordination Sequence:
#
# PCOD9090809 Si02
#       6
#     2   2   1   2   2   2
#     4  10  19  39  60  81 115 153 188 240 288 330
#     4  10  20  38  60  86 117 151 191 236 285 340
#     4  10  20  38  60  80 112 148 190 234 280 336
#     4  10  20  36  59  87 118 150 192 237 280 336
#     4  10  21  39  59  86 116 152 192 235 285 341
#     4   9  21  39  58  81 117 153 191 236 285 340
#
# _framework density 27.602347000000002
#
# number of rings (size 3 to 8) (size 9 to 14) (size 15 to 20)
#    0.000    2.182    0.000    4.909    0.000    2.909 
#    0.000   40.000    0.000    0.000    0.000    0.000 
#    0.000    0.000    0.000    0.000    0.000    0.000 
#
# Total GULP energy -61298.487910 kJ/mol
# GULP energy per Si atom -5572.589810 kJ/mol
# Density = 2.753952 g / cm^3
# Si number density = 27.602347 Si / 1000 Ang^3
#
#
#
# Elastic Constant Matrix: (Units=GPa)
#
#
# Indices 1 2 3 4 5 6 
#
# 1 124.0725 46.5467 17.2726 -1.7397 8.6200 40.4315
# 2 46.5467 145.9996 40.3113 -17.0857 22.2248 25.8964
# 3 17.2726 40.3113 92.5894 -29.8050 5.4328 -4.6102
# 4 -1.7397 -17.0857 -29.8050 46.4305 -6.4844 -4.2146
# 5 8.6200 22.2248 5.4328 -6.4844 13.4871 -1.4555
# 6 40.4315 25.8964 -4.6102 -4.2146 -1.4555 64.9630
#
#
#
# Elastic Compliance Matrix: (Units=1/GPa)
#
#
# Indices 1 2 3 4 5 6 
#
# 1 0.011699 -0.000905 -0.002833 -0.003413 -0.007296 -0.007506
# 2 -0.000905 0.011993 -0.004776 -0.001753 -0.018653 -0.005088
# 3 -0.002833 -0.004776 0.016564 0.010499 0.008674 0.005718
# 4 -0.003413 -0.001753 0.010499 0.030279 0.016035 0.005892
# 5 -0.007296 -0.018653 0.008674 0.016035 0.115512 0.016220
# 6 -0.007506 -0.005088 0.005718 0.005892 0.016220 0.023245
#
#
# Mechanical properties :
#
#
# Convention : Reuss Voigt Hill
#
# Bulk Modulus (GPa) = 43.05132 63.43588 53.24360
# Shear Modulus (GPa) = 21.36187 42.21150 31.78668
#
# Velocity S-wave (km/s) = 2.78495 3.91483 3.39720
# Velocity P-wave (km/s) = 5.09628 6.59291 5.89231
#
# Compressibility (1/GPa) = 0.02322809
#
# Stress axis : x y z
#
# Youngs Moduli (GPa) = 85.47909 83.37909 60.37240
#
# Poissons Ratio (x) = 0.07546 0.17103
# Poissons Ratio (y) = 0.07736 0.28834
# Poissons Ratio (z) = 0.24215 0.39823
#
# Static dielectric constant tensor:
#      x y z
#    x 2.252450 -0.067120 0.009020 
#    y -0.067120 2.316890 -0.088060 
#    z 0.009020 -0.088060 2.301240 
# 
# From -- ./inp_files/235428.got.cif
#   From: 2010.05.17/outbox.cif.g08.bks.cpg/sg2_118_cif.got.tgz:235428.got - 2010.06.03 11:33:40.
