data_PCOD9090430
_publ_section_title
;
Structure prediction by ZEFSAII (Michael W. Deem and Ramdas Pophale) SiO2 
 PCOD9090430
Probable space group: P -1
;
_chemical_formula_sum "Si O2"
_cell_formula_units_Z 14
_cell_length_a 11.268909
_cell_length_b 11.821378
_cell_length_c 14.864235
_cell_angle_alpha 150.349557
_cell_angle_beta 44.267980
_cell_angle_gamma 131.604574
_cell_volume 678.767031
_symmetry_space_group_name_H-M "P -1"
_symmetry_group_IT_number 2
_symmetry_cell_setting 'triclinic'
loop_
_space_group_symop_operation_xyz
x,y,z
-x,-y,-z
loop_
_atom_site_type_symbol
_atom_site_label
_atom_site_fract_x
_atom_site_fract_y
_atom_site_fract_z
Si Si1 0.780635 0.826553 0.419580
Si Si2 0.718171 0.601341 0.551446
Si Si3 0.532033 0.171439 0.283545
Si Si4 0.633413 0.815841 0.305667
Si Si5 0.297594 0.391434 0.040868
Si Si6 0.023838 0.697143 0.326801
Si Si7 0.614787 0.653418 0.846505
O O1 0.591087 0.792220 0.539546
O O2 0.768609 0.857869 0.341653
O O3 0.901615 0.648564 0.272033
O O4 0.857196 0.065248 0.587580
O O5 0.698533 0.342960 0.340849
O O6 0.563138 0.723429 0.675953
O O7 0.699987 0.621132 0.681619
O O8 0.893846 0.720469 0.495899
O O9 0.554033 0.907303 0.067890
O O10 0.536107 0.560374 0.206326
O O11 0.500000 0.000000 0.500000
O O12 0.708711 0.825353 0.170997
O O13 0.159675 0.530835 0.166006
O O14 0.263037 0.363528 0.145377
O O15 0.500000 0.500000 0.000000
#
# Coordination Sequence:
#
# PCOD9090430 Si02
#       7
#     2   2   2   2   2   2   2
#     4  10  19  38  66  87 127 166 203 262 309 358
#     4  10  22  39  64  92 131 162 197 261 314 376
#     4  10  20  40  65  95 123 164 212 245 309 383
#     4  11  21  37  65  96 120 165 218 254 305 371
#     4  10  22  38  59  86 120 158 212 259 298 374
#     4  10  22  40  58  94 125 160 208 263 315 363
#     4  11  21  38  66  91 123 170 208 250 307 376
#
# _framework density 20.625633000000001
#
# number of rings (size 3 to 8) (size 9 to 14) (size 15 to 20)
#    0.000    1.714    1.429    4.714    0.000    1.143 
#    2.571    0.714    0.000    0.000    0.000    0.000 
#    0.000    0.000    0.000    0.000    0.000    0.000 
#
# Total GULP energy -77961.761830 kJ/mol
# GULP energy per Si atom -5568.697274 kJ/mol
# Density = 2.057869 g / cm^3
# Si number density = 20.625633 Si / 1000 Ang^3
#
#
#
# Elastic Constant Matrix: (Units=GPa)
#
#
# Indices 1 2 3 4 5 6 
#
# 1 119.6736 -1.6790 46.3407 -9.0321 -3.1627 -31.7019
# 2 -1.6790 44.6103 4.5209 2.8006 -0.2812 -2.4549
# 3 46.3407 4.5209 79.1380 17.4163 -7.2970 -15.0888
# 4 -9.0321 2.8006 17.4163 38.2217 -11.0308 5.2052
# 5 -3.1627 -0.2812 -7.2970 -11.0308 32.0039 -7.1709
# 6 -31.7019 -2.4549 -15.0888 5.2052 -7.1709 21.7408
#
#
#
# Elastic Compliance Matrix: (Units=1/GPa)
#
#
# Indices 1 2 3 4 5 6 
#
# 1 0.017532 0.002221 -0.006924 0.006239 0.007231 0.021902
# 2 0.002221 0.023004 -0.001220 -0.001069 0.001026 0.005583
# 3 -0.006924 -0.001220 0.020947 -0.011618 0.001797 0.007679
# 4 0.006239 -0.001069 -0.011618 0.036374 0.009447 -0.004679
# 5 0.007231 0.001026 0.001797 0.009447 0.040813 0.023108
# 6 0.021902 0.005583 0.007679 -0.004679 0.023108 0.092634
#
#
# Mechanical properties :
#
#
# Convention : Reuss Voigt Hill
#
# Bulk Modulus (GPa) = 20.14616 37.97633 29.06124
# Shear Modulus (GPa) = 19.25329 31.34257 25.29793
#
# Velocity S-wave (km/s) = 3.05858 3.90243 3.50598
# Velocity P-wave (km/s) = 4.71826 6.22554 5.52356
#
# Compressibility (1/GPa) = 0.04963725
#
# Stress axis : x y z
#
# Youngs Moduli (GPa) = 57.03858 43.46990 47.74024
#
# Poissons Ratio (x) = -0.09653 0.33053
# Poissons Ratio (y) = -0.12666 0.05825
# Poissons Ratio (z) = 0.39491 0.05304
#
# Static dielectric constant tensor:
#      x y z
#    x 2.260700 0.101810 -0.069950 
#    y 0.101810 1.797210 0.012580 
#    z -0.069950 0.012580 1.797400 
# 
# From -- ./inp_files/82900.got.cif
#   From: 2010.05.17/outbox.cif.g08.bks.cpg/sg2_42_cif.got.tgz:82900.got - 2010.06.03 11:33:40.
