data_PCOD9090738
_publ_section_title
;
Structure prediction by ZEFSAII (Michael W. Deem and Ramdas Pophale) SiO2 
 PCOD9090738
Probable space group: P -1
;
_chemical_formula_sum "Si O2"
_cell_formula_units_Z 14
_cell_length_a 5.624331
_cell_length_b 26.159886
_cell_length_c 8.217800
_cell_angle_alpha 140.996284
_cell_angle_beta 90.337289
_cell_angle_gamma 110.773526
_cell_volume 624.806047
_symmetry_space_group_name_H-M "P -1"
_symmetry_group_IT_number 2
_symmetry_cell_setting 'triclinic'
loop_
_space_group_symop_operation_xyz
x,y,z
-x,-y,-z
loop_
_atom_site_type_symbol
_atom_site_label
_atom_site_fract_x
_atom_site_fract_y
_atom_site_fract_z
Si Si1 0.109892 0.227068 0.606422
Si Si2 0.309877 0.687996 0.786947
Si Si3 0.693910 0.810817 0.795231
Si Si4 0.001568 0.969650 0.722423
Si Si5 0.330120 0.389637 0.293691
Si Si6 0.179305 0.903883 0.281454
Si Si7 0.606967 0.164913 0.605081
O O1 0.306315 0.249597 0.507212
O O2 0.006763 0.114562 0.380252
O O3 0.789922 0.204902 0.540756
O O4 0.243044 0.315994 0.956719
O O5 0.438723 0.753166 0.783661
O O6 0.452014 0.625539 0.638691
O O7 0.963969 0.634280 0.676924
O O8 0.445242 0.758326 0.123357
O O9 0.990920 0.846439 0.983290
O O10 0.754427 0.914627 0.989857
O O11 0.683235 0.942712 0.686846
O O12 0.999329 0.936457 0.457405
O O13 0.500000 0.500000 0.500000
O O14 0.217402 0.840928 0.258497
O O15 0.500000 0.000000 0.500000
#
# Coordination Sequence:
#
# PCOD9090738 Si02
#       7
#     2   2   2   2   2   2   2
#     4  10  24  40  58  95 131 170 223 271 324 391
#     4  11  22  43  69 102 126 168 226 272 327 407
#     4  12  22  38  61  97 135 172 215 275 327 370
#     4  11  20  38  57  84 131 180 221 241 316 395
#     4  11  24  49  75  94 124 174 223 277 341 411
#     4  11  20  33  55  82 121 180 231 259 302 378
#     4  10  19  39  57  82 128 174 222 254 303 396
#
# _framework density 22.406955
#
# number of rings (size 3 to 8) (size 9 to 14) (size 15 to 20)
#    0.000    1.143    4.286    3.857    0.000    0.571 
#    7.714    1.429    0.000    0.000    0.000    0.000 
#    0.000    0.000    0.000    0.000    0.000    0.000 
#
# Total GULP energy -77952.760306 kJ/mol
# GULP energy per Si atom -5568.054308 kJ/mol
# Density = 2.235596 g / cm^3
# Si number density = 22.406955 Si / 1000 Ang^3
#
#
#
# Elastic Constant Matrix: (Units=GPa)
#
#
# Indices 1 2 3 4 5 6 
#
# 1 111.9634 55.6248 39.0507 8.3598 -5.8390 24.5734
# 2 55.6248 119.7366 59.2567 15.0954 -11.7270 36.1033
# 3 39.0507 59.2567 75.1678 14.3845 -9.9868 9.2257
# 4 8.3598 15.0954 14.3845 35.4188 4.8566 -0.8877
# 5 -5.8390 -11.7270 -9.9868 4.8566 22.4629 1.0148
# 6 24.5734 36.1033 9.2257 -0.8877 1.0148 46.0932
#
#
#
# Elastic Compliance Matrix: (Units=1/GPa)
#
#
# Indices 1 2 3 4 5 6 
#
# 1 0.012466 -0.002694 -0.003746 -0.000427 0.000433 -0.003804
# 2 -0.002694 0.020002 -0.011164 -0.004526 0.006309 -0.012222
# 3 -0.003746 -0.011164 0.025038 -0.005098 0.005182 0.005518
# 4 -0.000427 -0.004526 -0.005098 0.034176 -0.012389 0.005725
# 5 0.000433 0.006309 0.005182 -0.012389 0.053251 -0.007621
# 6 -0.003804 -0.012222 0.005518 0.005725 -0.007621 0.032470
#
#
# Mechanical properties :
#
#
# Convention : Reuss Voigt Hill
#
# Bulk Modulus (GPa) = 44.84935 68.30356 56.57646
# Shear Modulus (GPa) = 22.72280 30.99072 26.85676
#
# Velocity S-wave (km/s) = 3.18794 3.72302 3.46582
# Velocity P-wave (km/s) = 5.79740 7.00218 6.42808
#
# Compressibility (1/GPa) = 0.02229687
#
# Stress axis : x y z
#
# Youngs Moduli (GPa) = 80.21943 49.99502 39.93985
#
# Poissons Ratio (x) = 0.13468 0.14963
# Poissons Ratio (y) = 0.21611 0.44589
# Poissons Ratio (z) = 0.30053 0.55814
#
# Static dielectric constant tensor:
#      x y z
#    x 2.016240 0.005090 -0.033200 
#    y 0.005090 1.880600 -0.015710 
#    z -0.033200 -0.015710 1.840130 
# 
# From -- ./inp_files/143155.got.cif
#   From: 2010.05.17/outbox.cif.g08.bks.cpg/sg2_72_cif.got.tgz:143155.got - 2010.06.03 11:33:40.
