data_PCOD9090725
_publ_section_title
;
Structure prediction by ZEFSAII (Michael W. Deem and Ramdas Pophale) SiO2 
 PCOD9090725
Probable space group: P -1
;
_chemical_formula_sum "Si O2"
_cell_formula_units_Z 14
_cell_length_a 7.722891
_cell_length_b 10.097299
_cell_length_c 10.896481
_cell_angle_alpha 58.213887
_cell_angle_beta 70.071056
_cell_angle_gamma 71.667103
_cell_volume 669.260959
_symmetry_space_group_name_H-M "P -1"
_symmetry_group_IT_number 2
_symmetry_cell_setting 'triclinic'
loop_
_space_group_symop_operation_xyz
x,y,z
-x,-y,-z
loop_
_atom_site_type_symbol
_atom_site_label
_atom_site_fract_x
_atom_site_fract_y
_atom_site_fract_z
Si Si1 0.848628 0.157745 0.829020
Si Si2 0.941550 0.981849 0.382700
Si Si3 0.213284 0.349557 0.424368
Si Si4 0.440810 0.844975 0.653713
Si Si5 0.555750 0.067409 0.114826
Si Si6 0.107097 0.403489 0.697001
Si Si7 0.547364 0.741645 0.182316
O O1 0.666009 0.286337 0.766758
O O2 0.013091 0.245861 0.790903
O O3 0.759585 0.075901 0.003645
O O4 0.911141 0.045619 0.751871
O O5 0.780256 0.130546 0.323017
O O6 0.857334 0.819236 0.474661
O O7 0.000000 0.000000 0.500000
O O8 0.428640 0.309087 0.354163
O O9 0.189317 0.418447 0.533489
O O10 0.069648 0.457385 0.316450
O O11 0.475913 0.856699 0.783407
O O12 0.500000 0.000000 0.500000
O O13 0.534859 0.884852 0.213787
O O14 0.423163 0.167721 0.996552
O O15 0.278353 0.386526 0.758335
#
# Coordination Sequence:
#
# PCOD9090725 Si02
#       7
#     2   2   2   2   2   2   2
#     4   9  20  35  55  83 111 138 188 226 262 337
#     4  10  21  33  55  88 107 140 184 229 277 324
#     4   9  21  36  55  78 112 145 182 223 280 322
#     4  10  20  35  56  77 111 142 170 237 282 315
#     4   9  19  35  54  85 109 139 186 226 285 314
#     4  10  19  39  56  79 109 152 183 219 274 330
#     4   9  19  33  58  80 111 142 180 233 263 325
#
# _framework density 20.918596999999998
#
# number of rings (size 3 to 8) (size 9 to 14) (size 15 to 20)
#    0.857    1.714    0.000    2.571    6.000    2.286 
#    2.571    3.571    0.000    0.000    0.000    0.000 
#    0.000    0.000    0.000    0.000    0.000    0.000 
#
# Total GULP energy -77966.797462 kJ/mol
# GULP energy per Si atom -5569.056962 kJ/mol
# Density = 2.087099 g / cm^3
# Si number density = 20.918597 Si / 1000 Ang^3
#
#
#
# Elastic Constant Matrix: (Units=GPa)
#
#
# Indices 1 2 3 4 5 6 
#
# 1 63.6807 20.5694 5.8709 -2.4285 5.6287 -31.7952
# 2 20.5694 83.4085 22.0211 4.8540 8.7038 -43.4894
# 3 5.8709 22.0211 49.4016 11.0136 -4.5412 -10.2986
# 4 -2.4285 4.8540 11.0136 26.0885 -6.5524 5.6577
# 5 5.6287 8.7038 -4.5412 -6.5524 26.5099 -7.9898
# 6 -31.7952 -43.4894 -10.2986 5.6577 -7.9898 43.7769
#
#
#
# Elastic Compliance Matrix: (Units=1/GPa)
#
#
# Indices 1 2 3 4 5 6 
#
# 1 0.027327 0.009033 0.000019 -0.005850 -0.001370 0.029331
# 2 0.009033 0.032211 -0.005181 -0.012470 -0.004998 0.038041
# 3 0.000019 -0.005181 0.025683 -0.009345 0.004682 0.002971
# 4 -0.005850 -0.012470 -0.009345 0.051550 0.009304 -0.023800
# 5 -0.001370 -0.004998 0.004682 0.009304 0.043311 0.001843
# 6 0.029331 0.038041 0.002971 -0.023800 0.001843 0.086049
#
#
# Mechanical properties :
#
#
# Convention : Reuss Voigt Hill
#
# Bulk Modulus (GPa) = 10.75707 32.60152 21.67930
# Shear Modulus (GPa) = 17.27853 29.14369 23.21111
#
# Velocity S-wave (km/s) = 2.87712 3.73660 3.33467
# Velocity P-wave (km/s) = 4.02376 5.85107 5.02124
#
# Compressibility (1/GPa) = 0.09296213
#
# Stress axis : x y z
#
# Youngs Moduli (GPa) = 36.59410 31.04494 38.93698
#
# Poissons Ratio (x) = -0.28042 -0.00073
# Poissons Ratio (y) = -0.33055 0.20173
# Poissons Ratio (z) = -0.00069 0.16084
#
# Static dielectric constant tensor:
#      x y z
#    x 1.825940 -0.041400 -0.018700 
#    y -0.041400 1.791360 -0.013060 
#    z -0.018700 -0.013060 1.776560 
# 
# From -- ./inp_files/386805.got.cif
#   From: 2010.05.17/outbox.cif.g08.bks.cpg/sg2_194_cif.got.tgz:386805.got - 2010.06.03 11:33:40.
