data_PCOD9090266
_publ_section_title
;
Structure prediction by ZEFSAII (Michael W. Deem and Ramdas Pophale) SiO2 
 PCOD9090266
Probable space group: P -1
;
_chemical_formula_sum "Si O2"
_cell_formula_units_Z 16
_cell_length_a 8.722738
_cell_length_b 18.445739
_cell_length_c 15.264266
_cell_angle_alpha 31.629912
_cell_angle_beta 138.088735
_cell_angle_gamma 149.526215
_cell_volume 652.702518
_symmetry_space_group_name_H-M "P -1"
_symmetry_group_IT_number 2
_symmetry_cell_setting 'triclinic'
loop_
_space_group_symop_operation_xyz
x,y,z
-x,-y,-z
loop_
_atom_site_type_symbol
_atom_site_label
_atom_site_fract_x
_atom_site_fract_y
_atom_site_fract_z
Si Si1 0.331469 0.730674 0.011876
Si Si2 0.964913 0.186689 0.970713
Si Si3 0.933431 0.891167 0.334217
Si Si4 0.622040 0.591191 0.243226
Si Si5 0.205483 0.904036 0.272443
Si Si6 0.891166 0.798811 0.792044
Si Si7 0.689102 0.341063 0.716135
Si Si8 0.662145 0.344313 0.415484
O O1 0.322503 0.568281 0.139740
O O2 0.309528 0.684974 0.152772
O O3 0.096141 0.765213 0.864371
O O4 0.631511 0.913714 0.903572
O O5 0.211161 0.303125 0.883746
O O6 0.694429 0.186270 0.837917
O O7 0.125243 0.271787 0.044810
O O8 0.866174 0.991093 0.135053
O O9 0.608625 0.690191 0.405795
O O10 0.190584 0.917661 0.358586
O O11 0.002220 0.001851 0.339057
O O12 0.628834 0.428747 0.399467
O O13 0.859955 0.738218 0.265867
O O14 0.381483 0.832223 0.399566
O O15 0.587217 0.700905 0.711329
O O16 0.010235 0.519363 0.632968
#
# Coordination Sequence:
#
# PCOD9090266 Si02
#       8
#     2   2   2   2   2   2   2   2
#     4  11  21  39  72  95 119 165 230 264 302 379
#     4   8  18  34  64  92 118 155 211 267 296 360
#     4  10  19  38  64  96 119 163 219 263 300 376
#     4  11  21  39  64  98 127 164 209 270 323 367
#     4  12  24  40  67  96 132 167 211 267 322 379
#     4   9  23  41  63  96 125 173 211 263 313 386
#     4  10  20  36  67  95 121 164 215 267 310 366
#     4  11  27  44  58  94 145 171 195 259 343 384
#
# _framework density 24.513463000000002
#
# number of rings (size 3 to 8) (size 9 to 14) (size 15 to 20)
#    0.750    1.000    2.500    1.875    3.500    6.500 
#    0.000    1.250    0.000    0.000    0.000    0.000 
#    0.000    0.000    0.000    0.000    0.000    0.000 
#
# Total GULP energy -89070.798823 kJ/mol
# GULP energy per Si atom -5566.924926 kJ/mol
# Density = 2.445767 g / cm^3
# Si number density = 24.513463 Si / 1000 Ang^3
#
#
#
# Elastic Constant Matrix: (Units=GPa)
#
#
# Indices 1 2 3 4 5 6 
#
# 1 147.5881 33.4008 31.5736 2.0219 22.7497 6.8418
# 2 33.4008 72.1154 12.3434 12.5077 -3.5674 1.2761
# 3 31.5736 12.3434 69.7869 -4.1030 22.0281 6.8872
# 4 2.0219 12.5077 -4.1030 24.4502 -0.6472 2.8022
# 5 22.7497 -3.5674 22.0281 -0.6472 47.2844 -4.6409
# 6 6.8418 1.2761 6.8872 2.8022 -4.6409 19.3770
#
#
#
# Elastic Compliance Matrix: (Units=1/GPa)
#
#
# Indices 1 2 3 4 5 6 
#
# 1 0.008848 -0.004247 -0.001485 0.001486 -0.004212 -0.003540
# 2 -0.004247 0.018528 -0.004218 -0.010214 0.005721 0.004626
# 3 -0.001485 -0.004218 0.020205 0.006520 -0.009878 -0.009688
# 4 0.001486 -0.010214 0.006520 0.048147 -0.004875 -0.010300
# 5 -0.004212 0.005721 -0.009878 -0.004875 0.029355 0.012357
# 6 -0.003540 0.004626 -0.009688 -0.010300 0.012357 0.060446
#
#
# Mechanical properties :
#
#
# Convention : Reuss Voigt Hill
#
# Bulk Modulus (GPa) = 36.12826 49.34734 42.73780
# Shear Modulus (GPa) = 23.29304 32.36713 27.83009
#
# Velocity S-wave (km/s) = 3.08590 3.63765 3.37307
# Velocity P-wave (km/s) = 5.24091 6.14961 5.71336
#
# Compressibility (1/GPa) = 0.02767916
#
# Stress axis : x y z
#
# Youngs Moduli (GPa) = 113.02503 53.97131 49.49300
#
# Poissons Ratio (x) = 0.22922 0.07352
# Poissons Ratio (y) = 0.48002 0.20878
# Poissons Ratio (z) = 0.16788 0.22767
#
# Static dielectric constant tensor:
#      x y z
#    x 2.027800 0.007100 0.078210 
#    y 0.007100 2.016850 -0.074750 
#    z 0.078210 -0.074750 2.031710 
# 
# From -- ./inp_files/562921.got.cif
#   From: 2010.05.17/outbox.cif.g08.bks.cpg/sg2_282_cif.got.tgz:562921.got - 2010.06.03 11:33:40.
