data_PCOD9090271
_publ_section_title
;
Structure prediction by ZEFSAII (Michael W. Deem and Ramdas Pophale) SiO2 
 PCOD9090271
Probable space group: P -1
;
_chemical_formula_sum "Si O2"
_cell_formula_units_Z 12
_cell_length_a 7.140958
_cell_length_b 7.677652
_cell_length_c 18.387330
_cell_angle_alpha 111.324127
_cell_angle_beta 141.674261
_cell_angle_gamma 57.605519
_cell_volume 524.769606
_symmetry_space_group_name_H-M "P -1"
_symmetry_group_IT_number 2
_symmetry_cell_setting 'triclinic'
loop_
_space_group_symop_operation_xyz
x,y,z
-x,-y,-z
loop_
_atom_site_type_symbol
_atom_site_label
_atom_site_fract_x
_atom_site_fract_y
_atom_site_fract_z
Si Si1 0.531190 0.748412 0.840219
Si Si2 0.641187 0.994929 0.406117
Si Si3 0.598423 0.819211 0.210319
Si Si4 0.103500 0.669305 0.588598
Si Si5 0.320169 0.441829 0.370258
Si Si6 0.704009 0.468010 0.983176
O O1 0.254381 0.682049 0.713395
O O2 0.570847 0.676805 0.925505
O O3 0.445073 0.982943 0.822898
O O4 0.900246 0.610202 0.898412
O O5 0.578863 0.885313 0.299321
O O6 0.758447 0.868690 0.496686
O O7 0.337980 0.217196 0.358226
O O8 0.000000 0.000000 0.500000
O O9 0.343652 0.718947 0.100711
O O10 0.963875 0.631314 0.279461
O O11 0.431656 0.620732 0.631825
O O12 0.000000 0.500000 0.500000
O O13 0.500000 0.500000 0.500000
O O14 0.500000 0.500000 0.000000
#
# Coordination Sequence:
#
# PCOD9090271 Si02
#       6
#     2   2   2   2   2   2
#     4  11  24  47  70 101 143 179 240 294 340 424
#     4  10  19  38  64  96 141 171 212 276 352 404
#     4  12  22  44  73 101 140 188 224 289 357 411
#     4  11  21  40  65 102 140 179 221 284 351 416
#     4  11  20  37  65  98 137 178 222 266 343 422
#     4  11  27  47  73 102 133 188 245 293 350 407
#
# _framework density 22.867180000000001
#
# number of rings (size 3 to 8) (size 9 to 14) (size 15 to 20)
#    0.000    1.000    6.667    2.500    0.000    0.667 
#    3.000    3.333    0.000    0.000    0.000    0.000 
#    0.000    0.000    0.000    0.000    0.000    0.000 
#
# Total GULP energy -66945.045742 kJ/mol
# GULP energy per Si atom -5578.753812 kJ/mol
# Density = 2.281513 g / cm^3
# Si number density = 22.867180 Si / 1000 Ang^3
#
#
#
# Elastic Constant Matrix: (Units=GPa)
#
#
# Indices 1 2 3 4 5 6 
#
# 1 108.1571 24.1272 45.2107 -23.2897 0.3822 -15.7626
# 2 24.1272 128.2006 74.4757 -39.4600 -0.0030 -7.5588
# 3 45.2107 74.4757 138.5480 -4.7220 -4.0840 11.6668
# 4 -23.2897 -39.4600 -4.7220 56.2628 6.3549 -4.1167
# 5 0.3822 -0.0030 -4.0840 6.3549 22.7030 3.9080
# 6 -15.7626 -7.5588 11.6668 -4.1167 3.9080 29.0841
#
#
#
# Elastic Compliance Matrix: (Units=1/GPa)
#
#
# Indices 1 2 3 4 5 6 
#
# 1 0.020616 0.012256 -0.015130 0.019111 -0.012692 0.024838
# 2 0.012256 0.027083 -0.020474 0.026187 -0.015992 0.027749
# 3 -0.015130 -0.020474 0.025313 -0.022437 0.016080 -0.029011
# 4 0.019111 0.026187 -0.022437 0.047504 -0.023864 0.036094
# 5 -0.012692 -0.015992 0.016080 -0.023864 0.058782 -0.028762
# 6 0.024838 0.027749 -0.029011 0.036094 -0.028762 0.075668
#
#
# Mechanical properties :
#
#
# Convention : Reuss Voigt Hill
#
# Bulk Modulus (GPa) = 37.99782 73.61478 55.80630
# Shear Modulus (GPa) = 16.10650 37.01612 26.56131
#
# Velocity S-wave (km/s) = 2.65684 4.02773 3.41185
# Velocity P-wave (km/s) = 5.10534 7.34114 6.32285
#
# Compressibility (1/GPa) = 0.02631730
#
# Stress axis : x y z
#
# Youngs Moduli (GPa) = 48.50548 36.92292 39.50602
#
# Poissons Ratio (x) = -0.45253 0.59773
# Poissons Ratio (y) = -0.59448 0.80883
# Poissons Ratio (z) = 0.73389 0.75594
#
# Static dielectric constant tensor:
#      x y z
#    x 1.910820 0.092120 -0.044840 
#    y 0.092120 1.860110 -0.027030 
#    z -0.044840 -0.027030 1.714930 
# 
# From -- ./inp_files/588085.got.cif
#   From: 2010.05.17/outbox.cif.g08.bks.cpg/sg2_295_cif.got.tgz:588085.got - 2010.06.03 11:33:40.
