data_PCOD9090874
_publ_section_title
;
Structure prediction by ZEFSAII (Michael W. Deem and Ramdas Pophale) SiO2 
 PCOD9090874
Probable space group: P -1
;
_chemical_formula_sum "Si O2"
_cell_formula_units_Z 14
_cell_length_a 8.116331
_cell_length_b 14.483008
_cell_length_c 14.771352
_cell_angle_alpha 149.021257
_cell_angle_beta 132.490128
_cell_angle_gamma 47.598887
_cell_volume 637.967619
_symmetry_space_group_name_H-M "P -1"
_symmetry_group_IT_number 2
_symmetry_cell_setting 'triclinic'
loop_
_space_group_symop_operation_xyz
x,y,z
-x,-y,-z
loop_
_atom_site_type_symbol
_atom_site_label
_atom_site_fract_x
_atom_site_fract_y
_atom_site_fract_z
Si Si1 0.778996 0.952898 0.563095
Si Si2 0.122043 0.653134 0.560573
Si Si3 0.539836 0.792394 0.877289
Si Si4 0.066294 0.267678 0.241672
Si Si5 0.664057 0.106880 0.919192
Si Si6 0.790066 0.729632 0.205590
Si Si7 0.021091 0.693789 0.061630
O O1 0.864670 0.853196 0.414801
O O2 0.918676 0.803190 0.561458
O O3 0.500000 0.000000 0.500000
O O4 0.852445 0.142999 0.765841
O O5 0.372094 0.695180 0.676621
O O6 0.118661 0.443297 0.360901
O O7 0.063246 0.670342 0.659909
O O8 0.443795 0.797736 0.948278
O O9 0.810205 0.713924 0.930021
O O10 0.500000 0.000000 0.000000
O O11 0.287199 0.109712 0.221824
O O12 0.902995 0.163437 0.038164
O O13 0.477969 0.176079 0.832288
O O14 0.922189 0.722318 0.152519
O O15 0.826101 0.515585 0.066755
#
# Coordination Sequence:
#
# PCOD9090874 Si02
#       7
#     2   2   2   2   2   2   2
#     4  12  25  40  64  99 129 162 206 264 314 374
#     4  10  21  38  60  90 123 155 203 256 311 367
#     4  10  19  39  61  83 120 158 204 258 303 357
#     4   9  19  38  60  89 118 158 201 253 314 372
#     4   9  19  37  62  84 118 161 203 248 310 371
#     4  10  23  44  64  92 123 175 209 250 312 379
#     4  10  23  45  66  88 128 170 212 254 310 374
#
# _framework density 21.944687999999999
#
# number of rings (size 3 to 8) (size 9 to 14) (size 15 to 20)
#    0.000    2.000    1.429    1.286    2.000    1.714 
#   18.000    1.429    0.000    0.000    0.000    0.000 
#    0.000    0.000    0.000    0.000    0.000    0.000 
#
# Total GULP energy -78167.483336 kJ/mol
# GULP energy per Si atom -5583.391667 kJ/mol
# Density = 2.189474 g / cm^3
# Si number density = 21.944688 Si / 1000 Ang^3
#
#
#
# Elastic Constant Matrix: (Units=GPa)
#
#
# Indices 1 2 3 4 5 6 
#
# 1 62.2160 40.2270 46.0173 -7.4594 11.1999 -1.9119
# 2 40.2270 146.7861 73.2134 27.4916 58.3002 5.5858
# 3 46.0173 73.2134 109.6679 8.0031 28.0949 2.6737
# 4 -7.4594 27.4916 8.0031 27.1866 6.1645 -6.4972
# 5 11.1999 58.3002 28.0949 6.1645 45.9553 -2.6463
# 6 -1.9119 5.5858 2.6737 -6.4972 -2.6463 21.6343
#
#
#
# Elastic Compliance Matrix: (Units=1/GPa)
#
#
# Indices 1 2 3 4 5 6 
#
# 1 0.039086 -0.021133 -0.010726 0.036286 0.020334 0.023621
# 2 -0.021133 0.037404 -0.003064 -0.041122 -0.036523 -0.027964
# 3 -0.010726 -0.003064 0.017026 -0.005076 -0.003469 -0.004210
# 4 0.036286 -0.041122 -0.005076 0.092675 0.036690 0.046771
# 5 0.020334 -0.036523 -0.003469 0.036690 0.062081 0.030268
# 6 0.023621 -0.027964 -0.004210 0.046771 0.030268 0.073799
#
#
# Mechanical properties :
#
#
# Convention : Reuss Voigt Hill
#
# Bulk Modulus (GPa) = 42.24554 70.84285 56.54420
# Shear Modulus (GPa) = 12.50600 29.56938 21.03769
#
# Velocity S-wave (km/s) = 2.38982 3.67475 3.09960
# Velocity P-wave (km/s) = 5.18726 7.09631 6.21551
#
# Compressibility (1/GPa) = 0.02367114
#
# Stress axis : x y z
#
# Youngs Moduli (GPa) = 25.58453 26.73477 58.73225
#
# Poissons Ratio (x) = 0.56499 0.62994
# Poissons Ratio (y) = 0.54068 0.17997
# Poissons Ratio (z) = 0.27441 0.08192
#
# Static dielectric constant tensor:
#      x y z
#    x 1.854790 -0.004650 -0.034150 
#    y -0.004650 1.767460 -0.013180 
#    z -0.034150 -0.013180 1.820120 
# 
# From -- ./inp_files/226660.got.cif
#   From: 2010.05.17/outbox.cif.g08.bks.cpg/sg2_114_cif.got.tgz:226660.got - 2010.06.03 11:33:40.
