data_PCOD9090781
_publ_section_title
;
Structure prediction by ZEFSAII (Michael W. Deem and Ramdas Pophale) SiO2 
 PCOD9090781
Probable space group: P -1
;
_chemical_formula_sum "Si O2"
_cell_formula_units_Z 14
_cell_length_a 12.341475
_cell_length_b 9.875687
_cell_length_c 10.145783
_cell_angle_alpha 78.905988
_cell_angle_beta 59.581120
_cell_angle_gamma 36.107226
_cell_volume 568.437050
_symmetry_space_group_name_H-M "P -1"
_symmetry_group_IT_number 2
_symmetry_cell_setting 'triclinic'
loop_
_space_group_symop_operation_xyz
x,y,z
-x,-y,-z
loop_
_atom_site_type_symbol
_atom_site_label
_atom_site_fract_x
_atom_site_fract_y
_atom_site_fract_z
Si Si1 0.257394 0.409378 0.243205
Si Si2 0.455235 0.091652 0.767915
Si Si3 0.337111 0.737708 0.313228
Si Si4 0.203782 0.576859 0.976113
Si Si5 0.919199 0.297803 0.455565
Si Si6 0.717631 0.041982 0.144853
Si Si7 0.475456 0.744997 0.492630
O O1 0.118169 0.552120 0.438450
O O2 0.350026 0.167456 0.218027
O O3 0.503099 0.264483 0.138109
O O4 0.134068 0.589306 0.161634
O O5 0.315931 0.339163 0.881933
O O6 0.291278 0.118204 0.816924
O O7 0.566277 0.066101 0.579391
O O8 0.585322 0.510525 0.134635
O O9 0.189385 0.736274 0.396844
O O10 0.390317 0.718490 0.438697
O O11 0.175919 0.013946 0.314852
O O12 0.978447 0.841828 0.992445
O O13 0.749437 0.483364 0.404132
O O14 0.643585 0.164129 0.310907
#
# Coordination Sequence:
#
# PCOD9090781 Si02
#       7
#     2   2   2   2   2   2   2
#     4   9  21  36  56  81 112 147 178 221 272 325
#     4   9  20  36  56  84 113 142 184 216 272 329
#     4  10  23  37  59  82 106 144 190 226 271 321
#     4  11  20  37  53  82 115 147 175 225 273 323
#     4  10  21  41  58  79 108 144 188 232 265 316
#     4   9  20  34  56  82 114 141 179 220 271 329
#     4  10  19  39  59  83 107 145 183 228 269 319
#
# _framework density 24.628935999999999
#
# number of rings (size 3 to 8) (size 9 to 14) (size 15 to 20)
#    0.857    1.429    0.000    2.571    0.000    2.857 
#    5.143    6.429    0.000    0.000    0.000    0.000 
#    0.000    0.000    0.000    0.000    0.000    0.000 
#
# Total GULP energy -78177.300445 kJ/mol
# GULP energy per Si atom -5584.092889 kJ/mol
# Density = 2.457288 g / cm^3
# Si number density = 24.628936 Si / 1000 Ang^3
#
#
#
# Elastic Constant Matrix: (Units=GPa)
#
#
# Indices 1 2 3 4 5 6 
#
# 1 45.2555 7.9590 8.0452 5.1893 3.1714 0.4353
# 2 7.9590 73.5974 -3.8138 12.3582 -10.2109 -17.4390
# 3 8.0452 -3.8138 42.2970 10.9353 -14.5970 -10.2585
# 4 5.1893 12.3582 10.9353 33.0126 -13.0903 -8.6048
# 5 3.1714 -10.2109 -14.5970 -13.0903 31.2109 1.6312
# 6 0.4353 -17.4390 -10.2585 -8.6048 1.6312 29.4309
#
#
#
# Elastic Compliance Matrix: (Units=1/GPa)
#
#
# Indices 1 2 3 4 5 6 
#
# 1 0.026401 -0.006042 -0.010102 -0.005125 -0.011095 -0.008375
# 2 -0.006042 0.020033 0.010636 -0.002146 0.010487 0.014459
# 3 -0.010102 0.010636 0.038638 -0.002273 0.020677 0.018109
# 4 -0.005125 -0.002146 -0.002273 0.041223 0.015564 0.009202
# 5 -0.011095 0.010487 0.020677 0.015564 0.051999 0.015254
# 6 -0.008375 0.014459 0.018109 0.009202 0.015254 0.050826
#
#
# Mechanical properties :
#
#
# Convention : Reuss Voigt Hill
#
# Bulk Modulus (GPa) = 13.50309 20.61451 17.05880
# Shear Modulus (GPa) = 18.88055 28.66150 23.77103
#
# Velocity S-wave (km/s) = 2.77176 3.41505 3.11008
# Velocity P-wave (km/s) = 3.96712 4.89268 4.45401
#
# Compressibility (1/GPa) = 0.07405714
#
# Stress axis : x y z
#
# Youngs Moduli (GPa) = 37.87747 49.91702 25.88099
#
# Poissons Ratio (x) = 0.30159 0.26145
# Poissons Ratio (y) = 0.22885 -0.27527
# Poissons Ratio (z) = 0.38263 -0.53092
#
# Static dielectric constant tensor:
#      x y z
#    x 1.969790 0.026650 -0.032630 
#    y 0.026650 1.956660 0.036200 
#    z -0.032630 0.036200 1.956590 
# 
# From -- ./inp_files/249172.got.cif
#   From: 2010.05.17/outbox.cif.g08.bks.cpg/sg2_125_cif.got.tgz:249172.got - 2010.06.03 11:33:40.
