data_PCOD9090063
_publ_section_title
;
Structure prediction by ZEFSAII (Michael W. Deem and Ramdas Pophale) SiO2 
 PCOD9090063
Probable space group: P -1
;
_chemical_formula_sum "Si O2"
_cell_formula_units_Z 16
_cell_length_a 17.369745
_cell_length_b 14.730404
_cell_length_c 5.428061
_cell_angle_alpha 67.480216
_cell_angle_beta 78.055988
_cell_angle_gamma 31.514943
_cell_volume 649.738054
_symmetry_space_group_name_H-M "P -1"
_symmetry_group_IT_number 2
_symmetry_cell_setting 'triclinic'
loop_
_space_group_symop_operation_xyz
x,y,z
-x,-y,-z
loop_
_atom_site_type_symbol
_atom_site_label
_atom_site_fract_x
_atom_site_fract_y
_atom_site_fract_z
Si Si1 0.855677 0.591103 0.561250
Si Si2 0.690182 0.810088 0.930371
Si Si3 0.107132 0.972973 0.850418
Si Si4 0.385372 0.437364 0.459934
Si Si5 0.423236 0.727627 0.898699
Si Si6 0.242452 0.690273 0.682797
Si Si7 0.882555 0.343204 0.890263
Si Si8 0.533084 0.126301 0.013866
O O1 0.765528 0.681499 0.263635
O O2 0.903335 0.435690 0.808166
O O3 0.000000 0.500000 0.500000
O O4 0.775900 0.729107 0.700935
O O5 0.553801 0.882048 0.860724
O O6 0.646234 0.964629 0.899667
O O7 0.158115 0.875369 0.650878
O O8 0.275198 0.828088 0.978511
O O9 0.000959 0.178361 0.778999
O O10 0.000000 0.000000 0.000000
O O11 0.279187 0.636218 0.429466
O O12 0.289654 0.483215 0.273413
O O13 0.412609 0.327915 0.760787
O O14 0.541869 0.308808 0.378898
O O15 0.583547 0.507564 0.117952
O O16 0.401313 0.866440 0.841825
O O17 0.132688 0.716653 0.811395
#
# Coordination Sequence:
#
# PCOD9090063 Si02
#       8
#     2   2   2   2   2   2   2   2
#     4  12  26  44  66 100 144 185 222 276 342 415
#     4  11  25  43  69 100 137 178 235 279 339 396
#     4  10  22  41  62  92 129 172 217 276 339 414
#     4  10  19  38  63  91 125 162 222 272 340 392
#     4  10  21  38  66  91 127 167 219 276 340 398
#     4   9  20  40  65  91 121 168 219 280 334 394
#     4  10  22  40  64  88 129 176 217 273 340 405
#     4  10  23  39  67  95 125 174 220 294 328 402
#
# _framework density 24.625309000000001
#
# number of rings (size 3 to 8) (size 9 to 14) (size 15 to 20)
#    0.000    1.750    1.250    3.000    3.500    2.000 
#    0.000    7.500    0.000    0.000    0.000    0.000 
#    0.000    0.000    0.000    0.000    0.000    0.000 
#
# Total GULP energy -89114.601971 kJ/mol
# GULP energy per Si atom -5569.662623 kJ/mol
# Density = 2.456926 g / cm^3
# Si number density = 24.625309 Si / 1000 Ang^3
#
#
#
# Elastic Constant Matrix: (Units=GPa)
#
#
# Indices 1 2 3 4 5 6 
#
# 1 105.1673 72.7956 39.3319 24.0584 -11.8323 1.7116
# 2 72.7956 103.4412 21.2361 21.3196 -12.7831 4.2420
# 3 39.3319 21.2361 52.2770 20.0370 -0.7697 -5.2104
# 4 24.0584 21.3196 20.0370 44.4419 -0.6303 2.9304
# 5 -11.8323 -12.7831 -0.7697 -0.6303 21.0887 4.3585
# 6 1.7116 4.2420 -5.2104 2.9304 4.3585 44.5717
#
#
#
# Elastic Compliance Matrix: (Units=1/GPa)
#
#
# Indices 1 2 3 4 5 6 
#
# 1 0.024650 -0.013863 -0.012689 -0.000794 0.005266 -0.001573
# 2 -0.013863 0.020043 0.003620 -0.003599 0.004637 -0.001169
# 3 -0.012689 0.003620 0.031194 -0.009326 -0.005078 0.004899
# 4 -0.000794 -0.003599 -0.009326 0.029003 -0.001591 -0.002468
# 5 0.005266 0.004637 -0.005078 -0.001591 0.054282 -0.006441
# 6 -0.001573 -0.001169 0.004899 -0.002468 -0.006441 0.023972
#
#
# Mechanical properties :
#
#
# Convention : Reuss Voigt Hill
#
# Bulk Modulus (GPa) = 33.30984 58.62362 45.96673
# Shear Modulus (GPa) = 20.91900 30.52191 25.72046
#
# Velocity S-wave (km/s) = 2.91777 3.52441 3.23534
# Velocity P-wave (km/s) = 4.99071 6.35766 5.71520
#
# Compressibility (1/GPa) = 0.03002116
#
# Stress axis : x y z
#
# Youngs Moduli (GPa) = 40.56776 49.89239 32.05767
#
# Poissons Ratio (x) = 0.69167 0.40679
# Poissons Ratio (y) = 0.56240 -0.11604
# Poissons Ratio (z) = 0.51478 -0.18060
#
# Static dielectric constant tensor:
#      x y z
#    x 1.967040 -0.002070 0.072210 
#    y -0.002070 2.013020 0.001470 
#    z 0.072210 0.001470 2.264430 
# 
# From -- ./inp_files/110710.got.cif
#   From: 2010.05.17/outbox.cif.g08.bks.cpg/sg2_56_cif.got.tgz:110710.got - 2010.06.03 11:33:40.
