data_PCOD9090581
_publ_section_title
;
Structure prediction by ZEFSAII (Michael W. Deem and Ramdas Pophale) SiO2 
 PCOD9090581
Probable space group: P -1
;
_chemical_formula_sum "Si O2"
_cell_formula_units_Z 14
_cell_length_a 7.267917
_cell_length_b 11.512324
_cell_length_c 12.389812
_cell_angle_alpha 65.920940
_cell_angle_beta 83.235718
_cell_angle_gamma 134.865774
_cell_volume 522.673725
_symmetry_space_group_name_H-M "P -1"
_symmetry_group_IT_number 2
_symmetry_cell_setting 'triclinic'
loop_
_space_group_symop_operation_xyz
x,y,z
-x,-y,-z
loop_
_atom_site_type_symbol
_atom_site_label
_atom_site_fract_x
_atom_site_fract_y
_atom_site_fract_z
Si Si1 0.249669 0.550132 0.896347
Si Si2 0.215501 0.760052 0.671235
Si Si3 0.947106 0.851198 0.709866
Si Si4 0.230192 0.936097 0.982813
Si Si5 0.207823 0.255334 0.494234
Si Si6 0.919238 0.749007 0.277448
Si Si7 0.836677 0.388906 0.669391
O O1 0.344311 0.704762 0.736683
O O2 0.612021 0.705090 0.849161
O O3 0.000000 0.500000 0.000000
O O4 0.044507 0.311801 0.957340
O O5 0.062169 0.775109 0.759270
O O6 0.944384 0.559903 0.679168
O O7 0.500000 0.000000 0.500000
O O8 0.869227 0.795104 0.607345
O O9 0.229400 0.121679 0.587476
O O10 0.443149 0.137551 0.805887
O O11 0.078349 0.919651 0.104748
O O12 0.500000 0.000000 0.000000
O O13 0.522743 0.527523 0.381220
O O14 0.960056 0.163307 0.641113
O O15 0.989472 0.641570 0.290927
O O16 0.000000 0.500000 0.500000
#
# Coordination Sequence:
#
# PCOD9090581 Si02
#       7
#     2   2   2   2   2   2   2
#     4  12  27  46  71  98 141 194 229 288 357 406
#     4  12  25  44  70 103 141 178 233 294 337 419
#     4  11  23  41  66 103 142 179 236 280 348 417
#     4  10  21  43  67  93 133 182 232 281 344 414
#     4  10  20  37  65  98 137 180 222 289 340 417
#     4  10  19  38  67  95 129 183 229 270 355 403
#     4  11  23  39  68  98 133 179 231 282 348 409
#
# _framework density 26.785354000000002
#
# number of rings (size 3 to 8) (size 9 to 14) (size 15 to 20)
#    0.000    1.143    4.286    3.429    6.000    0.571 
#    0.000    0.714    0.000    0.000    0.000    0.000 
#    0.000    0.000    0.000    0.000    0.000    0.000 
#
# Total GULP energy -78227.979378 kJ/mol
# GULP energy per Si atom -5587.712813 kJ/mol
# Density = 2.672439 g / cm^3
# Si number density = 26.785354 Si / 1000 Ang^3
#
#
#
# Elastic Constant Matrix: (Units=GPa)
#
#
# Indices 1 2 3 4 5 6 
#
# 1 86.8482 -5.2828 13.3969 -3.0865 -3.9588 -18.7565
# 2 -5.2828 84.3375 41.4228 -10.8366 -1.5868 -14.2987
# 3 13.3969 41.4228 180.9432 -0.7663 -6.1705 -0.3324
# 4 -3.0865 -10.8366 -0.7663 55.2411 -4.1120 -0.9966
# 5 -3.9588 -1.5868 -6.1705 -4.1120 44.3279 3.5295
# 6 -18.7565 -14.2987 -0.3324 -0.9966 3.5295 36.6244
#
#
#
# Elastic Compliance Matrix: (Units=1/GPa)
#
#
# Indices 1 2 3 4 5 6 
#
# 1 0.013890 0.003376 -0.001759 0.001610 0.000597 0.008402
# 2 0.003376 0.015720 -0.003819 0.003363 0.000014 0.007922
# 3 -0.001759 -0.003819 0.006549 -0.000745 0.000742 -0.002424
# 4 0.001610 0.003363 -0.000745 0.019015 0.001727 0.002482
# 5 0.000597 0.000014 0.000742 0.001727 0.023024 -0.001854
# 6 0.008402 0.007922 -0.002424 0.002482 -0.001854 0.034924
#
#
# Mechanical properties :
#
#
# Convention : Reuss Voigt Hill
#
# Bulk Modulus (GPa) = 31.49058 50.13364 40.81211
# Shear Modulus (GPa) = 39.02856 47.41148 43.22002
#
# Velocity S-wave (km/s) = 3.82132 4.21176 4.02128
# Velocity P-wave (km/s) = 5.59036 6.51225 6.06884
#
# Compressibility (1/GPa) = 0.03175553
#
# Stress axis : x y z
#
# Youngs Moduli (GPa) = 71.99400 63.61270 152.69780
#
# Poissons Ratio (x) = -0.21479 0.26856
# Poissons Ratio (y) = -0.24309 0.58323
# Poissons Ratio (z) = 0.12662 0.24297
#
# Static dielectric constant tensor:
#      x y z
#    x 2.374170 -0.064850 -0.085320 
#    y -0.064850 2.104370 0.073320 
#    z -0.085320 0.073320 2.248300 
# 
# From -- ./inp_files/416232.got.cif
#   From: 2010.05.17/outbox.cif.g08.bks.cpg/sg2_209_cif.got.tgz:416232.got - 2010.06.03 11:33:40.
