data_PCOD9090773
_publ_section_title
;
Structure prediction by ZEFSAII (Michael W. Deem and Ramdas Pophale) SiO2 
 PCOD9090773
Probable space group: P -1
;
_chemical_formula_sum "Si O2"
_cell_formula_units_Z 14
_cell_length_a 12.147139
_cell_length_b 9.187832
_cell_length_c 24.561217
_cell_angle_alpha 136.611866
_cell_angle_beta 152.943270
_cell_angle_gamma 64.206133
_cell_volume 629.112950
_symmetry_space_group_name_H-M "P -1"
_symmetry_group_IT_number 2
_symmetry_cell_setting 'triclinic'
loop_
_space_group_symop_operation_xyz
x,y,z
-x,-y,-z
loop_
_atom_site_type_symbol
_atom_site_label
_atom_site_fract_x
_atom_site_fract_y
_atom_site_fract_z
Si Si1 0.469299 0.235998 0.421290
Si Si2 0.673680 0.172738 0.833367
Si Si3 0.750198 0.908235 0.037293
Si Si4 0.488555 0.311948 0.890837
Si Si5 0.390679 0.701555 0.939041
Si Si6 0.586111 0.442601 0.766959
Si Si7 0.774921 0.114237 0.607248
O O1 0.500000 0.500000 0.500000
O O2 0.711142 0.260188 0.574460
O O3 0.095958 0.987832 0.211752
O O4 0.484819 0.135617 0.342413
O O5 0.621181 0.313271 0.800493
O O6 0.499438 0.147995 0.803979
O O7 0.068032 0.368165 0.062521
O O8 0.596701 0.817822 0.005157
O O9 0.792548 0.180762 0.114276
O O10 0.545699 0.653187 0.832246
O O11 0.257433 0.377456 0.794377
O O12 0.860012 0.632063 0.140669
O O13 0.445762 0.193158 0.899943
O O14 0.312965 0.166226 0.534133
O O15 0.500000 0.000000 0.500000
#
# Coordination Sequence:
#
# PCOD9090773 Si02
#       7
#     2   2   2   2   2   2   2
#     4  10  21  37  60  87 108 138 180 238 284 320
#     4   9  17  33  59  80 111 142 181 225 276 332
#     4  10  19  39  59  79 108 155 188 212 272 340
#     4  11  20  37  56  87 110 143 189 225 272 322
#     4  10  22  35  60  74 113 157 187 216 256 340
#     4   9  17  33  57  84 105 145 183 224 276 331
#     4  11  20  33  58  88 114 134 175 242 285 311
#
# _framework density 22.253556
#
# number of rings (size 3 to 8) (size 9 to 14) (size 15 to 20)
#    0.000    2.000    2.857    2.571    0.000    0.000 
#    2.571    3.571   12.571    0.000    0.000    0.000 
#    0.000    0.000    0.000    0.000    0.000    0.000 
#
# Total GULP energy -78077.376725 kJ/mol
# GULP energy per Si atom -5576.955480 kJ/mol
# Density = 2.220291 g / cm^3
# Si number density = 22.253556 Si / 1000 Ang^3
#
#
#
# Elastic Constant Matrix: (Units=GPa)
#
#
# Indices 1 2 3 4 5 6 
#
# 1 156.4007 46.9019 15.0153 9.3450 -25.3156 -26.3759
# 2 46.9019 115.4980 26.3802 8.7013 -12.0356 -20.9723
# 3 15.0153 26.3802 63.0333 9.2877 -9.3272 -16.4682
# 4 9.3450 8.7013 9.2877 30.5949 -14.9824 -2.7296
# 5 -25.3156 -12.0356 -9.3272 -14.9824 28.5156 9.4883
# 6 -26.3759 -20.9723 -16.4682 -2.7296 9.4883 38.0605
#
#
#
# Elastic Compliance Matrix: (Units=1/GPa)
#
#
# Indices 1 2 3 4 5 6 
#
# 1 0.008590 -0.002451 0.000610 0.001299 0.006350 0.003376
# 2 -0.002451 0.010970 -0.003072 -0.001277 -0.000212 0.002978
# 3 0.000610 -0.003072 0.019503 -0.003987 0.001351 0.006545
# 4 0.001299 -0.001277 -0.003987 0.045577 0.024729 -0.004425
# 5 0.006350 -0.000212 0.001351 0.024729 0.056530 -0.007451
# 6 0.003376 0.002978 0.006545 -0.004425 -0.007451 0.034627
#
#
# Mechanical properties :
#
#
# Convention : Reuss Voigt Hill
#
# Bulk Modulus (GPa) = 34.20434 56.83629 45.52031
# Shear Modulus (GPa) = 25.59260 35.87651 30.73456
#
# Velocity S-wave (km/s) = 3.39491 4.01954 3.72036
# Velocity P-wave (km/s) = 5.54715 6.86571 6.24135
#
# Compressibility (1/GPa) = 0.02923606
#
# Stress axis : x y z
#
# Youngs Moduli (GPa) = 116.41714 91.15830 51.27490
#
# Poissons Ratio (x) = 0.22338 -0.03126
# Poissons Ratio (y) = 0.28528 0.15754
# Poissons Ratio (z) = -0.07098 0.28008
#
# Static dielectric constant tensor:
#      x y z
#    x 1.858220 -0.023510 0.050910 
#    y -0.023510 1.808450 0.008610 
#    z 0.050910 0.008610 1.924080 
# 
# From -- ./inp_files/158891.got.cif
#   From: 2010.05.17/outbox.cif.g08.bks.cpg/sg2_80_cif.got.tgz:158891.got - 2010.06.03 11:33:40.
