data_PCOD9090016
_publ_section_title
;
Structure prediction by ZEFSAII (Michael W. Deem and Ramdas Pophale) SiO2 
 PCOD9090016
Probable space group: P -1
;
_chemical_formula_sum "Si O2"
_cell_formula_units_Z 14
_cell_length_a 14.837607
_cell_length_b 11.688663
_cell_length_c 8.170876
_cell_angle_alpha 70.719925
_cell_angle_beta 73.884323
_cell_angle_gamma 29.408383
_cell_volume 656.655131
_symmetry_space_group_name_H-M "P -1"
_symmetry_group_IT_number 2
_symmetry_cell_setting 'triclinic'
loop_
_space_group_symop_operation_xyz
x,y,z
-x,-y,-z
loop_
_atom_site_type_symbol
_atom_site_label
_atom_site_fract_x
_atom_site_fract_y
_atom_site_fract_z
Si Si1 0.426458 0.923635 0.441295
Si Si2 0.915354 0.060902 0.793275
Si Si3 0.710840 0.410635 0.001849
Si Si4 0.954160 0.691031 0.433006
Si Si5 0.686525 0.678873 0.724235
Si Si6 0.029016 0.809425 0.558768
Si Si7 0.429900 0.456203 0.643518
O O1 0.600639 0.748493 0.554931
O O2 0.454589 0.789618 0.355190
O O3 0.263787 0.057887 0.580162
O O4 0.370953 0.118331 0.307291
O O5 0.999254 0.086476 0.646397
O O6 0.742566 0.294323 0.877996
O O7 0.077198 0.822416 0.931110
O O8 0.887343 0.003110 0.680675
O O9 0.593869 0.494825 0.174549
O O10 0.631963 0.630133 0.892364
O O11 0.000000 0.500000 0.500000
O O12 0.093628 0.581874 0.277362
O O13 0.012401 0.689693 0.574032
O O14 0.226584 0.637664 0.599791
O O15 0.500000 0.500000 0.500000
#
# Coordination Sequence:
#
# PCOD9090016 Si02
#       7
#     2   2   2   2   2   2   2
#     4  10  22  37  66  90 122 165 211 251 309 374
#     4   9  19  32  62  90 111 166 199 246 317 361
#     4  10  20  37  60  89 126 163 205 263 310 362
#     4  10  20  36  67  92 115 162 213 253 300 374
#     4  10  20  42  63  91 121 163 212 259 309 363
#     4  10  19  38  63  87 124 160 209 253 303 378
#     4  11  24  38  60  93 125 167 210 253 314 377
#
# _framework density 21.320173
#
# number of rings (size 3 to 8) (size 9 to 14) (size 15 to 20)
#    0.000    2.000    2.857    0.000    6.000    0.571 
#    0.000    4.286    0.000    6.857    0.000    0.000 
#    0.000    0.000    0.000    0.000    0.000    0.000 
#
# Total GULP energy -77977.276086 kJ/mol
# GULP energy per Si atom -5569.805435 kJ/mol
# Density = 2.127165 g / cm^3
# Si number density = 21.320173 Si / 1000 Ang^3
#
#
#
# Elastic Constant Matrix: (Units=GPa)
#
#
# Indices 1 2 3 4 5 6 
#
# 1 123.2613 46.3697 38.0339 10.7790 -4.2850 35.5820
# 2 46.3697 110.2628 50.3394 14.0122 -4.5084 28.9663
# 3 38.0339 50.3394 122.3527 15.2864 -9.8944 27.0663
# 4 10.7790 14.0122 15.2864 34.8012 0.8052 12.6309
# 5 -4.2850 -4.5084 -9.8944 0.8052 15.5175 5.3887
# 6 35.5820 28.9663 27.0663 12.6309 5.3887 45.9149
#
#
#
# Elastic Compliance Matrix: (Units=1/GPa)
#
#
# Indices 1 2 3 4 5 6 
#
# 1 0.011576 -0.002425 -0.000528 0.000339 0.004844 -0.007791
# 2 -0.002425 0.013000 -0.003239 -0.001564 0.002612 -0.004289
# 3 -0.000528 -0.003239 0.011647 -0.002098 0.008111 -0.004788
# 4 0.000339 -0.001564 -0.002098 0.032717 -0.000993 -0.006922
# 5 0.004844 0.002612 0.008111 -0.000993 0.078400 -0.019111
# 6 -0.007791 -0.004289 -0.004788 -0.006922 -0.019111 0.037493
#
#
# Mechanical properties :
#
#
# Convention : Reuss Voigt Hill
#
# Bulk Modulus (GPa) = 41.94866 69.48478 55.71672
# Shear Modulus (GPa) = 24.37071 33.98896 29.17984
#
# Velocity S-wave (km/s) = 3.38462 3.99710 3.70354
# Velocity P-wave (km/s) = 5.91544 7.34603 6.66921
#
# Compressibility (1/GPa) = 0.02383866
#
# Stress axis : x y z
#
# Youngs Moduli (GPa) = 86.38575 76.92096 85.85766
#
# Poissons Ratio (x) = 0.18657 0.04530
# Poissons Ratio (y) = 0.20952 0.27813
# Poissons Ratio (z) = 0.04558 0.24918
#
# Static dielectric constant tensor:
#      x y z
#    x 1.829390 -0.013770 0.007920 
#    y -0.013770 1.845550 0.022370 
#    z 0.007920 0.022370 1.784340 
# 
# From -- ./inp_files/304739.got.cif
#   From: 2010.05.17/outbox.cif.g08.bks.cpg/sg2_153_cif.got.tgz:304739.got - 2010.06.03 11:33:40.
