data_PCOD9090489
_publ_section_title
;
Structure prediction by ZEFSAII (Michael W. Deem and Ramdas Pophale) SiO2 
 PCOD9090489
Probable space group: P -1
;
_chemical_formula_sum "Si O2"
_cell_formula_units_Z 11
_cell_length_a 11.945092
_cell_length_b 6.824880
_cell_length_c 11.825699
_cell_angle_alpha 73.823652
_cell_angle_beta 147.509438
_cell_angle_gamma 121.869821
_cell_volume 409.359291
_symmetry_space_group_name_H-M "P -1"
_symmetry_group_IT_number 2
_symmetry_cell_setting 'triclinic'
loop_
_space_group_symop_operation_xyz
x,y,z
-x,-y,-z
loop_
_atom_site_type_symbol
_atom_site_label
_atom_site_fract_x
_atom_site_fract_y
_atom_site_fract_z
Si Si1 0.809458 0.248056 0.446625
Si Si2 0.015283 0.788539 0.762639
Si Si3 0.328244 0.978797 0.207196
Si Si4 0.468198 0.587949 0.337233
Si Si5 0.500000 0.000000 0.000000
Si Si6 0.994367 0.713380 0.164717
O O1 0.983342 0.232111 0.691384
O O2 0.000000 0.500000 0.500000
O O3 0.588958 0.219621 0.345161
O O4 0.642864 0.056904 0.236597
O O5 0.749821 0.727995 0.505822
O O6 0.997733 0.530925 0.793287
O O7 0.252089 0.962190 0.856788
O O8 0.095291 0.902594 0.938375
O O9 0.380488 0.767453 0.262070
O O10 0.228275 0.932788 0.256998
O O11 0.500000 0.500000 0.500000
O O12 0.262162 0.382328 0.107749
#
# Coordination Sequence:
#
# PCOD9090489 Si02
#       6
#     2   2   2   2   1   2
#     4  11  23  42  68  93 130 175 221 266 321 390
#     4  10  19  38  66  93 132 170 212 263 328 377
#     4  10  21  37  66  98 128 172 216 264 332 381
#     4  11  19  37  67 102 134 166 211 276 324 383
#     4  10  22  42  68  86 124 186 202 258 338 370
#     4  11  20  38  65 100 128 167 220 267 324 390
#
# _framework density 26.871258999999998
#
# number of rings (size 3 to 8) (size 9 to 14) (size 15 to 20)
#    0.000    1.455    5.455    1.636    0.000    0.000 
#    0.000   13.636    0.000    0.000    0.000    0.000 
#    0.000    0.000    0.000    0.000    0.000    0.000 
#
# Total GULP energy -61327.135199 kJ/mol
# GULP energy per Si atom -5575.194109 kJ/mol
# Density = 2.681010 g / cm^3
# Si number density = 26.871259 Si / 1000 Ang^3
#
#
#
# Elastic Constant Matrix: (Units=GPa)
#
#
# Indices 1 2 3 4 5 6 
#
# 1 117.6055 39.3679 76.4478 -8.4906 -16.3202 30.7691
# 2 39.3679 81.8427 61.5146 -18.4842 -16.7863 12.0591
# 3 76.4478 61.5146 279.9907 -15.1749 -27.8531 23.9708
# 4 -8.4906 -18.4842 -15.1749 45.3342 7.4495 -6.0387
# 5 -16.3202 -16.7863 -27.8531 7.4495 71.0324 -7.3775
# 6 30.7691 12.0591 23.9708 -6.0387 -7.3775 44.0684
#
#
#
# Elastic Compliance Matrix: (Units=1/GPa)
#
#
# Indices 1 2 3 4 5 6 
#
# 1 0.012939 -0.003668 -0.002117 -0.000803 0.000645 -0.006881
# 2 -0.003668 0.017288 -0.002343 0.005302 0.001781 0.000129
# 3 -0.002117 -0.002343 0.004776 0.000072 0.000790 -0.000336
# 4 -0.000803 0.005302 0.000072 0.024597 -0.001251 0.002232
# 5 0.000645 0.001781 0.000790 -0.001251 0.015193 0.001004
# 6 -0.006881 0.000129 -0.000336 0.002232 0.001004 0.028118
#
#
# Mechanical properties :
#
#
# Convention : Reuss Voigt Hill
#
# Bulk Modulus (GPa) = 53.34489 92.67771 73.01130
# Shear Modulus (GPa) = 39.86787 52.22756 46.04771
#
# Velocity S-wave (km/s) = 3.85601 4.41344 4.14411
# Velocity P-wave (km/s) = 6.30240 7.78046 7.08011
#
# Compressibility (1/GPa) = 0.01874594
#
# Stress axis : x y z
#
# Youngs Moduli (GPa) = 77.28698 57.84427 209.39271
#
# Poissons Ratio (x) = 0.21215 0.44333
# Poissons Ratio (y) = 0.28346 0.49067
# Poissons Ratio (z) = 0.16363 0.13555
#
# Static dielectric constant tensor:
#      x y z
#    x 2.102060 -0.129720 0.028510 
#    y -0.129720 2.240510 0.018010 
#    z 0.028510 0.018010 2.104900 
# 
# From -- ./inp_files/88144.got.cif
#   From: 2010.05.17/outbox.cif.g08.bks.cpg/sg2_45_cif.got.tgz:88144.got - 2010.06.03 11:33:40.
