data_PCOD9090540
_publ_section_title
;
Structure prediction by ZEFSAII (Michael W. Deem and Ramdas Pophale) SiO2 
 PCOD9090540
Probable space group: P -1
;
_chemical_formula_sum "Si O2"
_cell_formula_units_Z 12
_cell_length_a 7.424442
_cell_length_b 9.266676
_cell_length_c 7.176217
_cell_angle_alpha 79.253297
_cell_angle_beta 85.154949
_cell_angle_gamma 100.310107
_cell_volume 473.672181
_symmetry_space_group_name_H-M "P -1"
_symmetry_group_IT_number 2
_symmetry_cell_setting 'triclinic'
loop_
_space_group_symop_operation_xyz
x,y,z
-x,-y,-z
loop_
_atom_site_type_symbol
_atom_site_label
_atom_site_fract_x
_atom_site_fract_y
_atom_site_fract_z
Si Si1 0.279269 0.997367 0.984402
Si Si2 0.566122 0.684978 0.447838
Si Si3 0.288732 0.786028 0.726435
Si Si4 0.397459 0.603531 0.106911
Si Si5 0.069956 0.205654 0.765537
Si Si6 0.987001 0.524569 0.774863
O O1 0.252456 0.936346 0.786217
O O2 0.175565 0.140277 0.945641
O O3 0.140450 0.889287 0.168358
O O4 0.500000 0.000000 0.000000
O O5 0.500000 0.500000 0.500000
O O6 0.452466 0.768155 0.579351
O O7 0.503548 0.702872 0.235908
O O8 0.778115 0.771878 0.418161
O O9 0.110762 0.682049 0.675237
O O10 0.329535 0.705368 0.933893
O O11 0.225924 0.494858 0.244124
O O12 0.500000 0.500000 0.000000
O O13 0.056374 0.380002 0.733681
O O14 0.000000 0.500000 0.000000
#
# Coordination Sequence:
#
# PCOD9090540 Si02
#       6
#     2   2   2   2   2   2
#     4  11  25  45  71  96 137 196 232 274 347 416
#     4  12  23  41  68 106 142 172 224 295 348 402
#     4  11  23  43  68 102 137 178 229 286 347 404
#     4  11  21  36  67 102 142 179 220 277 355 414
#     4  11  23  43  69  98 141 178 230 290 337 411
#     4  10  19  38  67 101 133 171 229 287 340 399
#
# _framework density 25.333977999999998
#
# number of rings (size 3 to 8) (size 9 to 14) (size 15 to 20)
#    0.000    1.000    6.667    2.000    0.000    1.333 
#    0.000    0.833    0.000    0.000    0.000    0.000 
#    0.000    0.000    0.000    0.000    0.000    0.000 
#
# Total GULP energy -66815.477650 kJ/mol
# GULP energy per Si atom -5567.956471 kJ/mol
# Density = 2.527632 g / cm^3
# Si number density = 25.333978 Si / 1000 Ang^3
#
#
#
# Elastic Constant Matrix: (Units=GPa)
#
#
# Indices 1 2 3 4 5 6 
#
# 1 142.4615 39.7205 39.2361 -13.2016 -38.4935 25.4598
# 2 39.7205 82.2745 21.1237 -6.3679 -18.4081 4.1807
# 3 39.2361 21.1237 96.3808 5.5177 -34.9979 11.1087
# 4 -13.2016 -6.3679 5.5177 34.9106 -1.9595 -2.8571
# 5 -38.4935 -18.4081 -34.9979 -1.9595 64.2491 -10.9028
# 6 25.4598 4.1807 11.1087 -2.8571 -10.9028 38.0961
#
#
#
# Elastic Compliance Matrix: (Units=1/GPa)
#
#
# Indices 1 2 3 4 5 6 
#
# 1 0.010666 -0.003312 -0.001922 0.003539 0.003673 -0.004888
# 2 -0.003312 0.014588 -0.001533 0.001885 0.001705 0.001688
# 3 -0.001922 -0.001533 0.013859 -0.002976 0.005666 -0.001190
# 4 0.003539 0.001885 -0.002976 0.031023 0.002198 0.001251
# 5 0.003673 0.001705 0.005666 0.002198 0.021763 0.002099
# 6 -0.004888 0.001688 -0.001190 0.001251 0.002099 0.030372
#
#
# Mechanical properties :
#
#
# Convention : Reuss Voigt Hill
#
# Bulk Modulus (GPa) = 39.09176 57.91972 48.50574
# Shear Modulus (GPa) = 34.64267 42.18691 38.41479
#
# Velocity S-wave (km/s) = 3.70190 4.08515 3.89824
# Velocity P-wave (km/s) = 5.80828 6.72037 6.28091
#
# Compressibility (1/GPa) = 0.02558084
#
# Stress axis : x y z
#
# Youngs Moduli (GPa) = 93.75515 68.54819 72.15678
#
# Poissons Ratio (x) = 0.22702 0.13866
# Poissons Ratio (y) = 0.31050 0.11059
# Poissons Ratio (z) = 0.18017 0.10506
#
# Static dielectric constant tensor:
#      x y z
#    x 2.380140 0.000050 0.039020 
#    y 0.000050 2.285570 -0.023010 
#    z 0.039020 -0.023010 2.044600 
# 
# From -- ./inp_files/146846.got.cif
#   From: 2010.05.17/outbox.cif.g08.bks.cpg/sg2_74_cif.got.tgz:146846.got - 2010.06.03 11:33:40.
