data_PCOD9090570
_publ_section_title
;
Structure prediction by ZEFSAII (Michael W. Deem and Ramdas Pophale) SiO2 
 PCOD9090570
Probable space group: P -1
;
_chemical_formula_sum "Si O2"
_cell_formula_units_Z 16
_cell_length_a 21.460999
_cell_length_b 8.612713
_cell_length_c 11.955767
_cell_angle_alpha 99.350888
_cell_angle_beta 152.574310
_cell_angle_gamma 98.604940
_cell_volume 766.185540
_symmetry_space_group_name_H-M "P -1"
_symmetry_group_IT_number 2
_symmetry_cell_setting 'triclinic'
loop_
_space_group_symop_operation_xyz
x,y,z
-x,-y,-z
loop_
_atom_site_type_symbol
_atom_site_label
_atom_site_fract_x
_atom_site_fract_y
_atom_site_fract_z
Si Si1 0.333318 0.784183 0.810572
Si Si2 0.235709 0.280435 0.998626
Si Si3 0.321434 0.851216 0.322376
Si Si4 0.639194 0.234557 0.390594
Si Si5 0.507380 0.743599 0.460985
Si Si6 0.455635 0.314288 0.975438
Si Si7 0.979670 0.598958 0.586820
Si Si8 0.124208 0.109896 0.569665
O O1 0.269179 0.759181 0.576856
O O2 0.496634 0.788042 0.046849
O O3 0.185150 0.596397 0.628721
O O4 0.437549 0.012353 0.049350
O O5 0.325280 0.510546 0.130700
O O6 0.354074 0.280818 0.278326
O O7 0.221897 0.167940 0.850970
O O8 0.038123 0.133826 0.715075
O O9 0.268969 0.748422 0.348299
O O10 0.466747 0.838899 0.504518
O O11 0.414143 0.092881 0.495103
O O12 0.156724 0.728054 0.960263
O O13 0.594482 0.382188 0.306440
O O14 0.500000 0.500000 0.000000
O O15 0.259818 0.180655 0.695306
O O16 0.000000 0.500000 0.500000
O O17 0.944163 0.758911 0.526083
#
# Coordination Sequence:
#
# PCOD9090570 Si02
#       8
#     2   2   2   2   2   2   2   2
#     4   9  22  42  64  95 124 168 214 255 321 377
#     4  10  22  38  59  89 131 161 210 267 315 379
#     4  11  23  38  63  90 131 170 213 262 314 384
#     4   9  21  41  65  93 120 173 212 256 312 386
#     4  10  22  39  55  92 129 170 206 258 330 373
#     4  10  19  38  67  92 124 164 215 258 308 383
#     4  12  25  39  64 100 130 166 213 267 322 378
#     4  11  21  38  63  94 124 166 215 263 313 375
#
# _framework density 20.882670999999998
#
# number of rings (size 3 to 8) (size 9 to 14) (size 15 to 20)
#    0.750    1.000    2.500    1.500    5.250    3.500 
#    0.000    0.000    0.000    0.750    0.000    0.000 
#    0.000    0.000    0.000    0.000    0.000    0.000 
#
# Total GULP energy -89159.904908 kJ/mol
# GULP energy per Si atom -5572.494057 kJ/mol
# Density = 2.083514 g / cm^3
# Si number density = 20.882671 Si / 1000 Ang^3
#
#
#
# Elastic Constant Matrix: (Units=GPa)
#
#
# Indices 1 2 3 4 5 6 
#
# 1 95.4830 31.5273 41.7074 3.8976 17.1746 20.2342
# 2 31.5273 107.7375 45.7062 3.8753 0.5467 16.0419
# 3 41.7074 45.7062 72.9032 16.0069 5.1335 17.3112
# 4 3.8976 3.8753 16.0069 34.1295 15.1914 7.6278
# 5 17.1746 0.5467 5.1335 15.1914 31.2191 0.8408
# 6 20.2342 16.0419 17.3112 7.6278 0.8408 31.1948
#
#
#
# Elastic Compliance Matrix: (Units=1/GPa)
#
#
# Indices 1 2 3 4 5 6 
#
# 1 0.018705 -0.000342 -0.009755 0.010453 -0.013532 -0.008735
# 2 -0.000342 0.013080 -0.007985 0.002967 -0.000096 -0.002796
# 3 -0.009755 -0.007985 0.027142 -0.013872 0.007832 -0.001447
# 4 0.010453 0.002967 -0.013872 0.048952 -0.027023 -0.011849
# 5 -0.013532 -0.000096 0.007832 -0.027023 0.051077 0.009711
# 6 -0.008735 -0.002796 -0.001447 -0.011849 0.009711 0.042599
#
#
# Mechanical properties :
#
#
# Convention : Reuss Voigt Hill
#
# Bulk Modulus (GPa) = 43.93216 57.11171 50.52193
# Shear Modulus (GPa) = 20.38268 29.78753 25.08510
#
# Velocity S-wave (km/s) = 3.12758 3.78090 3.46965
# Velocity P-wave (km/s) = 5.84171 6.81678 6.34800
#
# Compressibility (1/GPa) = 0.02276237
#
# Stress axis : x y z
#
# Youngs Moduli (GPa) = 53.46089 76.45491 36.84383
#
# Poissons Ratio (x) = 0.02616 0.35940
# Poissons Ratio (y) = 0.01829 0.29420
# Poissons Ratio (z) = 0.52150 0.61051
#
# Static dielectric constant tensor:
#      x y z
#    x 1.761760 -0.013200 -0.022400 
#    y -0.013200 1.876590 -0.001460 
#    z -0.022400 -0.001460 1.778440 
# 
# From -- ./inp_files/469465.got.cif
#   From: 2010.05.17/outbox.cif.g08.bks.cpg/sg2_235_cif.got.tgz:469465.got - 2010.06.03 11:33:40.
