data_PCOD9090714
_publ_section_title
;
Structure prediction by ZEFSAII (Michael W. Deem and Ramdas Pophale) SiO2 
 PCOD9090714
Probable space group: P -1
;
_chemical_formula_sum "Si O2"
_cell_formula_units_Z 12
_cell_length_a 10.878899
_cell_length_b 23.239137
_cell_length_c 9.945656
_cell_angle_alpha 27.442189
_cell_angle_beta 137.845184
_cell_angle_gamma 153.318052
_cell_volume 503.876413
_symmetry_space_group_name_H-M "P -1"
_symmetry_group_IT_number 2
_symmetry_cell_setting 'triclinic'
loop_
_space_group_symop_operation_xyz
x,y,z
-x,-y,-z
loop_
_atom_site_type_symbol
_atom_site_label
_atom_site_fract_x
_atom_site_fract_y
_atom_site_fract_z
Si Si1 0.732457 0.343410 0.201102
Si Si2 0.428803 0.447538 0.707111
Si Si3 0.772163 0.094178 0.307156
Si Si4 0.619903 0.713824 0.543766
Si Si5 0.126521 0.948464 0.801783
Si Si6 0.903507 0.507947 0.266370
O O1 0.826919 0.369707 0.376436
O O2 0.505297 0.124680 0.418816
O O3 0.593740 0.408151 0.965978
O O4 0.000000 0.500000 0.000000
O O5 0.500000 0.500000 0.500000
O O6 0.513921 0.610517 0.528470
O O7 0.111665 0.245866 0.905593
O O8 0.060791 0.172703 0.421047
O O9 0.757760 0.079146 0.164244
O O10 0.845494 0.272531 0.038302
O O11 0.373362 0.554398 0.783869
O O12 0.664395 0.881519 0.273448
O O13 0.000000 0.000000 0.500000
O O14 0.000000 0.500000 0.500000
#
# Coordination Sequence:
#
# PCOD9090714 Si02
#       6
#     2   2   2   2   2   2
#     4  12  27  47  65  99 151 183 223 293 358 409
#     4  12  25  42  69 105 138 180 234 293 343 404
#     4  11  21  44  75  96 127 188 236 278 344 412
#     4  11  21  42  74  96 131 175 238 284 329 412
#     4  10  19  38  72  98 124 171 237 281 332 401
#     4  12  26  43  71 107 136 179 232 292 347 413
#
# _framework density 23.815363999999999
#
# number of rings (size 3 to 8) (size 9 to 14) (size 15 to 20)
#    0.000    0.667    8.333    1.500    2.333    2.000 
#    3.000    0.000    0.000    0.000    0.000    0.000 
#    0.000    0.000    0.000    0.000    0.000    0.000 
#
# Total GULP energy -67032.897795 kJ/mol
# GULP energy per Si atom -5586.074816 kJ/mol
# Density = 2.376116 g / cm^3
# Si number density = 23.815364 Si / 1000 Ang^3
#
#
#
# Elastic Constant Matrix: (Units=GPa)
#
#
# Indices 1 2 3 4 5 6 
#
# 1 65.1844 31.4936 43.2328 -16.9016 -20.6576 -4.8290
# 2 31.4936 123.8286 70.4129 -36.8583 -12.8878 -22.3014
# 3 43.2328 70.4129 109.0131 -33.1105 -33.6031 0.5772
# 4 -16.9016 -36.8583 -33.1105 52.8059 2.3687 2.1691
# 5 -20.6576 -12.8878 -33.6031 2.3687 50.0833 0.7190
# 6 -4.8290 -22.3014 0.5772 2.1691 0.7190 45.7503
#
#
#
# Elastic Compliance Matrix: (Units=1/GPa)
#
#
# Indices 1 2 3 4 5 6 
#
# 1 0.021958 -0.000447 -0.006249 0.002510 0.004602 0.001987
# 2 -0.000447 0.016359 -0.009839 0.004914 -0.002921 0.007864
# 3 -0.006249 -0.009839 0.022670 0.005153 0.009945 -0.006142
# 4 0.002510 0.004914 0.005153 0.026147 0.004502 0.001285
# 5 0.004602 -0.002921 0.009945 0.004502 0.027597 -0.001711
# 6 0.001987 0.007864 -0.006142 0.001285 -0.001711 0.025944
#
#
# Mechanical properties :
#
#
# Convention : Reuss Voigt Hill
#
# Bulk Modulus (GPa) = 35.82084 65.36720 50.59402
# Shear Modulus (GPa) = 27.31468 39.92035 33.61752
#
# Velocity S-wave (km/s) = 3.39032 4.09864 3.76119
# Velocity P-wave (km/s) = 5.51356 7.06438 6.33660
#
# Compressibility (1/GPa) = 0.02791671
#
# Stress axis : x y z
#
# Youngs Moduli (GPa) = 45.54114 61.12808 44.11179
#
# Poissons Ratio (x) = 0.02735 0.27565
# Poissons Ratio (y) = 0.02038 0.43400
# Poissons Ratio (z) = 0.28459 0.60142
#
# Static dielectric constant tensor:
#      x y z
#    x 1.938780 0.095200 0.056150 
#    y 0.095200 2.036830 0.028940 
#    z 0.056150 0.028940 1.946890 
# 
# From -- ./inp_files/191160.got.cif
#   From: 2010.05.17/outbox.cif.g08.bks.cpg/sg2_96_cif.got.tgz:191160.got - 2010.06.03 11:33:40.
