data_PCOD9090601
_publ_section_title
;
Structure prediction by ZEFSAII (Michael W. Deem and Ramdas Pophale) SiO2 
 PCOD9090601
Probable space group: P -1
;
_chemical_formula_sum "Si O2"
_cell_formula_units_Z 16
_cell_length_a 13.329226
_cell_length_b 7.413054
_cell_length_c 9.486416
_cell_angle_alpha 93.741274
_cell_angle_beta 117.596784
_cell_angle_gamma 59.840972
_cell_volume 700.894991
_symmetry_space_group_name_H-M "P -1"
_symmetry_group_IT_number 2
_symmetry_cell_setting 'triclinic'
loop_
_space_group_symop_operation_xyz
x,y,z
-x,-y,-z
loop_
_atom_site_type_symbol
_atom_site_label
_atom_site_fract_x
_atom_site_fract_y
_atom_site_fract_z
Si Si1 0.136506 0.255586 0.956973
Si Si2 0.448500 0.455941 0.819516
Si Si3 0.021730 0.231009 0.378546
Si Si4 0.733273 0.244489 0.505465
Si Si5 0.817996 0.398338 0.003166
Si Si6 0.362009 0.224878 0.929169
Si Si7 0.704819 0.155610 0.783531
Si Si8 0.096376 0.574479 0.382905
O O1 0.209776 0.086183 0.118934
O O2 0.113716 0.480151 0.004701
O O3 0.240982 0.193191 0.887781
O O4 0.009456 0.280980 0.799708
O O5 0.362233 0.671743 0.686662
O O6 0.360842 0.353335 0.798405
O O7 0.573180 0.283334 0.799343
O O8 0.500000 0.500000 0.000000
O O9 0.091681 0.359710 0.379269
O O10 0.903942 0.283933 0.193463
O O11 0.957799 0.318510 0.493819
O O12 0.130884 0.981419 0.443274
O O13 0.670676 0.205396 0.600587
O O14 0.771038 0.423634 0.562640
O O15 0.670204 0.601146 0.959333
O O16 0.800284 0.243280 0.887590
O O17 0.500000 0.000000 0.000000
#
# Coordination Sequence:
#
# PCOD9090601 Si02
#       8
#     2   2   2   2   2   2   2   2
#     4   9  21  38  68  96 130 170 218 269 315 390
#     4  12  24  44  70  92 126 173 223 279 321 386
#     4  10  22  42  65  98 135 168 219 275 324 383
#     4  12  28  41  65 101 135 173 213 269 340 399
#     4   9  20  39  65  95 132 169 216 265 316 389
#     4  10  19  38  68 100 122 167 228 275 309 371
#     4  12  24  43  64  97 138 174 213 265 336 391
#     4  10  22  41  67  98 135 168 216 277 322 383
#
# _framework density 22.827954999999999
#
# number of rings (size 3 to 8) (size 9 to 14) (size 15 to 20)
#    0.750    0.750    2.500    2.250    3.500    3.000 
#    0.000    2.500    0.000    4.500    0.000    0.000 
#    0.000    0.000    0.000    0.000    0.000    0.000 
#
# Total GULP energy -89334.423147 kJ/mol
# GULP energy per Si atom -5583.401447 kJ/mol
# Density = 2.277600 g / cm^3
# Si number density = 22.827955 Si / 1000 Ang^3
#
#
#
# Elastic Constant Matrix: (Units=GPa)
#
#
# Indices 1 2 3 4 5 6 
#
# 1 81.5330 -9.1186 36.9667 0.8739 -18.8541 4.8765
# 2 -9.1186 58.1370 50.0927 -20.4649 -7.2393 5.7631
# 3 36.9667 50.0927 128.8190 -29.2607 -20.3795 -5.9086
# 4 0.8739 -20.4649 -29.2607 29.1443 5.0464 -5.4301
# 5 -18.8541 -7.2393 -20.3795 5.0464 35.3029 -4.7537
# 6 4.8765 5.7631 -5.9086 -5.4301 -4.7537 25.0884
#
#
#
# Elastic Compliance Matrix: (Units=1/GPa)
#
#
# Indices 1 2 3 4 5 6 
#
# 1 0.021717 0.013689 -0.012491 -0.006700 0.006741 -0.010480
# 2 0.013689 0.038398 -0.017894 0.005590 0.002161 -0.014076
# 3 -0.012491 -0.017894 0.022264 0.012482 0.002748 0.015004
# 4 -0.006700 0.005590 0.012482 0.053827 -0.000979 0.014422
# 5 0.006741 0.002161 0.002748 -0.000979 0.034799 0.005222
# 6 -0.010480 -0.014076 0.015004 0.014422 0.005222 0.052774
#
#
# Mechanical properties :
#
#
# Convention : Reuss Voigt Hill
#
# Bulk Modulus (GPa) = 20.41381 47.15231 33.78306
# Shear Modulus (GPa) = 18.28157 30.61034 24.44595
#
# Velocity S-wave (km/s) = 2.83298 3.66582 3.27598
# Velocity P-wave (km/s) = 4.43429 6.21434 5.39819
#
# Compressibility (1/GPa) = 0.04898644
#
# Stress axis : x y z
#
# Youngs Moduli (GPa) = 46.04710 26.04310 44.91604
#
# Poissons Ratio (x) = -0.35650 0.56106
# Poissons Ratio (y) = -0.63034 0.80372
# Poissons Ratio (z) = 0.57519 0.46601
#
# Static dielectric constant tensor:
#      x y z
#    x 1.955730 0.010380 -0.015970 
#    y 0.010380 1.848790 0.018170 
#    z -0.015970 0.018170 1.841960 
# 
# From -- ./inp_files/327688.got.cif
#   From: 2010.05.17/outbox.cif.g08.bks.cpg/sg2_164_cif.got.tgz:327688.got - 2010.06.03 11:33:40.
