data_PCOD9090976
_publ_section_title
;
Structure prediction by ZEFSAII (Michael W. Deem and Ramdas Pophale) SiO2 
 PCOD9090976
Probable space group: P -1
;
_chemical_formula_sum "Si O2"
_cell_formula_units_Z 16
_cell_length_a 27.004242
_cell_length_b 8.888228
_cell_length_c 11.899646
_cell_angle_alpha 149.142018
_cell_angle_beta 149.570295
_cell_angle_gamma 41.230735
_cell_volume 741.196234
_symmetry_space_group_name_H-M "P -1"
_symmetry_group_IT_number 2
_symmetry_cell_setting 'triclinic'
loop_
_space_group_symop_operation_xyz
x,y,z
-x,-y,-z
loop_
_atom_site_type_symbol
_atom_site_label
_atom_site_fract_x
_atom_site_fract_y
_atom_site_fract_z
Si Si1 0.038819 0.545136 0.731231
Si Si2 0.859352 0.833432 0.683433
Si Si3 0.186363 0.287456 0.016921
Si Si4 0.252986 0.238267 0.349922
Si Si5 0.344957 0.880035 0.939842
Si Si6 0.454122 0.718525 0.680526
Si Si7 0.452425 0.874273 0.514434
Si Si8 0.270367 0.894723 0.563145
O O1 0.106094 0.292032 0.762844
O O2 0.000000 0.500000 0.500000
O O3 0.948946 0.614578 0.684962
O O4 0.099133 0.840468 0.026713
O O5 0.804517 0.785327 0.661270
O O6 0.783063 0.837262 0.433219
O O7 0.280338 0.098078 0.032597
O O8 0.179235 0.188888 0.069565
O O9 0.199212 0.635640 0.286179
O O10 0.304270 0.554200 0.655844
O O11 0.345101 0.007590 0.366634
O O12 0.325108 0.985708 0.840402
O O13 0.460756 0.907670 0.203412
O O14 0.454304 0.776132 0.585529
O O15 0.511917 0.437701 0.667491
O O16 0.343626 0.730861 0.514448
O O17 0.500000 0.000000 0.000000
#
# Coordination Sequence:
#
# PCOD9090976 Si02
#       8
#     2   2   2   2   2   2   2   2
#     4  10  22  43  72  94 116 156 210 268 325 374
#     4  10  22  42  66  95 124 155 208 268 316 380
#     4  10  23  41  61  90 127 166 207 257 315 380
#     4  11  25  41  60  94 132 173 205 252 316 378
#     4  11  22  39  62  88 130 178 209 252 306 367
#     4  11  21  36  62  93 121 166 216 271 303 349
#     4  11  23  38  60  93 130 169 219 257 299 367
#     4  10  19  39  62  88 123 160 212 264 314 355
#
# _framework density 21.586727
#
# number of rings (size 3 to 8) (size 9 to 14) (size 15 to 20)
#    0.000    1.500    3.750    1.125    0.000    4.000 
#    2.250    1.250    0.000    0.000    0.000    0.000 
#    0.000    0.000    0.000    0.000    0.000    0.000 
#
# Total GULP energy -89213.239259 kJ/mol
# GULP energy per Si atom -5575.827454 kJ/mol
# Density = 2.153759 g / cm^3
# Si number density = 21.586727 Si / 1000 Ang^3
#
#
#
# Elastic Constant Matrix: (Units=GPa)
#
#
# Indices 1 2 3 4 5 6 
#
# 1 95.3001 42.3128 4.5411 -17.1396 16.3445 -5.0060
# 2 42.3128 94.4372 18.0164 -23.4700 9.6947 3.2358
# 3 4.5411 18.0164 40.4245 -9.5660 -1.2246 5.7083
# 4 -17.1396 -23.4700 -9.5660 24.9535 -0.0324 -0.0995
# 5 16.3445 9.6947 -1.2246 -0.0324 20.8064 -4.9195
# 6 -5.0060 3.2358 5.7083 -0.0995 -4.9195 18.7392
#
#
#
# Elastic Compliance Matrix: (Units=1/GPa)
#
#
# Indices 1 2 3 4 5 6 
#
# 1 0.015400 -0.004577 0.001338 0.006782 -0.009386 0.002068
# 2 -0.004577 0.016888 -0.003913 0.011215 -0.005511 -0.004334
# 3 0.001338 -0.003913 0.029452 0.008499 0.000696 -0.007711
# 4 0.006782 0.011215 0.008499 0.058504 -0.011227 -0.005351
# 5 -0.009386 -0.005511 0.000696 -0.011227 0.061406 0.014293
# 6 0.002068 -0.004334 -0.007711 -0.005351 0.014293 0.060738
#
#
# Mechanical properties :
#
#
# Convention : Reuss Voigt Hill
#
# Bulk Modulus (GPa) = 21.08112 39.98915 30.53514
# Shear Modulus (GPa) = 18.34836 23.91926 21.13381
#
# Velocity S-wave (km/s) = 2.91861 3.33236 3.13232
# Velocity P-wave (km/s) = 4.59834 5.77678 5.22092
#
# Compressibility (1/GPa) = 0.04743581
#
# Stress axis : x y z
#
# Youngs Moduli (GPa) = 64.93638 59.21365 33.95308
#
# Poissons Ratio (x) = 0.27103 -0.04544
# Poissons Ratio (y) = 0.29722 0.13287
# Poissons Ratio (z) = -0.08691 0.23173
#
# Static dielectric constant tensor:
#      x y z
#    x 2.330380 -0.109550 0.573460 
#    y -0.109550 1.854950 -0.128990 
#    z 0.573460 -0.128990 2.490670 
# 
# From -- ./inp_files/85178.got.cif
#   From: 2010.05.17/outbox.cif.g08.bks.cpg/sg2_43_cif.got.tgz:85178.got - 2010.06.03 11:33:40.
