data_PCOD9090455
_publ_section_title
;
Structure prediction by ZEFSAII (Michael W. Deem and Ramdas Pophale) SiO2 
 PCOD9090455
Probable space group: P -1
;
_chemical_formula_sum "Si O2"
_cell_formula_units_Z 16
_cell_length_a 9.005175
_cell_length_b 8.604316
_cell_length_c 12.221547
_cell_angle_alpha 60.676177
_cell_angle_beta 48.217080
_cell_angle_gamma 77.140236
_cell_volume 607.758762
_symmetry_space_group_name_H-M "P -1"
_symmetry_group_IT_number 2
_symmetry_cell_setting 'triclinic'
loop_
_space_group_symop_operation_xyz
x,y,z
-x,-y,-z
loop_
_atom_site_type_symbol
_atom_site_label
_atom_site_fract_x
_atom_site_fract_y
_atom_site_fract_z
Si Si1 0.125131 0.179554 0.279408
Si Si2 0.344948 0.844520 0.690250
Si Si3 0.672074 0.701216 0.074070
Si Si4 0.709333 0.494059 0.330563
Si Si5 0.433650 0.384866 0.182730
Si Si6 0.834827 0.502931 0.487714
Si Si7 0.667742 0.118835 0.785937
Si Si8 0.909329 0.902415 0.340102
O O1 0.199388 0.305452 0.301136
O O2 0.305028 0.057745 0.233570
O O3 0.169484 0.288774 0.105595
O O4 0.933404 0.026433 0.398731
O O5 0.296769 0.682670 0.680895
O O6 0.434312 0.759411 0.782763
O O7 0.500000 0.000000 0.500000
O O8 0.161625 0.958218 0.758738
O O9 0.748887 0.656138 0.169078
O O10 0.485316 0.543106 0.191271
O O11 0.558936 0.872214 0.070568
O O12 0.500000 0.500000 0.500000
O O13 0.879238 0.513708 0.332578
O O14 0.500000 0.500000 0.000000
O O15 0.716614 0.295986 0.622548
O O16 0.773979 0.705417 0.468400
O O17 0.000000 0.500000 0.500000
O O18 0.861330 0.137445 0.766622
#
# Coordination Sequence:
#
# PCOD9090455 Si02
#       8
#     2   2   2   2   2   2   2   2
#     4   9  20  39  64  91 122 160 211 255 305 374
#     4  11  24  39  66  94 125 165 211 263 316 373
#     4  10  19  38  66  91 119 165 214 249 313 378
#     4  11  22  38  62  90 119 164 208 260 310 372
#     4   9  21  41  64  91 123 167 208 255 314 381
#     4  10  20  39  58  84 126 165 194 260 314 361
#     4   9  19  35  63  85 124 157 207 253 305 367
#     4   9  22  40  57  92 127 160 202 267 313 360
#
# _framework density 26.326233999999999
#
# number of rings (size 3 to 8) (size 9 to 14) (size 15 to 20)
#    0.750    1.500    1.250    1.125    3.500    1.000 
#    4.500    9.375    5.500    0.000    0.000    0.000 
#    0.000    0.000    0.000    0.000    0.000    0.000 
#
# Total GULP energy -89071.209433 kJ/mol
# GULP energy per Si atom -5566.950590 kJ/mol
# Density = 2.626631 g / cm^3
# Si number density = 26.326234 Si / 1000 Ang^3
#
#
#
# Elastic Constant Matrix: (Units=GPa)
#
#
# Indices 1 2 3 4 5 6 
#
# 1 125.7259 52.1647 56.8121 -8.5342 47.6904 -3.6465
# 2 52.1647 68.7569 39.0206 -11.5131 26.4563 -7.3182
# 3 56.8121 39.0206 127.7921 -11.9665 26.5382 -5.0909
# 4 -8.5342 -11.5131 -11.9665 38.7949 2.5406 10.1994
# 5 47.6904 26.4563 26.5382 2.5406 58.5664 -11.2368
# 6 -3.6465 -7.3182 -5.0909 10.1994 -11.2368 57.4883
#
#
#
# Elastic Compliance Matrix: (Units=1/GPa)
#
#
# Indices 1 2 3 4 5 6 
#
# 1 0.015360 -0.006597 -0.002945 0.001635 -0.008669 -0.002111
# 2 -0.006597 0.023662 -0.002983 0.004731 -0.004036 0.000701
# 3 -0.002945 -0.002983 0.010434 0.001804 -0.001095 -0.000176
# 4 0.001635 0.004731 0.001804 0.030054 -0.006698 -0.005776
# 5 -0.008669 -0.004036 -0.001095 -0.006698 0.027791 0.005460
# 6 -0.002111 0.000701 -0.000176 -0.005776 0.005460 0.019426
#
#
# Mechanical properties :
#
#
# Convention : Reuss Voigt Hill
#
# Bulk Modulus (GPa) = 40.97402 68.69665 54.83533
# Shear Modulus (GPa) = 31.26717 42.58842 36.92779
#
# Velocity S-wave (km/s) = 3.45001 4.02645 3.74933
# Velocity P-wave (km/s) = 5.60962 6.91140 6.29425
#
# Compressibility (1/GPa) = 0.02440571
#
# Stress axis : x y z
#
# Youngs Moduli (GPa) = 65.10524 42.26231 95.83671
#
# Poissons Ratio (x) = 0.27882 0.28221
# Poissons Ratio (y) = 0.42952 0.28589
# Poissons Ratio (z) = 0.19172 0.12607
#
# Static dielectric constant tensor:
#      x y z
#    x 2.188630 -0.072140 -0.081160 
#    y -0.072140 2.152390 0.012530 
#    z -0.081160 0.012530 2.189450 
# 
# From -- ./inp_files/377940.got.cif
#   From: 2010.05.17/outbox.cif.g08.bks.cpg/sg2_189_cif.got.tgz:377940.got - 2010.06.03 11:33:40.
