data_PCOD9090274
_publ_section_title
;
Structure prediction by ZEFSAII (Michael W. Deem and Ramdas Pophale) SiO2 
 PCOD9090274
Probable space group: P -1
;
_chemical_formula_sum "Si O2"
_cell_formula_units_Z 16
_cell_length_a 11.603005
_cell_length_b 16.038452
_cell_length_c 12.046175
_cell_angle_alpha 106.765475
_cell_angle_beta 37.199335
_cell_angle_gamma 134.535979
_cell_volume 752.617075
_symmetry_space_group_name_H-M "P -1"
_symmetry_group_IT_number 2
_symmetry_cell_setting 'triclinic'
loop_
_space_group_symop_operation_xyz
x,y,z
-x,-y,-z
loop_
_atom_site_type_symbol
_atom_site_label
_atom_site_fract_x
_atom_site_fract_y
_atom_site_fract_z
Si Si1 0.794245 0.205423 0.427758
Si Si2 0.661245 0.813700 0.178133
Si Si3 0.634611 0.712664 0.922289
Si Si4 0.355425 0.894073 0.743914
Si Si5 0.052596 0.004007 0.590172
Si Si6 0.465465 0.674535 0.626309
Si Si7 0.696927 0.661887 0.251925
Si Si8 0.769217 0.500014 0.041465
O O1 0.667352 0.251670 0.579691
O O2 0.794438 0.202205 0.292039
O O3 0.115154 0.276779 0.256454
O O4 0.500235 0.036366 0.637594
O O5 0.648305 0.731596 0.245611
O O6 0.637278 0.754254 0.057927
O O7 0.000000 0.000000 0.000000
O O8 0.324680 0.560847 0.034790
O O9 0.751661 0.840647 0.811156
O O10 0.652491 0.951051 0.587737
O O11 0.092896 0.806244 0.008874
O O12 0.193725 0.146857 0.584364
O O13 0.000000 0.000000 0.500000
O O14 0.491633 0.600994 0.497442
O O15 0.418338 0.628916 0.772093
O O16 0.151675 0.618457 0.816173
O O17 0.641324 0.549525 0.188975
#
# Coordination Sequence:
#
# PCOD9090274 Si02
#       8
#     2   2   2   2   2   2   2   2
#     4  10  20  39  62  95 136 166 208 270 329 384
#     4  12  22  38  68 102 132 170 218 273 334 390
#     4  11  24  42  67 102 137 165 221 276 329 389
#     4  10  19  38  64  97 130 168 211 267 329 385
#     4  11  21  41  70  99 126 172 223 274 325 387
#     4  11  24  45  70  91 131 181 227 266 331 392
#     4  12  23  40  69  95 125 179 227 260 326 405
#     4  11  26  46  64  93 137 181 215 275 330 394
#
# _framework density 21.259152
#
# number of rings (size 3 to 8) (size 9 to 14) (size 15 to 20)
#    0.000    1.000    5.000    3.375    0.000    1.500 
#    0.000    3.125    0.000    0.000    0.000    0.000 
#    0.000    0.000    0.000    0.000    0.000    0.000 
#
# Total GULP energy -89183.590678 kJ/mol
# GULP energy per Si atom -5573.974417 kJ/mol
# Density = 2.121076 g / cm^3
# Si number density = 21.259152 Si / 1000 Ang^3
#
#
#
# Elastic Constant Matrix: (Units=GPa)
#
#
# Indices 1 2 3 4 5 6 
#
# 1 68.4602 32.0929 -8.9088 -3.3927 8.1045 1.7829
# 2 32.0929 106.6628 23.0426 14.8037 -16.2377 4.0661
# 3 -8.9088 23.0426 41.4183 13.3591 4.2198 3.7116
# 4 -3.3927 14.8037 13.3591 26.1697 -1.2687 1.9561
# 5 8.1045 -16.2377 4.2198 -1.2687 16.8473 8.6544
# 6 1.7829 4.0661 3.7116 1.9561 8.6544 36.5609
#
#
#
# Elastic Compliance Matrix: (Units=1/GPa)
#
#
# Indices 1 2 3 4 5 6 
#
# 1 0.035789 -0.025087 0.025272 0.002537 -0.053147 0.010924
# 2 -0.025087 0.032260 -0.026526 -0.004296 0.056005 -0.012699
# 3 0.025272 -0.026526 0.053269 -0.012486 -0.057438 0.010574
# 4 0.002537 -0.004296 -0.012486 0.047551 0.002073 -0.001413
# 5 -0.053147 0.056005 -0.057438 0.002073 0.173468 -0.038979
# 6 0.010924 -0.012699 0.010574 -0.001413 -0.038979 0.036460
#
#
# Mechanical properties :
#
#
# Convention : Reuss Voigt Hill
#
# Bulk Modulus (GPa) = 14.56950 34.33275 24.45113
# Shear Modulus (GPa) = 11.00454 27.26989 19.13722
#
# Velocity S-wave (km/s) = 2.27763 3.58542 3.00357
# Velocity P-wave (km/s) = 3.71281 5.77278 4.85335
#
# Compressibility (1/GPa) = 0.06863654
#
# Stress axis : x y z
#
# Youngs Moduli (GPa) = 27.94151 30.99777 18.77271
#
# Poissons Ratio (x) = 0.77765 -0.47443
# Poissons Ratio (y) = 0.70097 0.49797
# Poissons Ratio (z) = -0.70615 0.82225
#
# Static dielectric constant tensor:
#      x y z
#    x 1.766370 -0.023570 0.041950 
#    y -0.023570 1.846600 -0.028570 
#    z 0.041950 -0.028570 1.813320 
# 
# From -- ./inp_files/437333.got.cif
#   From: 2010.05.17/outbox.cif.g08.bks.cpg/sg2_219_cif.got.tgz:437333.got - 2010.06.03 11:33:40.
