data_PCOD9090361
_publ_section_title
;
Structure prediction by ZEFSAII (Michael W. Deem and Ramdas Pophale) SiO2 
 PCOD9090361
Probable space group: P -1
;
_chemical_formula_sum "Si O2"
_cell_formula_units_Z 14
_cell_length_a 16.334430
_cell_length_b 7.795698
_cell_length_c 9.719098
_cell_angle_alpha 56.173490
_cell_angle_beta 45.164867
_cell_angle_gamma 42.085608
_cell_volume 586.773440
_symmetry_space_group_name_H-M "P -1"
_symmetry_group_IT_number 2
_symmetry_cell_setting 'triclinic'
loop_
_space_group_symop_operation_xyz
x,y,z
-x,-y,-z
loop_
_atom_site_type_symbol
_atom_site_label
_atom_site_fract_x
_atom_site_fract_y
_atom_site_fract_z
Si Si1 0.178026 0.710275 0.012051
Si Si2 0.611060 0.560641 0.875863
Si Si3 0.131796 0.509305 0.882337
Si Si4 0.948213 0.793014 0.452932
Si Si5 0.730479 0.000208 0.402259
Si Si6 0.142071 0.596865 0.541229
Si Si7 0.538533 0.916396 0.332654
O O1 0.210471 0.895157 0.821578
O O2 0.319761 0.503114 0.025731
O O3 0.126766 0.618810 0.988322
O O4 0.051204 0.823059 0.222054
O O5 0.744016 0.398631 0.684912
O O6 0.531585 0.852908 0.795067
O O7 0.500000 0.500000 0.000000
O O8 0.012237 0.217047 0.430906
O O9 0.292234 0.246881 0.809889
O O10 0.000000 0.500000 0.000000
O O11 0.000000 0.500000 0.500000
O O12 0.791969 0.971365 0.494607
O O13 0.797898 0.704820 0.409411
O O14 0.557955 0.184826 0.529587
O O15 0.139038 0.654454 0.678033
O O16 0.500000 0.000000 0.500000
#
# Coordination Sequence:
#
# PCOD9090361 Si02
#       7
#     2   2   2   2   2   2   2
#     4  11  24  36  64 103 129 162 218 275 325 371
#     4  10  21  41  68  97 125 169 225 269 306 395
#     4  12  25  42  64  97 138 168 209 271 335 379
#     4   9  18  37  63  88 124 172 218 253 307 392
#     4  10  19  38  65  93 121 168 225 264 308 391
#     4   9  20  40  66  86 129 180 213 250 328 393
#     4  11  22  41  69  90 123 182 217 255 331 391
#
# _framework density 23.859293999999998
#
# number of rings (size 3 to 8) (size 9 to 14) (size 15 to 20)
#    0.000    1.714    2.857    3.857    0.000    1.143 
#    2.571    0.714    0.000    0.000    0.000    0.000 
#    0.000    0.000    0.000    0.000    0.000    0.000 
#
# Total GULP energy -78189.571676 kJ/mol
# GULP energy per Si atom -5584.969405 kJ/mol
# Density = 2.380499 g / cm^3
# Si number density = 23.859294 Si / 1000 Ang^3
#
#
#
# Elastic Constant Matrix: (Units=GPa)
#
#
# Indices 1 2 3 4 5 6 
#
# 1 174.9552 69.9210 47.4282 -5.9640 8.7869 -45.0778
# 2 69.9210 95.4850 38.5297 7.1745 1.0478 -33.5560
# 3 47.4282 38.5297 103.9710 -9.8443 -15.1572 -14.1603
# 4 -5.9640 7.1745 -9.8443 29.6115 -15.4687 0.1909
# 5 8.7869 1.0478 -15.1572 -15.4687 54.9102 -4.8697
# 6 -45.0778 -33.5560 -14.1603 0.1909 -4.8697 56.2129
#
#
#
# Elastic Compliance Matrix: (Units=1/GPa)
#
#
# Indices 1 2 3 4 5 6 
#
# 1 0.009279 -0.004726 -0.001915 0.001798 -0.001059 0.004040
# 2 -0.004726 0.018855 -0.005322 -0.008929 -0.003066 0.005890
# 3 -0.001915 -0.005322 0.014273 0.009261 0.006908 -0.000550
# 4 0.001798 -0.008929 0.009261 0.047647 0.015831 -0.000346
# 5 -0.001059 -0.003066 0.006908 0.015831 0.024909 0.001165
# 6 0.004040 0.005890 -0.000550 -0.000346 0.001165 0.024508
#
#
# Mechanical properties :
#
#
# Convention : Reuss Voigt Hill
#
# Bulk Modulus (GPa) = 54.10875 76.24102 65.17488
# Shear Modulus (GPa) = 29.48843 42.71574 36.10209
#
# Velocity S-wave (km/s) = 3.51939 4.23581 3.89411
# Velocity P-wave (km/s) = 6.26437 7.47974 6.89887
#
# Compressibility (1/GPa) = 0.01848130
#
# Stress axis : x y z
#
# Youngs Moduli (GPa) = 107.77193 53.03576 70.06271
#
# Poissons Ratio (x) = 0.25063 0.13420
# Poissons Ratio (y) = 0.50929 0.37286
# Poissons Ratio (z) = 0.20643 0.28225
#
# Static dielectric constant tensor:
#      x y z
#    x 1.915800 0.059710 -0.108380 
#    y 0.059710 2.011460 0.012000 
#    z -0.108380 0.012000 1.886060 
# 
# From -- ./inp_files/462695.got.cif
#   From: 2010.05.17/outbox.cif.g08.bks.cpg/sg2_232_cif.got.tgz:462695.got - 2010.06.03 11:33:40.
