data_PCOD9090047
_publ_section_title
;
Structure prediction by ZEFSAII (Michael W. Deem and Ramdas Pophale) SiO2 
 PCOD9090047
Probable space group: P -1
;
_chemical_formula_sum "Si O2"
_cell_formula_units_Z 16
_cell_length_a 8.127603
_cell_length_b 7.760997
_cell_length_c 10.908628
_cell_angle_alpha 74.899442
_cell_angle_beta 102.701798
_cell_angle_gamma 98.707733
_cell_volume 644.836244
_symmetry_space_group_name_H-M "P -1"
_symmetry_group_IT_number 2
_symmetry_cell_setting 'triclinic'
loop_
_space_group_symop_operation_xyz
x,y,z
-x,-y,-z
loop_
_atom_site_type_symbol
_atom_site_label
_atom_site_fract_x
_atom_site_fract_y
_atom_site_fract_z
Si Si1 0.675402 0.599129 0.955301
Si Si2 0.219239 0.294023 0.805804
Si Si3 0.844042 0.924272 0.816358
Si Si4 0.604000 0.325687 0.818618
Si Si5 0.121099 0.274209 0.530948
Si Si6 0.651896 0.374162 0.548480
Si Si7 0.821571 0.099135 0.026645
Si Si8 0.776681 0.059290 0.507068
O O1 0.802888 0.601196 0.091070
O O2 0.500000 0.500000 0.000000
O O3 0.684269 0.803058 0.871245
O O4 0.712917 0.502116 0.853591
O O5 0.407888 0.359568 0.777274
O O6 0.100549 0.292984 0.670350
O O7 0.228750 0.089328 0.883031
O O8 0.880680 0.078034 0.898156
O O9 0.814897 0.980774 0.663107
O O10 0.015214 0.822505 0.882358
O O11 0.650487 0.281209 0.697716
O O12 0.652894 0.194105 0.958633
O O13 0.190268 0.472165 0.463842
O O14 0.943916 0.184340 0.466282
O O15 0.246328 0.117962 0.549353
O O16 0.500000 0.500000 0.500000
O O17 0.647691 0.211229 0.479983
#
# Coordination Sequence:
#
# PCOD9090047 Si02
#       8
#     2   2   2   2   2   2   2   2
#     4   9  21  37  61  93 129 166 210 271 336 398
#     4  10  20  41  61  91 133 167 214 276 328 403
#     4  10  19  38  63  89 124 167 214 272 328 397
#     4  11  21  40  62  94 127 170 217 272 342 395
#     4  11  24  45  70  97 136 181 232 276 340 396
#     4  12  25  44  67 100 138 179 227 279 334 402
#     4  10  20  35  64  92 121 164 213 269 331 394
#     4  11  24  45  70  99 133 182 230 280 333 402
#
# _framework density 24.812501999999999
#
# number of rings (size 3 to 8) (size 9 to 14) (size 15 to 20)
#    0.000    1.500    3.750    1.500    0.000    1.000 
#    2.250    1.250    0.000    0.000    0.000    0.000 
#    0.000    0.000    0.000    0.000    0.000    0.000 
#
# Total GULP energy -89127.715586 kJ/mol
# GULP energy per Si atom -5570.482224 kJ/mol
# Density = 2.475603 g / cm^3
# Si number density = 24.812502 Si / 1000 Ang^3
#
#
#
# Elastic Constant Matrix: (Units=GPa)
#
#
# Indices 1 2 3 4 5 6 
#
# 1 45.1276 18.5936 14.2215 -4.8599 2.1642 -12.9800
# 2 18.5936 76.3405 8.5780 9.5387 2.9327 -2.6773
# 3 14.2215 8.5780 67.0281 -1.1714 -1.4351 0.3419
# 4 -4.8599 9.5387 -1.1714 35.7086 -4.7688 -6.8275
# 5 2.1642 2.9327 -1.4351 -4.7688 33.0269 -6.7329
# 6 -12.9800 -2.6773 0.3419 -6.8275 -6.7329 40.9844
#
#
#
# Elastic Compliance Matrix: (Units=1/GPa)
#
#
# Indices 1 2 3 4 5 6 
#
# 1 0.031074 -0.007696 -0.005476 0.008483 0.001899 0.011109
# 2 -0.007696 0.015794 -0.000532 -0.006140 -0.002382 -0.002816
# 3 -0.005476 -0.000532 0.016167 -0.000335 0.000684 -0.001847
# 4 0.008483 -0.006140 -0.000335 0.033380 0.006616 0.008936
# 5 0.001899 -0.002382 0.000684 0.006616 0.032762 0.006925
# 6 0.011109 -0.002816 -0.001847 0.008936 0.006925 0.030376
#
#
# Mechanical properties :
#
#
# Convention : Reuss Voigt Hill
#
# Bulk Modulus (GPa) = 28.06945 30.14249 29.10597
# Shear Modulus (GPa) = 25.14622 31.75086 28.44854
#
# Velocity S-wave (km/s) = 3.18693 3.58107 3.38973
# Velocity P-wave (km/s) = 4.98790 5.41048 5.20348
#
# Compressibility (1/GPa) = 0.03562592
#
# Stress axis : x y z
#
# Youngs Moduli (GPa) = 32.18124 63.31714 61.85344
#
# Poissons Ratio (x) = 0.48731 0.33870
# Poissons Ratio (y) = 0.24768 0.03292
# Poissons Ratio (z) = 0.17622 0.03370
#
# Static dielectric constant tensor:
#      x y z
#    x 2.220490 -0.050390 0.036890 
#    y -0.050390 2.104630 0.009200 
#    z 0.036890 0.009200 1.941110 
# 
# From -- ./inp_files/378405.got.cif
#   From: 2010.05.17/outbox.cif.g08.bks.cpg/sg2_190_cif.got.tgz:378405.got - 2010.06.03 11:33:40.
