data_PCOD9090350
_publ_section_title
;
Structure prediction by ZEFSAII (Michael W. Deem and Ramdas Pophale) SiO2 
 PCOD9090350
Probable space group: P -1
;
_chemical_formula_sum "Si O2"
_cell_formula_units_Z 12
_cell_length_a 12.151381
_cell_length_b 9.507248
_cell_length_c 8.465204
_cell_angle_alpha 45.266481
_cell_angle_beta 128.421214
_cell_angle_gamma 108.453373
_cell_volume 531.307948
_symmetry_space_group_name_H-M "P -1"
_symmetry_group_IT_number 2
_symmetry_cell_setting 'triclinic'
loop_
_space_group_symop_operation_xyz
x,y,z
-x,-y,-z
loop_
_atom_site_type_symbol
_atom_site_label
_atom_site_fract_x
_atom_site_fract_y
_atom_site_fract_z
Si Si1 0.738764 0.474362 0.442090
Si Si2 0.032072 0.512602 0.832959
Si Si3 0.606996 0.101392 0.729361
Si Si4 0.234621 0.729354 0.702667
Si Si5 0.710022 0.859459 0.726591
Si Si6 0.475709 0.691621 0.208089
O O1 0.695223 0.273897 0.634022
O O2 0.733175 0.432037 0.284439
O O3 0.622244 0.659769 0.264845
O O4 0.895196 0.487903 0.629569
O O5 0.085007 0.712255 0.664081
O O6 0.167307 0.330836 0.058700
O O7 0.000000 0.500000 0.000000
O O8 0.446584 0.155740 0.466898
O O9 0.578575 0.116618 0.878367
O O10 0.689768 0.908420 0.856375
O O11 0.246449 0.944744 0.470179
O O12 0.354483 0.678688 0.983790
O O13 0.500000 0.500000 0.500000
#
# Coordination Sequence:
#
# PCOD9090350 Si02
#       6
#     2   2   2   2   2   2
#     4  10  21  38  65  96 127 167 207 253 314 373
#     4  12  24  43  66  90 130 169 204 258 316 373
#     4   9  19  39  62  91 124 161 205 255 309 360
#     4  11  24  41  63  94 126 166 212 256 310 370
#     4  10  23  42  65  93 126 163 208 257 312 374
#     4  10  19  38  65  92 123 160 210 258 305 365
#
# _framework density 22.58577
#
# number of rings (size 3 to 8) (size 9 to 14) (size 15 to 20)
#    0.000    1.667    0.000    6.000    0.000    6.667 
#    0.000    5.000    0.000    0.000    0.000    0.000 
#    0.000    0.000    0.000    0.000    0.000    0.000 
#
# Total GULP energy -67102.709038 kJ/mol
# GULP energy per Si atom -5591.892420 kJ/mol
# Density = 2.253436 g / cm^3
# Si number density = 22.585770 Si / 1000 Ang^3
#
#
#
# Elastic Constant Matrix: (Units=GPa)
#
#
# Indices 1 2 3 4 5 6 
#
# 1 2659.7527 3775.7795 -682.4937 625.9760 -586.7770 351.4937
# 2 3775.7795 5639.1694-1026.3926 927.8557 -851.8879 512.4681
# 3 -682.4937-1026.3926 266.3510 -155.6524 159.8585 -102.0890
# 4 625.9760 927.8557 -155.6524 194.0244 -136.0294 75.0300
# 5 -586.7770 -851.8879 159.8585 -136.0294 183.6775 -77.3382
# 6 351.4937 512.4681 -102.0890 75.0300 -77.3382 114.1941
#
#
#
# Elastic Compliance Matrix: (Units=1/GPa)
#
#
# Indices 1 2 3 4 5 6 
#
# 1 0.008059 -0.004790 -0.000561 -0.001276 0.002548 -0.001248
# 2 -0.004790 0.005059 0.003179 -0.004814 0.001406 -0.001000
# 3 -0.000561 0.003179 0.013453 -0.003842 -0.001055 0.001296
# 4 -0.001276 -0.004814 -0.003842 0.026500 -0.002043 0.003300
# 5 0.002548 0.001406 -0.001055 -0.002043 0.019193 -0.000756
# 6 -0.001248 -0.001000 0.001296 0.003300 -0.000756 0.015565
#
#
# Mechanical properties :
#
#
# Convention : Reuss Voigt Hill
#
# Bulk Modulus (GPa) = 44.99015 1411.00661 727.99838
# Shear Modulus (GPa) = 50.21019 531.60453 290.90736
#
# Velocity S-wave (km/s) = 4.72008 15.35846 11.36137
# Velocity P-wave (km/s) = 7.04759 30.66918 22.25160
#
# Compressibility (1/GPa) = 0.02222709
#
# Stress axis : x y z
#
# Youngs Moduli (GPa) = 124.07807 197.68546 74.33438
#
# Poissons Ratio (x) = 0.94693 0.04167
# Poissons Ratio (y) = 0.59434 -0.23629
# Poissons Ratio (z) = 0.06955 -0.62840
#
# Static dielectric constant tensor:
#      x y z
#    x 1.851690 0.003040 -0.053490 
#    y 0.003040 1.863000 -0.077620 
#    z -0.053490 -0.077620 1.842800 
# 
# From -- ./inp_files/167197.got.cif
#   From: 2010.05.17/outbox.cif.g08.bks.cpg/sg2_84_cif.got.tgz:167197.got - 2010.06.03 11:33:40.
