data_PCOD9090485
_publ_section_title
;
Structure prediction by ZEFSAII (Michael W. Deem and Ramdas Pophale) SiO2 
 PCOD9090485
Probable space group: P -1
;
_chemical_formula_sum "Si O2"
_cell_formula_units_Z 16
_cell_length_a 9.674763
_cell_length_b 14.573648
_cell_length_c 10.418845
_cell_angle_alpha 143.132721
_cell_angle_beta 44.865300
_cell_angle_gamma 119.587810
_cell_volume 612.358985
_symmetry_space_group_name_H-M "P -1"
_symmetry_group_IT_number 2
_symmetry_cell_setting 'triclinic'
loop_
_space_group_symop_operation_xyz
x,y,z
-x,-y,-z
loop_
_atom_site_type_symbol
_atom_site_label
_atom_site_fract_x
_atom_site_fract_y
_atom_site_fract_z
Si Si1 0.650832 0.080995 0.074577
Si Si2 0.098662 0.322533 0.725112
Si Si3 0.356537 0.231335 0.883146
Si Si4 0.325625 0.080750 0.480546
Si Si5 0.812447 0.444377 0.631974
Si Si6 0.469866 0.597669 0.468891
Si Si7 0.681798 0.261345 0.889890
Si Si8 0.074353 0.135798 0.181318
O O1 0.532434 0.116568 0.327786
O O2 0.684833 0.252960 0.203555
O O3 0.500000 0.000000 0.000000
O O4 0.833808 0.947960 0.843095
O O5 0.148105 0.206365 0.682325
O O6 0.325222 0.338439 0.556239
O O7 0.909906 0.269833 0.725402
O O8 0.000000 0.500000 0.000000
O O9 0.334970 0.101984 0.649375
O O10 0.568279 0.251338 0.819590
O O11 0.273938 0.398651 0.059165
O O12 0.242594 0.194177 0.046228
O O13 0.313371 0.909903 0.248383
O O14 0.646277 0.416967 0.606698
O O15 0.000000 0.500000 0.500000
O O16 0.906117 0.287992 0.466248
O O17 0.556666 0.410184 0.216760
O O18 0.000000 0.000000 0.000000
#
# Coordination Sequence:
#
# PCOD9090485 Si02
#       8
#     2   2   2   2   2   2   2   2
#     4  11  24  44  64  91 134 178 214 267 331 389
#     4   9  20  39  60  88 132 170 206 260 324 395
#     4  10  22  41  68  99 131 164 216 282 326 375
#     4  11  22  43  67  97 132 165 219 276 328 382
#     4   9  19  38  66  96 128 167 215 267 323 385
#     4   9  19  40  61  87 133 164 218 267 316 393
#     4  10  19  38  66  93 128 168 212 267 332 390
#     4  11  21  42  67  95 130 173 223 263 323 392
#
# _framework density 26.128466
#
# number of rings (size 3 to 8) (size 9 to 14) (size 15 to 20)
#    0.000    2.000    2.500    0.750    0.000    0.000 
#   13.500   18.750    0.000    0.000    0.000    0.000 
#    0.000    0.000    0.000    0.000    0.000    0.000 
#
# Total GULP energy -89105.849788 kJ/mol
# GULP energy per Si atom -5569.115612 kJ/mol
# Density = 2.606900 g / cm^3
# Si number density = 26.128466 Si / 1000 Ang^3
#
#
#
# Elastic Constant Matrix: (Units=GPa)
#
#
# Indices 1 2 3 4 5 6 
#
# 1 150.8337 55.1299 54.7139 28.9726 -32.5125 3.9454
# 2 55.1299 95.4948 68.3141 28.6542 -7.2838 15.2981
# 3 54.7139 68.3141 144.7337 61.2475 -24.4209 -16.5434
# 4 28.9726 28.6542 61.2475 62.7187 -2.2508 -11.9673
# 5 -32.5125 -7.2838 -24.4209 -2.2508 50.6665 15.0156
# 6 3.9454 15.2981 -16.5434 -11.9673 15.0156 49.3536
#
#
#
# Elastic Compliance Matrix: (Units=1/GPa)
#
#
# Indices 1 2 3 4 5 6 
#
# 1 0.010178 -0.004405 0.000541 -0.003381 0.006632 -0.002104
# 2 -0.004405 0.021231 -0.009695 0.000035 -0.001802 -0.008922
# 3 0.000541 -0.009695 0.017975 -0.012360 0.005817 0.004220
# 4 -0.003381 0.000035 -0.012360 0.030416 -0.008579 0.006102
# 5 0.006632 -0.001802 0.005817 -0.008579 0.028782 -0.008859
# 6 -0.002104 -0.008922 0.004220 0.006102 -0.008859 0.028785
#
#
# Mechanical properties :
#
#
# Convention : Reuss Voigt Hill
#
# Bulk Modulus (GPa) = 44.91113 83.04198 63.97655
# Shear Modulus (GPa) = 29.08551 46.74139 37.91345
#
# Velocity S-wave (km/s) = 3.34004 4.23414 3.81338
# Velocity P-wave (km/s) = 5.66572 7.46693 6.62780
#
# Compressibility (1/GPa) = 0.02226620
#
# Stress axis : x y z
#
# Youngs Moduli (GPa) = 98.25477 47.09995 55.63294
#
# Poissons Ratio (x) = 0.20748 -0.03009
# Poissons Ratio (y) = 0.43283 0.53933
# Poissons Ratio (z) = -0.05313 0.45661
#
# Static dielectric constant tensor:
#      x y z
#    x 2.042520 0.003890 -0.008820 
#    y 0.003890 2.220970 -0.005230 
#    z -0.008820 -0.005230 2.102190 
# 
# From -- ./inp_files/403480.got.cif
#   From: 2010.05.17/outbox.cif.g08.bks.cpg/sg2_202_cif.got.tgz:403480.got - 2010.06.03 11:33:40.
