data_PCOD9090524
_publ_section_title
;
Structure prediction by ZEFSAII (Michael W. Deem and Ramdas Pophale) SiO2 
 PCOD9090524
Probable space group: P -1
;
_chemical_formula_sum "Si O2"
_cell_formula_units_Z 16
_cell_length_a 12.510766
_cell_length_b 10.791806
_cell_length_c 10.906959
_cell_angle_alpha 80.138991
_cell_angle_beta 143.017150
_cell_angle_gamma 73.737376
_cell_volume 620.447946
_symmetry_space_group_name_H-M "P -1"
_symmetry_group_IT_number 2
_symmetry_cell_setting 'triclinic'
loop_
_space_group_symop_operation_xyz
x,y,z
-x,-y,-z
loop_
_atom_site_type_symbol
_atom_site_label
_atom_site_fract_x
_atom_site_fract_y
_atom_site_fract_z
Si Si1 0.881057 0.293734 0.822177
Si Si2 0.586493 0.694111 0.840548
Si Si3 0.194297 0.966915 0.592501
Si Si4 0.025535 0.663003 0.620513
Si Si5 0.656001 0.795876 0.646465
Si Si6 0.433424 0.706374 0.297344
Si Si7 0.130796 0.202310 0.813871
Si Si8 0.491022 0.194211 0.868072
O O1 0.638540 0.496241 0.533382
O O2 0.797495 0.219079 0.842792
O O3 0.006621 0.202836 0.821027
O O4 0.063449 0.293704 0.068428
O O5 0.295234 0.852966 0.582240
O O6 0.610681 0.704812 0.716449
O O7 0.747025 0.733524 0.029292
O O8 0.722535 0.506653 0.055053
O O9 0.095747 0.155864 0.455496
O O10 0.444600 0.831120 0.926563
O O11 0.000000 0.000000 0.500000
O O12 0.037422 0.686616 0.480665
O O13 0.806392 0.668638 0.436046
O O14 0.560148 0.776660 0.439716
O O15 0.500000 0.000000 0.500000
O O16 0.388606 0.751138 0.105483
O O17 0.352589 0.005224 0.998209
#
# Coordination Sequence:
#
# PCOD9090524 Si02
#       8
#     2   2   2   2   2   2   2   2
#     4  10  24  42  65 100 130 181 225 280 339 397
#     4  11  22  41  67  97 129 174 223 271 336 394
#     4  11  25  42  61 101 137 170 214 273 339 399
#     4  11  22  40  71  96 128 174 219 279 327 400
#     4  11  25  43  68  95 133 181 228 279 332 404
#     4  11  24  44  65  97 137 173 232 280 331 407
#     4  10  19  38  66  97 128 163 222 273 329 400
#     4  11  21  41  69  96 127 171 220 272 334 394
#
# _framework density 25.787821000000001
#
# number of rings (size 3 to 8) (size 9 to 14) (size 15 to 20)
#    0.000    1.250    2.500    4.500    1.750    5.500 
#    4.500    0.000    0.000    0.000    0.000    0.000 
#    0.000    0.000    0.000    0.000    0.000    0.000 
#
# Total GULP energy -89547.819899 kJ/mol
# GULP energy per Si atom -5596.738744 kJ/mol
# Density = 2.572913 g / cm^3
# Si number density = 25.787821 Si / 1000 Ang^3
#
#
#
# Elastic Constant Matrix: (Units=GPa)
#
#
# Indices 1 2 3 4 5 6 
#
# 1 124.9419 5.5932 33.6388 7.9738 6.4642 15.5814
# 2 5.5932 45.5729 16.1914 2.2522 0.5408 5.5545
# 3 33.6388 16.1914 56.3652 -11.6424 -1.9544 1.8915
# 4 7.9738 2.2522 -11.6424 35.6583 4.8685 -2.6043
# 5 6.4642 0.5408 -1.9544 4.8685 43.3853 -4.7039
# 6 15.5814 5.5545 1.8915 -2.6043 -4.7039 28.6548
#
#
#
# Elastic Compliance Matrix: (Units=1/GPa)
#
#
# Indices 1 2 3 4 5 6 
#
# 1 0.011650 0.002911 -0.008843 -0.005891 -0.002293 -0.007227
# 2 0.002911 0.026416 -0.010388 -0.006030 -0.001289 -0.006777
# 3 -0.008843 -0.010388 0.028355 0.012076 0.002062 0.006386
# 4 -0.005891 -0.006030 0.012076 0.034382 -0.001665 0.006427
# 5 -0.002293 -0.001289 0.002062 -0.001665 0.024249 0.005190
# 6 -0.007227 -0.006777 0.006386 0.006427 0.005190 0.041156
#
#
# Mechanical properties :
#
#
# Convention : Reuss Voigt Hill
#
# Bulk Modulus (GPa) = 29.60301 37.52520 33.56411
# Shear Modulus (GPa) = 23.79725 32.97009 28.38367
#
# Velocity S-wave (km/s) = 3.04107 3.57951 3.32122
# Velocity P-wave (km/s) = 4.88213 5.62734 5.26793
#
# Compressibility (1/GPa) = 0.03378035
#
# Stress axis : x y z
#
# Youngs Moduli (GPa) = 85.83607 37.85610 35.26768
#
# Poissons Ratio (x) = -0.11020 0.31187
# Poissons Ratio (y) = -0.24988 0.36637
# Poissons Ratio (z) = 0.75903 0.39326
#
# Static dielectric constant tensor:
#      x y z
#    x 2.049620 0.020150 0.008580 
#    y 0.020150 2.026570 0.030040 
#    z 0.008580 0.030040 2.060990 
# 
# From -- ./inp_files/399157.got.cif
#   From: 2010.05.17/outbox.cif.g08.bks.cpg/sg2_200_cif.got.tgz:399157.got - 2010.06.03 11:33:40.
