data_PCOD9090290
_publ_section_title
;
Structure prediction by ZEFSAII (Michael W. Deem and Ramdas Pophale) SiO2 
 PCOD9090290
Probable space group: P -1
;
_chemical_formula_sum "Si O2"
_cell_formula_units_Z 16
_cell_length_a 10.567637
_cell_length_b 11.385291
_cell_length_c 10.093740
_cell_angle_alpha 102.673365
_cell_angle_beta 69.870471
_cell_angle_gamma 50.941429
_cell_volume 709.418144
_symmetry_space_group_name_H-M "P -1"
_symmetry_group_IT_number 2
_symmetry_cell_setting 'triclinic'
loop_
_space_group_symop_operation_xyz
x,y,z
-x,-y,-z
loop_
_atom_site_type_symbol
_atom_site_label
_atom_site_fract_x
_atom_site_fract_y
_atom_site_fract_z
Si Si1 0.792989 0.815959 0.196870
Si Si2 0.609903 0.285758 0.040196
Si Si3 0.776651 0.645694 0.540705
Si Si4 0.197760 0.614098 0.117970
Si Si5 0.005240 0.132537 0.487081
Si Si6 0.363576 0.006286 0.438842
Si Si7 0.606661 0.032840 0.054071
Si Si8 0.355984 0.521434 0.461061
O O1 0.702069 0.974498 0.380275
O O2 0.036807 0.636978 0.105269
O O3 0.613897 0.836994 0.284396
O O4 0.764792 0.876785 0.071501
O O5 0.429413 0.408085 0.021196
O O6 0.699457 0.089390 0.969189
O O7 0.496406 0.402079 0.247902
O O8 0.771752 0.280620 0.943835
O O9 0.731598 0.793640 0.504434
O O10 0.598959 0.777603 0.748722
O O11 0.730315 0.547417 0.470135
O O12 0.000000 0.500000 0.500000
O O13 0.093675 0.718362 0.322246
O O14 0.855159 0.261745 0.450837
O O15 0.247519 0.006175 0.372413
O O16 0.000000 0.000000 0.500000
O O17 0.500000 0.000000 0.000000
O O18 0.500000 0.500000 0.500000
#
# Coordination Sequence:
#
# PCOD9090290 Si02
#       8
#     2   2   2   2   2   2   2   2
#     4   9  19  34  56  83 113 144 195 242 283 345
#     4   9  20  40  61  78 118 158 191 241 300 355
#     4  10  19  38  65  83 115 165 195 240 303 354
#     4   9  19  38  59  81 108 159 198 234 297 352
#     4  10  20  33  57  85 118 150 191 242 295 346
#     4   9  18  35  58  84 113 154 198 239 295 350
#     4  10  22  38  57  86 120 152 196 243 298 360
#     4  10  21  37  58  91 115 147 201 246 289 353
#
# _framework density 22.553695000000001
#
# number of rings (size 3 to 8) (size 9 to 14) (size 15 to 20)
#    0.000    2.500    1.250    0.000    1.750    9.500 
#    2.250    3.125    0.000    0.000    0.000    0.000 
#    0.000    0.000    0.000    0.000    0.000    0.000 
#
# Total GULP energy -89208.045772 kJ/mol
# GULP energy per Si atom -5575.502861 kJ/mol
# Density = 2.250236 g / cm^3
# Si number density = 22.553695 Si / 1000 Ang^3
#
#
#
# Elastic Constant Matrix: (Units=GPa)
#
#
# Indices 1 2 3 4 5 6 
#
# 1 191.9646 68.9558 12.1151 -9.0838 3.1283 -25.5203
# 2 68.9558 74.4087 8.0678 -14.1808 15.1526 -1.4951
# 3 12.1151 8.0678 35.7178 -8.5815 2.0352 -4.7449
# 4 -9.0838 -14.1808 -8.5815 24.0545 -2.6958 -4.0317
# 5 3.1283 15.1526 2.0352 -2.6958 30.9705 -3.5018
# 6 -25.5203 -1.4951 -4.7449 -4.0317 -3.5018 44.0959
#
#
#
# Elastic Compliance Matrix: (Units=1/GPa)
#
#
# Indices 1 2 3 4 5 6 
#
# 1 0.009202 -0.009386 -0.000796 -0.001005 0.004212 0.005164
# 2 -0.009386 0.026301 -0.000364 0.009762 -0.011567 -0.004606
# 3 -0.000796 -0.000364 0.031631 0.011386 -0.000383 0.003941
# 4 -0.001005 0.009762 0.011386 0.051937 -0.000257 0.005703
# 5 0.004212 -0.011567 -0.000383 -0.000257 0.038091 0.005005
# 6 0.005164 -0.004606 0.003941 0.005703 0.005005 0.026853
#
#
# Mechanical properties :
#
#
# Convention : Reuss Voigt Hill
#
# Bulk Modulus (GPa) = 21.72085 53.37430 37.54757
# Shear Modulus (GPa) = 22.68041 34.02100 28.35070
#
# Velocity S-wave (km/s) = 3.17459 3.88808 3.54931
# Velocity P-wave (km/s) = 4.80510 6.62367 5.78628
#
# Compressibility (1/GPa) = 0.04603871
#
# Stress axis : x y z
#
# Youngs Moduli (GPa) = 108.67735 38.02183 31.61485
#
# Poissons Ratio (x) = 0.35689 0.02518
# Poissons Ratio (y) = 1.02009 0.01152
# Poissons Ratio (z) = 0.08655 0.01385
#
# Static dielectric constant tensor:
#      x y z
#    x 1.885280 0.014410 -0.023610 
#    y 0.014410 1.958820 -0.034710 
#    z -0.023610 -0.034710 1.911990 
# 
# From -- ./inp_files/388033.got.cif
#   From: 2010.05.17/outbox.cif.g08.bks.cpg/sg2_195_cif.got.tgz:388033.got - 2010.06.03 11:33:40.
