data_PCOD9090352
_publ_section_title
;
Structure prediction by ZEFSAII (Michael W. Deem and Ramdas Pophale) SiO2 
 PCOD9090352
Probable space group: P -1
;
_chemical_formula_sum "Si O2"
_cell_formula_units_Z 16
_cell_length_a 15.244645
_cell_length_b 9.390097
_cell_length_c 11.542441
_cell_angle_alpha 110.795005
_cell_angle_beta 119.890152
_cell_angle_gamma 117.940222
_cell_volume 809.926124
_symmetry_space_group_name_H-M "P -1"
_symmetry_group_IT_number 2
_symmetry_cell_setting 'triclinic'
loop_
_space_group_symop_operation_xyz
x,y,z
-x,-y,-z
loop_
_atom_site_type_symbol
_atom_site_label
_atom_site_fract_x
_atom_site_fract_y
_atom_site_fract_z
Si Si1 0.364083 0.973468 0.202502
Si Si2 0.515558 0.287488 0.610473
Si Si3 0.571997 0.478456 0.390820
Si Si4 0.717128 0.988659 0.403318
Si Si5 0.514822 0.119368 0.928753
Si Si6 0.983228 0.516197 0.858170
Si Si7 0.152203 0.303977 0.188477
Si Si8 0.364427 0.425278 0.808853
O O1 0.433652 0.064288 0.406232
O O2 0.412410 0.193320 0.243794
O O3 0.452812 0.954931 0.177336
O O4 0.168843 0.717578 0.992118
O O5 0.443083 0.363187 0.543248
O O6 0.714322 0.534107 0.785253
O O7 0.443418 0.194361 0.666196
O O8 0.729249 0.593963 0.594397
O O9 0.579904 0.477684 0.257982
O O10 0.858913 0.251655 0.637414
O O11 0.657113 0.998748 0.249569
O O12 0.766022 0.870802 0.378387
O O13 0.651321 0.421053 0.110813
O O14 0.500000 0.000000 0.000000
O O15 0.920644 0.613721 0.828382
O O16 0.000000 0.500000 0.000000
O O17 0.000000 0.000000 0.000000
O O18 0.500000 0.500000 0.000000
#
# Coordination Sequence:
#
# PCOD9090352 Si02
#       8
#     2   2   2   2   2   2   2   2
#     4  11  21  37  62  90 127 159 207 257 310 368
#     4  10  20  37  65  96 123 159 208 256 322 380
#     4  10  19  38  65  92 124 159 209 257 308 382
#     4  10  22  40  65  90 125 163 206 258 321 367
#     4  11  22  40  66  90 116 163 225 256 297 369
#     4  12  25  39  58  95 139 162 198 258 324 378
#     4  11  23  36  60  93 133 161 198 250 320 381
#     4   9  20  39  64  88 116 159 210 261 301 361
#
# _framework density 19.754887
#
# number of rings (size 3 to 8) (size 9 to 14) (size 15 to 20)
#    0.000    1.500    2.500    4.500    3.500    1.000 
#    0.000    1.250    0.000    0.000    0.000    0.000 
#    0.000    0.000    0.000    0.000    0.000    0.000 
#
# Total GULP energy -89174.486372 kJ/mol
# GULP energy per Si atom -5573.405398 kJ/mol
# Density = 1.970992 g / cm^3
# Si number density = 19.754887 Si / 1000 Ang^3
#
#
#
# Elastic Constant Matrix: (Units=GPa)
#
#
# Indices 1 2 3 4 5 6 
#
# 1 52.5163 6.8853 6.8760 7.1224 -26.3804 -20.8687
# 2 6.8853 99.5847 40.0807 -4.7109 -5.5431 -22.1912
# 3 6.8760 40.0807 97.7183 23.3239 -15.5972 -4.7798
# 4 7.1224 -4.7109 23.3239 29.7540 -0.8987 -4.3740
# 5 -26.3804 -5.5431 -15.5972 -0.8987 38.5206 10.1653
# 6 -20.8687 -22.1912 -4.7798 -4.3740 10.1653 28.8251
#
#
#
# Elastic Compliance Matrix: (Units=1/GPa)
#
#
# Indices 1 2 3 4 5 6 
#
# 1 0.039145 0.001626 0.003054 -0.007744 0.022566 0.020966
# 2 0.001626 0.018558 -0.010876 0.013490 -0.004907 0.017438
# 3 0.003054 -0.010876 0.020406 -0.019528 0.010859 -0.009571
# 4 -0.007744 0.013490 -0.019528 0.054652 -0.013881 0.014729
# 5 0.022566 -0.004907 0.010859 -0.013881 0.045811 -0.003902
# 6 0.020966 0.017438 -0.009571 0.014729 -0.003902 0.065319
#
#
# Mechanical properties :
#
#
# Convention : Reuss Voigt Hill
#
# Bulk Modulus (GPa) = 15.21687 39.72257 27.46972
# Shear Modulus (GPa) = 17.97345 32.48509 25.22927
#
# Velocity S-wave (km/s) = 3.01960 4.05953 3.57755
# Velocity P-wave (km/s) = 4.45835 6.49033 5.56782
#
# Compressibility (1/GPa) = 0.06571653
#
# Stress axis : x y z
#
# Youngs Moduli (GPa) = 25.54579 53.88650 49.00579
#
# Poissons Ratio (x) = -0.08761 -0.14967
# Poissons Ratio (y) = -0.04153 0.53300
# Poissons Ratio (z) = -0.07802 0.58608
#
# Static dielectric constant tensor:
#      x y z
#    x 1.717450 -0.013060 -0.023350 
#    y -0.013060 1.684720 0.022660 
#    z -0.023350 0.022660 1.726020 
# 
# From -- ./inp_files/242992.got.cif
#   From: 2010.05.17/outbox.cif.g08.bks.cpg/sg2_122_cif.got.tgz:242992.got - 2010.06.03 11:33:40.
