data_PCOD9090901
_publ_section_title
;
Structure prediction by ZEFSAII (Michael W. Deem and Ramdas Pophale) SiO2 
 PCOD9090901
Probable space group: P -1
;
_chemical_formula_sum "Si O2"
_cell_formula_units_Z 16
_cell_length_a 11.566881
_cell_length_b 7.617333
_cell_length_c 12.825649
_cell_angle_alpha 97.188792
_cell_angle_beta 34.575268
_cell_angle_gamma 100.331668
_cell_volume 630.379729
_symmetry_space_group_name_H-M "P -1"
_symmetry_group_IT_number 2
_symmetry_cell_setting 'triclinic'
loop_
_space_group_symop_operation_xyz
x,y,z
-x,-y,-z
loop_
_atom_site_type_symbol
_atom_site_label
_atom_site_fract_x
_atom_site_fract_y
_atom_site_fract_z
Si Si1 0.078406 0.807039 0.293540
Si Si2 0.299754 0.148668 0.259282
Si Si3 0.234178 0.328225 0.640703
Si Si4 0.582039 0.257389 0.227067
Si Si5 0.742642 0.271498 0.449549
Si Si6 0.667385 0.656236 0.185532
Si Si7 0.119816 0.433050 0.307686
Si Si8 0.086600 0.834972 0.874633
O O1 0.168814 0.619878 0.225230
O O2 0.883950 0.823733 0.518306
O O3 0.973390 0.786414 0.256189
O O4 0.236373 0.975312 0.223226
O O5 0.496488 0.136593 0.185130
O O6 0.300083 0.323803 0.200197
O O7 0.416983 0.244972 0.442266
O O8 0.248910 0.532331 0.599369
O O9 0.270322 0.340691 0.737581
O O10 0.587908 0.457653 0.195647
O O11 0.793738 0.245143 0.126834
O O12 0.526672 0.235806 0.667549
O O13 0.763917 0.132536 0.331937
O O14 0.941171 0.293952 0.376376
O O15 0.881531 0.716812 0.975620
O O16 0.000000 0.500000 0.500000
O O17 0.000000 0.000000 0.000000
#
# Coordination Sequence:
#
# PCOD9090901 Si02
#       8
#     2   2   2   2   2   2   2   2
#     4   8  16  29  51  90 118 152 201 254 305 360
#     4   9  17  32  55  86 120 157 200 253 305 367
#     4   9  16  33  65  89 117 155 210 255 306 367
#     4  10  19  39  61  88 122 155 210 259 299 374
#     4  10  20  39  63  94 125 155 207 263 300 375
#     4  11  20  38  67  87 115 168 205 248 322 360
#     4   9  17  33  60  92 119 156 210 253 309 373
#     4  12  26  40  55  94 133 161 202 254 313 372
#
# _framework density 25.381526000000001
#
# number of rings (size 3 to 8) (size 9 to 14) (size 15 to 20)
#    0.000    2.250    2.500    3.375    0.000    1.500 
#   11.250    0.000    0.000    6.000    0.000    0.000 
#    0.000    0.000    0.000    0.000    0.000    0.000 
#
# Total GULP energy -89475.991593 kJ/mol
# GULP energy per Si atom -5592.249475 kJ/mol
# Density = 2.532376 g / cm^3
# Si number density = 25.381526 Si / 1000 Ang^3
#
#
#
# Elastic Constant Matrix: (Units=GPa)
#
#
# Indices 1 2 3 4 5 6 
#
# 1 91.8579 31.6602 27.8812 5.9742 -12.4453 30.1742
# 2 31.6602 74.4316 18.0832 3.3149 -11.4835 20.8197
# 3 27.8812 18.0832 93.3086 4.5166 -13.1521 4.6987
# 4 5.9742 3.3149 4.5166 24.8450 3.5866 -2.9211
# 5 -12.4453 -11.4835 -13.1521 3.5866 26.7827 -0.5552
# 6 30.1742 20.8197 4.6987 -2.9211 -0.5552 37.2620
#
#
#
# Elastic Compliance Matrix: (Units=1/GPa)
#
#
# Indices 1 2 3 4 5 6 
#
# 1 0.018330 -0.001860 -0.003180 -0.006170 0.006699 -0.013788
# 2 -0.001860 0.018167 -0.001430 -0.003678 0.006536 -0.008655
# 3 -0.003180 -0.001430 0.012555 -0.001752 0.004345 0.001718
# 4 -0.006170 -0.003678 -0.001752 0.045408 -0.011164 0.010665
# 5 0.006699 0.006536 0.004345 -0.011164 0.046679 -0.009805
# 6 -0.013788 -0.008655 0.001718 0.010665 -0.009805 0.043311
#
#
# Mechanical properties :
#
#
# Convention : Reuss Voigt Hill
#
# Bulk Modulus (GPa) = 27.68998 46.09415 36.89207
# Shear Modulus (GPa) = 23.87475 29.90951 26.89213
#
# Velocity S-wave (km/s) = 3.07030 3.43650 3.25855
# Velocity P-wave (km/s) = 4.84791 5.82632 5.35949
#
# Compressibility (1/GPa) = 0.03611414
#
# Stress axis : x y z
#
# Youngs Moduli (GPa) = 54.55434 55.04556 79.64903
#
# Poissons Ratio (x) = 0.10236 0.25325
# Poissons Ratio (y) = 0.10144 0.11389
# Poissons Ratio (z) = 0.17346 0.07871
#
# Static dielectric constant tensor:
#      x y z
#    x 2.051030 0.060270 -0.113560 
#    y 0.060270 2.145220 -0.171810 
#    z -0.113560 -0.171810 2.187190 
# 
# From -- ./inp_files/462291.got.cif
#   From: 2010.05.17/outbox.cif.g08.bks.cpg/sg2_232_cif.got.tgz:462291.got - 2010.06.03 11:33:40.
