data_PCOD9090952
_publ_section_title
;
Structure prediction by ZEFSAII (Michael W. Deem and Ramdas Pophale) SiO2 
 PCOD9090952
Probable space group: P -1
;
_chemical_formula_sum "Si O2"
_cell_formula_units_Z 16
_cell_length_a 15.418922
_cell_length_b 14.161975
_cell_length_c 9.643298
_cell_angle_alpha 45.396402
_cell_angle_beta 37.450141
_cell_angle_gamma 36.950784
_cell_volume 756.363893
_symmetry_space_group_name_H-M "P -1"
_symmetry_group_IT_number 2
_symmetry_cell_setting 'triclinic'
loop_
_space_group_symop_operation_xyz
x,y,z
-x,-y,-z
loop_
_atom_site_type_symbol
_atom_site_label
_atom_site_fract_x
_atom_site_fract_y
_atom_site_fract_z
Si Si1 0.903749 0.022908 0.891774
Si Si2 0.875331 0.845372 0.869919
Si Si3 0.323285 0.643012 0.006862
Si Si4 0.781678 0.940860 0.583896
Si Si5 0.039227 0.266125 0.685064
Si Si6 0.503999 0.735277 0.497696
Si Si7 0.138990 0.537787 0.741087
Si Si8 0.789254 0.652744 0.390837
O O1 0.767399 0.197746 0.946529
O O2 0.079276 0.012423 0.656183
O O3 0.855852 0.985510 0.842498
O O4 0.928596 0.888370 0.107990
O O5 0.782539 0.893637 0.790031
O O6 0.071945 0.707468 0.717289
O O7 0.817564 0.757402 0.135666
O O8 0.166498 0.624449 0.189871
O O9 0.500000 0.500000 0.000000
O O10 0.380012 0.680202 0.751978
O O11 0.849699 0.803751 0.523665
O O12 0.598721 0.092781 0.615919
O O13 0.118055 0.343587 0.596050
O O14 0.663992 0.603289 0.337274
O O15 0.586217 0.735361 0.543314
O O16 0.136791 0.519705 0.596207
O O17 0.000000 0.500000 0.000000
#
# Coordination Sequence:
#
# PCOD9090952 Si02
#       8
#     2   2   2   2   2   2   2   2
#     4  10  20  39  58  85 121 160 192 235 299 350
#     4  10  20  37  60  82 117 162 194 234 290 353
#     4  11  22  38  62  91 120 145 195 253 292 339
#     4  11  20  34  58  91 119 151 200 242 291 344
#     4  10  19  39  62  85 117 162 190 237 300 348
#     4  10  20  38  61  85 118 151 198 242 291 344
#     4   8  18  39  56  78 115 162 186 236 293 344
#     4   8  20  37  63  80 116 157 199 228 296 343
#
# _framework density 21.153838
#
# number of rings (size 3 to 8) (size 9 to 14) (size 15 to 20)
#    0.750    1.500    2.500    1.125    3.500    1.000 
#    0.000    6.875    0.000    0.000    0.000    0.000 
#    0.000    0.000    0.000    0.000    0.000    0.000 
#
# Total GULP energy -89095.125336 kJ/mol
# GULP energy per Si atom -5568.445334 kJ/mol
# Density = 2.110569 g / cm^3
# Si number density = 21.153838 Si / 1000 Ang^3
#
#
#
# Elastic Constant Matrix: (Units=GPa)
#
#
# Indices 1 2 3 4 5 6 
#
# 1 73.3578 18.1677 32.6256 11.7556 12.5213 -7.8396
# 2 18.1677 87.3018 25.3191 16.8481 -1.8423 -29.6743
# 3 32.6256 25.3191 67.5062 8.8261 9.0321 -10.8363
# 4 11.7556 16.8481 8.8261 24.3120 -7.4699 2.0852
# 5 12.5213 -1.8423 9.0321 -7.4699 30.1374 -2.6107
# 6 -7.8396 -29.6743 -10.8363 2.0852 -2.6107 39.7975
#
#
#
# Elastic Compliance Matrix: (Units=1/GPa)
#
#
# Indices 1 2 3 4 5 6 
#
# 1 0.019966 0.000473 -0.006963 -0.010275 -0.008521 0.002369
# 2 0.000473 0.020210 -0.003522 -0.014283 -0.000151 0.014941
# 3 -0.006963 -0.003522 0.020712 -0.003125 -0.004172 0.001532
# 4 -0.010275 -0.014283 -0.003125 0.064286 0.018910 -0.015653
# 5 -0.008521 -0.000151 -0.004172 0.018910 0.042552 -0.001127
# 6 0.002369 0.014941 0.001532 -0.015653 -0.001127 0.037898
#
#
# Mechanical properties :
#
#
# Convention : Reuss Voigt Hill
#
# Bulk Modulus (GPa) = 24.47207 42.26561 33.36884
# Shear Modulus (GPa) = 20.89701 28.98627 24.94164
#
# Velocity S-wave (km/s) = 3.14643 3.70572 3.43747
# Velocity P-wave (km/s) = 4.97934 6.19139 5.61814
#
# Compressibility (1/GPa) = 0.04086291
#
# Stress axis : x y z
#
# Youngs Moduli (GPa) = 50.08591 49.48157 48.28067
#
# Poissons Ratio (x) = -0.02340 0.33617
# Poissons Ratio (y) = -0.02369 0.17006
# Poissons Ratio (z) = 0.34874 0.17429
#
# Static dielectric constant tensor:
#      x y z
#    x 1.813820 -0.001190 -0.016630 
#    y -0.001190 1.827340 -0.042790 
#    z -0.016630 -0.042790 1.843660 
# 
# From -- ./inp_files/311150.got.cif
#   From: 2010.05.17/outbox.cif.g08.bks.cpg/sg2_156_cif.got.tgz:311150.got - 2010.06.03 11:33:40.
