data_PCOD9090436
_publ_section_title
;
Structure prediction by ZEFSAII (Michael W. Deem and Ramdas Pophale) SiO2 
 PCOD9090436
Probable space group: P -1
;
_chemical_formula_sum "Si O2"
_cell_formula_units_Z 16
_cell_length_a 8.990506
_cell_length_b 20.762858
_cell_length_c 15.064114
_cell_angle_alpha 150.169588
_cell_angle_beta 142.442356
_cell_angle_gamma 39.048600
_cell_volume 815.164673
_symmetry_space_group_name_H-M "P -1"
_symmetry_group_IT_number 2
_symmetry_cell_setting 'triclinic'
loop_
_space_group_symop_operation_xyz
x,y,z
-x,-y,-z
loop_
_atom_site_type_symbol
_atom_site_label
_atom_site_fract_x
_atom_site_fract_y
_atom_site_fract_z
Si Si1 0.597350 0.190920 0.005670
Si Si2 0.418734 0.432433 0.968491
Si Si3 0.968102 0.411638 0.256205
Si Si4 0.045218 0.926539 0.317484
Si Si5 0.074099 0.345187 0.021145
Si Si6 0.436137 0.938310 0.662544
Si Si7 0.918055 0.708117 0.650091
Si Si8 0.577665 0.134607 0.720646
O O1 0.573920 0.163287 0.857102
O O2 0.575900 0.054010 0.877954
O O3 0.351711 0.309490 0.065689
O O4 0.860021 0.224290 0.185495
O O5 0.414605 0.277582 0.770312
O O6 0.142936 0.532717 0.981167
O O7 0.500000 0.500000 0.000000
O O8 0.665639 0.422637 0.134251
O O9 0.992674 0.558302 0.466344
O O10 0.067043 0.375310 0.159608
O O11 0.102761 0.308452 0.273318
O O12 0.265497 0.962121 0.521003
O O13 0.144312 0.892372 0.224575
O O14 0.778293 0.040854 0.337997
O O15 0.009476 0.792363 0.186318
O O16 0.647458 0.796188 0.590702
O O17 0.500000 0.000000 0.500000
#
# Coordination Sequence:
#
# PCOD9090436 Si02
#       8
#     2   2   2   2   2   2   2   2
#     4  11  23  39  57  89 128 153 194 257 301 354
#     4  10  19  38  66  89 112 163 201 245 301 362
#     4  10  21  38  62  83 118 159 206 251 281 365
#     4  10  19  39  62  89 116 151 206 250 295 361
#     4  10  21  38  64  89 117 158 204 248 302 350
#     4  10  22  37  62  87 118 163 196 245 304 367
#     4  11  22  39  58  87 118 163 205 238 301 357
#     4  12  22  38  62  94 127 149 192 262 309 342
#
# _framework density 19.627935000000001
#
# number of rings (size 3 to 8) (size 9 to 14) (size 15 to 20)
#    0.000    1.500    5.000    1.125    1.750    1.000 
#    0.000    8.125    0.000    0.000    0.000    0.000 
#    0.000    0.000    0.000    0.000    0.000    0.000 
#
# Total GULP energy -89234.837644 kJ/mol
# GULP energy per Si atom -5577.177353 kJ/mol
# Density = 1.958326 g / cm^3
# Si number density = 19.627935 Si / 1000 Ang^3
#
#
#
# Elastic Constant Matrix: (Units=GPa)
#
#
# Indices 1 2 3 4 5 6 
#
# 1 101.6083 24.8890 17.7014 -7.5710 -10.2721 -26.0695
# 2 24.8890 34.4797 8.6489 -0.2094 12.1979 -12.7567
# 3 17.7014 8.6489 87.6042 3.5230 9.8117 -3.0908
# 4 -7.5710 -0.2094 3.5230 20.6380 4.2551 1.7429
# 5 -10.2721 12.1979 9.8117 4.2551 34.0525 4.4580
# 6 -26.0695 -12.7567 -3.0908 1.7429 4.4580 25.2174
#
#
#
# Elastic Compliance Matrix: (Units=1/GPa)
#
#
# Indices 1 2 3 4 5 6 
#
# 1 0.016465 -0.010173 -0.002996 0.004032 0.007678 0.009872
# 2 -0.010173 0.052572 0.000350 0.000104 -0.024695 0.020479
# 3 -0.002996 0.000350 0.012543 -0.002312 -0.004293 -0.000465
# 4 0.004032 0.000104 -0.002312 0.051197 -0.004713 0.001232
# 5 0.007678 -0.024695 -0.004293 -0.004713 0.043996 -0.012533
# 6 0.009872 0.020479 -0.000465 0.001232 -0.012533 0.062294
#
#
# Mechanical properties :
#
#
# Convention : Reuss Voigt Hill
#
# Bulk Modulus (GPa) = 17.87592 36.24118 27.05855
# Shear Modulus (GPa) = 17.64578 27.47845 22.56212
#
# Velocity S-wave (km/s) = 3.00161 3.74567 3.39409
# Velocity P-wave (km/s) = 4.59783 6.10007 5.40143
#
# Compressibility (1/GPa) = 0.05594117
#
# Stress axis : x y z
#
# Youngs Moduli (GPa) = 60.73480 19.02142 79.72325
#
# Poissons Ratio (x) = 0.19350 0.23888
# Poissons Ratio (y) = 0.61785 -0.02786
# Poissons Ratio (z) = 0.18198 -0.00665
#
# Static dielectric constant tensor:
#      x y z
#    x 1.716930 0.008870 -0.004360 
#    y 0.008870 1.710940 0.013690 
#    z -0.004360 0.013690 1.731290 
# 
# From -- ./inp_files/446912.got.cif
#   From: 2010.05.17/outbox.cif.g08.bks.cpg/sg2_224_cif.got.tgz:446912.got - 2010.06.03 11:33:40.
