data_PCOD9090871
_publ_section_title
;
Structure prediction by ZEFSAII (Michael W. Deem and Ramdas Pophale) SiO2 
 PCOD9090871
Probable space group: P -1
;
_chemical_formula_sum "Si O2"
_cell_formula_units_Z 16
_cell_length_a 8.896968
_cell_length_b 21.576999
_cell_length_c 16.185610
_cell_angle_alpha 28.584144
_cell_angle_beta 31.951939
_cell_angle_gamma 36.478149
_cell_volume 765.062790
_symmetry_space_group_name_H-M "P -1"
_symmetry_group_IT_number 2
_symmetry_cell_setting 'triclinic'
loop_
_space_group_symop_operation_xyz
x,y,z
-x,-y,-z
loop_
_atom_site_type_symbol
_atom_site_label
_atom_site_fract_x
_atom_site_fract_y
_atom_site_fract_z
Si Si1 0.491482 0.062676 0.547370
Si Si2 0.187135 0.741625 0.621958
Si Si3 0.122337 0.129269 0.802038
Si Si4 0.254691 0.593835 0.059697
Si Si5 0.647457 0.775590 0.734832
Si Si6 0.957703 0.822617 0.816344
Si Si7 0.466674 0.957445 0.158202
Si Si8 0.852560 0.592108 0.534657
O O1 0.377187 0.102428 0.645443
O O2 0.301705 0.159609 0.453815
O O3 0.806782 0.096415 0.356850
O O4 0.514749 0.909166 0.693853
O O5 0.023000 0.796778 0.719503
O O6 0.264917 0.856507 0.393136
O O7 0.503937 0.650125 0.607826
O O8 0.941879 0.694546 0.736977
O O9 0.224741 0.119930 0.859799
O O10 0.990811 0.285450 0.668491
O O11 0.000000 0.000000 0.000000
O O12 0.122648 0.498274 0.290594
O O13 0.500000 0.500000 0.000000
O O14 0.417687 0.685824 0.931040
O O15 0.031060 0.687559 0.992648
O O16 0.649160 0.913173 0.881580
O O17 0.500000 0.000000 0.000000
O O18 0.000000 0.500000 0.500000
#
# Coordination Sequence:
#
# PCOD9090871 Si02
#       8
#     2   2   2   2   2   2   2   2
#     4  10  19  39  61 102 123 164 214 272 319 378
#     4  11  21  42  63  95 129 169 215 276 318 381
#     4  11  25  42  66  90 132 173 216 266 328 383
#     4  11  23  44  64  90 126 177 217 256 327 396
#     4  10  22  33  70  94 123 157 219 274 312 378
#     4  11  20  41  69  91 130 169 214 268 330 385
#     4  11  24  37  62  99 132 165 211 275 331 375
#     4  11  25  44  63  92 132 175 212 263 327 391
#
# _framework density 20.913316999999999
#
# number of rings (size 3 to 8) (size 9 to 14) (size 15 to 20)
#    0.000    1.250    5.000    1.875    7.000    0.500 
#    0.000    0.000    0.000    2.250    0.000    0.000 
#    0.000    0.000    0.000    0.000    0.000    0.000 
#
# Total GULP energy -89231.948377 kJ/mol
# GULP energy per Si atom -5576.996774 kJ/mol
# Density = 2.086572 g / cm^3
# Si number density = 20.913317 Si / 1000 Ang^3
#
#
#
# Elastic Constant Matrix: (Units=GPa)
#
#
# Indices 1 2 3 4 5 6 
#
# 1 78.0059 -5.5471 28.8667 -2.1262 13.6768 6.8840
# 2 -5.5471 76.7846 29.4228 -2.6611 11.9405 15.5729
# 3 28.8667 29.4228 134.5947 -17.0955 21.4812 15.4058
# 4 -2.1262 -2.6611 -17.0955 29.7407 11.4066 2.4373
# 5 13.6768 11.9405 21.4812 11.4066 33.9452 2.1888
# 6 6.8840 15.5729 15.4058 2.4373 2.1888 27.8095
#
#
#
# Elastic Compliance Matrix: (Units=1/GPa)
#
#
# Indices 1 2 3 4 5 6 
#
# 1 0.015700 0.004174 -0.002127 0.003466 -0.007304 -0.004774
# 2 0.004174 0.017267 -0.001825 0.004441 -0.007480 -0.009491
# 3 -0.002127 -0.001825 0.011581 0.010178 -0.008924 -0.005056
# 4 0.003466 0.004441 0.010178 0.050944 -0.025782 -0.011419
# 5 -0.007304 -0.007480 -0.008924 -0.025782 0.048740 0.009364
# 6 -0.004774 -0.009491 -0.005056 -0.011419 0.009364 0.045521
#
#
# Mechanical properties :
#
#
# Convention : Reuss Voigt Hill
#
# Bulk Modulus (GPa) = 22.22745 43.87444 33.05095
# Shear Modulus (GPa) = 24.47307 34.07527 29.27417
#
# Velocity S-wave (km/s) = 3.42455 4.04091 3.74543
# Velocity P-wave (km/s) = 5.12720 6.54192 5.87728
#
# Compressibility (1/GPa) = 0.04498941
#
# Stress axis : x y z
#
# Youngs Moduli (GPa) = 63.69444 57.91562 86.35075
#
# Poissons Ratio (x) = -0.24171 0.18368
# Poissons Ratio (y) = -0.26583 0.15762
# Poissons Ratio (z) = 0.13548 0.10571
#
# Static dielectric constant tensor:
#      x y z
#    x 1.796990 -0.027340 -0.027320 
#    y -0.027340 1.768740 -0.012810 
#    z -0.027320 -0.012810 1.801160 
# 
# From -- ./inp_files/508105.got.cif
#   From: 2010.05.17/outbox.cif.g08.bks.cpg/sg2_255_cif.got.tgz:508105.got - 2010.06.03 11:33:40.
