data_PCOD9090973
_publ_section_title
;
Structure prediction by ZEFSAII (Michael W. Deem and Ramdas Pophale) SiO2 
 PCOD9090973
Probable space group: P -1
;
_chemical_formula_sum "Si O2"
_cell_formula_units_Z 16
_cell_length_a 14.435639
_cell_length_b 15.836201
_cell_length_c 8.457592
_cell_angle_alpha 137.332660
_cell_angle_beta 43.755231
_cell_angle_gamma 138.672162
_cell_volume 800.372337
_symmetry_space_group_name_H-M "P -1"
_symmetry_group_IT_number 2
_symmetry_cell_setting 'triclinic'
loop_
_space_group_symop_operation_xyz
x,y,z
-x,-y,-z
loop_
_atom_site_type_symbol
_atom_site_label
_atom_site_fract_x
_atom_site_fract_y
_atom_site_fract_z
Si Si1 0.003900 0.158339 0.404749
Si Si2 0.869500 0.342195 0.978557
Si Si3 0.002638 0.301522 0.282596
Si Si4 0.164609 0.163932 0.732432
Si Si5 0.615180 0.400175 0.268390
Si Si6 0.220271 0.631351 0.522242
Si Si7 0.289515 0.284848 0.419243
Si Si8 0.491324 0.365942 0.734599
O O1 0.984605 0.199984 0.309864
O O2 0.181768 0.227330 0.322977
O O3 0.924025 0.994238 0.314885
O O4 0.929429 0.234003 0.707872
O O5 0.724985 0.330187 0.041924
O O6 0.824542 0.331547 0.201937
O O7 0.000000 0.500000 0.000000
O O8 0.129777 0.460878 0.384614
O O9 0.850170 0.309170 0.439894
O O10 0.063206 0.243005 0.985548
O O11 0.213551 0.176412 0.506872
O O12 0.318447 0.250133 0.762354
O O13 0.464040 0.319581 0.240365
O O14 0.699925 0.563763 0.338579
O O15 0.560949 0.403321 0.521387
O O16 0.398226 0.680385 0.372685
O O17 0.500000 0.500000 0.000000
#
# Coordination Sequence:
#
# PCOD9090973 Si02
#       8
#     2   2   2   2   2   2   2   2
#     4  12  23  39  58  87 124 161 193 238 299 352
#     4  11  19  37  62  85 117 150 197 245 289 345
#     4  11  22  38  58  89 120 151 201 247 286 353
#     4  11  24  38  60  88 120 160 196 237 300 359
#     4   9  20  35  60  93 111 144 203 249 288 335
#     4  10  21  37  62  91 112 150 202 248 294 330
#     4  10  20  38  59  85 121 149 199 244 291 345
#     4  10  19  39  62  88 119 151 192 248 294 347
#
# _framework density 19.990696
#
# number of rings (size 3 to 8) (size 9 to 14) (size 15 to 20)
#    0.000    1.500    3.750    2.250    0.000    0.000 
#    2.250    7.500    0.000    0.000    0.000    0.000 
#    0.000    0.000    0.000    0.000    0.000    0.000 
#
# Total GULP energy -89408.877039 kJ/mol
# GULP energy per Si atom -5588.054815 kJ/mol
# Density = 1.994520 g / cm^3
# Si number density = 19.990696 Si / 1000 Ang^3
#
#
#
# Elastic Constant Matrix: (Units=GPa)
#
#
# Indices 1 2 3 4 5 6 
#
# 1 118.5002 29.7935 8.9954 -2.1056 -31.8363 7.3822
# 2 29.7935 72.3538 0.8118 4.7331 -9.4747 -2.3229
# 3 8.9954 0.8118 61.4279 3.8876 -12.3344 14.2056
# 4 -2.1056 4.7331 3.8876 15.2399 -1.9409 1.0051
# 5 -31.8363 -9.4747 -12.3344 -1.9409 24.7932 -6.1031
# 6 7.3822 -2.3229 14.2056 1.0051 -6.1031 23.9818
#
#
#
# Elastic Compliance Matrix: (Units=1/GPa)
#
#
# Indices 1 2 3 4 5 6 
#
# 1 0.014208 -0.003952 0.001489 0.005135 0.017534 -0.001391
# 2 -0.003952 0.016127 0.000291 -0.005640 0.001591 0.003247
# 3 0.001489 0.000291 0.020484 -0.003240 0.009496 -0.010012
# 4 0.005135 -0.005640 -0.003240 0.070001 0.008037 -0.001096
# 5 0.017534 0.001591 0.009496 0.008037 0.070466 0.006728
# 6 -0.001391 0.003247 -0.010012 -0.001096 0.006728 0.050130
#
#
# Mechanical properties :
#
#
# Convention : Reuss Voigt Hill
#
# Bulk Modulus (GPa) = 21.51652 36.83148 29.17400
# Shear Modulus (GPa) = 19.13870 26.98173 23.06022
#
# Velocity S-wave (km/s) = 3.09751 3.67783 3.40008
# Velocity P-wave (km/s) = 4.85586 6.04149 5.48083
#
# Compressibility (1/GPa) = 0.04647592
#
# Stress axis : x y z
#
# Youngs Moduli (GPa) = 70.38295 62.00973 48.81754
#
# Poissons Ratio (x) = 0.24504 -0.07270
# Poissons Ratio (y) = 0.27813 -0.01421
# Poissons Ratio (z) = -0.10481 -0.01805
#
# Static dielectric constant tensor:
#      x y z
#    x 1.746780 -0.006740 0.017390 
#    y -0.006740 1.669840 -0.033190 
#    z 0.017390 -0.033190 1.706800 
# 
# From -- ./inp_files/316027.got.cif
#   From: 2010.05.17/outbox.cif.g08.bks.cpg/sg2_159_cif.got.tgz:316027.got - 2010.06.03 11:33:40.
