data_PCOD9090903
_publ_section_title
;
Structure prediction by ZEFSAII (Michael W. Deem and Ramdas Pophale) SiO2 
 PCOD9090903
Probable space group: P -1
;
_chemical_formula_sum "Si O2"
_cell_formula_units_Z 12
_cell_length_a 5.546288
_cell_length_b 20.147402
_cell_length_c 14.686662
_cell_angle_alpha 18.074018
_cell_angle_beta 84.151584
_cell_angle_gamma 83.522543
_cell_volume 505.828392
_symmetry_space_group_name_H-M "P -1"
_symmetry_group_IT_number 2
_symmetry_cell_setting 'triclinic'
loop_
_space_group_symop_operation_xyz
x,y,z
-x,-y,-z
loop_
_atom_site_type_symbol
_atom_site_label
_atom_site_fract_x
_atom_site_fract_y
_atom_site_fract_z
Si Si1 0.169467 0.107900 0.742438
Si Si2 0.214294 0.453535 0.982555
Si Si3 0.503369 0.168469 0.487575
Si Si4 0.631862 0.533266 0.624083
Si Si5 0.869028 0.350034 0.573538
Si Si6 0.400361 0.173759 0.203851
O O1 0.273897 0.121640 0.619709
O O2 0.360654 0.228766 0.642010
O O3 0.935436 0.252572 0.596603
O O4 0.136158 0.863382 0.087803
O O5 0.407697 0.309723 0.221618
O O6 0.178056 0.310540 0.081012
O O7 0.324054 0.679460 0.663542
O O8 0.000000 0.500000 0.000000
O O9 0.640071 0.959132 0.712965
O O10 0.393398 0.531608 0.573367
O O11 0.897232 0.511867 0.595626
O O12 0.592674 0.350768 0.938975
O O13 0.500000 0.000000 0.500000
#
# Coordination Sequence:
#
# PCOD9090903 Si02
#       6
#     2   2   2   2   2   2
#     4   9  19  34  62  88 120 161 214 252 319 366
#     4  10  21  38  59  87 117 166 207 258 314 374
#     4  10  21  39  58  86 124 159 210 257 315 375
#     4  10  19  39  61  88 127 165 206 259 319 362
#     4   9  20  35  66  90 121 169 208 263 309 379
#     4  10  22  41  59  90 129 161 210 259 318 376
#
# _framework density 23.723458999999998
#
# number of rings (size 3 to 8) (size 9 to 14) (size 15 to 20)
#    1.000    1.333    1.667    0.500    2.333    0.667 
#    6.000    1.667    0.000    0.000    0.000    0.000 
#    0.000    0.000    0.000    0.000    0.000    0.000 
#
# Total GULP energy -66853.683910 kJ/mol
# GULP energy per Si atom -5571.140326 kJ/mol
# Density = 2.366946 g / cm^3
# Si number density = 23.723459 Si / 1000 Ang^3
#
#
#
# Elastic Constant Matrix: (Units=GPa)
#
#
# Indices 1 2 3 4 5 6 
#
# 1 111.7538 12.2477 37.2054 0.7815 -12.0309 -8.2030
# 2 12.2477 119.9688 26.1689 -25.8917 -8.8794 -29.3169
# 3 37.2054 26.1689 118.8900 3.9452 -21.9455 -17.8766
# 4 0.7815 -25.8917 3.9452 35.9139 -9.8321 0.3153
# 5 -12.0309 -8.8794 -21.9455 -9.8321 22.2628 15.9332
# 6 -8.2030 -29.3169 -17.8766 0.3153 15.9332 10.0080
#
#
#
# Elastic Compliance Matrix: (Units=1/GPa)
#
#
# Indices 1 2 3 4 5 6 
#
# 1 0.010119 0.000508 -0.002618 0.000794 0.001406 0.002844
# 2 0.000508 0.005974 -0.001136 0.012553 0.028735 -0.030255
# 3 -0.002618 -0.001136 0.011216 0.000217 0.008126 0.001619
# 4 0.000794 0.012553 0.000217 0.041226 0.016310 0.010543
# 5 0.001406 0.028735 0.008126 0.016310 -0.009072 0.113770
# 6 0.002844 -0.030255 0.001619 0.010543 0.113770 -0.164944
#
#
# Mechanical properties :
#
#
# Convention : Reuss Voigt Hill
#
# Bulk Modulus (GPa) = 48.03353 55.76185 51.89769
# Shear Modulus (GPa) = -54.31715 31.96965 -11.17375
#
# Velocity S-wave (km/s) = -4.79016 3.67495 -2.17261
# Velocity P-wave (km/s) = 3.20983 6.44693 3.95348
#
# Compressibility (1/GPa) = 0.02081879
#
# Stress axis : x y z
#
# Youngs Moduli (GPa) = 98.82864 167.39668 89.15467
#
# Poissons Ratio (x) = -0.08508 0.23337
# Poissons Ratio (y) = -0.05023 0.10125
# Poissons Ratio (z) = 0.25870 0.19011
#
# Static dielectric constant tensor:
#      x y z
#    x 1.948560 -0.009880 0.005570 
#    y -0.009880 1.972160 -0.009940 
#    z 0.005570 -0.009940 1.885740 
# 
# From -- ./inp_files/366921.got.cif
#   From: 2010.05.17/outbox.cif.g08.bks.cpg/sg2_184_cif.got.tgz:366921.got - 2010.06.03 11:33:40.
