data_PCOD9090149
_publ_section_title
;
Structure prediction by ZEFSAII (Michael W. Deem and Ramdas Pophale) SiO2 
 PCOD9090149
Probable space group: P -1
;
_chemical_formula_sum "Si O2"
_cell_formula_units_Z 16
_cell_length_a 10.657476
_cell_length_b 19.924492
_cell_length_c 7.325109
_cell_angle_alpha 77.104382
_cell_angle_beta 86.053496
_cell_angle_gamma 26.711011
_cell_volume 650.578390
_symmetry_space_group_name_H-M "P -1"
_symmetry_group_IT_number 2
_symmetry_cell_setting 'triclinic'
loop_
_space_group_symop_operation_xyz
x,y,z
-x,-y,-z
loop_
_atom_site_type_symbol
_atom_site_label
_atom_site_fract_x
_atom_site_fract_y
_atom_site_fract_z
Si Si1 0.544001 0.975077 0.293687
Si Si2 0.364813 0.916958 0.910864
Si Si3 0.742330 0.232654 0.940866
Si Si4 0.905959 0.678580 0.247285
Si Si5 0.283231 0.908821 0.532794
Si Si6 0.103650 0.700989 0.993139
Si Si7 0.205392 0.754351 0.683851
Si Si8 0.580778 0.651747 0.432228
O O1 0.759049 0.807603 0.316125
O O2 0.500000 0.000000 0.500000
O O3 0.664223 0.989467 0.207952
O O4 0.241999 0.117826 0.123150
O O5 0.400524 0.857830 0.755816
O O6 0.648579 0.773297 0.095668
O O7 0.064098 0.046549 0.964929
O O8 0.502017 0.316203 0.789216
O O9 0.682683 0.256578 0.147311
O O10 0.774647 0.300129 0.884017
O O11 0.102185 0.528973 0.429516
O O12 0.115104 0.619631 0.124055
O O13 0.499296 0.765508 0.458180
O O14 0.000000 0.000000 0.500000
O O15 0.137164 0.054120 0.407302
O O16 0.235364 0.660884 0.808081
O O17 0.361303 0.703806 0.519066
#
# Coordination Sequence:
#
# PCOD9090149 Si02
#       8
#     2   2   2   2   2   2   2   2
#     4  11  20  34  63  88 115 157 205 244 296 362
#     4  11  19  39  63  84 118 158 208 247 286 359
#     4  10  19  38  64  86 115 156 206 245 294 346
#     4  11  22  39  58  90 130 153 189 252 315 356
#     4  10  20  37  63  90 113 160 212 243 285 353
#     4   9  19  37  59  89 111 156 205 238 295 356
#     4   9  19  37  61  86 117 155 212 239 283 355
#     4  11  24  39  58  91 129 159 192 251 307 347
#
# _framework density 24.593503999999999
#
# number of rings (size 3 to 8) (size 9 to 14) (size 15 to 20)
#    0.750    1.000    5.000    1.500    0.000    2.000 
#    4.500    0.000    0.000    6.750    0.000    0.000 
#    0.000    0.000    0.000    0.000    0.000    0.000 
#
# Total GULP energy -89450.868614 kJ/mol
# GULP energy per Si atom -5590.679288 kJ/mol
# Density = 2.453753 g / cm^3
# Si number density = 24.593504 Si / 1000 Ang^3
#
#
#
# Elastic Constant Matrix: (Units=GPa)
#
#
# Indices 1 2 3 4 5 6 
#
# 1 97.0749 25.7093 27.1290 -0.3802 4.3122 11.6380
# 2 25.7093 89.4348 52.8893 -9.5472 17.2236 11.3956
# 3 27.1290 52.8893 121.3148 -2.3774 34.7369 22.9299
# 4 -0.3802 -9.5472 -2.3774 42.2319 -2.7353 -0.8183
# 5 4.3122 17.2236 34.7369 -2.7353 35.8321 18.1833
# 6 11.6380 11.3956 22.9299 -0.8183 18.1833 27.0433
#
#
#
# Elastic Compliance Matrix: (Units=1/GPa)
#
#
# Indices 1 2 3 4 5 6 
#
# 1 0.011926 -0.002563 -0.001736 -0.000403 0.004196 -0.005414
# 2 -0.002563 0.016047 -0.006005 0.003171 -0.001673 0.000654
# 3 -0.001736 -0.006005 0.014497 -0.001240 -0.009805 -0.002460
# 4 -0.000403 0.003171 -0.001240 0.024434 0.001932 -0.000671
# 5 0.004196 -0.001673 -0.009805 0.001932 0.051868 -0.027603
# 6 -0.005414 0.000654 -0.002460 -0.000671 -0.027603 0.059657
#
#
# Mechanical properties :
#
#
# Convention : Reuss Voigt Hill
#
# Bulk Modulus (GPa) = 45.73984 57.69774 51.71879
# Shear Modulus (GPa) = 24.23361 34.49459 29.36410
#
# Velocity S-wave (km/s) = 3.14246 3.74918 3.45915
# Velocity P-wave (km/s) = 5.63963 6.50025 6.08518
#
# Compressibility (1/GPa) = 0.02186278
#
# Stress axis : x y z
#
# Youngs Moduli (GPa) = 83.84808 62.31779 68.97798
#
# Poissons Ratio (x) = 0.15974 0.11971
# Poissons Ratio (y) = 0.21492 0.41422
# Poissons Ratio (z) = 0.14552 0.37422
#
# Static dielectric constant tensor:
#      x y z
#    x 2.021100 -0.041190 -0.056980 
#    y -0.041190 1.976640 -0.027040 
#    z -0.056980 -0.027040 1.926160 
# 
# From -- ./inp_files/283047.got.cif
#   From: 2010.05.17/outbox.cif.g08.bks.cpg/sg2_142_cif.got.tgz:283047.got - 2010.06.03 11:33:40.
