data_PCOD9090791
_publ_section_title
;
Structure prediction by ZEFSAII (Michael W. Deem and Ramdas Pophale) SiO2 
 PCOD9090791
Probable space group: P -1
;
_chemical_formula_sum "Si O2"
_cell_formula_units_Z 14
_cell_length_a 9.782339
_cell_length_b 9.227797
_cell_length_c 9.234647
_cell_angle_alpha 73.297642
_cell_angle_beta 105.845238
_cell_angle_gamma 63.601900
_cell_volume 632.332419
_symmetry_space_group_name_H-M "P -1"
_symmetry_group_IT_number 2
_symmetry_cell_setting 'triclinic'
loop_
_space_group_symop_operation_xyz
x,y,z
-x,-y,-z
loop_
_atom_site_type_symbol
_atom_site_label
_atom_site_fract_x
_atom_site_fract_y
_atom_site_fract_z
Si Si1 0.363504 0.257336 0.274399
Si Si2 0.908687 0.682147 0.016052
Si Si3 0.832675 0.030226 0.755814
Si Si4 0.447039 0.827955 0.150630
Si Si5 0.780893 0.822529 0.220620
Si Si6 0.643012 0.409318 0.696759
Si Si7 0.758110 0.931668 0.491456
O O1 0.287141 0.253062 0.098526
O O2 0.323194 0.449249 0.264794
O O3 0.276707 0.195383 0.383071
O O4 0.567612 0.114527 0.361852
O O5 0.921677 0.671953 0.194572
O O6 0.941193 0.833493 0.923933
O O7 0.000000 0.500000 0.000000
O O8 0.814597 0.214746 0.745849
O O9 0.637819 0.100668 0.733444
O O10 0.857909 0.987749 0.607319
O O11 0.436046 0.654364 0.185255
O O12 0.633477 0.786590 0.214719
O O13 0.318751 0.985362 0.954408
O O14 0.840011 0.844501 0.386676
O O15 0.500000 0.500000 0.500000
#
# Coordination Sequence:
#
# PCOD9090791 Si02
#       7
#     2   2   2   2   2   2   2
#     4  10  18  30  53  77 103 131 165 194 250 306
#     4  10  21  36  50  67  96 141 181 202 230 290
#     4   8  17  31  50  74 103 124 164 194 249 302
#     4   8  16  27  46  73 103 127 148 198 261 295
#     4  10  16  30  49  70 102 128 162 216 243 285
#     4  10  16  29  51  82 106 127 153 200 258 310
#     4  10  16  28  52  80  96 128 159 207 259 295
#
# _framework density 22.140255
#
# number of rings (size 3 to 8) (size 9 to 14) (size 15 to 20)
#    0.857    1.714    1.429    5.143    0.000    0.000 
#    0.000    6.429    0.000    0.000    0.000    3.000 
#    0.000    0.000    0.000    0.000    0.000    0.000 
#
# Total GULP energy -77965.474377 kJ/mol
# GULP energy per Si atom -5568.962456 kJ/mol
# Density = 2.208986 g / cm^3
# Si number density = 22.140255 Si / 1000 Ang^3
#
#
#
# Elastic Constant Matrix: (Units=GPa)
#
#
# Indices 1 2 3 4 5 6 
#
# 1 27.1342 26.0941 13.1571 5.7044 -10.0823 2.1121
# 2 26.0941 170.5918 39.7949 8.8392 -17.5836 4.6020
# 3 13.1571 39.7949 50.9654 25.6466 -11.4816 -2.9227
# 4 5.7044 8.8392 25.6466 50.1614 -3.3371 -11.2757
# 5 -10.0823 -17.5836 -11.4816 -3.3371 20.4172 3.6706
# 6 2.1121 4.6020 -2.9227 -11.2757 3.6706 39.0232
#
#
#
# Elastic Compliance Matrix: (Units=1/GPa)
#
#
# Indices 1 2 3 4 5 6 
#
# 1 0.051607 -0.004604 -0.004208 -0.002771 0.019637 -0.005213
# 2 -0.004604 0.008000 -0.005669 0.001975 0.001881 -0.000725
# 3 -0.004208 -0.005669 0.035815 -0.016615 0.010868 -0.002244
# 4 -0.002771 0.001975 -0.016615 0.029782 -0.005546 0.007800
# 5 0.019637 0.001881 0.010868 -0.005546 0.067006 -0.008376
# 6 -0.005213 -0.000725 -0.002244 0.007800 -0.008376 0.028867
#
#
# Mechanical properties :
#
#
# Convention : Reuss Voigt Hill
#
# Bulk Modulus (GPa) = 15.04704 45.19816 30.12260
# Shear Modulus (GPa) = 18.36933 33.23007 25.79970
#
# Velocity S-wave (km/s) = 2.88354 3.87833 3.41733
# Velocity P-wave (km/s) = 4.23053 6.36507 5.40423
#
# Compressibility (1/GPa) = 0.06645825
#
# Stress axis : x y z
#
# Youngs Moduli (GPa) = 19.37737 125.00261 27.92115
#
# Poissons Ratio (x) = 0.57550 0.11750
# Poissons Ratio (y) = 0.08921 0.15830
# Poissons Ratio (z) = 0.08155 0.70869
#
# Static dielectric constant tensor:
#      x y z
#    x 1.845950 -0.015830 0.045480 
#    y -0.015830 1.895010 -0.055590 
#    z 0.045480 -0.055590 1.900820 
# 
# From -- ./inp_files/412161.got.cif
#   From: 2010.05.17/outbox.cif.g08.bks.cpg/sg2_207_cif.got.tgz:412161.got - 2010.06.03 11:33:40.
