data_PCOD9090213
_publ_section_title
;
Structure prediction by ZEFSAII (Michael W. Deem and Ramdas Pophale) SiO2 
 PCOD9090213
Probable space group: P -1
;
_chemical_formula_sum "Si O2"
_cell_formula_units_Z 16
_cell_length_a 11.890057
_cell_length_b 16.066075
_cell_length_c 6.860106
_cell_angle_alpha 44.668011
_cell_angle_beta 88.807318
_cell_angle_gamma 59.297153
_cell_volume 652.856973
_symmetry_space_group_name_H-M "P -1"
_symmetry_group_IT_number 2
_symmetry_cell_setting 'triclinic'
loop_
_space_group_symop_operation_xyz
x,y,z
-x,-y,-z
loop_
_atom_site_type_symbol
_atom_site_label
_atom_site_fract_x
_atom_site_fract_y
_atom_site_fract_z
Si Si1 0.957101 0.048318 0.191809
Si Si2 0.955087 0.410415 0.043117
Si Si3 0.332813 0.331567 0.905864
Si Si4 0.230339 0.153666 0.153410
Si Si5 0.380689 0.400561 0.207408
Si Si6 0.348885 0.821368 0.885653
Si Si7 0.975162 0.295313 0.640999
Si Si8 0.305514 0.729526 0.635664
O O1 0.793038 0.100202 0.091931
O O2 0.000000 0.000000 0.500000
O O3 0.120638 0.893836 0.335415
O O4 0.926802 0.206947 0.881267
O O5 0.080589 0.291977 0.069298
O O6 0.974224 0.301922 0.397491
O O7 0.000000 0.500000 0.000000
O O8 0.771362 0.534830 0.774693
O O9 0.154926 0.513807 0.597567
O O10 0.335899 0.192139 0.084543
O O11 0.374122 0.321557 0.149487
O O12 0.470644 0.302958 0.841995
O O13 0.309510 0.976690 0.527021
O O14 0.150483 0.192694 0.882579
O O15 0.564296 0.283428 0.452016
O O16 0.337997 0.567518 0.867580
O O17 0.338109 0.732278 0.860631
#
# Coordination Sequence:
#
# PCOD9090213 Si02
#       8
#     2   2   2   2   2   2   2   2
#     4  10  19  38  64  92 123 170 217 262 322 388
#     4  11  23  40  64  98 132 167 219 263 320 390
#     4  10  22  38  60  99 130 167 221 266 323 384
#     4  12  21  42  71  91 135 176 212 267 326 386
#     4   9  18  34  58  90 126 166 208 265 317 371
#     4  10  21  37  65  95 129 174 213 264 335 382
#     4  11  23  41  68  99 126 174 220 268 318 391
#     4   9  17  34  60  89 124 168 211 258 321 378
#
# _framework density 24.507666
#
# number of rings (size 3 to 8) (size 9 to 14) (size 15 to 20)
#    0.000    1.750    5.000    1.500    1.750    0.500 
#    0.000    5.625    2.750    3.750    0.000    0.000 
#    0.000    0.000    0.000    0.000    0.000    0.000 
#
# Total GULP energy -89467.094218 kJ/mol
# GULP energy per Si atom -5591.693389 kJ/mol
# Density = 2.445189 g / cm^3
# Si number density = 24.507666 Si / 1000 Ang^3
#
#
#
# Elastic Constant Matrix: (Units=GPa)
#
#
# Indices 1 2 3 4 5 6 
#
# 1 144.0809 16.0149 25.1341 0.4479 17.6125 3.4888
# 2 16.0149 62.1275 7.9262 -0.3602 7.2025 -14.9112
# 3 25.1341 7.9262 71.1729 -2.3390 6.7151 7.7589
# 4 0.4479 -0.3602 -2.3390 35.0033 -3.5158 1.3425
# 5 17.6125 7.2025 6.7151 -3.5158 43.0653 -9.9863
# 6 3.4888 -14.9112 7.7589 1.3425 -9.9863 48.5616
#
#
#
# Elastic Compliance Matrix: (Units=1/GPa)
#
#
# Indices 1 2 3 4 5 6 
#
# 1 0.007912 -0.001744 -0.002191 -0.000511 -0.002957 -0.001348
# 2 -0.001744 0.018304 -0.002013 -0.000219 -0.000676 0.005934
# 3 -0.002191 -0.002013 0.015629 0.000990 -0.001907 -0.003377
# 4 -0.000511 -0.000219 0.000990 0.028893 0.002332 -0.000508
# 5 -0.002957 -0.000676 -0.001907 0.002332 0.026344 0.005662
# 6 -0.001348 0.005934 -0.003377 -0.000508 0.005662 0.024229
#
#
# Mechanical properties :
#
#
# Convention : Reuss Voigt Hill
#
# Bulk Modulus (GPa) = 33.38947 41.72575 37.55761
# Shear Modulus (GPa) = 34.91900 40.54645 37.73272
#
# Velocity S-wave (km/s) = 3.77877 4.07189 3.92807
# Velocity P-wave (km/s) = 5.71774 6.25856 5.99425
#
# Compressibility (1/GPa) = 0.02994956
#
# Stress axis : x y z
#
# Youngs Moduli (GPa) = 126.38691 54.63407 63.98478
#
# Poissons Ratio (x) = 0.09527 0.14018
# Poissons Ratio (y) = 0.22038 0.12880
# Poissons Ratio (z) = 0.27689 0.10997
#
# Static dielectric constant tensor:
#      x y z
#    x 1.969140 -0.020850 0.052600 
#    y -0.020850 1.971270 0.014840 
#    z 0.052600 0.014840 1.944160 
# 
# From -- ./inp_files/277342.got.cif
#   From: 2010.05.17/outbox.cif.g08.bks.cpg/sg2_139_cif.got.tgz:277342.got - 2010.06.03 11:33:40.
