data_PCOD9090088
_publ_section_title
;
Structure prediction by ZEFSAII (Michael W. Deem and Ramdas Pophale) SiO2 
 PCOD9090088
Probable space group: P -1
;
_chemical_formula_sum "Si O2"
_cell_formula_units_Z 16
_cell_length_a 24.529709
_cell_length_b 17.961780
_cell_length_c 5.642250
_cell_angle_alpha 101.523477
_cell_angle_beta 107.481866
_cell_angle_gamma 17.354803
_cell_volume 673.435750
_symmetry_space_group_name_H-M "P -1"
_symmetry_group_IT_number 2
_symmetry_cell_setting 'triclinic'
loop_
_space_group_symop_operation_xyz
x,y,z
-x,-y,-z
loop_
_atom_site_type_symbol
_atom_site_label
_atom_site_fract_x
_atom_site_fract_y
_atom_site_fract_z
Si Si1 0.102769 0.581145 0.073025
Si Si2 0.451137 0.863205 0.130518
Si Si3 0.836426 0.026982 0.689443
Si Si4 0.059224 0.510771 0.637740
Si Si5 0.855224 0.279367 0.408901
Si Si6 0.213906 0.033336 0.722201
Si Si7 0.101392 0.926558 0.898422
Si Si8 0.561389 0.034638 0.331661
O O1 0.333265 0.302222 0.226819
O O2 0.967653 0.769503 0.241441
O O3 0.073354 0.529834 0.927995
O O4 0.002322 0.760908 0.853493
O O5 0.680106 0.554749 0.272937
O O6 0.385360 0.985795 0.371236
O O7 0.421725 0.946462 0.896514
O O8 0.353042 0.905230 0.990892
O O9 0.698039 0.145651 0.438992
O O10 0.948641 0.940570 0.603470
O O11 0.762542 0.179940 0.888854
O O12 0.000000 0.500000 0.500000
O O13 0.891070 0.772044 0.457219
O O14 0.280846 0.234763 0.646268
O O15 0.807433 0.251745 0.272066
O O16 0.913483 0.207325 0.712588
O O17 0.000000 0.000000 0.000000
#
# Coordination Sequence:
#
# PCOD9090088 Si02
#       8
#     2   2   2   2   2   2   2   2
#     4  11  24  41  66  95 129 176 225 280 325 391
#     4  12  26  43  68  98 136 177 218 277 335 395
#     4  10  19  38  63  93 127 168 220 265 327 396
#     4  11  24  43  65  92 134 176 224 275 338 390
#     4  10  20  39  65  97 128 171 216 271 327 393
#     4  11  25  40  65  93 133 180 219 272 337 394
#     4   9  19  35  66  98 128 163 216 271 325 392
#     4  12  26  44  68  96 133 175 229 283 324 392
#
# _framework density 23.758762999999998
#
# number of rings (size 3 to 8) (size 9 to 14) (size 15 to 20)
#    0.000    1.250    2.500    3.375    7.000    1.500 
#    0.000    0.625    0.000   10.500    0.000    0.000 
#    0.000    0.000    0.000    0.000    0.000    0.000 
#
# Total GULP energy -89243.993560 kJ/mol
# GULP energy per Si atom -5577.749597 kJ/mol
# Density = 2.370469 g / cm^3
# Si number density = 23.758763 Si / 1000 Ang^3
#
#
#
# Elastic Constant Matrix: (Units=GPa)
#
#
# Indices 1 2 3 4 5 6 
#
# 1 73.7044 -4.5847 34.8657 17.5690 17.1665 14.3534
# 2 -4.5847 19.9523 15.7013 8.0020 3.8092 4.9844
# 3 34.8657 15.7013 122.7789 28.3041 20.6732 15.7881
# 4 17.5690 8.0020 28.3041 37.1771 14.0836 11.1383
# 5 17.1665 3.8092 20.6732 14.0836 33.7866 9.8310
# 6 14.3534 4.9844 15.7881 11.1383 9.8310 31.1840
#
#
#
# Elastic Compliance Matrix: (Units=1/GPa)
#
#
# Indices 1 2 3 4 5 6 
#
# 1 0.019957 0.012541 -0.004536 -0.005125 -0.005050 -0.005471
# 2 0.012541 0.066099 -0.008180 -0.010845 -0.002066 -0.007671
# 3 -0.004536 -0.008180 0.011862 -0.004177 -0.002163 -0.000437
# 4 -0.005125 -0.010845 -0.004177 0.039674 -0.008630 -0.005243
# 5 -0.005050 -0.002066 -0.002163 -0.008630 0.038897 -0.005430
# 6 -0.005471 -0.007671 -0.000437 -0.005243 -0.005430 0.039618
#
#
# Mechanical properties :
#
#
# Convention : Reuss Voigt Hill
#
# Bulk Modulus (GPa) = 10.24911 34.26668 22.25790
# Shear Modulus (GPa) = 20.08206 31.79311 25.93759
#
# Velocity S-wave (km/s) = 2.91047 3.66206 3.30768
# Velocity P-wave (km/s) = 3.95192 5.68639 4.89656
#
# Compressibility (1/GPa) = 0.09756947
#
# Stress axis : x y z
#
# Youngs Moduli (GPa) = 50.10820 15.12891 84.30291
#
# Poissons Ratio (x) = -0.18974 0.38237
# Poissons Ratio (y) = -0.62843 0.68958
# Poissons Ratio (z) = 0.22727 0.12375
#
# Static dielectric constant tensor:
#      x y z
#    x 1.962560 0.015200 0.028150 
#    y 0.015200 1.911980 0.051260 
#    z 0.028150 0.051260 2.017360 
# 
# From -- ./inp_files/37285.got.cif
#   From: 2010.05.17/outbox.cif.g08.bks.cpg/sg2_19_cif.got.tgz:37285.got - 2010.06.03 11:33:40.
