data_PCOD9090924
_publ_section_title
;
Structure prediction by ZEFSAII (Michael W. Deem and Ramdas Pophale) SiO2 
 PCOD9090924
Probable space group: P -1
;
_chemical_formula_sum "Si O2"
_cell_formula_units_Z 14
_cell_length_a 15.564835
_cell_length_b 7.406997
_cell_length_c 11.928181
_cell_angle_alpha 82.796210
_cell_angle_beta 27.237287
_cell_angle_gamma 93.072106
_cell_volume 581.688804
_symmetry_space_group_name_H-M "P -1"
_symmetry_group_IT_number 2
_symmetry_cell_setting 'triclinic'
loop_
_space_group_symop_operation_xyz
x,y,z
-x,-y,-z
loop_
_atom_site_type_symbol
_atom_site_label
_atom_site_fract_x
_atom_site_fract_y
_atom_site_fract_z
Si Si1 0.829381 0.938604 0.559333
Si Si2 0.841506 0.467501 0.864379
Si Si3 0.901285 0.238079 0.636289
Si Si4 0.599903 0.053516 0.633481
Si Si5 0.261708 0.205200 0.942096
Si Si6 0.106648 0.497350 0.758761
Si Si7 0.771806 0.840593 0.277131
O O1 0.808742 0.035352 0.693873
O O2 0.648526 0.937790 0.690767
O O3 0.897699 0.760893 0.530668
O O4 0.030345 0.074404 0.249113
O O5 0.761933 0.293048 0.882079
O O6 0.022313 0.612845 0.566889
O O7 0.936956 0.413021 0.867653
O O8 0.707208 0.587070 0.052867
O O9 0.401663 0.101908 0.839969
O O10 0.764014 0.277501 0.435425
O O11 0.640546 0.944220 0.485187
O O12 0.290271 0.218151 0.774491
O O13 0.224954 0.350517 0.646990
O O14 0.000000 0.500000 0.000000
O O15 0.000000 0.000000 0.000000
#
# Coordination Sequence:
#
# PCOD9090924 Si02
#       7
#     2   2   2   2   2   2   2
#     4  10  19  42  62  89 121 162 210 250 314 360
#     4  10  19  39  61  93 122 157 214 250 306 368
#     4   9  19  35  70  86 117 172 201 255 308 362
#     4  12  24  41  63  91 132 160 208 260 304 373
#     4  11  23  40  60  93 127 161 206 257 307 371
#     4  12  21  40  68  89 123 170 200 256 314 364
#     4  12  22  41  64  92 123 169 207 250 314 369
#
# _framework density 24.067851000000001
#
# number of rings (size 3 to 8) (size 9 to 14) (size 15 to 20)
#    0.000    1.143    7.143    1.286    0.000    0.571 
#    2.571    7.143    0.000    0.000    0.000    0.000 
#    0.000    0.000    0.000    0.000    0.000    0.000 
#
# Total GULP energy -78284.922565 kJ/mol
# GULP energy per Si atom -5591.780183 kJ/mol
# Density = 2.401307 g / cm^3
# Si number density = 24.067851 Si / 1000 Ang^3
#
#
#
# Elastic Constant Matrix: (Units=GPa)
#
#
# Indices 1 2 3 4 5 6 
#
# 1 173.1686 58.7244 80.9549 39.4680 7.1007 -15.1286
# 2 58.7244 113.2194 46.4179 48.7851 0.9989 -2.6111
# 3 80.9549 46.4179 95.9114 48.2878 -8.3048 7.3002
# 4 39.4680 48.7851 48.2878 51.4052 5.3146 11.2687
# 5 7.1007 0.9989 -8.3048 5.3146 39.9084 11.9928
# 6 -15.1286 -2.6111 7.3002 11.2687 11.9928 40.0679
#
#
#
# Elastic Compliance Matrix: (Units=1/GPa)
#
#
# Indices 1 2 3 4 5 6 
#
# 1 0.012838 -0.002795 -0.012629 0.003652 -0.007816 0.008278
# 2 -0.002795 0.016685 0.002974 -0.017522 0.001873 0.003857
# 3 -0.012629 0.002974 0.034139 -0.024936 0.015091 -0.008298
# 4 0.003652 -0.017522 -0.024936 0.059742 -0.010707 -0.008817
# 5 -0.007816 0.001873 0.015091 -0.010707 0.034876 -0.013006
# 6 0.008278 0.003857 -0.008298 -0.008817 -0.013006 0.036219
#
#
# Mechanical properties :
#
#
# Convention : Reuss Voigt Hill
#
# Bulk Modulus (GPa) = 25.79780 83.83265 54.81522
# Shear Modulus (GPa) = 21.52215 39.35646 30.43930
#
# Velocity S-wave (km/s) = 2.99361 4.04818 3.56016
# Velocity P-wave (km/s) = 4.76350 7.53378 6.30273
#
# Compressibility (1/GPa) = 0.03876300
#
# Stress axis : x y z
#
# Youngs Moduli (GPa) = 77.89578 59.93368 29.29184
#
# Poissons Ratio (x) = 0.16750 0.36992
# Poissons Ratio (y) = 0.21771 -0.08712
# Poissons Ratio (z) = 0.98373 -0.17825
#
# Static dielectric constant tensor:
#      x y z
#    x 1.884630 0.023730 -0.011850 
#    y 0.023730 2.037970 -0.054630 
#    z -0.011850 -0.054630 1.950510 
# 
# From -- ./inp_files/444538.got.cif
#   From: 2010.05.17/outbox.cif.g08.bks.cpg/sg2_223_cif.got.tgz:444538.got - 2010.06.03 11:33:40.
