data_PCOD9090774
_publ_section_title
;
Structure prediction by ZEFSAII (Michael W. Deem and Ramdas Pophale) SiO2 
 PCOD9090774
Probable space group: P -1
;
_chemical_formula_sum "Si O2"
_cell_formula_units_Z 16
_cell_length_a 12.919844
_cell_length_b 13.139937
_cell_length_c 9.375344
_cell_angle_alpha 59.365323
_cell_angle_beta 34.407983
_cell_angle_gamma 68.049247
_cell_volume 770.305573
_symmetry_space_group_name_H-M "P -1"
_symmetry_group_IT_number 2
_symmetry_cell_setting 'triclinic'
loop_
_space_group_symop_operation_xyz
x,y,z
-x,-y,-z
loop_
_atom_site_type_symbol
_atom_site_label
_atom_site_fract_x
_atom_site_fract_y
_atom_site_fract_z
Si Si1 0.792641 0.029000 0.322312
Si Si2 0.339430 0.617979 0.724894
Si Si3 0.556816 0.011793 0.091839
Si Si4 0.631408 0.672622 0.572139
Si Si5 0.191992 0.073920 0.916385
Si Si6 0.649361 0.781814 0.763551
Si Si7 0.684527 0.663975 0.106318
Si Si8 0.949853 0.615264 0.063595
O O1 0.606289 0.062846 0.580363
O O2 0.778596 0.023972 0.171017
O O3 0.793968 0.890461 0.469686
O O4 0.978646 0.092485 0.127243
O O5 0.430780 0.637989 0.760989
O O6 0.494098 0.675534 0.398176
O O7 0.322408 0.476150 0.819664
O O8 0.139459 0.659297 0.894153
O O9 0.533838 0.148185 0.064696
O O10 0.741935 0.968519 0.975266
O O11 0.500000 0.000000 0.000000
O O12 0.692109 0.806269 0.352493
O O13 0.635282 0.681180 0.731593
O O14 0.782505 0.594935 0.382940
O O15 0.696450 0.735998 0.896713
O O16 0.857541 0.694047 0.993152
O O17 0.000000 0.500000 0.000000
#
# Coordination Sequence:
#
# PCOD9090774 Si02
#       8
#     2   2   2   2   2   2   2   2
#     4   8  20  38  57  78 112 149 186 228 272 324
#     4   9  19  36  59  84 107 147 186 224 281 335
#     4  10  22  36  56  82 117 143 188 231 276 329
#     4  10  21  35  59  84 113 145 187 229 273 335
#     4  10  19  39  59  79 112 154 183 227 274 329
#     4   9  21  40  52  85 117 144 183 236 277 321
#     4   9  18  38  60  80 116 142 181 235 276 329
#     4   9  19  38  59  81 108 144 190 226 270 337
#
# _framework density 20.770977999999999
#
# number of rings (size 3 to 8) (size 9 to 14) (size 15 to 20)
#    0.750    2.000    0.000    1.125    3.500    2.000 
#    6.750    2.500    0.000    0.000    0.000    0.000 
#    0.000    0.000    0.000    0.000    0.000    0.000 
#
# Total GULP energy -89126.628480 kJ/mol
# GULP energy per Si atom -5570.414280 kJ/mol
# Density = 2.072370 g / cm^3
# Si number density = 20.770978 Si / 1000 Ang^3
#
#
#
# Elastic Constant Matrix: (Units=GPa)
#
#
# Indices 1 2 3 4 5 6 
#
# 1 106.6019 20.1701 29.4944 1.8829 -14.0365 -8.8589
# 2 20.1701 62.7199 10.4652 20.4250 -3.6428 -1.5935
# 3 29.4944 10.4652 27.2956 4.6190 -7.6780 -3.8414
# 4 1.8829 20.4250 4.6190 19.9802 3.1165 -0.3927
# 5 -14.0365 -3.6428 -7.6780 3.1165 43.1586 -2.9414
# 6 -8.8589 -1.5935 -3.8414 -0.3927 -2.9414 22.1216
#
#
#
# Elastic Compliance Matrix: (Units=1/GPa)
#
#
# Indices 1 2 3 4 5 6 
#
# 1 0.014435 -0.003991 -0.014106 0.005788 0.001660 0.003367
# 2 -0.003991 0.026152 -0.000401 -0.026695 0.002773 0.000111
# 3 -0.014106 -0.000401 0.056674 -0.012310 0.006679 0.004833
# 4 0.005788 -0.026695 -0.012310 0.080937 -0.008503 -0.001436
# 5 0.001660 0.002773 0.006679 -0.008503 0.026111 0.005345
# 6 0.003367 0.000111 0.004833 -0.001436 0.005345 0.048085
#
#
# Mechanical properties :
#
#
# Convention : Reuss Voigt Hill
#
# Bulk Modulus (GPa) = 16.59362 35.20853 25.90107
# Shear Modulus (GPa) = 16.15619 26.15125 21.15372
#
# Velocity S-wave (km/s) = 2.79198 3.55213 3.19474
# Velocity P-wave (km/s) = 4.28949 5.81473 5.10935
#
# Compressibility (1/GPa) = 0.06026414
#
# Stress axis : x y z
#
# Youngs Moduli (GPa) = 69.27661 38.23840 17.64477
#
# Poissons Ratio (x) = 0.15263 0.24890
# Poissons Ratio (y) = 0.27651 0.00707
# Poissons Ratio (z) = 0.97722 0.01532
#
# Static dielectric constant tensor:
#      x y z
#    x 1.738390 0.037730 -0.005380 
#    y 0.037730 1.829570 0.023190 
#    z -0.005380 0.023190 1.739990 
# 
# From -- ./inp_files/267288.got.cif
#   From: 2010.05.17/outbox.cif.g08.bks.cpg/sg2_134_cif.got.tgz:267288.got - 2010.06.03 11:33:40.
