data_PCOD9090940
_publ_section_title
;
Structure prediction by ZEFSAII (Michael W. Deem and Ramdas Pophale) SiO2 
 PCOD9090940
Probable space group: P -1
;
_chemical_formula_sum "Si O2"
_cell_formula_units_Z 16
_cell_length_a 6.797717
_cell_length_b 13.686974
_cell_length_c 8.247367
_cell_angle_alpha 116.164282
_cell_angle_beta 68.392245
_cell_angle_gamma 105.746540
_cell_volume 634.825656
_symmetry_space_group_name_H-M "P -1"
_symmetry_group_IT_number 2
_symmetry_cell_setting 'triclinic'
loop_
_space_group_symop_operation_xyz
x,y,z
-x,-y,-z
loop_
_atom_site_type_symbol
_atom_site_label
_atom_site_fract_x
_atom_site_fract_y
_atom_site_fract_z
Si Si1 0.259943 0.656150 0.901169
Si Si2 0.194164 0.006798 0.071410
Si Si3 0.019575 0.189517 0.835378
Si Si4 0.619325 0.813803 0.053513
Si Si5 0.696806 0.300705 0.441533
Si Si6 0.523418 0.526709 0.203804
Si Si7 0.998261 0.818868 0.536840
Si Si8 0.163434 0.355991 0.343483
O O1 0.365986 0.701743 0.730844
O O2 0.275251 0.528562 0.832386
O O3 0.406474 0.728241 0.044464
O O4 0.024127 0.687132 0.021260
O O5 0.129195 0.085824 0.290309
O O6 0.387208 0.071769 0.957292
O O7 0.160613 0.884736 0.059524
O O8 0.000000 0.000000 0.000000
O O9 0.254117 0.166151 0.801610
O O10 0.966881 0.162439 0.647299
O O11 0.788445 0.748715 0.855935
O O12 0.529840 0.353578 0.642781
O O13 0.791571 0.199263 0.430727
O O14 0.923498 0.379373 0.407219
O O15 0.339983 0.450928 0.306369
O O16 0.500000 0.500000 0.000000
O O17 0.854224 0.700042 0.515827
#
# Coordination Sequence:
#
# PCOD9090940 Si02
#       8
#     2   2   2   2   2   2   2   2
#     4  11  22  38  61  82 120 158 196 239 295 356
#     4   9  17  34  59  85 117 156 198 240 291 353
#     4  11  19  36  60  88 122 151 198 250 288 346
#     4   9  19  37  58  86 116 159 198 237 292 352
#     4  10  19  39  62  82 118 161 200 234 299 358
#     4  11  22  37  59  90 121 145 198 254 291 351
#     4   9  19  34  61  87 114 156 198 239 296 345
#     4   8  18  38  59  80 115 154 196 229 298 354
#
# _framework density 25.203771
#
# number of rings (size 3 to 8) (size 9 to 14) (size 15 to 20)
#    0.750    1.500    1.250    2.625    0.000    0.500 
#    0.000   14.375    0.000    4.500    0.000    0.000 
#    0.000    0.000    0.000    0.000    0.000    0.000 
#
# Total GULP energy -89143.725414 kJ/mol
# GULP energy per Si atom -5571.482838 kJ/mol
# Density = 2.514641 g / cm^3
# Si number density = 25.203771 Si / 1000 Ang^3
#
#
#
# Elastic Constant Matrix: (Units=GPa)
#
#
# Indices 1 2 3 4 5 6 
#
# 1 62.1614 4.9931 -4.1857 -5.9758 8.5257 -8.0858
# 2 4.9931 87.6788 -2.7240 -5.3072 1.9754 -9.3160
# 3 -4.1857 -2.7240 70.4987 -1.9818 0.4860 -26.5859
# 4 -5.9758 -5.3072 -1.9818 31.2810 -11.2561 4.9038
# 5 8.5257 1.9754 0.4860 -11.2561 27.6545 -1.0152
# 6 -8.0858 -9.3160 -26.5859 4.9038 -1.0152 37.7011
#
#
#
# Elastic Compliance Matrix: (Units=1/GPa)
#
#
# Indices 1 2 3 4 5 6 
#
# 1 0.017858 -0.000120 0.003343 0.000885 -0.004979 0.005909
# 2 -0.000120 0.012016 0.002093 0.001444 -0.000115 0.004229
# 3 0.003343 0.002093 0.020350 -0.000602 -0.001209 0.015630
# 4 0.000885 0.001444 -0.000602 0.038493 0.015138 -0.004477
# 5 -0.004979 -0.000115 -0.001209 0.015138 0.043786 -0.002739
# 6 0.005909 0.004229 0.015630 -0.004477 -0.002739 0.040367
#
#
# Mechanical properties :
#
#
# Convention : Reuss Voigt Hill
#
# Bulk Modulus (GPa) = 16.43151 24.05619 20.24385
# Shear Modulus (GPa) = 27.39375 34.14435 30.76905
#
# Velocity S-wave (km/s) = 3.30038 3.68466 3.49780
# Velocity P-wave (km/s) = 4.58879 5.26001 4.93582
#
# Compressibility (1/GPa) = 0.06085867
#
# Stress axis : x y z
#
# Youngs Moduli (GPa) = 55.99600 83.21925 49.14061
#
# Poissons Ratio (x) = 0.00995 -0.16429
# Poissons Ratio (y) = 0.00669 -0.10287
# Poissons Ratio (z) = -0.18721 -0.17421
#
# Static dielectric constant tensor:
#      x y z
#    x 2.075830 -0.038520 0.034180 
#    y -0.038520 2.084550 0.030120 
#    z 0.034180 0.030120 2.061670 
# 
# From -- ./inp_files/197825.got.cif
#   From: 2010.05.17/outbox.cif.g08.bks.cpg/sg2_99_cif.got.tgz:197825.got - 2010.06.03 11:33:40.
