data_PCOD9090741
_publ_section_title
;
Structure prediction by ZEFSAII (Michael W. Deem and Ramdas Pophale) SiO2 
 PCOD9090741
Probable space group: P -1
;
_chemical_formula_sum "Si O2"
_cell_formula_units_Z 16
_cell_length_a 13.015589
_cell_length_b 14.773750
_cell_length_c 9.481516
_cell_angle_alpha 98.994586
_cell_angle_beta 121.625579
_cell_angle_gamma 39.998333
_cell_volume 891.964980
_symmetry_space_group_name_H-M "P -1"
_symmetry_group_IT_number 2
_symmetry_cell_setting 'triclinic'
loop_
_space_group_symop_operation_xyz
x,y,z
-x,-y,-z
loop_
_atom_site_type_symbol
_atom_site_label
_atom_site_fract_x
_atom_site_fract_y
_atom_site_fract_z
Si Si1 0.272688 0.854992 0.434364
Si Si2 0.560958 0.913157 0.380879
Si Si3 0.392587 0.916642 0.021133
Si Si4 0.752522 0.953383 0.357409
Si Si5 0.217957 0.734565 0.600113
Si Si6 0.185964 0.851692 0.901132
Si Si7 0.522311 0.603732 0.313873
Si Si8 0.236378 0.380863 0.624961
O O1 0.330950 0.911930 0.571960
O O2 0.212381 0.818218 0.501299
O O3 0.444240 0.703109 0.422186
O O4 0.061906 0.006114 0.231450
O O5 0.714592 0.883105 0.395730
O O6 0.500000 0.000000 0.500000
O O7 0.380297 0.997511 0.159702
O O8 0.666293 0.750632 0.449421
O O9 0.624420 0.731844 0.165497
O O10 0.357084 0.978340 0.856786
O O11 0.240358 0.925528 0.941472
O O12 0.992928 0.826625 0.471437
O O13 0.254808 0.758296 0.784330
O O14 0.387270 0.553276 0.640569
O O15 0.324187 0.727764 0.097205
O O16 0.701174 0.556066 0.359524
O O17 0.000000 0.500000 0.500000
#
# Coordination Sequence:
#
# PCOD9090741 Si02
#       8
#     2   2   2   2   2   2   2   2
#     4  11  21  36  60  84 120 144 185 234 277 336
#     4  10  21  35  59  83 107 138 192 238 276 316
#     4   9  19  35  62  76 111 145 189 227 269 335
#     4  11  19  37  60  83 107 155 190 219 283 335
#     4  11  21  36  59  84 116 150 188 225 272 351
#     4  10  19  39  57  84 111 154 189 222 275 341
#     4  11  22  35  57  85 117 148 182 236 290 311
#     4   9  20  37  57  79 111 148 187 228 277 332
#
# _framework density 17.937923999999999
#
# number of rings (size 3 to 8) (size 9 to 14) (size 15 to 20)
#    0.750    1.000    2.500    3.750    0.000    0.000 
#    0.000    0.000    2.750    1.500    0.000    0.000 
#    0.000    0.000    0.000    0.000    0.000    0.000 
#
# Total GULP energy -89164.970243 kJ/mol
# GULP energy per Si atom -5572.810640 kJ/mol
# Density = 1.789710 g / cm^3
# Si number density = 17.937924 Si / 1000 Ang^3
#
#
#
# Elastic Constant Matrix: (Units=GPa)
#
#
# Indices 1 2 3 4 5 6 
#
# 1 39.0657 -7.3103 7.7432 3.3796 5.0854 10.2718
# 2 -7.3103 71.2488 21.2877 17.9477 0.9420 4.2893
# 3 7.7432 21.2877 82.1113 20.4944 4.0730 -3.6441
# 4 3.3796 17.9477 20.4944 21.0028 5.3084 -1.2165
# 5 5.0854 0.9420 4.0730 5.3084 20.3139 2.6542
# 6 10.2718 4.2893 -3.6441 -1.2165 2.6542 27.4141
#
#
#
# Elastic Compliance Matrix: (Units=1/GPa)
#
#
# Indices 1 2 3 4 5 6 
#
# 1 0.032400 0.007189 -0.003367 -0.007872 -0.003925 -0.013681
# 2 0.007189 0.020226 -0.001972 -0.017754 0.003241 -0.007222
# 3 -0.003367 -0.001972 0.016597 -0.014010 0.000866 0.003071
# 4 -0.007872 -0.017754 -0.014010 0.082598 -0.017182 0.009194
# 5 -0.003925 0.003241 0.000866 -0.017182 0.055031 -0.005012
# 6 -0.013681 -0.007222 0.003071 0.009194 -0.005012 0.044035
#
#
# Mechanical properties :
#
#
# Convention : Reuss Voigt Hill
#
# Bulk Modulus (GPa) = 13.71291 26.20745 19.96018
# Shear Modulus (GPa) = 18.41660 25.12651 21.77156
#
# Velocity S-wave (km/s) = 3.20767 3.74672 3.48762
# Velocity P-wave (km/s) = 4.62386 5.77572 5.23159
#
# Compressibility (1/GPa) = 0.07292398
#
# Stress axis : x y z
#
# Youngs Moduli (GPa) = 30.86448 49.44071 60.25062
#
# Poissons Ratio (x) = -0.35541 0.20285
# Poissons Ratio (y) = -0.22187 0.11879
# Poissons Ratio (z) = 0.10391 0.09747
#
# Static dielectric constant tensor:
#      x y z
#    x 1.603890 -0.003920 0.014580 
#    y -0.003920 1.624990 0.006630 
#    z 0.014580 0.006630 1.625390 
# 
# From -- ./inp_files/218692.got.cif
#   From: 2010.05.17/outbox.cif.g08.bks.cpg/sg2_110_cif.got.tgz:218692.got - 2010.06.03 11:33:40.
