data_PCOD9090301
_publ_section_title
;
Structure prediction by ZEFSAII (Michael W. Deem and Ramdas Pophale) SiO2 
 PCOD9090301
Probable space group: P -1
;
_chemical_formula_sum "Si O2"
_cell_formula_units_Z 16
_cell_length_a 25.396689
_cell_length_b 14.894714
_cell_length_c 10.006680
_cell_angle_alpha 133.231884
_cell_angle_beta 45.508986
_cell_angle_gamma 164.916675
_cell_volume 701.972938
_symmetry_space_group_name_H-M "P -1"
_symmetry_group_IT_number 2
_symmetry_cell_setting 'triclinic'
loop_
_space_group_symop_operation_xyz
x,y,z
-x,-y,-z
loop_
_atom_site_type_symbol
_atom_site_label
_atom_site_fract_x
_atom_site_fract_y
_atom_site_fract_z
Si Si1 0.947159 0.530301 0.802732
Si Si2 0.625597 0.307061 0.519180
Si Si3 0.461431 0.803140 0.919003
Si Si4 0.538495 0.339563 0.474754
Si Si5 0.287288 0.141742 0.290519
Si Si6 0.478531 0.726590 0.080749
Si Si7 0.911537 0.545902 0.170239
Si Si8 0.154517 0.873382 0.538010
O O1 0.992101 0.458762 0.609885
O O2 0.017905 0.720352 0.742788
O O3 0.700101 0.133849 0.846926
O O4 0.014101 0.684902 0.983927
O O5 0.504676 0.181814 0.484096
O O6 0.650550 0.448208 0.734368
O O7 0.826242 0.551245 0.351635
O O8 0.500000 0.000000 0.500000
O O9 0.361040 0.569140 0.740065
O O10 0.377581 0.644872 0.053618
O O11 0.500000 0.000000 0.000000
O O12 0.669764 0.653503 0.625567
O O13 0.340395 0.102132 0.525936
O O14 0.253857 0.097230 0.464402
O O15 0.469044 0.330038 0.118723
O O16 0.076134 0.769105 0.217267
O O17 0.706714 0.141058 0.126739
#
# Coordination Sequence:
#
# PCOD9090301 Si02
#       8
#     2   2   2   2   2   2   2   2
#     4   9  19  35  59  90 114 152 210 252 297 340
#     4  10  23  41  63  88 117 159 212 255 299 360
#     4  10  19  38  65  86 119 160 207 257 298 359
#     4  11  23  39  61  89 126 161 199 250 316 365
#     4  12  23  38  61  90 132 161 193 255 314 366
#     4  10  21  38  61  92 118 160 211 250 299 359
#     4  10  21  39  62  88 122 162 206 255 299 358
#     4  10  21  36  60  92 121 155 199 254 300 360
#
# _framework density 22.792902000000002
#
# number of rings (size 3 to 8) (size 9 to 14) (size 15 to 20)
#    0.000    1.750    3.750    3.000    1.750    7.000 
#    0.000    0.000    0.000    3.750    0.000    0.000 
#    0.000    0.000    0.000    0.000    0.000    0.000 
#
# Total GULP energy -89158.303371 kJ/mol
# GULP energy per Si atom -5572.393961 kJ/mol
# Density = 2.274102 g / cm^3
# Si number density = 22.792902 Si / 1000 Ang^3
#
#
#
# Elastic Constant Matrix: (Units=GPa)
#
#
# Indices 1 2 3 4 5 6 
#
# 1 109.8832 6.9789 45.7811 3.3324 20.3682 -1.1509
# 2 6.9789 14.5621 15.1956 1.2017 3.9816 -4.3064
# 3 45.7811 15.1956 120.1899 -4.9424 24.2939 -6.0145
# 4 3.3324 1.2017 -4.9424 21.3689 -6.9558 -0.8908
# 5 20.3682 3.9816 24.2939 -6.9558 42.4478 6.0075
# 6 -1.1509 -4.3064 -6.0145 -0.8908 6.0075 14.7656
#
#
#
# Elastic Compliance Matrix: (Units=1/GPa)
#
#
# Indices 1 2 3 4 5 6 
#
# 1 0.011538 0.000045 -0.003666 -0.003987 -0.004223 0.000897
# 2 0.000045 0.087972 -0.008556 -0.008601 -0.008331 0.025046
# 3 -0.003666 -0.008556 0.012012 0.002545 -0.004474 0.004086
# 4 -0.003987 -0.008601 0.002545 0.051671 0.010124 -0.002785
# 5 -0.004223 -0.008331 -0.004474 0.010124 0.033051 -0.017417
# 6 0.000897 0.025046 0.004086 -0.002785 -0.017417 0.083682
#
#
# Mechanical properties :
#
#
# Convention : Reuss Voigt Hill
#
# Bulk Modulus (GPa) = 11.47215 42.28294 26.87754
# Shear Modulus (GPa) = 14.99988 27.49512 21.24750
#
# Velocity S-wave (km/s) = 2.56812 3.47695 3.05650
# Velocity P-wave (km/s) = 3.71992 5.89153 4.92686
#
# Compressibility (1/GPa) = 0.08716761
#
# Stress axis : x y z
#
# Youngs Moduli (GPa) = 86.66848 11.36723 83.25147
#
# Poissons Ratio (x) = -0.00051 0.30522
# Poissons Ratio (y) = -0.00388 0.71228
# Poissons Ratio (z) = 0.31774 0.09726
#
# Static dielectric constant tensor:
#      x y z
#    x 4.076580 -0.172580 -0.900030 
#    y -0.172580 1.921960 -0.000100 
#    z -0.900030 -0.000100 2.331860 
# 
# From -- ./inp_files/354416.got.cif
#   From: 2010.05.17/outbox.cif.g08.bks.cpg/sg2_178_cif.got.tgz:354416.got - 2010.06.03 11:33:40.
