data_PCOD9090835
_publ_section_title
;
Structure prediction by ZEFSAII (Michael W. Deem and Ramdas Pophale) SiO2 
 PCOD9090835
Probable space group: P -1
;
_chemical_formula_sum "Si O2"
_cell_formula_units_Z 16
_cell_length_a 13.440072
_cell_length_b 8.841094
_cell_length_c 12.978947
_cell_angle_alpha 81.575230
_cell_angle_beta 45.230744
_cell_angle_gamma 114.874283
_cell_volume 721.443558
_symmetry_space_group_name_H-M "P -1"
_symmetry_group_IT_number 2
_symmetry_cell_setting 'triclinic'
loop_
_space_group_symop_operation_xyz
x,y,z
-x,-y,-z
loop_
_atom_site_type_symbol
_atom_site_label
_atom_site_fract_x
_atom_site_fract_y
_atom_site_fract_z
Si Si1 0.512848 0.856929 0.071985
Si Si2 0.284689 0.712767 0.848697
Si Si3 0.291715 0.397864 0.959684
Si Si4 0.715511 0.625049 0.721356
Si Si5 0.893996 0.592816 0.196479
Si Si6 0.459278 0.813353 0.363135
Si Si7 0.918429 0.987387 0.719332
Si Si8 0.689646 0.713947 0.270287
O O1 0.337307 0.591586 0.188957
O O2 0.474424 0.831678 0.226046
O O3 0.744656 0.972573 0.875539
O O4 0.500000 0.000000 0.000000
O O5 0.283072 0.571276 0.942325
O O6 0.215814 0.581612 0.804016
O O7 0.500737 0.980097 0.651490
O O8 0.122268 0.703931 0.014362
O O9 0.489422 0.512451 0.873096
O O10 0.338436 0.370424 0.815998
O O11 0.084431 0.141233 0.175597
O O12 0.828796 0.815021 0.706850
O O13 0.863237 0.762184 0.499549
O O14 0.758523 0.433018 0.410357
O O15 0.883030 0.767939 0.168136
O O16 0.639702 0.852776 0.280969
O O17 0.500000 0.500000 0.500000
#
# Coordination Sequence:
#
# PCOD9090835 Si02
#       8
#     2   2   2   2   2   2   2   2
#     4  11  24  40  62  91 128 154 191 252 306 352
#     4  10  22  36  62  88 121 155 197 244 292 356
#     4  10  19  39  60  87 120 156 197 246 293 353
#     4  10  22  41  65  86 118 159 203 249 289 359
#     4   9  21  41  57  85 122 154 201 245 288 351
#     4  11  21  37  60  90 118 159 194 240 305 352
#     4  10  22  41  64  88 116 158 209 239 297 357
#     4   9  18  37  60  83 117 156 195 241 296 349
#
# _framework density 22.177758000000001
#
# number of rings (size 3 to 8) (size 9 to 14) (size 15 to 20)
#    0.000    2.000    2.500    1.875    3.500    3.000 
#    2.250    6.250    0.000    0.000    0.000    0.000 
#    0.000    0.000    0.000    0.000    0.000    0.000 
#
# Total GULP energy -89276.978203 kJ/mol
# GULP energy per Si atom -5579.811138 kJ/mol
# Density = 2.212728 g / cm^3
# Si number density = 22.177758 Si / 1000 Ang^3
#
#
#
# Elastic Constant Matrix: (Units=GPa)
#
#
# Indices 1 2 3 4 5 6 
#
# 1 62.4840 34.2902 31.4466 -12.2986 30.8704 -25.0735
# 2 34.2902 80.2863 29.2110 -16.5974 17.7231 -25.4610
# 3 31.4466 29.2110 125.6890 -8.0245 32.6795 -14.0623
# 4 -12.2986 -16.5974 -8.0245 30.7117 -4.2072 12.5170
# 5 30.8704 17.7231 32.6795 -4.2072 31.4755 -9.9741
# 6 -25.0735 -25.4610 -14.0623 12.5170 -9.9741 44.2387
#
#
#
# Elastic Compliance Matrix: (Units=1/GPa)
#
#
# Indices 1 2 3 4 5 6 
#
# 1 0.040623 -0.005994 0.001595 0.004213 -0.034004 0.011223
# 2 -0.005994 0.018393 -0.001802 0.004926 -0.000316 0.005150
# 3 0.001595 -0.001802 0.011172 0.000740 -0.011882 0.000530
# 4 0.004213 0.004926 0.000740 0.039194 -0.004545 -0.006656
# 5 -0.034004 -0.000316 -0.011882 -0.004545 0.075465 -0.004931
# 6 0.011223 0.005150 0.000530 -0.006656 -0.004931 0.032870
#
#
# Mechanical properties :
#
#
# Convention : Reuss Voigt Hill
#
# Bulk Modulus (GPa) = 17.30538 50.92830 34.11684
# Shear Modulus (GPa) = 20.04971 32.85261 26.45116
#
# Velocity S-wave (km/s) = 3.01000 3.85298 3.45728
# Velocity P-wave (km/s) = 4.46095 6.54274 5.59945
#
# Compressibility (1/GPa) = 0.05778548
#
# Stress axis : x y z
#
# Youngs Moduli (GPa) = 24.61647 54.36965 89.51147
#
# Poissons Ratio (x) = 0.32590 -0.14278
# Poissons Ratio (y) = 0.14756 0.16129
# Poissons Ratio (z) = -0.03927 0.09797
#
# Static dielectric constant tensor:
#      x y z
#    x 1.841860 -0.009260 0.023660 
#    y -0.009260 1.830870 -0.002990 
#    z 0.023660 -0.002990 1.840320 
# 
# From -- ./inp_files/529543.got.cif
#   From: 2010.05.17/outbox.cif.g08.bks.cpg/sg2_265_cif.got.tgz:529543.got - 2010.06.03 11:33:40.
