data_PCOD9090717
_publ_section_title
;
Structure prediction by ZEFSAII (Michael W. Deem and Ramdas Pophale) SiO2 
 PCOD9090717
Probable space group: P -1
;
_chemical_formula_sum "Si O2"
_cell_formula_units_Z 12
_cell_length_a 9.857897
_cell_length_b 11.820927
_cell_length_c 11.443709
_cell_angle_alpha 50.698657
_cell_angle_beta 136.912450
_cell_angle_gamma 95.676047
_cell_volume 511.580897
_symmetry_space_group_name_H-M "P -1"
_symmetry_group_IT_number 2
_symmetry_cell_setting 'triclinic'
loop_
_space_group_symop_operation_xyz
x,y,z
-x,-y,-z
loop_
_atom_site_type_symbol
_atom_site_label
_atom_site_fract_x
_atom_site_fract_y
_atom_site_fract_z
Si Si1 0.867846 0.108610 0.693781
Si Si2 0.217917 0.512380 0.598303
Si Si3 0.002850 0.647240 0.830148
Si Si4 0.365404 0.362578 0.033973
Si Si5 0.633804 0.327439 0.794533
Si Si6 0.419732 0.012147 0.305628
O O1 0.877258 0.273411 0.624979
O O2 0.652260 0.212332 0.382117
O O3 0.259055 0.940472 0.259378
O O4 0.155904 0.896020 0.977097
O O5 0.397120 0.374892 0.690839
O O6 0.000000 0.500000 0.500000
O O7 0.391438 0.428092 0.883673
O O8 0.140476 0.546645 0.858115
O O9 0.192030 0.661272 0.013515
O O10 0.690479 0.859256 0.497662
O O11 0.000000 0.500000 0.000000
O O12 0.279299 0.236545 0.040908
O O13 0.500000 0.500000 0.500000
O O14 0.500000 0.000000 0.500000
#
# Coordination Sequence:
#
# PCOD9090717 Si02
#       6
#     2   2   2   2   2   2
#     4  11  23  47  74 104 137 192 242 282 353 422
#     4  12  30  49  67 104 152 189 228 302 362 409
#     4  12  20  40  74 107 136 179 235 287 347 419
#     4  11  23  44  75 104 142 180 239 294 346 421
#     4  12  28  46  72 107 143 187 239 290 356 428
#     4  10  19  38  73 110 135 171 239 294 340 413
#
# _framework density 23.456700999999999
#
# number of rings (size 3 to 8) (size 9 to 14) (size 15 to 20)
#    0.000    0.667    8.333    0.500    4.667    3.333 
#    3.000    0.000    0.000    0.000    0.000    0.000 
#    0.000    0.000    0.000    0.000    0.000    0.000 
#
# Total GULP energy -67199.905578 kJ/mol
# GULP energy per Si atom -5599.992131 kJ/mol
# Density = 2.340331 g / cm^3
# Si number density = 23.456701 Si / 1000 Ang^3
#
#
#
# Elastic Constant Matrix: (Units=GPa)
#
#
# Indices 1 2 3 4 5 6 
#
# 1 163.0439 51.2584 73.3294 -14.5374 16.6203 -12.1535
# 2 51.2584 124.7655 63.4857 -19.0527 16.9544 7.5501
# 3 73.3294 63.4857 109.3482 -21.7898 7.5478 -18.5234
# 4 -14.5374 -19.0527 -21.7898 40.2618 -5.3095 10.6580
# 5 16.6203 16.9544 7.5478 -5.3095 52.4510 -2.9846
# 6 -12.1535 7.5501 -18.5234 10.6580 -2.9846 63.1079
#
#
#
# Elastic Compliance Matrix: (Units=1/GPa)
#
#
# Indices 1 2 3 4 5 6 
#
# 1 0.009023 -0.000685 -0.005572 -0.000369 -0.001865 0.000158
# 2 -0.000685 0.012980 -0.007047 0.002853 -0.002925 -0.004373
# 3 -0.005572 -0.007047 0.018339 0.003619 0.002035 0.004638
# 4 -0.000369 0.002853 0.003619 0.029319 0.001401 -0.004235
# 5 -0.001865 -0.002925 0.002035 0.001401 0.020526 0.001322
# 6 0.000158 -0.004373 0.004638 -0.004235 0.001322 0.018539
#
#
# Mechanical properties :
#
#
# Convention : Reuss Voigt Hill
#
# Bulk Modulus (GPa) = 72.80283 85.92275 79.36279
# Shear Modulus (GPa) = 35.73667 45.10309 40.41988
#
# Velocity S-wave (km/s) = 3.90746 4.38976 4.15561
# Velocity P-wave (km/s) = 7.17371 7.89957 7.54537
#
# Compressibility (1/GPa) = 0.01373573
#
# Stress axis : x y z
#
# Youngs Moduli (GPa) = 110.82313 77.04123 54.52732
#
# Poissons Ratio (x) = 0.05275 0.30381
# Poissons Ratio (y) = 0.07588 0.38427
# Poissons Ratio (z) = 0.61747 0.54293
#
# Static dielectric constant tensor:
#      x y z
#    x 1.958610 -0.062120 -0.228130 
#    y -0.062120 2.029970 0.309540 
#    z -0.228130 0.309540 2.563380 
# 
# From -- ./inp_files/425520.got.cif
#   From: 2010.05.17/outbox.cif.g08.bks.cpg/sg2_213_cif.got.tgz:425520.got - 2010.06.03 11:33:40.
