data_PCOD9090186
_publ_section_title
;
Structure prediction by ZEFSAII (Michael W. Deem and Ramdas Pophale) SiO2 
 PCOD9090186
Probable space group: P -1
;
_chemical_formula_sum "Si O2"
_cell_formula_units_Z 16
_cell_length_a 14.138658
_cell_length_b 9.279693
_cell_length_c 11.678061
_cell_angle_alpha 71.633309
_cell_angle_beta 134.757774
_cell_angle_gamma 129.721979
_cell_volume 810.916887
_symmetry_space_group_name_H-M "P -1"
_symmetry_group_IT_number 2
_symmetry_cell_setting 'triclinic'
loop_
_space_group_symop_operation_xyz
x,y,z
-x,-y,-z
loop_
_atom_site_type_symbol
_atom_site_label
_atom_site_fract_x
_atom_site_fract_y
_atom_site_fract_z
Si Si1 0.294763 0.933375 0.104676
Si Si2 0.304395 0.527437 0.863827
Si Si3 0.039494 0.709467 0.483852
Si Si4 0.562209 0.659763 0.843784
Si Si5 0.165979 0.632815 0.253934
Si Si6 0.835897 0.279034 0.183492
Si Si7 0.454502 0.615010 0.504890
Si Si8 0.356497 0.958355 0.528660
O O1 0.163373 0.740351 0.115093
O O2 0.293115 0.108983 0.090525
O O3 0.478895 0.001059 0.283589
O O4 0.264467 0.881834 0.958517
O O5 0.433875 0.620804 0.844819
O O6 0.275903 0.672585 0.859039
O O7 0.127311 0.342910 0.704963
O O8 0.369385 0.455592 0.031909
O O9 0.079088 0.767302 0.635770
O O10 0.205229 0.864089 0.513801
O O11 0.000000 0.500000 0.500000
O O12 0.474036 0.597116 0.660965
O O13 0.267650 0.549806 0.335093
O O14 0.285333 0.802288 0.406067
O O15 0.987814 0.475235 0.200321
O O16 0.500000 0.500000 0.500000
O O17 0.583673 0.840017 0.522359
#
# Coordination Sequence:
#
# PCOD9090186 Si02
#       8
#     2   2   2   2   2   2   2   2
#     4  11  22  38  61  97 123 156 209 256 301 360
#     4  10  23  39  64  87 123 166 203 249 311 368
#     4  10  19  38  64  90 117 159 208 249 303 365
#     4  11  22  41  61  88 129 164 197 255 314 364
#     4  11  20  42  66  90 122 164 208 250 303 369
#     4  11  23  39  66  92 123 159 208 257 302 361
#     4  11  24  41  64  92 124 167 207 251 308 367
#     4  11  20  40  69  89 119 165 210 250 302 370
#
# _framework density 19.730751999999999
#
# number of rings (size 3 to 8) (size 9 to 14) (size 15 to 20)
#    0.000    1.250    5.000    3.375    3.500    2.000 
#    4.500    1.875    0.000    0.000    0.000    0.000 
#    0.000    0.000    0.000    0.000    0.000    0.000 
#
# Total GULP energy -89388.819087 kJ/mol
# GULP energy per Si atom -5586.801193 kJ/mol
# Density = 1.968584 g / cm^3
# Si number density = 19.730752 Si / 1000 Ang^3
#
#
#
# Elastic Constant Matrix: (Units=GPa)
#
#
# Indices 1 2 3 4 5 6 
#
# 1 47.9608 7.9535 -1.2997 -4.4697 -8.7653 3.1402
# 2 7.9535 43.3214 1.8116 -13.0728 2.7849 4.7363
# 3 -1.2997 1.8116 43.7715 -2.8193 -23.7623 4.1049
# 4 -4.4697 -13.0728 -2.8193 28.7836 1.3156 -8.9973
# 5 -8.7653 2.7849 -23.7623 1.3156 34.5956 4.6942
# 6 3.1402 4.7363 4.1049 -8.9973 4.6942 39.3664
#
#
#
# Elastic Compliance Matrix: (Units=1/GPa)
#
#
# Indices 1 2 3 4 5 6 
#
# 1 0.024539 -0.005096 0.008235 0.000599 0.012747 -0.003586
# 2 -0.005096 0.028271 -0.004652 0.012301 -0.007391 0.001183
# 3 0.008235 -0.004652 0.041452 -0.000883 0.032112 -0.008451
# 4 0.000599 0.012301 -0.000883 0.043341 -0.004312 0.008984
# 5 0.012747 -0.007391 0.032112 -0.004312 0.056470 -0.011195
# 6 -0.003586 0.001183 -0.008451 0.008984 -0.011195 0.029816
#
#
# Mechanical properties :
#
#
# Convention : Reuss Voigt Hill
#
# Bulk Modulus (GPa) = 10.96083 16.88716 13.92400
# Shear Modulus (GPa) = 19.43055 28.98832 24.20943
#
# Velocity S-wave (km/s) = 3.14153 3.83717 3.50664
# Velocity P-wave (km/s) = 4.32738 5.31123 4.84435
#
# Compressibility (1/GPa) = 0.09123396
#
# Stress axis : x y z
#
# Youngs Moduli (GPa) = 40.75151 35.37186 24.12456
#
# Poissons Ratio (x) = 0.18026 -0.19866
# Poissons Ratio (y) = 0.20768 0.11223
# Poissons Ratio (z) = -0.33557 0.16456
#
# Static dielectric constant tensor:
#      x y z
#    x 1.699900 0.013270 -0.004190 
#    y 0.013270 1.693160 -0.000340 
#    z -0.004190 -0.000340 1.709840 
# 
# From -- ./inp_files/206995.got.cif
#   From: 2010.05.17/outbox.cif.g08.bks.cpg/sg2_104_cif.got.tgz:206995.got - 2010.06.03 11:33:40.
