data_PCOD9090679
_publ_section_title
;
Structure prediction by ZEFSAII (Michael W. Deem and Ramdas Pophale) SiO2 
 PCOD9090679
Probable space group: P -1
;
_chemical_formula_sum "Si O2"
_cell_formula_units_Z 14
_cell_length_a 20.138279
_cell_length_b 11.364004
_cell_length_c 9.237048
_cell_angle_alpha 54.252084
_cell_angle_beta 152.486838
_cell_angle_gamma 141.040944
_cell_volume 572.126970
_symmetry_space_group_name_H-M "P -1"
_symmetry_group_IT_number 2
_symmetry_cell_setting 'triclinic'
loop_
_space_group_symop_operation_xyz
x,y,z
-x,-y,-z
loop_
_atom_site_type_symbol
_atom_site_label
_atom_site_fract_x
_atom_site_fract_y
_atom_site_fract_z
Si Si1 0.371499 0.004886 0.120352
Si Si2 0.010388 0.855513 0.706587
Si Si3 0.600029 0.435213 0.156255
Si Si4 0.412772 0.725322 0.296243
Si Si5 0.626461 0.617071 0.515923
Si Si6 0.863352 0.018442 0.823969
Si Si7 0.275374 0.845585 0.744533
O O1 0.540073 0.242274 0.250734
O O2 0.578489 0.130286 0.684667
O O3 0.215498 0.932874 0.992908
O O4 0.264545 0.935949 0.803346
O O5 0.832653 0.628907 0.473840
O O6 0.000000 0.000000 0.500000
O O7 0.005581 0.884104 0.847582
O O8 0.500000 0.500000 0.000000
O O9 0.505536 0.384327 0.850356
O O10 0.344147 0.527586 0.375835
O O11 0.635189 0.865664 0.562259
O O12 0.264877 0.676761 0.915109
O O13 0.500000 0.500000 0.500000
O O14 0.824261 0.842863 0.780166
O O15 0.865783 0.171242 0.628850
O O16 0.500000 0.000000 0.000000
#
# Coordination Sequence:
#
# PCOD9090679 Si02
#       7
#     2   2   2   2   2   2   2
#     4  10  22  43  72  95 142 182 220 283 349 397
#     4  12  25  43  66 105 142 174 231 286 338 412
#     4  12  25  45  69  99 137 182 229 279 351 407
#     4   8  18  35  69  98 130 180 226 270 349 391
#     4  10  19  38  71 101 128 183 230 279 336 408
#     4  10  19  38  69  99 135 179 231 280 333 407
#     4   8  16  38  66  98 129 179 223 273 339 402
#
# _framework density 24.470092000000001
#
# number of rings (size 3 to 8) (size 9 to 14) (size 15 to 20)
#    0.857    1.143    2.857    1.714    0.000    0.571 
#    0.000    5.000    0.000   15.429    0.000    0.000 
#    0.000    0.000    0.000    0.000    0.000    0.000 
#
# Total GULP energy -78167.068364 kJ/mol
# GULP energy per Si atom -5583.362026 kJ/mol
# Density = 2.441440 g / cm^3
# Si number density = 24.470092 Si / 1000 Ang^3
#
#
#
# Elastic Constant Matrix: (Units=GPa)
#
#
# Indices 1 2 3 4 5 6 
#
# 1 -22.5828 19.0819 -79.9228 7.9691 -58.6454 3.7065
# 2 19.0819 197.1240 66.4552 1.4993 -15.5170 1.5633
# 3 -79.9228 66.4552 65.2260 4.0108 -56.1373 21.2360
# 4 7.9691 1.4993 4.0108 47.2941 5.7448 1.8557
# 5 -58.6454 -15.5170 -56.1373 5.7448 20.4562 -5.7528
# 6 3.7065 1.5633 21.2360 1.8557 -5.7528 41.3539
#
#
#
# Elastic Compliance Matrix: (Units=1/GPa)
#
#
# Indices 1 2 3 4 5 6 
#
# 1 0.002554 0.001149 -0.006275 0.001076 -0.008858 0.001669
# 2 0.001149 0.005805 -0.001653 -0.000725 0.003667 0.001069
# 3 -0.006275 -0.001653 0.005448 0.001439 -0.005541 -0.003008
# 4 0.001076 -0.000725 0.001439 0.020917 0.000122 -0.001730
# 5 -0.008858 0.003667 -0.005541 0.000122 0.012503 0.005235
# 6 0.001669 0.001069 -0.003008 -0.001730 0.005235 0.026342
#
#
# Mechanical properties :
#
#
# Convention : Reuss Voigt Hill
#
# Bulk Modulus (GPa) = 3983.32450 27.88843 2005.60647
# Shear Modulus (GPa) = 57.33347 37.43103 47.38225
#
# Velocity S-wave (km/s) = 4.84571 3.91534 4.40515
# Velocity P-wave (km/s) = 40.77592 5.64460 29.10788
#
# Compressibility (1/GPa) = 0.00025105
#
# Stress axis : x y z
#
# Youngs Moduli (GPa) = 391.51587 172.27923 183.54242
#
# Poissons Ratio (x) = -0.19803 1.15170
# Poissons Ratio (y) = -0.45003 0.30332
# Poissons Ratio (z) = 2.45670 0.28471
#
# Static dielectric constant tensor:
#      x y z
#    x 2.092060 -0.042320 0.018290 
#    y -0.042320 1.822720 0.032740 
#    z 0.018290 0.032740 2.126060 
# 
# From -- ./inp_files/346070.got.cif
#   From: 2010.05.17/outbox.cif.g08.bks.cpg/sg2_174_cif.got.tgz:346070.got - 2010.06.03 11:33:40.
