data_PCOD9090989
_publ_section_title
;
Structure prediction by ZEFSAII (Michael W. Deem and Ramdas Pophale) SiO2 
 PCOD9090989
Probable space group: P -1
;
_chemical_formula_sum "Si O2"
_cell_formula_units_Z 16
_cell_length_a 11.365860
_cell_length_b 18.380072
_cell_length_c 8.882672
_cell_angle_alpha 55.227171
_cell_angle_beta 90.860857
_cell_angle_gamma 42.964388
_cell_volume 659.902175
_symmetry_space_group_name_H-M "P -1"
_symmetry_group_IT_number 2
_symmetry_cell_setting 'triclinic'
loop_
_space_group_symop_operation_xyz
x,y,z
-x,-y,-z
loop_
_atom_site_type_symbol
_atom_site_label
_atom_site_fract_x
_atom_site_fract_y
_atom_site_fract_z
Si Si1 0.308096 0.385175 0.622390
Si Si2 0.730912 0.946232 0.756103
Si Si3 0.888269 0.183757 0.939770
Si Si4 0.844586 0.374554 0.107392
Si Si5 0.348771 0.325794 0.152055
Si Si6 0.337271 0.739705 0.444755
Si Si7 0.410479 0.440370 0.826926
Si Si8 0.725332 0.752707 0.030993
O O1 0.520524 0.288267 0.634807
O O2 0.257865 0.486033 0.642880
O O3 0.409627 0.222269 0.881133
O O4 0.033350 0.555974 0.324961
O O5 0.952673 0.833352 0.009036
O O6 0.497104 0.176831 0.465674
O O7 0.620821 0.923279 0.811942
O O8 0.897934 0.833421 0.734054
O O9 0.784716 0.248013 0.690809
O O10 0.641354 0.338438 0.868497
O O11 0.085220 0.966839 0.235000
O O12 0.886613 0.450580 0.055539
O O13 0.573003 0.554234 0.786023
O O14 0.773695 0.384158 0.259556
O O15 0.528329 0.279806 0.124396
O O16 0.279536 0.298743 0.062105
#
# Coordination Sequence:
#
# PCOD9090989 Si02
#       8
#     2   2   2   2   2   2   2   2
#     4   9  18  39  64  84 120 161 208 243 297 367
#     4  12  22  36  62  95 123 157 204 246 302 358
#     4  10  21  37  66  86 124 159 196 254 300 361
#     4  10  21  38  61  91 120 161 199 244 304 354
#     4   9  21  40  60  87 127 156 202 249 291 361
#     4  10  19  39  62  90 115 161 202 242 307 356
#     4   8  19  40  62  87 120 166 194 244 309 350
#     4  10  20  37  63  85 121 168 193 254 303 344
#
# _framework density 24.246019
#
# number of rings (size 3 to 8) (size 9 to 14) (size 15 to 20)
#    0.750    1.500    2.500    0.375    0.000    3.500 
#    0.000    0.625    8.250    0.000    0.000    0.000 
#    0.000    0.000    0.000    0.000    0.000    0.000 
#
# Total GULP energy -89366.478543 kJ/mol
# GULP energy per Si atom -5585.404909 kJ/mol
# Density = 2.419083 g / cm^3
# Si number density = 24.246019 Si / 1000 Ang^3
#
#
#
# Elastic Constant Matrix: (Units=GPa)
#
#
# Indices 1 2 3 4 5 6 
#
# 1 79.0624 13.3730 12.5313 22.1267 8.3156 26.6548
# 2 13.3730 79.1220 9.1023 10.4351 0.9705 8.5600
# 3 12.5313 9.1023 41.8849 17.8339 4.3172 -2.4553
# 4 22.1267 10.4351 17.8339 34.7889 10.0308 6.0748
# 5 8.3156 0.9705 4.3172 10.0308 24.2694 4.0112
# 6 26.6548 8.5600 -2.4553 6.0748 4.0112 27.6816
#
#
#
# Elastic Compliance Matrix: (Units=1/GPa)
#
#
# Indices 1 2 3 4 5 6 
#
# 1 0.022546 -0.000001 -0.004254 -0.008614 -0.000072 -0.020186
# 2 -0.000001 0.013673 -0.002217 -0.002730 0.001648 -0.004064
# 3 -0.004254 -0.002217 0.032836 -0.015470 0.000273 0.011049
# 4 -0.008614 -0.002730 -0.015470 0.046968 -0.013504 -0.000584
# 5 -0.000072 0.001648 0.000273 -0.013504 0.047410 -0.004323
# 6 -0.020186 -0.004064 0.011049 -0.000584 -0.004323 0.058554
#
#
# Mechanical properties :
#
#
# Convention : Reuss Voigt Hill
#
# Bulk Modulus (GPa) = 17.82113 30.00918 23.91515
# Shear Modulus (GPa) = 19.71335 28.35215 24.03275
#
# Velocity S-wave (km/s) = 2.85451 3.42329 3.15175
# Velocity P-wave (km/s) = 4.26970 5.29425 4.80933
#
# Compressibility (1/GPa) = 0.05611316
#
# Stress axis : x y z
#
# Youngs Moduli (GPa) = 44.35312 73.13490 30.45437
#
# Poissons Ratio (x) = 0.00004 0.12955
# Poissons Ratio (y) = 0.00002 0.06752
# Poissons Ratio (z) = 0.18867 0.16214
#
# Static dielectric constant tensor:
#      x y z
#    x 1.981830 0.027270 -0.027590 
#    y 0.027270 1.942120 0.020550 
#    z -0.027590 0.020550 1.932120 
# 
# From -- ./inp_files/279222.got.cif
#   From: 2010.05.17/outbox.cif.g08.bks.cpg/sg2_140_cif.got.tgz:279222.got - 2010.06.03 11:33:40.
