data_PCOD9090627
_publ_section_title
;
Structure prediction by ZEFSAII (Michael W. Deem and Ramdas Pophale) SiO2 
 PCOD9090627
Probable space group: P -1
;
_chemical_formula_sum "Si O2"
_cell_formula_units_Z 16
_cell_length_a 17.650029
_cell_length_b 7.563353
_cell_length_c 11.137913
_cell_angle_alpha 66.621579
_cell_angle_beta 130.446228
_cell_angle_gamma 75.437716
_cell_volume 711.552324
_symmetry_space_group_name_H-M "P -1"
_symmetry_group_IT_number 2
_symmetry_cell_setting 'triclinic'
loop_
_space_group_symop_operation_xyz
x,y,z
-x,-y,-z
loop_
_atom_site_type_symbol
_atom_site_label
_atom_site_fract_x
_atom_site_fract_y
_atom_site_fract_z
Si Si1 0.610952 0.059702 0.980735
Si Si2 0.897679 0.802150 0.252252
Si Si3 0.840337 0.991831 0.886700
Si Si4 0.654777 0.966851 0.570465
Si Si5 0.318430 0.458481 0.689912
Si Si6 0.368391 0.202714 0.151330
Si Si7 0.118802 0.757537 0.595949
Si Si8 0.835686 0.416851 0.751843
O O1 0.473389 0.321237 0.844500
O O2 0.568483 0.052467 0.803686
O O3 0.748077 0.007622 0.118755
O O4 0.657833 0.790216 0.162703
O O5 0.000000 0.500000 0.500000
O O6 0.007598 0.823520 0.367325
O O7 0.858350 0.831558 0.065027
O O8 0.720448 0.076314 0.651136
O O9 0.807717 0.251727 0.832695
O O10 0.993227 0.785836 0.030217
O O11 0.654032 0.842568 0.725967
O O12 0.756566 0.707908 0.652438
O O13 0.492229 0.191867 0.290725
O O14 0.234508 0.696212 0.642615
O O15 0.225378 0.546537 0.452468
O O16 0.222430 0.481274 0.862049
O O17 0.000000 0.000000 0.500000
#
# Coordination Sequence:
#
# PCOD9090627 Si02
#       8
#     2   2   2   2   2   2   2   2
#     4  10  19  38  68  93 123 170 228 275 324 395
#     4  12  20  41  68  96 124 174 232 272 325 402
#     4  11  24  40  63 100 139 173 231 276 335 408
#     4  11  22  41  65  96 137 178 222 273 337 411
#     4  10  20  40  65  91 130 170 214 272 339 396
#     4  10  21  39  65  96 128 172 226 269 336 402
#     4  11  24  41  67  93 130 170 216 284 335 392
#     4  11  23  40  65  97 137 182 217 281 343 396
#
# _framework density 22.486048
#
# number of rings (size 3 to 8) (size 9 to 14) (size 15 to 20)
#    0.000    1.250    6.250    0.375    1.750    0.000 
#    2.250    6.250    0.000    0.000    0.000    0.000 
#    0.000    0.000    0.000    0.000    0.000    0.000 
#
# Total GULP energy -89214.177869 kJ/mol
# GULP energy per Si atom -5575.886117 kJ/mol
# Density = 2.243487 g / cm^3
# Si number density = 22.486048 Si / 1000 Ang^3
#
#
#
# Elastic Constant Matrix: (Units=GPa)
#
#
# Indices 1 2 3 4 5 6 
#
# 1 103.6863 27.2450 39.5426 -7.6589 29.6609 -21.0943
# 2 27.2450 47.0778 22.5175 -5.0588 10.5501 -17.8678
# 3 39.5426 22.5175 97.6406 12.5927 21.2319 -3.7906
# 4 -7.6589 -5.0588 12.5927 24.7719 -2.3236 8.9540
# 5 29.6609 10.5501 21.2319 -2.3236 52.9287 2.6781
# 6 -21.0943 -17.8678 -3.7906 8.9540 2.6781 36.9595
#
#
#
# Elastic Compliance Matrix: (Units=1/GPa)
#
#
# Indices 1 2 3 4 5 6 
#
# 1 0.015534 -0.002366 -0.004485 0.003484 -0.006631 0.006898
# 2 -0.002366 0.031060 -0.005508 0.003618 -0.003127 0.012451
# 3 -0.004485 -0.005508 0.015231 -0.010169 -0.002895 -0.000987
# 4 0.003484 0.003618 -0.010169 0.051379 0.004170 -0.010055
# 5 -0.006631 -0.003127 -0.002895 0.004170 0.025002 -0.008415
# 6 0.006898 0.012451 -0.000987 -0.010055 -0.008415 0.039957
#
#
# Mechanical properties :
#
#
# Convention : Reuss Voigt Hill
#
# Bulk Modulus (GPa) = 26.94930 47.44609 37.19769
# Shear Modulus (GPa) = 23.22855 33.53865 28.38360
#
# Velocity S-wave (km/s) = 3.21755 3.86623 3.55671
# Velocity P-wave (km/s) = 5.08079 6.40908 5.78320
#
# Compressibility (1/GPa) = 0.03710672
#
# Stress axis : x y z
#
# Youngs Moduli (GPa) = 64.37354 32.19545 65.65607
#
# Poissons Ratio (x) = 0.07618 0.29448
# Poissons Ratio (y) = 0.15233 0.36163
# Poissons Ratio (z) = 0.28872 0.17733
#
# Static dielectric constant tensor:
#      x y z
#    x 2.062330 -0.252510 -0.112560 
#    y -0.252510 2.358090 0.150480 
#    z -0.112560 0.150480 1.895830 
# 
# From -- ./inp_files/416964.got.cif
#   From: 2010.05.17/outbox.cif.g08.bks.cpg/sg2_209_cif.got.tgz:416964.got - 2010.06.03 11:33:40.
