data_PCOD9090041
_publ_section_title
;
Structure prediction by ZEFSAII (Michael W. Deem and Ramdas Pophale) SiO2 
 PCOD9090041
Probable space group: P -1
;
_chemical_formula_sum "Si O2"
_cell_formula_units_Z 14
_cell_length_a 9.367144
_cell_length_b 13.970233
_cell_length_c 9.840115
_cell_angle_alpha 128.907984
_cell_angle_beta 120.625170
_cell_angle_gamma 42.397099
_cell_volume 673.072806
_symmetry_space_group_name_H-M "P -1"
_symmetry_group_IT_number 2
_symmetry_cell_setting 'triclinic'
loop_
_space_group_symop_operation_xyz
x,y,z
-x,-y,-z
loop_
_atom_site_type_symbol
_atom_site_label
_atom_site_fract_x
_atom_site_fract_y
_atom_site_fract_z
Si Si1 0.029270 0.666612 0.795715
Si Si2 0.061438 0.718062 0.561860
Si Si3 0.939135 0.501795 0.815295
Si Si4 0.624527 0.999750 0.937373
Si Si5 0.389567 0.669921 0.034748
Si Si6 0.440335 0.707793 0.782384
Si Si7 0.383750 0.947966 0.315365
O O1 0.092465 0.620472 0.627321
O O2 0.050840 0.547732 0.808689
O O3 0.148326 0.734797 0.964269
O O4 0.787560 0.819070 0.815080
O O5 0.998106 0.661535 0.355330
O O6 0.285490 0.682063 0.612141
O O7 0.868706 0.901423 0.666423
O O8 0.681433 0.623330 0.778109
O O9 0.000000 0.500000 0.000000
O O10 0.479172 0.917613 0.182756
O O11 0.692411 0.103461 0.112392
O O12 0.500000 0.000000 0.000000
O O13 0.463052 0.652005 0.899125
O O14 0.500000 0.500000 0.000000
O O15 0.413095 0.790694 0.226523
O O16 0.500000 0.000000 0.500000
#
# Coordination Sequence:
#
# PCOD9090041 Si02
#       7
#     2   2   2   2   2   2   2
#     4  10  21  39  62  90 118 166 212 249 307 376
#     4  10  23  41  62  88 125 165 213 257 305 375
#     4  12  24  37  63  92 129 164 203 262 319 365
#     4  10  19  38  63  89 118 160 206 256 303 370
#     4  10  21  39  63  92 127 164 206 257 312 373
#     4  10  21  40  63  90 123 165 210 254 313 369
#     4  10  23  39  64  94 125 164 210 261 311 365
#
# _framework density 20.800128000000001
#
# number of rings (size 3 to 8) (size 9 to 14) (size 15 to 20)
#    0.000    1.714    1.429    2.571    6.000    3.429 
#    2.571    1.429    0.000    6.000    0.000    0.000 
#    0.000    0.000    0.000    0.000    0.000    0.000 
#
# Total GULP energy -77973.496935 kJ/mol
# GULP energy per Si atom -5569.535495 kJ/mol
# Density = 2.075279 g / cm^3
# Si number density = 20.800128 Si / 1000 Ang^3
#
#
#
# Elastic Constant Matrix: (Units=GPa)
#
#
# Indices 1 2 3 4 5 6 
#
# 1 105.6582 19.3493 42.2531 -4.2271 11.6397 12.3564
# 2 19.3493 74.6592 27.1602 7.8024 6.8468 20.5815
# 3 42.2531 27.1602 121.8846 6.2566 22.2675 19.7075
# 4 -4.2271 7.8024 6.2566 20.7819 -0.8755 3.8751
# 5 11.6397 6.8468 22.2675 -0.8755 28.0846 4.4406
# 6 12.3564 20.5815 19.7075 3.8751 4.4406 35.8183
#
#
#
# Elastic Compliance Matrix: (Units=1/GPa)
#
#
# Indices 1 2 3 4 5 6 
#
# 1 0.011617 -0.001695 -0.003383 0.004233 -0.001356 -0.001462
# 2 -0.001695 0.017146 -0.001504 -0.004934 -0.001212 -0.007755
# 3 -0.003383 -0.001504 0.011694 -0.003354 -0.007108 -0.003159
# 4 0.004233 -0.004934 -0.003354 0.052578 0.004220 -0.002991
# 5 -0.001356 -0.001212 -0.007108 0.004220 0.042331 -0.000629
# 6 -0.001462 -0.007755 -0.003159 -0.002991 -0.000629 0.035019
#
#
# Mechanical properties :
#
#
# Convention : Reuss Voigt Hill
#
# Bulk Modulus (GPa) = 36.63991 53.30301 44.97146
# Shear Modulus (GPa) = 25.95423 31.16624 28.56024
#
# Velocity S-wave (km/s) = 3.53624 3.87508 3.70953
# Velocity P-wave (km/s) = 5.85891 6.76044 6.32575
#
# Compressibility (1/GPa) = 0.02729264
#
# Stress axis : x y z
#
# Youngs Moduli (GPa) = 86.07723 58.32418 85.51488
#
# Poissons Ratio (x) = 0.09887 0.28927
# Poissons Ratio (y) = 0.14592 0.12863
# Poissons Ratio (z) = 0.29117 0.08773
#
# Static dielectric constant tensor:
#      x y z
#    x 1.782390 -0.119870 0.005690 
#    y -0.119870 1.583770 -0.033460 
#    z 0.005690 -0.033460 1.787480 
# 
# From -- ./inp_files/190215.got.cif
#   From: 2010.05.17/outbox.cif.g08.bks.cpg/sg2_96_cif.got.tgz:190215.got - 2010.06.03 11:33:40.
