data_PCOD9090848
_publ_section_title
;
Structure prediction by ZEFSAII (Michael W. Deem and Ramdas Pophale) SiO2 
 PCOD9090848
Probable space group: P -1
;
_chemical_formula_sum "Si O2"
_cell_formula_units_Z 14
_cell_length_a 7.734137
_cell_length_b 12.239155
_cell_length_c 11.359584
_cell_angle_alpha 49.038199
_cell_angle_beta 40.044202
_cell_angle_gamma 58.232173
_cell_volume 521.753422
_symmetry_space_group_name_H-M "P -1"
_symmetry_group_IT_number 2
_symmetry_cell_setting 'triclinic'
loop_
_space_group_symop_operation_xyz
x,y,z
-x,-y,-z
loop_
_atom_site_type_symbol
_atom_site_label
_atom_site_fract_x
_atom_site_fract_y
_atom_site_fract_z
Si Si1 0.246813 0.495609 0.968503
Si Si2 0.162850 0.801707 0.912663
Si Si3 0.890073 0.725804 0.309550
Si Si4 0.359624 0.924192 0.490802
Si Si5 0.747001 0.421350 0.589067
Si Si6 0.411067 0.166975 0.913061
Si Si7 0.850904 0.795966 0.722619
O O1 0.258122 0.645999 0.923414
O O2 0.520692 0.469936 0.770670
O O3 0.175784 0.368559 0.185665
O O4 0.000000 0.500000 0.000000
O O5 0.278483 0.908440 0.680978
O O6 0.150329 0.796710 0.063688
O O7 0.841338 0.823163 0.047561
O O8 0.644769 0.841714 0.376031
O O9 0.811182 0.576083 0.390744
O O10 0.999010 0.657691 0.423361
O O11 0.144064 0.843803 0.576403
O O12 0.300758 0.089304 0.364184
O O13 0.616918 0.287560 0.684359
O O14 0.298796 0.205379 0.073232
O O15 0.500000 0.000000 0.000000
#
# Coordination Sequence:
#
# PCOD9090848 Si02
#       7
#     2   2   2   2   2   2   2
#     4  11  17  40  63  90 124 163 211 262 307 359
#     4  11  22  37  67  92 119 166 216 259 301 371
#     4  11  23  40  63  96 129 167 202 253 324 378
#     4  10  19  39  60  88 131 162 202 264 307 369
#     4  10  22  41  63  91 133 165 201 261 320 370
#     4  10  20  39  63  95 122 160 217 259 303 370
#     4   9  19  34  64  88 124 169 198 263 322 347
#
# _framework density 26.832598000000001
#
# number of rings (size 3 to 8) (size 9 to 14) (size 15 to 20)
#    0.000    1.714    5.714    0.857    0.000    1.143 
#    7.714    6.429    0.000    6.857    0.000    0.000 
#    0.000    0.000    0.000    0.000    0.000    0.000 
#
# Total GULP energy -78375.371877 kJ/mol
# GULP energy per Si atom -5598.240848 kJ/mol
# Density = 2.677153 g / cm^3
# Si number density = 26.832598 Si / 1000 Ang^3
#
#
#
# Elastic Constant Matrix: (Units=GPa)
#
#
# Indices 1 2 3 4 5 6 
#
# 1 87.5359 27.5802 30.3757 7.6771 0.9931 -31.6553
# 2 27.5802 138.4856 55.3939 -19.3737 2.0778 -31.7924
# 3 30.3757 55.3939 164.1699 -19.5697 14.2530 -15.2368
# 4 7.6771 -19.3737 -19.5697 51.2663 -3.4360 5.2197
# 5 0.9931 2.0778 14.2530 -3.4360 46.1060 -4.9709
# 6 -31.6553 -31.7924 -15.2368 5.2197 -4.9709 39.0258
#
#
#
# Elastic Compliance Matrix: (Units=1/GPa)
#
#
# Indices 1 2 3 4 5 6 
#
# 1 0.018031 0.000119 -0.002778 -0.005084 0.001652 0.014529
# 2 0.000119 0.010206 -0.002646 0.002178 0.001300 0.007252
# 3 -0.002778 -0.002646 0.007802 0.002444 -0.002264 -0.001977
# 4 -0.005084 0.002178 0.002444 0.022497 0.000464 -0.004345
# 5 0.001652 0.001300 -0.002264 0.000464 0.022799 0.004357
# 6 0.014529 0.007252 -0.001977 -0.004345 0.004357 0.043681
#
#
# Mechanical properties :
#
#
# Convention : Reuss Voigt Hill
#
# Bulk Modulus (GPa) = 39.32160 68.54346 53.93253
# Shear Modulus (GPa) = 34.69780 45.73574 40.21677
#
# Velocity S-wave (km/s) = 3.59990 4.13302 3.87564
# Velocity P-wave (km/s) = 5.65378 6.95529 6.33803
#
# Compressibility (1/GPa) = 0.02543132
#
# Stress axis : x y z
#
# Youngs Moduli (GPa) = 55.45892 97.98630 128.16757
#
# Poissons Ratio (x) = -0.01171 0.35600
# Poissons Ratio (y) = -0.00663 0.33911
# Poissons Ratio (z) = 0.15404 0.25925
#
# Static dielectric constant tensor:
#      x y z
#    x 2.189710 0.054930 -0.052670 
#    y 0.054930 2.230080 -0.070210 
#    z -0.052670 -0.070210 2.213900 
# 
# From -- ./inp_files/391919.got.cif
#   From: 2010.05.17/outbox.cif.g08.bks.cpg/sg2_196_cif.got.tgz:391919.got - 2010.06.03 11:33:40.
