data_PCOD9090812
_publ_section_title
;
Structure prediction by ZEFSAII (Michael W. Deem and Ramdas Pophale) SiO2 
 PCOD9090812
Probable space group: P -1
;
_chemical_formula_sum "Si O2"
_cell_formula_units_Z 16
_cell_length_a 9.699409
_cell_length_b 14.783169
_cell_length_c 9.711386
_cell_angle_alpha 49.141576
_cell_angle_beta 103.981442
_cell_angle_gamma 73.965866
_cell_volume 823.873243
_symmetry_space_group_name_H-M "P -1"
_symmetry_group_IT_number 2
_symmetry_cell_setting 'triclinic'
loop_
_space_group_symop_operation_xyz
x,y,z
-x,-y,-z
loop_
_atom_site_type_symbol
_atom_site_label
_atom_site_fract_x
_atom_site_fract_y
_atom_site_fract_z
Si Si1 0.370937 0.813691 0.882224
Si Si2 0.069716 0.225822 0.973651
Si Si3 0.900414 0.059725 0.086715
Si Si4 0.625507 0.849046 0.094276
Si Si5 0.156599 0.471523 0.474216
Si Si6 0.565535 0.495340 0.365932
Si Si7 0.636970 0.034508 0.540998
Si Si8 0.708500 0.172012 0.657729
O O1 0.184953 0.918998 0.808725
O O2 0.359397 0.865159 0.673477
O O3 0.505797 0.836057 0.969745
O O4 0.438162 0.645827 0.098400
O O5 0.945312 0.176564 0.955846
O O6 0.180396 0.126877 0.229601
O O7 0.212226 0.178713 0.931659
O O8 0.943409 0.401661 0.791072
O O9 0.753801 0.104263 0.890960
O O10 0.091490 0.905108 0.272484
O O11 0.714746 0.701739 0.358487
O O12 0.500000 0.000000 0.000000
O O13 0.261901 0.511324 0.556783
O O14 0.000000 0.500000 0.500000
O O15 0.500000 0.500000 0.500000
O O16 0.604906 0.347364 0.458166
O O17 0.615838 0.117259 0.597369
O O18 0.500000 0.000000 0.500000
#
# Coordination Sequence:
#
# PCOD9090812 Si02
#       8
#     2   2   2   2   2   2   2   2
#     4  11  23  38  61  92 124 165 204 252 310 375
#     4  10  19  39  60  82 122 162 196 255 312 357
#     4  10  21  36  63  94 116 154 212 258 308 359
#     4  10  22  33  59  91 121 155 210 256 299 355
#     4   9  19  33  55  88 117 155 195 251 308 350
#     4  11  20  38  63  95 125 152 206 268 308 358
#     4  11  24  41  60  89 131 171 205 249 313 382
#     4  10  22  37  65  90 124 163 204 255 318 359
#
# _framework density 19.420463999999999
#
# number of rings (size 3 to 8) (size 9 to 14) (size 15 to 20)
#    0.000    1.750    3.750    0.000    5.250    2.500 
#    0.000    0.000    0.000    2.250    0.000    0.000 
#    0.000    0.000    0.000    0.000    0.000    0.000 
#
# Total GULP energy -89179.867092 kJ/mol
# GULP energy per Si atom -5573.741693 kJ/mol
# Density = 1.937626 g / cm^3
# Si number density = 19.420464 Si / 1000 Ang^3
#
#
#
# Elastic Constant Matrix: (Units=GPa)
#
#
# Indices 1 2 3 4 5 6 
#
# 1 74.4204 24.3362 2.2222 9.8922 -3.7990 8.9915
# 2 24.3362 89.8554 52.7947 -18.7319 -2.2200 14.6443
# 3 2.2222 52.7947 144.7813 -22.0442 -12.0564 6.1433
# 4 9.8922 -18.7319 -22.0442 33.0316 2.8994 1.0274
# 5 -3.7990 -2.2200 -12.0564 2.8994 25.3398 2.3289
# 6 8.9915 14.6443 6.1433 1.0274 2.3289 26.1988
#
#
#
# Elastic Compliance Matrix: (Units=1/GPa)
#
#
# Indices 1 2 3 4 5 6 
#
# 1 0.017172 -0.006656 0.001324 -0.008289 0.003799 -0.002496
# 2 -0.006656 0.019237 -0.005296 0.009798 -0.002272 -0.007409
# 3 0.001324 -0.005296 0.009560 0.002636 0.004000 -0.000195
# 4 -0.008289 0.009798 0.002636 0.040507 -0.003348 -0.004541
# 5 0.003799 -0.002272 0.004000 -0.003348 0.042545 -0.004622
# 6 -0.002496 -0.007409 -0.000195 -0.004541 -0.004622 0.043803
#
#
# Mechanical properties :
#
#
# Convention : Reuss Voigt Hill
#
# Bulk Modulus (GPa) = 40.46410 51.97368 46.21889
# Shear Modulus (GPa) = 24.71369 32.22762 28.47066
#
# Velocity S-wave (km/s) = 3.57116 4.07808 3.83301
# Velocity P-wave (km/s) = 6.15511 6.99962 6.59090
#
# Compressibility (1/GPa) = 0.02471326
#
# Stress axis : x y z
#
# Youngs Moduli (GPa) = 58.23595 51.98291 104.59862
#
# Poissons Ratio (x) = 0.34599 -0.13845
# Poissons Ratio (y) = 0.38761 0.55392
# Poissons Ratio (z) = -0.07708 0.27528
#
# Static dielectric constant tensor:
#      x y z
#    x 1.730860 0.006720 -0.004930 
#    y 0.006720 1.698580 -0.027710 
#    z -0.004930 -0.027710 1.731260 
# 
# From -- ./inp_files/205632.got.cif
#   From: 2010.05.17/outbox.cif.g08.bks.cpg/sg2_103_cif.got.tgz:205632.got - 2010.06.03 11:33:40.
