data_PCOD9090359
_publ_section_title
;
Structure prediction by ZEFSAII (Michael W. Deem and Ramdas Pophale) SiO2 
 PCOD9090359
Probable space group: P -1
;
_chemical_formula_sum "Si O2"
_cell_formula_units_Z 14
_cell_length_a 11.774166
_cell_length_b 13.382908
_cell_length_c 17.500682
_cell_angle_alpha 153.599517
_cell_angle_beta 29.753227
_cell_angle_gamma 150.893118
_cell_volume 547.780580
_symmetry_space_group_name_H-M "P -1"
_symmetry_group_IT_number 2
_symmetry_cell_setting 'triclinic'
loop_
_space_group_symop_operation_xyz
x,y,z
-x,-y,-z
loop_
_atom_site_type_symbol
_atom_site_label
_atom_site_fract_x
_atom_site_fract_y
_atom_site_fract_z
Si Si1 0.877602 0.327236 0.311510
Si Si2 0.611435 0.793131 0.884450
Si Si3 0.110129 0.275591 0.546771
Si Si4 0.431479 0.853753 0.187672
Si Si5 0.411549 0.652788 0.225974
Si Si6 0.821033 0.106352 0.352701
Si Si7 0.589432 0.294687 0.215761
O O1 0.886408 0.559545 0.416724
O O2 0.770819 0.245802 0.403740
O O3 0.171847 0.383272 0.189794
O O4 0.693131 0.099873 0.211437
O O5 0.450946 0.635358 0.798525
O O6 0.879435 0.789016 0.737789
O O7 0.445257 0.731529 0.016097
O O8 0.681250 0.079109 0.016147
O O9 0.310076 0.171512 0.334810
O O10 0.235173 0.469563 0.675438
O O11 0.820881 0.103777 0.621925
O O12 0.423994 0.688852 0.152406
O O13 0.295102 0.821488 0.456019
O O14 0.694835 0.810751 0.202547
#
# Coordination Sequence:
#
# PCOD9090359 Si02
#       7
#     2   2   2   2   2   2   2
#     4  10  19  38  65  93 118 158 206 255 301 364
#     4  11  22  41  61  95 128 163 196 265 313 355
#     4  10  21  44  66  91 117 169 214 249 293 379
#     4  10  21  37  64  90 125 156 207 251 313 361
#     4   9  20  38  63  94 122 166 204 247 305 379
#     4  10  21  39  64  92 128 159 205 253 311 369
#     4  10  23  42  66  85 128 166 210 253 303 359
#
# _framework density 25.557677999999999
#
# number of rings (size 3 to 8) (size 9 to 14) (size 15 to 20)
#    0.000    2.000    1.429    2.143    0.000    3.429 
#    2.571    2.143    3.143    0.000    0.000    0.000 
#    0.000    0.000    0.000    0.000    0.000    0.000 
#
# Total GULP energy -78216.696346 kJ/mol
# GULP energy per Si atom -5586.906882 kJ/mol
# Density = 2.549951 g / cm^3
# Si number density = 25.557678 Si / 1000 Ang^3
#
#
#
# Elastic Constant Matrix: (Units=GPa)
#
#
# Indices 1 2 3 4 5 6 
#
# 1 156.7963 33.1718 32.0761 -1.8174 38.3746 8.9617
# 2 33.1718 113.5497 15.5225 -8.8548 11.3442 10.6945
# 3 32.0761 15.5225 61.4596 -12.7042 12.3251 6.3558
# 4 -1.8174 -8.8548 -12.7042 29.5734 -3.0262 9.3834
# 5 38.3746 11.3442 12.3251 -3.0262 51.2898 -3.7813
# 6 8.9617 10.6945 6.3558 9.3834 -3.7813 43.4605
#
#
#
# Elastic Compliance Matrix: (Units=1/GPa)
#
#
# Indices 1 2 3 4 5 6 
#
# 1 0.008803 -0.001581 -0.003278 -0.001568 -0.005623 -0.001098
# 2 -0.001581 0.009972 -0.000487 0.003504 -0.000912 -0.002892
# 3 -0.003278 -0.000487 0.021096 0.009954 -0.002263 -0.004635
# 4 -0.001568 0.003504 0.009954 0.042569 -0.000309 -0.011212
# 5 -0.005623 -0.000912 -0.002263 -0.000309 0.024721 0.003932
# 6 -0.001098 -0.002892 -0.004635 -0.011212 0.003932 0.027388
#
#
# Mechanical properties :
#
#
# Convention : Reuss Voigt Hill
#
# Bulk Modulus (GPa) = 34.27188 54.81628 44.54408
# Shear Modulus (GPa) = 32.26467 41.60043 36.93255
#
# Velocity S-wave (km/s) = 3.55692 4.03886 3.80553
# Velocity P-wave (km/s) = 5.50524 6.57606 6.06433
#
# Compressibility (1/GPa) = 0.02917844
#
# Stress axis : x y z
#
# Youngs Moduli (GPa) = 113.59206 100.28166 47.40308
#
# Poissons Ratio (x) = 0.15852 0.15540
# Poissons Ratio (y) = 0.17956 0.02310
# Poissons Ratio (z) = 0.37239 0.04886
#
# Static dielectric constant tensor:
#      x y z
#    x 2.078120 -0.033130 -0.101000 
#    y -0.033130 2.058230 0.065960 
#    z -0.101000 0.065960 2.160570 
# 
# From -- ./inp_files/569792.got.cif
#   From: 2010.05.17/outbox.cif.g08.bks.cpg/sg2_285_cif.got.tgz:569792.got - 2010.06.03 11:33:40.
