data_PCOD9090316
_publ_section_title
;
Structure prediction by ZEFSAII (Michael W. Deem and Ramdas Pophale) SiO2 
 PCOD9090316
Probable space group: P -1
;
_chemical_formula_sum "Si O2"
_cell_formula_units_Z 16
_cell_length_a 7.969612
_cell_length_b 24.159531
_cell_length_c 5.714531
_cell_angle_alpha 83.901504
_cell_angle_beta 61.503963
_cell_angle_gamma 45.235976
_cell_volume 638.351266
_symmetry_space_group_name_H-M "P -1"
_symmetry_group_IT_number 2
_symmetry_cell_setting 'triclinic'
loop_
_space_group_symop_operation_xyz
x,y,z
-x,-y,-z
loop_
_atom_site_type_symbol
_atom_site_label
_atom_site_fract_x
_atom_site_fract_y
_atom_site_fract_z
Si Si1 0.706018 0.935923 0.687908
Si Si2 0.560394 0.196519 0.146216
Si Si3 0.991766 0.584486 0.080055
Si Si4 0.289566 0.233122 0.817246
Si Si5 0.625850 0.648408 0.687993
Si Si6 0.464158 0.404240 0.839513
Si Si7 0.864373 0.974351 0.205642
Si Si8 0.882438 0.248463 0.337243
O O1 0.850692 0.961551 0.491876
O O2 0.946282 0.837778 0.615288
O O3 0.467450 0.959152 0.670620
O O4 0.500000 0.000000 0.000000
O O5 0.429031 0.201632 0.477354
O O6 0.427399 0.286104 0.151991
O O7 0.486630 0.184608 0.947188
O O8 0.904504 0.122254 0.990449
O O9 0.897556 0.668926 0.085698
O O10 0.933615 0.580498 0.393173
O O11 0.782514 0.587537 0.076341
O O12 0.317502 0.495225 0.846780
O O13 0.073567 0.229585 0.007439
O O14 0.410584 0.710398 0.592049
O O15 0.519578 0.615163 0.890308
O O16 0.763815 0.323429 0.552397
O O17 0.000000 0.000000 0.000000
#
# Coordination Sequence:
#
# PCOD9090316 Si02
#       8
#     2   2   2   2   2   2   2   2
#     4  11  26  45  68 102 140 178 237 296 351 431
#     4  11  24  44  71  95 137 179 237 276 349 421
#     4   9  20  37  61  97 123 178 228 279 332 414
#     4  11  25  43  67 103 137 183 226 291 343 421
#     4  10  20  38  65  92 126 179 223 280 339 414
#     4  10  19  38  65  88 133 171 231 276 343 410
#     4  11  26  45  71 101 134 186 234 294 357 421
#     4  11  25  40  64  97 135 177 222 288 360 405
#
# _framework density 25.064571000000001
#
# number of rings (size 3 to 8) (size 9 to 14) (size 15 to 20)
#    0.000    1.500    1.250    2.625    8.750    2.000 
#    0.000    0.625    0.000    0.000    0.000    0.000 
#    0.000    0.000    0.000    0.000    0.000    0.000 
#
# Total GULP energy -89204.399173 kJ/mol
# GULP energy per Si atom -5575.274948 kJ/mol
# Density = 2.500752 g / cm^3
# Si number density = 25.064571 Si / 1000 Ang^3
#
#
#
# Elastic Constant Matrix: (Units=GPa)
#
#
# Indices 1 2 3 4 5 6 
#
# 1 28.4047 10.5572 2.3623 -4.4338 -7.4571 -0.8533
# 2 10.5572 96.7694 75.3434 1.1463 -1.5003 -10.9819
# 3 2.3623 75.3434 126.8449 -7.5312 -12.4217 -1.4546
# 4 -4.4338 1.1463 -7.5312 39.0118 10.4072 -11.1335
# 5 -7.4571 -1.5003 -12.4217 10.4072 27.8676 -5.8215
# 6 -0.8533 -10.9819 -1.4546 -11.1335 -5.8215 22.7346
#
#
#
# Elastic Compliance Matrix: (Units=1/GPa)
#
#
# Indices 1 2 3 4 5 6 
#
# 1 0.041874 -0.008643 0.005829 0.003563 0.012579 0.002736
# 2 -0.008643 0.023018 -0.013976 -0.000572 -0.005367 0.008246
# 3 0.005829 -0.013976 0.016837 0.001614 0.007116 -0.002843
# 4 0.003563 -0.000572 0.001614 0.032334 -0.007537 0.013866
# 5 0.012579 -0.005367 0.007116 -0.007537 0.046305 0.006501
# 6 0.002736 0.008246 -0.002843 0.013866 0.006501 0.056345
#
#
# Mechanical properties :
#
#
# Convention : Reuss Voigt Hill
#
# Bulk Modulus (GPa) = 20.76966 47.61609 34.19288
# Shear Modulus (GPa) = 18.77279 28.83985 23.80632
#
# Velocity S-wave (km/s) = 2.73971 3.39576 3.08523
# Velocity P-wave (km/s) = 4.27931 5.86631 5.13449
#
# Compressibility (1/GPa) = 0.04814715
#
# Stress axis : x y z
#
# Youngs Moduli (GPa) = 23.88124 43.44471 59.39410
#
# Poissons Ratio (x) = 0.37551 -0.34620
# Poissons Ratio (y) = 0.20641 0.83010
# Poissons Ratio (z) = -0.13920 0.60719
#
# Static dielectric constant tensor:
#      x y z
#    x 2.164510 -0.051860 0.113040 
#    y -0.051860 2.055130 -0.043700 
#    z 0.113040 -0.043700 2.083070 
# 
# From -- ./inp_files/48799.got.cif
#   From: 2010.05.17/outbox.cif.g08.bks.cpg/sg2_25_cif.got.tgz:48799.got - 2010.06.03 11:33:40.
