data_PCOD9090705
_publ_section_title
;
Structure prediction by ZEFSAII (Michael W. Deem and Ramdas Pophale) SiO2 
 PCOD9090705
Probable space group: P -1
;
_chemical_formula_sum "Si O2"
_cell_formula_units_Z 14
_cell_length_a 9.198343
_cell_length_b 6.612376
_cell_length_c 10.140967
_cell_angle_alpha 85.228273
_cell_angle_beta 112.836563
_cell_angle_gamma 79.909345
_cell_volume 551.838943
_symmetry_space_group_name_H-M "P -1"
_symmetry_group_IT_number 2
_symmetry_cell_setting 'triclinic'
loop_
_space_group_symop_operation_xyz
x,y,z
-x,-y,-z
loop_
_atom_site_type_symbol
_atom_site_label
_atom_site_fract_x
_atom_site_fract_y
_atom_site_fract_z
Si Si1 0.597008 0.288532 0.471876
Si Si2 0.038572 0.256367 0.999250
Si Si3 0.933391 0.251107 0.449153
Si Si4 0.488334 0.220397 0.912480
Si Si5 0.853539 0.759428 0.243779
Si Si6 0.369906 0.028403 0.268598
Si Si7 0.806117 0.222756 0.141254
O O1 0.500000 0.500000 0.500000
O O2 0.752621 0.318871 0.442974
O O3 0.474362 0.193530 0.341748
O O4 0.665220 0.099593 0.609114
O O5 0.907777 0.175711 0.044548
O O6 0.214552 0.148911 0.125359
O O7 0.000000 0.500000 0.000000
O O8 0.028049 0.252756 0.837984
O O9 0.917698 0.302649 0.284925
O O10 0.062411 0.320956 0.587088
O O11 0.000000 0.000000 0.500000
O O12 0.300640 0.329551 0.845396
O O13 0.532017 0.153658 0.781370
O O14 0.625438 0.318919 0.020851
O O15 0.500000 0.000000 0.000000
O O16 0.787817 0.009244 0.216562
#
# Coordination Sequence:
#
# PCOD9090705 Si02
#       7
#     2   2   2   2   2   2   2
#     4  11  26  44  71 107 142 192 242 301 359 439
#     4  12  26  41  67 105 142 185 239 296 351 436
#     4  10  21  40  71  99 139 183 240 288 366 426
#     4  10  19  38  71  97 129 186 232 287 356 424
#     4  10  21  40  70  98 134 177 239 288 355 421
#     4  11  23  44  70  98 150 183 238 297 370 411
#     4  10  21  40  68  95 136 186 232 283 364 416
#
# _framework density 25.369720999999998
#
# number of rings (size 3 to 8) (size 9 to 14) (size 15 to 20)
#    0.000    1.429    2.857    4.714    4.000    1.143 
#    2.571    1.429    0.000    0.000    0.000    0.000 
#    0.000    0.000    0.000    0.000    0.000    0.000 
#
# Total GULP energy -78263.456682 kJ/mol
# GULP energy per Si atom -5590.246906 kJ/mol
# Density = 2.531198 g / cm^3
# Si number density = 25.369721 Si / 1000 Ang^3
#
#
#
# Elastic Constant Matrix: (Units=GPa)
#
#
# Indices 1 2 3 4 5 6 
#
# 1 120.9167 7.0110 63.2515 2.6104 15.4255 -6.2217
# 2 7.0110 80.9759 27.3720 -0.5107 20.4743 -6.8078
# 3 63.2515 27.3720 183.1980 14.0920 23.4224 3.7696
# 4 2.6104 -0.5107 14.0920 48.9530 9.3516 12.3391
# 5 15.4255 20.4743 23.4224 9.3516 43.6902 10.3380
# 6 -6.2217 -6.8078 3.7696 12.3391 10.3380 34.0143
#
#
#
# Elastic Compliance Matrix: (Units=1/GPa)
#
#
# Indices 1 2 3 4 5 6 
#
# 1 0.010662 0.001450 -0.003549 0.000218 -0.003440 0.003600
# 2 0.001450 0.015457 -0.001932 0.000753 -0.008256 0.005809
# 3 -0.003549 -0.001932 0.007257 -0.001452 -0.001196 -0.000950
# 4 0.000218 0.000753 -0.001452 0.023210 -0.002920 -0.007181
# 5 -0.003440 -0.008256 -0.001196 -0.002920 0.031782 -0.010749
# 6 0.003600 0.005809 -0.000950 -0.007181 -0.010749 0.037198
#
#
# Mechanical properties :
#
#
# Convention : Reuss Voigt Hill
#
# Bulk Modulus (GPa) = 39.50291 64.48440 51.99366
# Shear Modulus (GPa) = 35.19514 44.49524 39.84519
#
# Velocity S-wave (km/s) = 3.72867 4.19247 3.96735
# Velocity P-wave (km/s) = 5.84312 6.99348 6.44402
#
# Compressibility (1/GPa) = 0.02531459
#
# Stress axis : x y z
#
# Youngs Moduli (GPa) = 93.79212 64.69362 137.80260
#
# Poissons Ratio (x) = -0.09383 0.48904
# Poissons Ratio (y) = -0.13603 0.26626
# Poissons Ratio (z) = 0.33286 0.12500
#
# Static dielectric constant tensor:
#      x y z
#    x 1.951390 0.280960 0.115830 
#    y 0.280960 1.422220 -0.360860 
#    z 0.115830 -0.360860 1.766770 
# 
# From -- ./inp_files/158850.got.cif
#   From: 2010.05.17/outbox.cif.g08.bks.cpg/sg2_80_cif.got.tgz:158850.got - 2010.06.03 11:33:40.
