data_PCOD9090588
_publ_section_title
;
Structure prediction by ZEFSAII (Michael W. Deem and Ramdas Pophale) SiO2 
 PCOD9090588
Probable space group: P -1
;
_chemical_formula_sum "Si O2"
_cell_formula_units_Z 16
_cell_length_a 8.547635
_cell_length_b 7.808107
_cell_length_c 11.830981
_cell_angle_alpha 54.496434
_cell_angle_beta 100.057792
_cell_angle_gamma 109.064685
_cell_volume 607.431113
_symmetry_space_group_name_H-M "P -1"
_symmetry_group_IT_number 2
_symmetry_cell_setting 'triclinic'
loop_
_space_group_symop_operation_xyz
x,y,z
-x,-y,-z
loop_
_atom_site_type_symbol
_atom_site_label
_atom_site_fract_x
_atom_site_fract_y
_atom_site_fract_z
Si Si1 0.561033 0.173142 0.163934
Si Si2 0.646629 0.721582 0.108146
Si Si3 0.639713 0.931052 0.614820
Si Si4 0.966048 0.152808 0.682984
Si Si5 0.457747 0.650694 0.339769
Si Si6 0.871990 0.170267 0.073634
Si Si7 0.937323 0.533517 0.206308
Si Si8 0.143215 0.301359 0.418515
O O1 0.464609 0.226918 0.240461
O O2 0.753363 0.225383 0.132298
O O3 0.511943 0.907333 0.272856
O O4 0.473607 0.243193 0.017787
O O5 0.552837 0.628335 0.246295
O O6 0.760856 0.571181 0.142692
O O7 0.761858 0.964925 0.064289
O O8 0.750525 0.831149 0.583334
O O9 0.500000 0.000000 0.500000
O O10 0.783385 0.119838 0.622776
O O11 0.018167 0.321430 0.727739
O O12 0.096085 0.227742 0.568346
O O13 0.984621 0.921905 0.819812
O O14 0.500000 0.500000 0.500000
O O15 0.264279 0.546761 0.335047
O O16 0.946267 0.364666 0.922664
O O17 0.974181 0.307919 0.332762
#
# Coordination Sequence:
#
# PCOD9090588 Si02
#       8
#     2   2   2   2   2   2   2   2
#     4  11  22  41  67  92 127 175 214 250 308 380
#     4  10  20  37  64  97 130 167 207 254 313 379
#     4  12  26  44  64  89 124 171 215 257 313 382
#     4  11  23  43  66  91 125 169 208 252 316 384
#     4  11  21  38  64  98 128 158 208 271 315 359
#     4  10  19  38  67  97 125 163 209 254 308 379
#     4  11  22  39  66  98 127 158 206 265 315 364
#     4  12  25  40  61  94 127 161 208 265 312 361
#
# _framework density 26.340434999999999
#
# number of rings (size 3 to 8) (size 9 to 14) (size 15 to 20)
#    0.000    1.000    0.000   11.250    0.000    2.000 
#    0.000    5.000    0.000    1.500    0.000    0.000 
#    0.000    0.000    0.000    0.000    0.000    0.000 
#
# Total GULP energy -89717.791310 kJ/mol
# GULP energy per Si atom -5607.361957 kJ/mol
# Density = 2.628048 g / cm^3
# Si number density = 26.340435 Si / 1000 Ang^3
#
#
#
# Elastic Constant Matrix: (Units=GPa)
#
#
# Indices 1 2 3 4 5 6 
#
# 1 149.7189 25.0097 60.4558 8.3395 5.8564 -21.1931
# 2 25.0097 76.6085 11.1095 3.8701 -13.0359 -25.1459
# 3 60.4558 11.1095 191.5189 11.5664 -6.9977 -14.6905
# 4 8.3395 3.8701 11.5664 30.9605 -0.5506 -4.6242
# 5 5.8564 -13.0359 -6.9977 -0.5506 76.4502 2.2068
# 6 -21.1931 -25.1459 -14.6905 -4.6242 2.2068 52.9382
#
#
#
# Elastic Compliance Matrix: (Units=1/GPa)
#
#
# Indices 1 2 3 4 5 6 
#
# 1 0.008304 -0.001976 -0.002369 -0.000872 -0.001245 0.001704
# 2 -0.001976 0.016429 0.000339 -0.000562 0.002779 0.006942
# 3 -0.002369 0.000339 0.006129 -0.001569 0.000767 0.000744
# 4 -0.000872 -0.000562 -0.001569 0.033471 0.000014 0.001872
# 5 -0.001245 0.002779 0.000767 0.000014 0.013707 0.000464
# 6 0.001704 0.006942 0.000744 0.001872 0.000464 0.023220
#
#
# Mechanical properties :
#
#
# Convention : Reuss Voigt Hill
#
# Bulk Modulus (GPa) = 43.76206 67.88849 55.82527
# Shear Modulus (GPa) = 42.77531 53.48788 48.13159
#
# Velocity S-wave (km/s) = 4.03419 4.51115 4.27932
# Velocity P-wave (km/s) = 6.19271 7.27759 6.75696
#
# Compressibility (1/GPa) = 0.02285084
#
# Stress axis : x y z
#
# Youngs Moduli (GPa) = 120.41892 60.86687 163.14674
#
# Poissons Ratio (x) = 0.12027 0.38647
# Poissons Ratio (y) = 0.23794 -0.05525
# Poissons Ratio (z) = 0.28525 -0.02061
#
# Static dielectric constant tensor:
#      x y z
#    x 2.087850 0.077730 0.029550 
#    y 0.077730 2.250650 0.012650 
#    z 0.029550 0.012650 1.960270 
# 
# From -- ./inp_files/381061.got.cif
#   From: 2010.05.17/outbox.cif.g08.bks.cpg/sg2_191_cif.got.tgz:381061.got - 2010.06.03 11:33:40.
