data_PCOD9090793
_publ_section_title
;
Structure prediction by ZEFSAII (Michael W. Deem and Ramdas Pophale) SiO2 
 PCOD9090793
Probable space group: P -1
;
_chemical_formula_sum "Si O2"
_cell_formula_units_Z 16
_cell_length_a 22.466560
_cell_length_b 8.520324
_cell_length_c 7.749368
_cell_angle_alpha 65.074468
_cell_angle_beta 152.155150
_cell_angle_gamma 121.187328
_cell_volume 590.262167
_symmetry_space_group_name_H-M "P -1"
_symmetry_group_IT_number 2
_symmetry_cell_setting 'triclinic'
loop_
_space_group_symop_operation_xyz
x,y,z
-x,-y,-z
loop_
_atom_site_type_symbol
_atom_site_label
_atom_site_fract_x
_atom_site_fract_y
_atom_site_fract_z
Si Si1 0.353162 0.252413 0.519083
Si Si2 0.226912 0.189980 0.856973
Si Si3 0.362374 0.615254 0.000187
Si Si4 0.089796 0.795903 0.585354
Si Si5 0.515940 0.804159 0.648360
Si Si6 0.185282 0.878243 0.415585
Si Si7 0.719024 0.407465 0.700204
Si Si8 0.058274 0.630448 0.927687
O O1 0.291225 0.168821 0.214204
O O2 0.513888 0.345596 0.838380
O O3 0.282606 0.399912 0.324679
O O4 0.289808 0.083891 0.565875
O O5 0.251381 0.408282 0.813230
O O6 0.330854 0.176468 0.982961
O O7 0.106763 0.998962 0.602635
O O8 0.440420 0.667129 0.361120
O O9 0.282288 0.756190 0.718170
O O10 0.085121 0.815916 0.355468
O O11 0.219050 0.724399 0.967540
O O12 0.000492 0.657643 0.574568
O O13 0.438229 0.710955 0.662530
O O14 0.500000 0.000000 0.500000
O O15 0.101112 0.823423 0.047703
O O16 0.812762 0.427087 0.768178
O O17 0.000000 0.500000 0.000000
#
# Coordination Sequence:
#
# PCOD9090793 Si02
#       8
#     2   2   2   2   2   2   2   2
#     4  11  20  35  59  93 134 169 205 243 298 373
#     4  11  18  35  61  88 135 175 200 241 299 371
#     4  11  21  33  56  96 132 174 206 241 297 367
#     4  10  22  41  64  91 123 164 206 257 313 358
#     4  11  16  30  58  86 125 174 206 236 298 366
#     4  12  23  41  62  94 128 158 212 260 298 371
#     4  10  19  39  59  89 123 162 207 247 308 364
#     4  10  24  46  69  88 117 159 210 267 323 363
#
# _framework density 27.1066
#
# number of rings (size 3 to 8) (size 9 to 14) (size 15 to 20)
#    0.750    0.500    6.250    1.125    1.750    1.500 
#    2.250    1.875    0.000    1.500    0.000    0.000 
#    0.000    0.000    0.000    0.000    0.000    0.000 
#
# Total GULP energy -89212.179398 kJ/mol
# GULP energy per Si atom -5575.761212 kJ/mol
# Density = 2.704490 g / cm^3
# Si number density = 27.106600 Si / 1000 Ang^3
#
#
#
# Elastic Constant Matrix: (Units=GPa)
#
#
# Indices 1 2 3 4 5 6 
#
# 1 227.2888 70.0759 47.1916 -7.3924 -3.8451 24.3599
# 2 70.0759 184.7422 28.3193 -17.6877 11.4665 4.8513
# 3 47.1916 28.3193 35.0713 -18.1700 -5.7031 -1.6110
# 4 -7.3924 -17.6877 -18.1700 26.6537 -0.5161 -1.5524
# 5 -3.8451 11.4665 -5.7031 -0.5161 36.9187 5.8705
# 6 24.3599 4.8513 -1.6110 -1.5524 5.8705 44.4549
#
#
#
# Elastic Compliance Matrix: (Units=1/GPa)
#
#
# Indices 1 2 3 4 5 6 
#
# 1 0.008205 -0.001570 -0.014794 -0.009156 -0.000253 -0.005147
# 2 -0.001570 0.006782 -0.002614 0.002257 -0.002716 0.000463
# 3 -0.014794 -0.002614 0.077494 0.047858 0.010076 0.011541
# 4 -0.009156 0.002257 0.047858 0.069686 0.005405 0.008225
# 5 -0.000253 -0.002716 0.010076 0.005405 0.030009 -0.002974
# 6 -0.005147 0.000463 0.011541 0.008225 -0.002974 0.026363
#
#
# Mechanical properties :
#
#
# Convention : Reuss Voigt Hill
#
# Bulk Modulus (GPa) = 18.34048 82.03065 50.18556
# Shear Modulus (GPa) = 18.20375 41.70650 29.95513
#
# Velocity S-wave (km/s) = 2.59426 3.92677 3.32789
# Velocity P-wave (km/s) = 3.96917 7.13353 5.77242
#
# Compressibility (1/GPa) = 0.05452421
#
# Stress axis : x y z
#
# Youngs Moduli (GPa) = 121.87589 147.45272 12.90429
#
# Poissons Ratio (x) = 0.23155 0.19090
# Poissons Ratio (y) = 0.19139 0.03373
# Poissons Ratio (z) = 1.80302 0.38543
#
# Static dielectric constant tensor:
#      x y z
#    x 2.180550 0.050270 -0.029550 
#    y 0.050270 2.192500 0.110700 
#    z -0.029550 0.110700 2.286970 
# 
# From -- ./inp_files/351678.got.cif
#   From: 2010.05.17/outbox.cif.g08.bks.cpg/sg2_176_cif.got.tgz:351678.got - 2010.06.03 11:33:40.
