data_PCOD9090278
_publ_section_title
;
Structure prediction by ZEFSAII (Michael W. Deem and Ramdas Pophale) SiO2 
 PCOD9090278
Probable space group: P -1
;
_chemical_formula_sum "Si O2"
_cell_formula_units_Z 14
_cell_length_a 8.521368
_cell_length_b 17.151006
_cell_length_c 7.351712
_cell_angle_alpha 126.404008
_cell_angle_beta 127.248921
_cell_angle_gamma 50.877563
_cell_volume 623.375153
_symmetry_space_group_name_H-M "P -1"
_symmetry_group_IT_number 2
_symmetry_cell_setting 'triclinic'
loop_
_space_group_symop_operation_xyz
x,y,z
-x,-y,-z
loop_
_atom_site_type_symbol
_atom_site_label
_atom_site_fract_x
_atom_site_fract_y
_atom_site_fract_z
Si Si1 0.556778 0.672929 0.766169
Si Si2 0.677324 0.370076 0.754810
Si Si3 0.115064 0.828268 0.567774
Si Si4 0.513288 0.259383 0.778723
Si Si5 0.122739 0.209110 0.297793
Si Si6 0.992145 0.409043 0.239473
Si Si7 0.974748 0.054549 0.858494
O O1 0.453102 0.601833 0.487732
O O2 0.792798 0.638611 0.799965
O O3 0.373432 0.789664 0.735178
O O4 0.551266 0.681853 0.990734
O O5 0.537218 0.339041 0.757642
O O6 0.880899 0.255051 0.697130
O O7 0.781210 0.443793 0.011586
O O8 0.008224 0.800102 0.629546
O O9 0.009032 0.952235 0.619670
O O10 0.337058 0.218953 0.528865
O O11 0.741654 0.154239 0.811289
O O12 0.988227 0.316543 0.240087
O O13 0.146368 0.107184 0.052225
O O14 0.000000 0.500000 0.500000
O O15 0.000000 0.000000 0.000000
#
# Coordination Sequence:
#
# PCOD9090278 Si02
#       7
#     2   2   2   2   2   2   2
#     4  10  22  43  63  97 128 165 217 267 324 375
#     4  10  22  44  64  94 130 169 209 275 310 381
#     4   9  20  41  65  93 138 163 213 256 314 386
#     4  12  21  40  71  90 141 173 205 265 321 372
#     4  11  21  41  64  97 131 174 213 267 318 377
#     4  12  25  45  70  93 124 171 223 274 328 383
#     4  10  19  38  64  99 133 172 217 245 318 388
#
# _framework density 22.458385
#
# number of rings (size 3 to 8) (size 9 to 14) (size 15 to 20)
#    0.857    0.571    5.714    0.857    0.000    3.429 
#    2.571    7.143    0.000    0.000    0.000    0.000 
#    0.000    0.000    0.000    0.000    0.000    0.000 
#
# Total GULP energy -78098.709934 kJ/mol
# GULP energy per Si atom -5578.479281 kJ/mol
# Density = 2.240727 g / cm^3
# Si number density = 22.458385 Si / 1000 Ang^3
#
#
#
# Elastic Constant Matrix: (Units=GPa)
#
#
# Indices 1 2 3 4 5 6 
#
# 1 89.1060 33.2037 41.4726 11.4440 -5.3161 -19.3567
# 2 33.2037 77.9262 32.0802 10.2838 -0.0405 -0.8488
# 3 41.4726 32.0802 144.3456 8.1601 22.9761 -4.4891
# 4 11.4440 10.2838 8.1601 36.1570 -9.1783 1.9451
# 5 -5.3161 -0.0405 22.9761 -9.1783 38.2408 -9.0623
# 6 -19.3567 -0.8488 -4.4891 1.9451 -9.0623 24.8433
#
#
#
# Elastic Compliance Matrix: (Units=1/GPa)
#
#
# Indices 1 2 3 4 5 6 
#
# 1 0.021265 -0.006240 -0.005666 -0.002067 0.010431 0.019299
# 2 -0.006240 0.016426 -0.001607 -0.002488 -0.001667 -0.005004
# 3 -0.005666 -0.001607 0.010244 -0.001981 -0.008761 -0.005660
# 4 -0.002067 -0.002488 -0.001981 0.031611 0.008115 -0.001568
# 5 0.010431 -0.001667 -0.008761 0.008115 0.039622 0.020305
# 6 0.019299 -0.005004 -0.005660 -0.001568 0.020305 0.061625
#
#
# Mechanical properties :
#
#
# Convention : Reuss Voigt Hill
#
# Bulk Modulus (GPa) = 47.82937 58.32120 53.07528
# Shear Modulus (GPa) = 23.27870 33.48963 28.38416
#
# Velocity S-wave (km/s) = 3.22301 3.86578 3.55893
# Velocity P-wave (km/s) = 5.93241 6.77869 6.36962
#
# Compressibility (1/GPa) = 0.02090766
#
# Stress axis : x y z
#
# Youngs Moduli (GPa) = 47.02519 60.87880 97.62285
#
# Poissons Ratio (x) = 0.37987 0.55317
# Poissons Ratio (y) = 0.29343 0.15692
# Poissons Ratio (z) = 0.26646 0.09786
#
# Static dielectric constant tensor:
#      x y z
#    x 1.811550 -0.029210 -0.044800 
#    y -0.029210 1.843140 0.013420 
#    z -0.044800 0.013420 1.931710 
# 
# From -- ./inp_files/221395.got.cif
#   From: 2010.05.17/outbox.cif.g08.bks.cpg/sg2_111_cif.got.tgz:221395.got - 2010.06.03 11:33:40.
