data_PCOD9090954
_publ_section_title
;
Structure prediction by ZEFSAII (Michael W. Deem and Ramdas Pophale) SiO2 
 PCOD9090954
Probable space group: P -1
;
_chemical_formula_sum "Si O2"
_cell_formula_units_Z 16
_cell_length_a 12.359548
_cell_length_b 7.910547
_cell_length_c 16.697785
_cell_angle_alpha 145.523991
_cell_angle_beta 42.636883
_cell_angle_gamma 129.647154
_cell_volume 623.826313
_symmetry_space_group_name_H-M "P -1"
_symmetry_group_IT_number 2
_symmetry_cell_setting 'triclinic'
loop_
_space_group_symop_operation_xyz
x,y,z
-x,-y,-z
loop_
_atom_site_type_symbol
_atom_site_label
_atom_site_fract_x
_atom_site_fract_y
_atom_site_fract_z
Si Si1 0.700760 0.385066 0.662994
Si Si2 0.854767 0.729473 0.467336
Si Si3 0.992215 0.837247 0.853950
Si Si4 0.867614 0.844712 0.325955
Si Si5 0.697580 0.668228 0.029950
Si Si6 0.817816 0.065490 0.892855
Si Si7 0.641694 0.616562 0.216159
Si Si8 0.583866 0.106357 0.790388
O O1 0.755913 0.730958 0.774386
O O2 0.544311 0.332754 0.671233
O O3 0.646412 0.250298 0.727058
O O4 0.845953 0.196765 0.484181
O O5 0.820845 0.697419 0.378404
O O6 0.891650 0.391909 0.337758
O O7 0.697526 0.842470 0.639571
O O8 0.000000 0.000000 0.500000
O O9 0.926322 0.054045 0.908951
O O10 0.844100 0.603310 0.869179
O O11 0.000000 0.000000 0.000000
O O12 0.741944 0.737857 0.284482
O O13 0.051227 0.797979 0.188653
O O14 0.722106 0.745649 0.139446
O O15 0.604947 0.931626 0.141987
O O16 0.594812 0.348813 0.950606
O O17 0.672309 0.267785 0.060691
#
# Coordination Sequence:
#
# PCOD9090954 Si02
#       8
#     2   2   2   2   2   2   2   2
#     4  10  21  40  62  88 117 155 198 249 294 343
#     4  11  21  40  64  87 111 160 206 237 283 357
#     4  12  23  38  59  88 125 155 191 247 301 343
#     4  11  23  41  60  89 122 154 196 245 297 358
#     4  10  19  39  62  86 113 157 200 237 288 349
#     4  12  23  39  57  93 122 153 195 248 296 347
#     4  11  23  39  63  87 119 160 197 238 301 359
#     4   9  19  37  65  86 109 152 210 243 270 352
#
# _framework density 25.648164000000001
#
# number of rings (size 3 to 8) (size 9 to 14) (size 15 to 20)
#    0.000    1.250    2.500    4.500    0.000    0.000 
#    0.000    0.625    0.000    0.000    0.000    0.000 
#    0.000    0.000    0.000    0.000    0.000    0.000 
#
# Total GULP energy -89456.792035 kJ/mol
# GULP energy per Si atom -5591.049502 kJ/mol
# Density = 2.558979 g / cm^3
# Si number density = 25.648164 Si / 1000 Ang^3
#
#
#
# Elastic Constant Matrix: (Units=GPa)
#
#
# Indices 1 2 3 4 5 6 
#
# 1 81.3042 -8.8929 7.2527 -5.8645 7.1214 -9.5882
# 2 -8.8929 22.3812 -1.8232 -1.5069 1.0637 -8.2914
# 3 7.2527 -1.8232 103.8350 10.4890 -24.6601 -3.0111
# 4 -5.8645 -1.5069 10.4890 31.0720 -2.5039 3.6521
# 5 7.1214 1.0637 -24.6601 -2.5039 46.9760 2.7083
# 6 -9.5882 -8.2914 -3.0111 3.6521 2.7083 26.7648
#
#
#
# Elastic Compliance Matrix: (Units=1/GPa)
#
#
# Indices 1 2 3 4 5 6 
#
# 1 0.014910 0.009085 -0.001802 0.002625 -0.003732 0.007973
# 2 0.009085 0.056296 -0.000126 0.001731 -0.003827 0.020831
# 3 -0.001802 -0.000126 0.011615 -0.003834 0.006139 0.000524
# 4 0.002625 0.001731 -0.003834 0.034449 -0.000405 -0.003614
# 5 -0.003732 -0.003827 0.006139 -0.000405 0.025391 -0.004346
# 6 0.007973 0.020831 0.000524 -0.003614 -0.004346 0.047664
#
#
# Mechanical properties :
#
#
# Convention : Reuss Voigt Hill
#
# Bulk Modulus (GPa) = 10.29486 22.28817 16.29152
# Shear Modulus (GPa) = 23.99362 35.02817 29.51090
#
# Velocity S-wave (km/s) = 3.06190 3.69957 3.39574
# Velocity P-wave (km/s) = 4.06483 5.19210 4.66266
#
# Compressibility (1/GPa) = 0.09713582
#
# Stress axis : x y z
#
# Youngs Moduli (GPa) = 67.06698 17.76335 86.09765
#
# Poissons Ratio (x) = -0.16139 0.15517
# Poissons Ratio (y) = -0.60933 0.01082
# Poissons Ratio (z) = 0.12087 0.00223
#
# Static dielectric constant tensor:
#      x y z
#    x 2.221460 0.179510 -0.034180 
#    y 0.179510 2.226560 -0.010810 
#    z -0.034180 -0.010810 1.983270 
# 
# From -- ./inp_files/277782.got.cif
#   From: 2010.05.17/outbox.cif.g08.bks.cpg/sg2_139_cif.got.tgz:277782.got - 2010.06.03 11:33:40.
