data_PCOD9090965
_publ_section_title
;
Structure prediction by ZEFSAII (Michael W. Deem and Ramdas Pophale) SiO2 
 PCOD9090965
Probable space group: P -1
;
_chemical_formula_sum "Si O2"
_cell_formula_units_Z 16
_cell_length_a 9.286730
_cell_length_b 6.944643
_cell_length_c 22.065855
_cell_angle_alpha 136.134068
_cell_angle_beta 121.050294
_cell_angle_gamma 52.661081
_cell_volume 776.062399
_symmetry_space_group_name_H-M "P -1"
_symmetry_group_IT_number 2
_symmetry_cell_setting 'triclinic'
loop_
_space_group_symop_operation_xyz
x,y,z
-x,-y,-z
loop_
_atom_site_type_symbol
_atom_site_label
_atom_site_fract_x
_atom_site_fract_y
_atom_site_fract_z
Si Si1 0.615024 0.335620 0.892765
Si Si2 0.736002 0.616105 0.309630
Si Si3 0.090992 0.250068 0.739088
Si Si4 0.676333 0.669584 0.744900
Si Si5 0.983824 0.697289 0.601651
Si Si6 0.565906 0.136978 0.601419
Si Si7 0.283122 0.430072 0.927976
Si Si8 0.505169 0.237150 0.144532
O O1 0.423859 0.464285 0.917240
O O2 0.605997 0.566991 0.890871
O O3 0.632990 0.014975 0.796229
O O4 0.763342 0.313650 0.972408
O O5 0.776018 0.743588 0.284557
O O6 0.570689 0.826411 0.364125
O O7 0.667618 0.351047 0.218507
O O8 0.917634 0.506500 0.365762
O O9 0.140318 0.362964 0.839366
O O10 0.885646 0.477248 0.731111
O O11 0.090817 0.918286 0.667512
O O12 0.567106 0.462138 0.655050
O O13 0.630379 0.695131 0.812439
O O14 0.000000 0.500000 0.500000
O O15 0.771908 0.917140 0.614375
O O16 0.500000 0.000000 0.500000
O O17 0.396147 0.121734 0.919300
#
# Coordination Sequence:
#
# PCOD9090965 Si02
#       8
#     2   2   2   2   2   2   2   2
#     4  10  20  37  62  92 119 162 213 252 303 375
#     4  11  22  39  67  90 121 169 204 248 319 370
#     4  11  23  41  61  90 126 161 206 256 309 371
#     4   9  23  38  60  88 126 159 204 259 313 356
#     4  11  23  42  64  90 129 158 205 264 307 367
#     4  10  21  42  67  91 125 164 207 258 313 370
#     4  10  20  36  62  91 123 160 205 259 305 362
#     4  10  19  39  62  87 121 167 204 249 313 371
#
# _framework density 20.616900000000001
#
# number of rings (size 3 to 8) (size 9 to 14) (size 15 to 20)
#    0.000    1.750    3.750    0.375    0.000    4.000 
#    0.000    1.250    0.000    0.000    0.000    0.000 
#    0.000    0.000    0.000    0.000    0.000    0.000 
#
# Total GULP energy -89241.709143 kJ/mol
# GULP energy per Si atom -5577.606821 kJ/mol
# Density = 2.056997 g / cm^3
# Si number density = 20.616900 Si / 1000 Ang^3
#
#
#
# Elastic Constant Matrix: (Units=GPa)
#
#
# Indices 1 2 3 4 5 6 
#
# 1 73.1654 29.7885 22.5498 5.5446 10.6647 0.8020
# 2 29.7885 62.2405 25.6815 -4.9696 -2.4191 8.7335
# 3 22.5498 25.6815 128.0710 -6.1067 9.3680 -1.1440
# 4 5.5446 -4.9696 -6.1067 25.1038 -4.9937 0.9117
# 5 10.6647 -2.4191 9.3680 -4.9937 16.4442 -0.2048
# 6 0.8020 8.7335 -1.1440 0.9117 -0.2048 23.2866
#
#
#
# Elastic Compliance Matrix: (Units=1/GPa)
#
#
# Indices 1 2 3 4 5 6 
#
# 1 0.022957 -0.013152 -0.000462 -0.011952 -0.020135 0.004410
# 2 -0.013152 0.027030 -0.003980 0.011250 0.018063 -0.010162
# 3 -0.000462 -0.003980 0.009114 0.000402 -0.005332 0.001894
# 4 -0.011952 0.011250 0.000402 0.049822 0.024238 -0.005525
# 5 -0.020135 0.018063 -0.005332 0.024238 0.086844 -0.006528
# 6 0.004410 -0.010162 0.001894 -0.005525 -0.006528 0.046854
#
#
# Mechanical properties :
#
#
# Convention : Reuss Voigt Hill
#
# Bulk Modulus (GPa) = 41.82131 46.61293 44.21712
# Shear Modulus (GPa) = 17.49590 25.33071 21.41330
#
# Velocity S-wave (km/s) = 2.91627 3.50900 3.22627
# Velocity P-wave (km/s) = 5.62748 6.25105 5.94744
#
# Compressibility (1/GPa) = 0.02391125
#
# Stress axis : x y z
#
# Youngs Moduli (GPa) = 43.55903 36.99607 109.72379
#
# Poissons Ratio (x) = 0.48659 0.05074
# Poissons Ratio (y) = 0.57290 0.43671
# Poissons Ratio (z) = 0.02014 0.14725
#
# Static dielectric constant tensor:
#      x y z
#    x 1.712270 -0.012720 0.012220 
#    y -0.012720 1.776200 0.007250 
#    z 0.012220 0.007250 1.793390 
# 
# From -- ./inp_files/110892.got.cif
#   From: 2010.05.17/outbox.cif.g08.bks.cpg/sg2_56_cif.got.tgz:110892.got - 2010.06.03 11:33:40.
