data_PCOD9090133
_publ_section_title
;
Structure prediction by ZEFSAII (Michael W. Deem and Ramdas Pophale) SiO2 
 PCOD9090133
Probable space group: P -1
;
_chemical_formula_sum "Si O2"
_cell_formula_units_Z 16
_cell_length_a 7.392769
_cell_length_b 8.240446
_cell_length_c 13.795050
_cell_angle_alpha 62.497215
_cell_angle_beta 104.283850
_cell_angle_gamma 122.234493
_cell_volume 630.527103
_symmetry_space_group_name_H-M "P -1"
_symmetry_group_IT_number 2
_symmetry_cell_setting 'triclinic'
loop_
_space_group_symop_operation_xyz
x,y,z
-x,-y,-z
loop_
_atom_site_type_symbol
_atom_site_label
_atom_site_fract_x
_atom_site_fract_y
_atom_site_fract_z
Si Si1 0.379739 0.754436 0.071313
Si Si2 0.813272 0.147964 0.477334
Si Si3 0.413933 0.263590 0.700859
Si Si4 0.437988 0.011035 0.327115
Si Si5 0.756454 0.698649 0.596255
Si Si6 0.356524 0.658657 0.875978
Si Si7 0.041344 0.224695 0.978823
Si Si8 0.976172 0.161576 0.214821
O O1 0.498691 0.714845 0.184879
O O2 0.145930 0.715345 0.080974
O O3 0.385672 0.660340 0.994679
O O4 0.500000 0.000000 0.000000
O O5 0.755562 0.123106 0.589239
O O6 0.769768 0.914948 0.505736
O O7 0.632715 0.159770 0.385367
O O8 0.054850 0.311550 0.436127
O O9 0.521598 0.501296 0.612563
O O10 0.520452 0.151839 0.683326
O O11 0.164637 0.090201 0.718241
O O12 0.439982 0.175552 0.203471
O O13 0.843866 0.738111 0.707447
O O14 0.190373 0.749525 0.816441
O O15 0.243978 0.415789 0.902148
O O16 0.048691 0.215674 0.099105
O O17 0.000000 0.000000 0.000000
#
# Coordination Sequence:
#
# PCOD9090133 Si02
#       8
#     2   2   2   2   2   2   2   2
#     4  11  19  38  63  87 115 159 200 229 293 379
#     4  10  23  41  60  86 124 152 205 253 300 346
#     4  11  21  37  69  90 116 157 206 239 299 365
#     4  10  21  41  61  87 120 160 196 252 300 349
#     4  11  22  40  64  90 115 159 202 251 301 353
#     4  10  19  38  64  83 119 164 195 237 297 362
#     4  11  23  36  58  92 126 151 196 249 296 354
#     4  10  20  41  60  90 124 158 196 247 297 358
#
# _framework density 25.375596000000002
#
# number of rings (size 3 to 8) (size 9 to 14) (size 15 to 20)
#    0.000    1.500    6.250    3.000    0.000    3.000 
#    0.000    0.625    0.000    0.000    0.000    0.000 
#    0.000    0.000    0.000    0.000    0.000    0.000 
#
# Total GULP energy -89516.763549 kJ/mol
# GULP energy per Si atom -5594.797722 kJ/mol
# Density = 2.531784 g / cm^3
# Si number density = 25.375596 Si / 1000 Ang^3
#
#
#
# Elastic Constant Matrix: (Units=GPa)
#
#
# Indices 1 2 3 4 5 6 
#
# 1 53.1484 -5.4712 12.1324 13.0932 2.6078 -4.0963
# 2 -5.4712 109.4077 36.6387 -24.0535 -6.0785 15.5709
# 3 12.1324 36.6387 108.6470 21.8564 -23.9771 -6.6941
# 4 13.0932 -24.0535 21.8564 35.9910 1.1979 -6.4999
# 5 2.6078 -6.0785 -23.9771 1.1979 38.0582 4.4972
# 6 -4.0963 15.5709 -6.6941 -6.4999 4.4972 20.1969
#
#
#
# Elastic Compliance Matrix: (Units=1/GPa)
#
#
# Indices 1 2 3 4 5 6 
#
# 1 0.021006 -0.000556 -0.001156 -0.006753 -0.002358 0.002658
# 2 -0.000556 0.017757 -0.010620 0.016574 -0.003001 -0.011320
# 3 -0.001156 -0.010620 0.019065 -0.017440 0.010188 0.006391
# 4 -0.006753 0.016574 -0.017440 0.052023 -0.009385 -0.001096
# 5 -0.002358 -0.003001 0.010188 -0.009385 0.033289 -0.005221
# 6 0.002658 -0.011320 0.006391 -0.001096 -0.005221 0.061707
#
#
# Mechanical properties :
#
#
# Convention : Reuss Voigt Hill
#
# Bulk Modulus (GPa) = 30.15402 39.75586 34.95494
# Shear Modulus (GPa) = 20.78419 34.04276 27.41348
#
# Velocity S-wave (km/s) = 2.86503 3.66670 3.29037
# Velocity P-wave (km/s) = 4.78052 5.79890 5.31416
#
# Compressibility (1/GPa) = 0.03316308
#
# Stress axis : x y z
#
# Youngs Moduli (GPa) = 47.60530 56.31546 52.45198
#
# Poissons Ratio (x) = 0.03132 0.06065
# Poissons Ratio (y) = 0.02648 0.55704
# Poissons Ratio (z) = 0.05505 0.59807
#
# Static dielectric constant tensor:
#      x y z
#    x 2.273930 0.151430 0.066040 
#    y 0.151430 2.116480 0.118160 
#    z 0.066040 0.118160 2.196330 
# 
# From -- ./inp_files/297507.got.cif
#   From: 2010.05.17/outbox.cif.g08.bks.cpg/sg2_149_cif.got.tgz:297507.got - 2010.06.03 11:33:40.
