data_PCOD9090870
_publ_section_title
;
Structure prediction by ZEFSAII (Michael W. Deem and Ramdas Pophale) SiO2 
 PCOD9090870
Probable space group: P -1
;
_chemical_formula_sum "Si O2"
_cell_formula_units_Z 16
_cell_length_a 14.452354
_cell_length_b 13.573467
_cell_length_c 8.640580
_cell_angle_alpha 136.887093
_cell_angle_beta 83.673925
_cell_angle_gamma 128.910302
_cell_volume 681.130528
_symmetry_space_group_name_H-M "P -1"
_symmetry_group_IT_number 2
_symmetry_cell_setting 'triclinic'
loop_
_space_group_symop_operation_xyz
x,y,z
-x,-y,-z
loop_
_atom_site_type_symbol
_atom_site_label
_atom_site_fract_x
_atom_site_fract_y
_atom_site_fract_z
Si Si1 0.653519 0.184179 0.293884
Si Si2 0.918953 0.037291 0.134416
Si Si3 0.491338 0.756476 0.452838
Si Si4 0.922238 0.095457 0.716716
Si Si5 0.806750 0.140244 0.035947
Si Si6 0.515211 0.830579 0.193746
Si Si7 0.327363 0.265989 0.914473
Si Si8 0.152422 0.322569 0.670404
O O1 0.651392 0.341239 0.544869
O O2 0.608359 0.034696 0.281515
O O3 0.500000 0.000000 0.000000
O O4 0.792073 0.277179 0.280549
O O5 0.050106 0.265136 0.487419
O O6 0.846851 0.068223 0.071916
O O7 0.780781 0.815342 0.019010
O O8 0.000000 0.000000 0.000000
O O9 0.428009 0.526050 0.139937
O O10 0.635217 0.911384 0.722100
O O11 0.545202 0.904959 0.455404
O O12 0.876351 0.887688 0.573172
O O13 0.922228 0.235938 0.985447
O O14 0.786079 0.935343 0.428954
O O15 0.080925 0.272350 0.793376
O O16 0.568612 0.733649 0.044923
O O17 0.328570 0.595811 0.935635
#
# Coordination Sequence:
#
# PCOD9090870 Si02
#       8
#     2   2   2   2   2   2   2   2
#     4  10  25  44  61  95 134 175 207 270 326 382
#     4  11  23  36  58  97 138 171 198 263 331 382
#     4  11  23  39  68  98 129 165 216 274 322 370
#     4  10  19  39  60  98 134 163 204 270 327 376
#     4  11  21  40  62  90 134 172 213 250 327 385
#     4  12  21  41  70 100 122 163 229 272 317 372
#     4  11  22  38  67 103 124 162 221 276 317 376
#     4  10  22  35  62  97 133 163 206 269 327 380
#
# _framework density 23.490359000000002
#
# number of rings (size 3 to 8) (size 9 to 14) (size 15 to 20)
#    0.000    1.250    5.000    1.500    0.000    2.500 
#    0.000    0.000    0.000   15.750    0.000    0.000 
#    0.000    0.000    0.000    0.000    0.000    0.000 
#
# Total GULP energy -89393.305984 kJ/mol
# GULP energy per Si atom -5587.081624 kJ/mol
# Density = 2.343689 g / cm^3
# Si number density = 23.490359 Si / 1000 Ang^3
#
#
#
# Elastic Constant Matrix: (Units=GPa)
#
#
# Indices 1 2 3 4 5 6 
#
# 1 125.6067 40.2687 33.6678 -21.8971 -10.7988 14.8910
# 2 40.2687 69.5621 24.8175 -21.7994 -2.3746 7.8296
# 3 33.6678 24.8175 67.5182 -16.5398 3.2620 1.0522
# 4 -21.8971 -21.7994 -16.5398 33.5683 6.3273 -1.7040
# 5 -10.7988 -2.3746 3.2620 6.3273 46.2923 -22.1164
# 6 14.8910 7.8296 1.0522 -1.7040 -22.1164 50.3841
#
#
#
# Elastic Compliance Matrix: (Units=1/GPa)
#
#
# Indices 1 2 3 4 5 6 
#
# 1 0.010950 -0.004107 -0.003386 0.002457 0.001365 -0.001845
# 2 -0.004107 0.021185 -0.003188 0.009799 -0.002263 -0.002674
# 3 -0.003386 -0.003188 0.019243 0.005790 -0.003144 -0.000090
# 4 0.002457 0.009799 0.005790 0.041715 -0.006950 -0.004009
# 5 0.001365 -0.002263 -0.003144 -0.006950 0.028939 0.012482
# 6 -0.001845 -0.002674 -0.000090 -0.004009 0.012482 0.026154
#
#
# Mechanical properties :
#
#
# Convention : Reuss Voigt Hill
#
# Bulk Modulus (GPa) = 33.31484 51.13277 42.22381
# Shear Modulus (GPa) = 27.84724 36.97781 32.41252
#
# Velocity S-wave (km/s) = 3.44681 3.97188 3.71863
# Velocity P-wave (km/s) = 5.48213 6.54594 6.03751
#
# Compressibility (1/GPa) = 0.03001665
#
# Stress axis : x y z
#
# Youngs Moduli (GPa) = 91.32527 47.20414 51.96779
#
# Poissons Ratio (x) = 0.19385 0.17597
# Poissons Ratio (y) = 0.37503 0.16565
# Poissons Ratio (z) = 0.30924 0.15047
#
# Static dielectric constant tensor:
#      x y z
#    x 1.946250 0.006540 -0.015770 
#    y 0.006540 1.916120 -0.027950 
#    z -0.015770 -0.027950 1.901120 
# 
# From -- ./inp_files/217073.got.cif
#   From: 2010.05.17/outbox.cif.g08.bks.cpg/sg2_109_cif.got.tgz:217073.got - 2010.06.03 11:33:40.
