data_PCOD9090702
_publ_section_title
;
Structure prediction by ZEFSAII (Michael W. Deem and Ramdas Pophale) SiO2 
 PCOD9090702
Probable space group: P -1
;
_chemical_formula_sum "Si O2"
_cell_formula_units_Z 14
_cell_length_a 12.757618
_cell_length_b 7.477761
_cell_length_c 21.936715
_cell_angle_alpha 48.531709
_cell_angle_beta 157.578684
_cell_angle_gamma 137.805594
_cell_volume 534.006138
_symmetry_space_group_name_H-M "P -1"
_symmetry_group_IT_number 2
_symmetry_cell_setting 'triclinic'
loop_
_space_group_symop_operation_xyz
x,y,z
-x,-y,-z
loop_
_atom_site_type_symbol
_atom_site_label
_atom_site_fract_x
_atom_site_fract_y
_atom_site_fract_z
Si Si1 0.761642 0.041947 0.772073
Si Si2 0.141884 0.499716 0.179266
Si Si3 0.540537 0.749458 0.924208
Si Si4 0.463286 0.121580 0.888416
Si Si5 0.208594 0.312089 0.551078
Si Si6 0.509319 0.322735 0.488434
Si Si7 0.733173 0.450078 0.312374
O O1 0.818805 0.272453 0.801564
O O2 0.596953 0.102385 0.611911
O O3 0.092668 0.067098 0.927382
O O4 0.533188 0.763833 0.740741
O O5 0.435200 0.627674 0.263127
O O6 0.200767 0.267853 0.297833
O O7 0.199520 0.634460 0.997838
O O8 0.500000 0.500000 0.000000
O O9 0.400331 0.653366 0.804466
O O10 0.390422 0.903605 0.846683
O O11 0.232016 0.251961 0.734370
O O12 0.500000 0.000000 0.000000
O O13 0.237898 0.482994 0.467076
O O14 0.958093 0.588501 0.511805
O O15 0.000000 0.000000 0.500000
O O16 0.500000 0.500000 0.500000
#
# Coordination Sequence:
#
# PCOD9090702 Si02
#       7
#     2   2   2   2   2   2   2
#     4  11  20  41  67 105 138 188 237 285 352 423
#     4   9  20  40  71  99 141 184 230 291 348 411
#     4  12  25  44  73  99 138 189 239 290 363 417
#     4  12  26  46  69 105 143 180 241 298 352 423
#     4  10  19  38  71 106 141 189 233 286 355 415
#     4   8  17  33  64  99 136 182 234 282 342 416
#     4  12  24  43  73 105 143 185 233 297 353 422
#
# _framework density 26.216926999999998
#
# number of rings (size 3 to 8) (size 9 to 14) (size 15 to 20)
#    0.857    0.571    4.286    1.286    0.000    1.714 
#    0.000    2.857    0.000    2.571    0.000    0.000 
#    0.000    0.000    0.000    0.000    0.000    0.000 
#
# Total GULP energy -78498.228309 kJ/mol
# GULP energy per Si atom -5607.016308 kJ/mol
# Density = 2.615726 g / cm^3
# Si number density = 26.216927 Si / 1000 Ang^3
#
#
#
# Elastic Constant Matrix: (Units=GPa)
#
#
# Indices 1 2 3 4 5 6 
#
# 1 137.4962 48.4152 19.6782 -20.1548 9.8623 11.9220
# 2 48.4152 121.4453 26.8442 -25.0637 -0.6187 -9.7259
# 3 19.6782 26.8442 100.0484 -11.7414 -3.4165 3.6559
# 4 -20.1548 -25.0637 -11.7414 47.4319 5.1773 11.8717
# 5 9.8623 -0.6187 -3.4165 5.1773 53.9940 -11.0783
# 6 11.9220 -9.7259 3.6559 11.8717 -11.0783 54.6241
#
#
#
# Elastic Compliance Matrix: (Units=1/GPa)
#
#
# Indices 1 2 3 4 5 6 
#
# 1 0.009598 -0.003317 -0.000539 0.003525 -0.002988 -0.004021
# 2 -0.003317 0.010825 -0.001934 0.003188 0.000762 0.002243
# 3 -0.000539 -0.001934 0.010880 0.001720 0.000341 -0.001259
# 4 0.003525 0.003188 0.001720 0.026963 -0.004540 -0.007098
# 5 -0.002988 0.000762 0.000341 -0.004540 0.020755 0.005961
# 6 -0.004021 0.002243 -0.001259 -0.007098 0.005961 0.022420
#
#
# Mechanical properties :
#
#
# Convention : Reuss Voigt Hill
#
# Bulk Modulus (GPa) = 50.70353 60.98503 55.84428
# Shear Modulus (GPa) = 41.80787 48.81350 45.31069
#
# Velocity S-wave (km/s) = 3.99769 4.31966 4.16179
# Velocity P-wave (km/s) = 6.37892 6.94201 6.66642
#
# Compressibility (1/GPa) = 0.01972249
#
# Stress axis : x y z
#
# Youngs Moduli (GPa) = 104.19122 92.37641 91.91448
#
# Poissons Ratio (x) = 0.30640 0.04956
# Poissons Ratio (y) = 0.34559 0.17776
# Poissons Ratio (z) = 0.05618 0.17866
#
# Static dielectric constant tensor:
#      x y z
#    x 2.075760 -0.046810 -0.038670 
#    y -0.046810 2.018860 -0.003290 
#    z -0.038670 -0.003290 2.149140 
# 
# From -- ./inp_files/592286.got.cif
#   From: 2010.05.17/outbox.cif.g08.bks.cpg/sg2_297_cif.got.tgz:592286.got - 2010.06.03 11:33:40.
