data_PCOD9090752
_publ_section_title
;
Structure prediction by ZEFSAII (Michael W. Deem and Ramdas Pophale) SiO2 
 PCOD9090752
Probable space group: P -1
;
_chemical_formula_sum "Si O2"
_cell_formula_units_Z 16
_cell_length_a 9.769346
_cell_length_b 7.762228
_cell_length_c 16.944030
_cell_angle_alpha 82.275465
_cell_angle_beta 53.133448
_cell_angle_gamma 56.700901
_cell_volume 821.855214
_symmetry_space_group_name_H-M "P -1"
_symmetry_group_IT_number 2
_symmetry_cell_setting 'triclinic'
loop_
_space_group_symop_operation_xyz
x,y,z
-x,-y,-z
loop_
_atom_site_type_symbol
_atom_site_label
_atom_site_fract_x
_atom_site_fract_y
_atom_site_fract_z
Si Si1 0.916528 0.698851 0.145823
Si Si2 0.663989 0.549965 0.180420
Si Si3 0.606618 0.202641 0.198901
Si Si4 0.368529 0.675709 0.412817
Si Si5 0.622204 0.431872 0.043760
Si Si6 0.436310 0.771411 0.544379
Si Si7 0.168013 0.247927 0.650437
Si Si8 0.138152 0.552550 0.399761
O O1 0.855070 0.567573 0.123806
O O2 0.915206 0.648794 0.241695
O O3 0.734451 0.951841 0.181386
O O4 0.136193 0.657860 0.049917
O O5 0.720356 0.310823 0.186095
O O6 0.500005 0.693298 0.298218
O O7 0.556734 0.604585 0.127151
O O8 0.595447 0.262366 0.106796
O O9 0.373005 0.341404 0.309448
O O10 0.318045 0.816892 0.498705
O O11 0.518566 0.433483 0.413015
O O12 0.178557 0.694056 0.432916
O O13 0.500000 0.500000 0.000000
O O14 0.664432 0.715233 0.445698
O O15 0.302987 0.989288 0.626569
O O16 0.981237 0.335801 0.646975
O O17 0.000000 0.500000 0.500000
#
# Coordination Sequence:
#
# PCOD9090752 Si02
#       8
#     2   2   2   2   2   2   2   2
#     4  12  21  40  67  88 117 164 207 245 297 368
#     4   9  21  37  65  89 118 158 203 244 298 361
#     4   9  23  40  62  88 120 158 202 246 300 362
#     4  10  19  39  58  82 128 154 198 249 295 358
#     4  10  22  42  66  90 126 154 195 260 310 347
#     4  10  21  36  57  86 117 160 197 246 289 363
#     4  11  22  33  58  88 113 156 207 239 299 358
#     4  11  21  36  58  83 124 161 192 249 307 347
#
# _framework density 19.468150000000001
#
# number of rings (size 3 to 8) (size 9 to 14) (size 15 to 20)
#    0.750    1.000    2.500    3.000    1.750    0.500 
#    0.000    1.875    2.750    0.000    0.000    0.000 
#    0.000    0.000    0.000    0.000    0.000    0.000 
#
# Total GULP energy -89166.531203 kJ/mol
# GULP energy per Si atom -5572.908200 kJ/mol
# Density = 1.942384 g / cm^3
# Si number density = 19.468150 Si / 1000 Ang^3
#
#
#
# Elastic Constant Matrix: (Units=GPa)
#
#
# Indices 1 2 3 4 5 6 
#
# 1 124.8248 20.6391 36.8461 -8.5882 8.2996 -17.9900
# 2 20.6391 45.6740 16.9934 -2.0119 -2.6585 -5.1852
# 3 36.8461 16.9934 99.7015 -9.0521 1.2116 -7.6742
# 4 -8.5882 -2.0119 -9.0521 14.0126 -10.2338 7.3369
# 5 8.2996 -2.6585 1.2116 -10.2338 42.2604 -7.4412
# 6 -17.9900 -5.1852 -7.6742 7.3369 -7.4412 23.4910
#
#
#
# Elastic Compliance Matrix: (Units=1/GPa)
#
#
# Indices 1 2 3 4 5 6 
#
# 1 0.010263 -0.002978 -0.002800 0.000213 -0.001033 0.005894
# 2 -0.002978 0.024848 -0.002902 0.000356 0.002854 0.003049
# 3 -0.002800 -0.002902 0.012153 0.007223 0.001673 -0.000541
# 4 0.000213 0.000356 0.007223 0.103493 0.020760 -0.023146
# 5 -0.001033 0.002854 0.001673 0.020760 0.029602 0.003278
# 6 0.005894 0.003049 -0.000541 -0.023146 0.003278 0.055847
#
#
# Mechanical properties :
#
#
# Convention : Reuss Voigt Hill
#
# Bulk Modulus (GPa) = 33.43998 46.57306 40.00652
# Shear Modulus (GPa) = 18.97299 29.00090 23.98695
#
# Velocity S-wave (km/s) = 3.12519 3.86380 3.51395
# Velocity P-wave (km/s) = 5.49877 6.62419 6.08754
#
# Compressibility (1/GPa) = 0.02990432
#
# Stress axis : x y z
#
# Youngs Moduli (GPa) = 97.43980 40.24534 82.28328
#
# Poissons Ratio (x) = 0.11983 0.23037
# Poissons Ratio (y) = 0.29013 0.23882
# Poissons Ratio (z) = 0.27280 0.11681
#
# Static dielectric constant tensor:
#      x y z
#    x 1.713560 0.002210 0.023660 
#    y 0.002210 1.665790 -0.023840 
#    z 0.023660 -0.023840 1.710950 
# 
# From -- ./inp_files/556176.got.cif
#   From: 2010.05.17/outbox.cif.g08.bks.cpg/sg2_279_cif.got.tgz:556176.got - 2010.06.03 11:33:40.
