data_PCOD9090413
_publ_section_title
;
Structure prediction by ZEFSAII (Michael W. Deem and Ramdas Pophale) SiO2 
 PCOD9090413
Probable space group: P -1
;
_chemical_formula_sum "Si O2"
_cell_formula_units_Z 12
_cell_length_a 11.403593
_cell_length_b 8.129259
_cell_length_c 9.855001
_cell_angle_alpha 97.530633
_cell_angle_beta 141.192531
_cell_angle_gamma 70.306236
_cell_volume 525.491743
_symmetry_space_group_name_H-M "P -1"
_symmetry_group_IT_number 2
_symmetry_cell_setting 'triclinic'
loop_
_space_group_symop_operation_xyz
x,y,z
-x,-y,-z
loop_
_atom_site_type_symbol
_atom_site_label
_atom_site_fract_x
_atom_site_fract_y
_atom_site_fract_z
Si Si1 0.878312 0.472815 0.018483
Si Si2 0.196192 0.441232 0.526918
Si Si3 0.569024 0.328666 0.644099
Si Si4 0.501468 0.160113 0.309544
Si Si5 0.809542 0.183339 0.363384
Si Si6 0.497479 0.138451 0.895584
O O1 0.023494 0.427710 0.273702
O O2 0.783251 0.323046 0.890279
O O3 0.692211 0.663588 0.886352
O O4 0.000000 0.500000 0.000000
O O5 0.400868 0.384563 0.614604
O O6 0.142297 0.641220 0.550876
O O7 0.278928 0.295258 0.703533
O O8 0.500000 0.500000 0.500000
O O9 0.559113 0.175085 0.518912
O O10 0.683840 0.163638 0.379603
O O11 0.459085 0.984206 0.212718
O O12 0.665249 0.211138 0.104729
O O13 0.000000 0.000000 0.500000
O O14 0.500000 0.000000 0.000000
#
# Coordination Sequence:
#
# PCOD9090413 Si02
#       6
#     2   2   2   2   2   2
#     4  11  19  37  70 101 130 172 213 277 352 398
#     4  12  22  42  71 100 133 183 222 273 349 399
#     4  10  19  38  66 101 132 168 220 276 342 401
#     4  10  20  43  65  96 143 164 225 283 330 405
#     4  11  22  43  68  96 134 181 224 280 335 399
#     4  10  25  44  63  95 137 184 230 281 317 399
#
# _framework density 22.835751999999999
#
# number of rings (size 3 to 8) (size 9 to 14) (size 15 to 20)
#    0.000    1.333    6.667    1.500    0.000    0.667 
#    6.000    7.500    0.000    0.000    0.000    0.000 
#    0.000    0.000    0.000    0.000    0.000    0.000 
#
# Total GULP energy -67114.263769 kJ/mol
# GULP energy per Si atom -5592.855314 kJ/mol
# Density = 2.278378 g / cm^3
# Si number density = 22.835752 Si / 1000 Ang^3
#
#
#
# Elastic Constant Matrix: (Units=GPa)
#
#
# Indices 1 2 3 4 5 6 
#
# 1 103.1551 28.4275 33.0001 -9.9356 11.9241 -22.5892
# 2 28.4275 118.4529 82.1150 12.9157 -14.0427 -26.5622
# 3 33.0001 82.1150 218.6234 25.8611 -0.0186 -7.8109
# 4 -9.9356 12.9157 25.8611 59.9855 -5.3329 -3.5922
# 5 11.9241 -14.0427 -0.0186 -5.3329 30.4706 -8.3039
# 6 -22.5892 -26.5622 -7.8109 -3.5922 -8.3039 29.7588
#
#
#
# Elastic Compliance Matrix: (Units=1/GPa)
#
#
# Indices 1 2 3 4 5 6 
#
# 1 0.012905 -0.000561 -0.001828 0.003345 -0.002394 0.008551
# 2 -0.000561 0.018807 -0.006428 0.001011 0.014170 0.018749
# 3 -0.001828 -0.006428 0.007364 -0.002913 -0.004614 -0.006831
# 4 0.003345 0.001011 -0.002913 0.018999 0.004151 0.006129
# 5 -0.002394 0.014170 -0.004614 0.004151 0.047369 0.023338
# 6 0.008551 0.018749 -0.006831 0.006129 0.023338 0.062289
#
#
# Mechanical properties :
#
#
# Convention : Reuss Voigt Hill
#
# Bulk Modulus (GPa) = 46.63520 80.81297 63.72408
# Shear Modulus (GPa) = 25.97215 43.82222 34.89719
#
# Velocity S-wave (km/s) = 3.37611 4.38541 3.91344
# Velocity P-wave (km/s) = 5.97192 7.81717 6.95600
#
# Compressibility (1/GPa) = 0.02144303
#
# Stress axis : x y z
#
# Youngs Moduli (GPa) = 77.48971 53.17264 135.79029
#
# Poissons Ratio (x) = 0.02984 0.24817
# Poissons Ratio (y) = 0.04349 0.87281
# Poissons Ratio (z) = 0.14162 0.34177
#
# Static dielectric constant tensor:
#      x y z
#    x 1.923400 0.029580 -0.032650 
#    y 0.029580 1.870030 0.040460 
#    z -0.032650 0.040460 1.892410 
# 
# From -- ./inp_files/444953.got.cif
#   From: 2010.05.17/outbox.cif.g08.bks.cpg/sg2_223_cif.got.tgz:444953.got - 2010.06.03 11:33:40.
