data_PCOD9090311
_publ_section_title
;
Structure prediction by ZEFSAII (Michael W. Deem and Ramdas Pophale) SiO2 
 PCOD9090311
Probable space group: P -1
;
_chemical_formula_sum "Si O2"
_cell_formula_units_Z 16
_cell_length_a 11.514842
_cell_length_b 15.564193
_cell_length_c 8.356731
_cell_angle_alpha 29.319401
_cell_angle_beta 71.015826
_cell_angle_gamma 73.021267
_cell_volume 693.380408
_symmetry_space_group_name_H-M "P -1"
_symmetry_group_IT_number 2
_symmetry_cell_setting 'triclinic'
loop_
_space_group_symop_operation_xyz
x,y,z
-x,-y,-z
loop_
_atom_site_type_symbol
_atom_site_label
_atom_site_fract_x
_atom_site_fract_y
_atom_site_fract_z
Si Si1 0.743499 0.400193 0.273817
Si Si2 0.856953 0.849390 0.219739
Si Si3 0.709337 0.611793 0.463716
Si Si4 0.977020 0.176055 0.504899
Si Si5 0.606763 0.353492 0.731990
Si Si6 0.768806 0.758572 0.848127
Si Si7 0.377490 0.036154 0.649045
Si Si8 0.482897 0.808991 0.405786
O O1 0.876557 0.329157 0.282006
O O2 0.706248 0.345918 0.558093
O O3 0.642490 0.296910 0.384377
O O4 0.743801 0.609800 0.962210
O O5 0.813637 0.674284 0.435299
O O6 0.738757 0.941589 0.210753
O O7 0.959333 0.811723 0.368410
O O8 0.908671 0.990466 0.841936
O O9 0.679497 0.412367 0.760830
O O10 0.584606 0.690155 0.465244
O O11 0.735681 0.693761 0.143914
O O12 0.089163 0.192624 0.306361
O O13 0.500000 0.500000 0.500000
O O14 0.563355 0.156639 0.073942
O O15 0.683734 0.916196 0.568743
O O16 0.476740 0.163017 0.475545
O O17 0.500000 0.000000 0.000000
#
# Coordination Sequence:
#
# PCOD9090311 Si02
#       8
#     2   2   2   2   2   2   2   2
#     4  11  20  36  63  90 121 162 203 247 301 363
#     4   9  19  37  67  90 112 163 214 247 282 370
#     4  10  21  38  62  93 121 152 203 255 305 356
#     4  10  19  38  65  88 121 160 208 246 300 357
#     4  11  19  35  61  88 120 155 198 246 301 357
#     4  10  24  37  59  91 130 158 192 258 316 347
#     4  10  20  39  63  91 121 160 204 248 301 365
#     4  11  19  37  68  89 112 161 215 241 286 374
#
# _framework density 23.075357
#
# number of rings (size 3 to 8) (size 9 to 14) (size 15 to 20)
#    0.000    1.750    3.750    1.125    0.000    1.000 
#    0.000    8.125   19.250    1.500    0.000    0.000 
#    0.000    0.000    0.000    0.000    0.000    0.000 
#
# Total GULP energy -89372.236533 kJ/mol
# GULP energy per Si atom -5585.764783 kJ/mol
# Density = 2.302284 g / cm^3
# Si number density = 23.075357 Si / 1000 Ang^3
#
#
#
# Elastic Constant Matrix: (Units=GPa)
#
#
# Indices 1 2 3 4 5 6 
#
# 1 112.2547 37.8576 20.8007 -12.2743 -20.4451 -1.2630
# 2 37.8576 82.3133 19.2947 -2.4857 -13.2316 1.4534
# 3 20.8007 19.2947 45.9460 -6.8863 -12.8319 -12.8387
# 4 -12.2743 -2.4857 -6.8863 33.6075 1.4391 -12.6123
# 5 -20.4451 -13.2316 -12.8319 1.4391 34.5375 -2.2577
# 6 -1.2630 1.4534 -12.8387 -12.6123 -2.2577 35.0084
#
#
#
# Elastic Compliance Matrix: (Units=1/GPa)
#
#
# Indices 1 2 3 4 5 6 
#
# 1 0.011991 -0.004404 -0.000867 0.004502 0.005048 0.002245
# 2 -0.004404 0.015712 -0.005930 -0.003240 0.001077 -0.004084
# 3 -0.000867 -0.005930 0.034634 0.012707 0.010742 0.018187
# 4 0.004502 -0.003240 0.012707 0.041069 0.005749 0.020124
# 5 0.005048 0.001077 0.010742 0.005749 0.036663 0.008512
# 6 0.002245 -0.004084 0.018187 0.020124 0.008512 0.043284
#
#
# Mechanical properties :
#
#
# Convention : Reuss Voigt Hill
#
# Bulk Modulus (GPa) = 25.04123 44.04665 34.54394
# Shear Modulus (GPa) = 22.82405 31.46810 27.14608
#
# Velocity S-wave (km/s) = 3.14842 3.69685 3.43360
# Velocity P-wave (km/s) = 4.90839 6.11162 5.54275
#
# Compressibility (1/GPa) = 0.03993414
#
# Stress axis : x y z
#
# Youngs Moduli (GPa) = 83.39442 63.64720 28.87325
#
# Poissons Ratio (x) = 0.28030 0.02504
# Poissons Ratio (y) = 0.36726 0.17122
# Poissons Ratio (z) = 0.07233 0.37744
#
# Static dielectric constant tensor:
#      x y z
#    x 1.876450 0.035900 -0.016240 
#    y 0.035900 1.847480 0.003430 
#    z -0.016240 0.003430 1.959040 
# 
# From -- ./inp_files/271328.got.cif
#   From: 2010.05.17/outbox.cif.g08.bks.cpg/sg2_136_cif.got.tgz:271328.got - 2010.06.03 11:33:40.
