data_PCOD9090597
_publ_section_title
;
Structure prediction by ZEFSAII (Michael W. Deem and Ramdas Pophale) SiO2 
 PCOD9090597
Probable space group: P -1
;
_chemical_formula_sum "Si O2"
_cell_formula_units_Z 15
_cell_length_a 7.038903
_cell_length_b 8.465983
_cell_length_c 13.622940
_cell_angle_alpha 130.642103
_cell_angle_beta 90.519528
_cell_angle_gamma 75.550348
_cell_volume 583.354370
_symmetry_space_group_name_H-M "P -1"
_symmetry_group_IT_number 2
_symmetry_cell_setting 'triclinic'
loop_
_space_group_symop_operation_xyz
x,y,z
-x,-y,-z
loop_
_atom_site_type_symbol
_atom_site_label
_atom_site_fract_x
_atom_site_fract_y
_atom_site_fract_z
Si Si1 0.949534 0.784058 0.200434
Si Si2 0.543371 0.465352 0.646987
Si Si3 0.461698 0.724393 0.034955
Si Si4 0.500000 0.000000 0.500000
Si Si5 0.206047 0.732867 0.622755
Si Si6 0.695024 0.784948 0.907497
Si Si7 0.767584 0.970811 0.675549
Si Si8 0.097870 0.660181 0.928743
O O1 0.880867 0.598502 0.177786
O O2 0.779005 0.020120 0.288190
O O3 0.126599 0.846857 0.282545
O O4 0.035717 0.728179 0.068982
O O5 0.530251 0.245169 0.608421
O O6 0.322729 0.616133 0.671466
O O7 0.680439 0.395004 0.522291
O O8 0.649503 0.612240 0.766505
O O9 0.367596 0.928168 0.189064
O O10 0.500000 0.500000 0.000000
O O11 0.677629 0.702895 0.984807
O O12 0.304493 0.712092 0.944287
O O13 0.354821 0.084489 0.435434
O O14 0.032985 0.223189 0.366684
O O15 0.920789 0.787561 0.905500
O O16 0.500000 0.000000 0.000000
#
# Coordination Sequence:
#
# PCOD9090597 Si02
#       8
#     2   2   2   1   2   2   2   2
#     4   8  16  36  66  93 129 178 229 268 342 415
#     4  11  25  45  68 105 138 184 235 287 354 418
#     4  11  23  42  71 102 137 185 238 287 350 428
#     4  12  24  40  66 104 146 166 236 298 334 418
#     4   9  22  46  70  87 142 189 230 276 349 438
#     4  12  27  45  69 107 144 179 237 295 353 421
#     4   9  22  43  66  99 137 183 232 286 352 415
#     4  10  19  38  67  98 137 181 225 291 345 402
#
# _framework density 25.713359000000001
#
# number of rings (size 3 to 8) (size 9 to 14) (size 15 to 20)
#    0.800    1.067    0.000    4.800    0.000    6.933 
#    4.800    0.000    0.000    0.000    0.000    0.000 
#    0.000    0.000    0.000    0.000    0.000    0.000 
#
# Total GULP energy -83633.726902 kJ/mol
# GULP energy per Si atom -5575.581793 kJ/mol
# Density = 2.565483 g / cm^3
# Si number density = 25.713359 Si / 1000 Ang^3
#
#
#
# Elastic Constant Matrix: (Units=GPa)
#
#
# Indices 1 2 3 4 5 6 
#
# 1 116.9910 30.4589 54.6836 -10.2247 21.4102 -22.6236
# 2 30.4589 76.5545 27.6951 16.1573 10.5968 -37.7989
# 3 54.6836 27.6951 109.3134 9.7024 20.0885 -19.8482
# 4 -10.2247 16.1573 9.7024 28.4305 2.5918 3.9620
# 5 21.4102 10.5968 20.0885 2.5918 47.7573 -1.8599
# 6 -22.6236 -37.7989 -19.8482 3.9620 -1.8599 44.0075
#
#
#
# Elastic Compliance Matrix: (Units=1/GPa)
#
#
# Indices 1 2 3 4 5 6 
#
# 1 0.014410 -0.006659 -0.006453 0.011778 -0.003002 -0.002409
# 2 -0.006659 0.037087 0.003006 -0.028649 -0.003699 0.032210
# 3 -0.006453 0.003006 0.014159 -0.009480 -0.002967 0.006379
# 4 0.011778 -0.028649 -0.009480 0.062843 0.000545 -0.028463
# 5 -0.003002 -0.003699 -0.002967 0.000545 0.024126 -0.005088
# 6 -0.002409 0.032210 0.006379 -0.028463 -0.005088 0.054376
#
#
# Mechanical properties :
#
#
# Convention : Reuss Voigt Hill
#
# Bulk Modulus (GPa) = 22.00450 58.72599 40.36525
# Shear Modulus (GPa) = 20.63039 36.70714 28.66876
#
# Velocity S-wave (km/s) = 2.83560 3.78239 3.34269
# Velocity P-wave (km/s) = 4.39284 6.47793 5.53447
#
# Compressibility (1/GPa) = 0.04544525
#
# Stress axis : x y z
#
# Youngs Moduli (GPa) = 69.39452 26.96363 70.62488
#
# Poissons Ratio (x) = 0.17955 0.45573
# Poissons Ratio (y) = 0.46208 -0.21230
# Poissons Ratio (z) = 0.44780 -0.08105
#
# Static dielectric constant tensor:
#      x y z
#    x 2.096950 0.143180 0.049420 
#    y 0.143180 2.407790 0.142360 
#    z 0.049420 0.142360 2.082050 
# 
# From -- ./inp_files/494099.got.cif
#   From: 2010.05.17/outbox.cif.g08.bks.cpg/sg2_248_cif.got.tgz:494099.got - 2010.06.03 11:33:40.
