data_PCOD9090685
_publ_section_title
;
Structure prediction by ZEFSAII (Michael W. Deem and Ramdas Pophale) SiO2 
 PCOD9090685
Probable space group: P -1
;
_chemical_formula_sum "Si O2"
_cell_formula_units_Z 11
_cell_length_a 8.052348
_cell_length_b 7.571318
_cell_length_c 9.953033
_cell_angle_alpha 63.354788
_cell_angle_beta 129.451279
_cell_angle_gamma 95.051144
_cell_volume 401.385192
_symmetry_space_group_name_H-M "P -1"
_symmetry_group_IT_number 2
_symmetry_cell_setting 'triclinic'
loop_
_space_group_symop_operation_xyz
x,y,z
-x,-y,-z
loop_
_atom_site_type_symbol
_atom_site_label
_atom_site_fract_x
_atom_site_fract_y
_atom_site_fract_z
Si Si1 0.763704 0.454002 0.891433
Si Si2 0.601110 0.190202 0.518469
Si Si3 0.943459 0.268477 0.450705
Si Si4 0.000000 0.000000 0.000000
Si Si5 0.754383 0.101473 0.160325
Si Si6 0.262638 0.324186 0.928188
O O1 0.601836 0.596231 0.650835
O O2 0.800459 0.204659 0.006931
O O3 0.668187 0.549122 0.955087
O O4 0.000000 0.500000 0.000000
O O5 0.751136 0.227642 0.459042
O O6 0.500000 0.000000 0.500000
O O7 0.773390 0.121632 0.750319
O O8 0.916685 0.175708 0.321532
O O9 0.108883 0.493539 0.692243
O O10 0.169691 0.139154 0.683830
O O11 0.877995 0.819437 0.039452
O O12 0.496046 0.192025 0.030684
#
# Coordination Sequence:
#
# PCOD9090685 Si02
#       6
#     2   2   2   1   2   2
#     4  11  21  39  73 103 137 181 231 280 350 405
#     4  12  22  44  69  99 141 183 222 289 340 406
#     4  10  20  38  71  96 135 182 228 275 346 406
#     4  12  28  40  72 102 140 182 236 278 352 404
#     4  10  19  38  70 104 127 182 234 276 338 420
#     4  11  22  45  63 100 139 178 231 285 335 416
#
# _framework density 27.405094999999999
#
# number of rings (size 3 to 8) (size 9 to 14) (size 15 to 20)
#    0.000    1.091    5.455    2.182    0.000    3.636 
#    0.000    4.545    0.000    0.000    0.000    0.000 
#    0.000    0.000    0.000    0.000    0.000    0.000 
#
# Total GULP energy -61485.048081 kJ/mol
# GULP energy per Si atom -5589.549826 kJ/mol
# Density = 2.734272 g / cm^3
# Si number density = 27.405095 Si / 1000 Ang^3
#
#
#
# Elastic Constant Matrix: (Units=GPa)
#
#
# Indices 1 2 3 4 5 6 
#
# 1 105.5055 9.0622 57.9976 -15.3229 -14.5544 39.5575
# 2 9.0622 146.7472 77.6000 -32.8747 -20.0691 17.5979
# 3 57.9976 77.6000 327.5760 -52.1105 -10.4397 16.9324
# 4 -15.3229 -32.8747 -52.1105 69.6450 6.5158 -13.3421
# 5 -14.5544 -20.0691 -10.4397 6.5158 58.2527 -8.9616
# 6 39.5575 17.5979 16.9324 -13.3421 -8.9616 40.7091
#
#
#
# Elastic Compliance Matrix: (Units=1/GPa)
#
#
# Indices 1 2 3 4 5 6 
#
# 1 0.017133 0.002579 -0.002802 -0.000430 0.002215 -0.016252
# 2 0.002579 0.009056 -0.001927 0.002342 0.002495 -0.004302
# 3 -0.002802 -0.001927 0.004204 0.002123 -0.000479 0.002398
# 4 -0.000430 0.002342 0.002123 0.017806 -0.000250 0.004303
# 5 0.002215 0.002495 -0.000479 -0.000250 0.018675 0.000998
# 6 -0.016252 -0.004302 0.002398 0.004303 0.000998 0.042849
#
#
# Mechanical properties :
#
#
# Convention : Reuss Voigt Hill
#
# Bulk Modulus (GPa) = 38.32484 96.57202 67.44843
# Shear Modulus (GPa) = 40.74233 62.73264 51.73748
#
# Velocity S-wave (km/s) = 3.85992 4.78963 4.34969
# Velocity P-wave (km/s) = 5.82067 8.11804 7.06339
#
# Compressibility (1/GPa) = 0.02609274
#
# Stress axis : x y z
#
# Youngs Moduli (GPa) = 58.36553 110.41943 237.86610
#
# Poissons Ratio (x) = -0.28480 0.66657
# Poissons Ratio (y) = -0.15054 0.45848
# Poissons Ratio (z) = 0.16356 0.21283
#
# Static dielectric constant tensor:
#      x y z
#    x 2.133620 -0.038630 -0.104560 
#    y -0.038630 2.156310 -0.041320 
#    z -0.104560 -0.041320 2.066330 
# 
# From -- ./inp_files/151793.got.cif
#   From: 2010.05.17/outbox.cif.g08.bks.cpg/sg2_76_cif.got.tgz:151793.got - 2010.06.03 11:33:40.
