data_PCOD9090572
_publ_section_title
;
Structure prediction by ZEFSAII (Michael W. Deem and Ramdas Pophale) SiO2 
 PCOD9090572
Probable space group: P -1
;
_chemical_formula_sum "Si O2"
_cell_formula_units_Z 16
_cell_length_a 9.551256
_cell_length_b 12.995435
_cell_length_c 9.836217
_cell_angle_alpha 45.446159
_cell_angle_beta 65.656470
_cell_angle_gamma 50.258042
_cell_volume 667.499224
_symmetry_space_group_name_H-M "P -1"
_symmetry_group_IT_number 2
_symmetry_cell_setting 'triclinic'
loop_
_space_group_symop_operation_xyz
x,y,z
-x,-y,-z
loop_
_atom_site_type_symbol
_atom_site_label
_atom_site_fract_x
_atom_site_fract_y
_atom_site_fract_z
Si Si1 0.300930 0.085682 0.285228
Si Si2 0.561254 0.760236 0.132978
Si Si3 0.215924 0.925266 0.971829
Si Si4 0.731281 0.361687 0.413436
Si Si5 0.932264 0.178084 0.224726
Si Si6 0.433187 0.285668 0.539325
Si Si7 0.891060 0.871045 0.420274
Si Si8 0.325989 0.578371 0.100810
O O1 0.212060 0.171212 0.386392
O O2 0.141026 0.090422 0.258753
O O3 0.454869 0.888068 0.429048
O O4 0.368877 0.177711 0.076972
O O5 0.340781 0.888749 0.086526
O O6 0.642055 0.561982 0.254619
O O7 0.637849 0.758165 0.255191
O O8 0.311711 0.736101 0.042332
O O9 0.212187 0.061556 0.742607
O O10 0.000000 0.000000 0.000000
O O11 0.825929 0.269821 0.319565
O O12 0.570796 0.328016 0.521058
O O13 0.895291 0.278247 0.534611
O O14 0.892430 0.035388 0.325411
O O15 0.855912 0.325829 0.006157
O O16 0.331779 0.441482 0.329325
O O17 0.500000 0.500000 0.000000
#
# Coordination Sequence:
#
# PCOD9090572 Si02
#       8
#     2   2   2   2   2   2   2   2
#     4  11  23  42  62  90 125 168 207 252 309 373
#     4  12  27  38  58  95 133 161 199 259 323 361
#     4  11  24  40  63  98 129 157 205 268 313 363
#     4  11  19  38  65  91 120 155 215 255 299 366
#     4  10  19  38  67  93 116 158 214 262 295 365
#     4  12  21  40  63  86 123 168 209 246 304 380
#     4  10  20  38  68  90 120 165 212 250 303 371
#     4  11  21  39  67  96 116 158 221 261 294 364
#
# _framework density 23.970065999999999
#
# number of rings (size 3 to 8) (size 9 to 14) (size 15 to 20)
#    0.000    1.000    5.000    3.000    3.500    2.500 
#    0.000    1.875    0.000    0.000    0.000    0.000 
#    0.000    0.000    0.000    0.000    0.000    0.000 
#
# Total GULP energy -89430.832317 kJ/mol
# GULP energy per Si atom -5589.427020 kJ/mol
# Density = 2.391551 g / cm^3
# Si number density = 23.970066 Si / 1000 Ang^3
#
#
#
# Elastic Constant Matrix: (Units=GPa)
#
#
# Indices 1 2 3 4 5 6 
#
# 1 44.7862 10.4458 36.2841 -8.1432 21.2669 -9.0653
# 2 10.4458 78.0228 32.0274 -11.1159 -3.4332 -7.9353
# 3 36.2841 32.0274 167.1775 -8.8571 44.5122 -22.8681
# 4 -8.1432 -11.1159 -8.8571 39.9140 -8.2953 4.3445
# 5 21.2669 -3.4332 44.5122 -8.2953 46.6472 -4.8046
# 6 -9.0653 -7.9353 -22.8681 4.3445 -4.8046 18.6994
#
#
#
# Elastic Compliance Matrix: (Units=1/GPa)
#
#
# Indices 1 2 3 4 5 6 
#
# 1 0.032322 -0.002847 -0.002087 0.001982 -0.011733 0.008434
# 2 -0.002847 0.015860 -0.003884 0.004291 0.007081 0.001423
# 3 -0.002087 -0.003884 0.010614 -0.001931 -0.008933 0.008474
# 4 0.001982 0.004291 -0.001931 0.027919 0.005747 -0.004590
# 5 -0.011733 0.007081 -0.008933 0.005747 0.036275 -0.005622
# 6 0.008434 0.001423 0.008474 -0.004590 -0.005622 0.068155
#
#
# Mechanical properties :
#
#
# Convention : Reuss Voigt Hill
#
# Bulk Modulus (GPa) = 24.29527 49.72234 37.00881
# Shear Modulus (GPa) = 22.47194 35.13404 28.80299
#
# Velocity S-wave (km/s) = 3.06518 3.83266 3.47020
# Velocity P-wave (km/s) = 4.76286 6.35407 5.61512
#
# Compressibility (1/GPa) = 0.04116027
#
# Stress axis : x y z
#
# Youngs Moduli (GPa) = 30.93864 63.05243 94.21478
#
# Poissons Ratio (x) = 0.17949 0.19665
# Poissons Ratio (y) = 0.08807 0.36592
# Poissons Ratio (z) = 0.06458 0.24489
#
# Static dielectric constant tensor:
#      x y z
#    x 1.954370 -0.018880 -0.005910 
#    y -0.018880 1.953750 0.096960 
#    z -0.005910 0.096960 2.005670 
# 
# From -- ./inp_files/436329.got.cif
#   From: 2010.05.17/outbox.cif.g08.bks.cpg/sg2_219_cif.got.tgz:436329.got - 2010.06.03 11:33:40.
