data_PCOD9090625
_publ_section_title
;
Structure prediction by ZEFSAII (Michael W. Deem and Ramdas Pophale) SiO2 
 PCOD9090625
Probable space group: P -1
;
_chemical_formula_sum "Si O2"
_cell_formula_units_Z 14
_cell_length_a 12.038638
_cell_length_b 10.432133
_cell_length_c 8.998052
_cell_angle_alpha 121.341908
_cell_angle_beta 130.504955
_cell_angle_gamma 87.507918
_cell_volume 654.134984
_symmetry_space_group_name_H-M "P -1"
_symmetry_group_IT_number 2
_symmetry_cell_setting 'triclinic'
loop_
_space_group_symop_operation_xyz
x,y,z
-x,-y,-z
loop_
_atom_site_type_symbol
_atom_site_label
_atom_site_fract_x
_atom_site_fract_y
_atom_site_fract_z
Si Si1 0.482587 0.832220 0.295097
Si Si2 0.998198 0.223051 0.107019
Si Si3 0.723607 0.861405 0.732908
Si Si4 0.832732 0.437115 0.993704
Si Si5 0.980663 0.331183 0.465207
Si Si6 0.432110 0.637865 0.535533
Si Si7 0.601246 0.173256 0.108561
O O1 0.611141 0.775711 0.441359
O O2 0.305466 0.683589 0.085247
O O3 0.500000 0.000000 0.500000
O O4 0.494359 0.850677 0.142297
O O5 0.047806 0.261214 0.347587
O O6 0.143646 0.199617 0.143526
O O7 0.958238 0.354702 0.059315
O O8 0.832323 0.050404 0.881769
O O9 0.583387 0.809374 0.705110
O O10 0.728848 0.415846 0.741175
O O11 0.924338 0.615891 0.264041
O O12 0.788919 0.215138 0.260469
O O13 0.000000 0.500000 0.500000
O O14 0.500000 0.500000 0.500000
O O15 0.393607 0.678024 0.691118
O O16 0.500000 0.000000 0.000000
#
# Coordination Sequence:
#
# PCOD9090625 Si02
#       7
#     2   2   2   2   2   2   2
#     4  11  19  39  66  94 122 170 224 264 319 391
#     4  10  19  38  68  93 115 164 229 272 306 372
#     4  10  22  38  65  92 128 166 219 267 318 391
#     4  10  21  40  69  84 125 174 220 255 322 397
#     4  10  20  38  64  94 119 164 227 266 309 388
#     4  11  27  42  59  98 141 171 206 271 338 386
#     4  12  24  40  68  98 133 170 219 273 326 392
#
# _framework density 21.40231
#
# number of rings (size 3 to 8) (size 9 to 14) (size 15 to 20)
#    0.000    1.429    4.286    2.571    4.000    1.714 
#    0.000    2.857    0.000    4.286    0.000    0.000 
#    0.000    0.000    0.000    0.000    0.000    0.000 
#
# Total GULP energy -78041.607609 kJ/mol
# GULP energy per Si atom -5574.400543 kJ/mol
# Density = 2.135360 g / cm^3
# Si number density = 21.402310 Si / 1000 Ang^3
#
#
#
# Elastic Constant Matrix: (Units=GPa)
#
#
# Indices 1 2 3 4 5 6 
#
# 1 72.0583 15.0514 31.9397 -13.5792 -1.6468 5.8920
# 2 15.0514 53.5784 12.6345 -16.7172 2.2203 -0.2261
# 3 31.9397 12.6345 104.0578 -19.3825 -1.3708 -4.5166
# 4 -13.5792 -16.7172 -19.3825 35.7387 11.5167 8.2556
# 5 -1.6468 2.2203 -1.3708 11.5167 41.9341 0.5671
# 6 5.8920 -0.2261 -4.5166 8.2556 0.5671 35.2177
#
#
#
# Elastic Compliance Matrix: (Units=1/GPa)
#
#
# Indices 1 2 3 4 5 6 
#
# 1 0.017558 -0.002560 -0.004495 0.004213 -0.000418 -0.004511
# 2 -0.002560 0.023268 0.000022 0.011888 -0.004568 -0.002133
# 3 -0.004495 0.000022 0.011930 0.004873 -0.001142 0.001158
# 4 0.004213 0.011888 0.004873 0.044082 -0.012274 -0.010140
# 5 -0.000418 -0.004568 -0.001142 -0.012274 0.027375 0.002331
# 6 -0.004511 -0.002133 0.001158 -0.010140 0.002331 0.031624
#
#
# Mechanical properties :
#
#
# Convention : Reuss Voigt Hill
#
# Bulk Modulus (GPa) = 25.84637 38.77172 32.30904
# Shear Modulus (GPa) = 27.35255 33.91601 30.63428
#
# Velocity S-wave (km/s) = 3.57882 3.98513 3.78743
# Velocity P-wave (km/s) = 5.40184 6.27137 5.85278
#
# Compressibility (1/GPa) = 0.03869016
#
# Stress axis : x y z
#
# Youngs Moduli (GPa) = 56.95419 42.97839 83.82250
#
# Poissons Ratio (x) = 0.11001 0.37679
# Poissons Ratio (y) = 0.14578 -0.00185
# Poissons Ratio (z) = 0.25601 -0.00095
#
# Static dielectric constant tensor:
#      x y z
#    x 1.815990 -0.025990 -0.023880 
#    y -0.025990 1.834740 0.035360 
#    z -0.023880 0.035360 1.876660 
# 
# From -- ./inp_files/238192.got.cif
#   From: 2010.05.17/outbox.cif.g08.bks.cpg/sg2_120_cif.got.tgz:238192.got - 2010.06.03 11:33:40.
