data_PCOD9090847
_publ_section_title
;
Structure prediction by ZEFSAII (Michael W. Deem and Ramdas Pophale) SiO2 
 PCOD9090847
Probable space group: P -1
;
_chemical_formula_sum "Si O2"
_cell_formula_units_Z 16
_cell_length_a 12.752881
_cell_length_b 17.591144
_cell_length_c 21.779917
_cell_angle_alpha 159.741591
_cell_angle_beta 156.342775
_cell_angle_gamma 32.294970
_cell_volume 675.415330
_symmetry_space_group_name_H-M "P -1"
_symmetry_group_IT_number 2
_symmetry_cell_setting 'triclinic'
loop_
_space_group_symop_operation_xyz
x,y,z
-x,-y,-z
loop_
_atom_site_type_symbol
_atom_site_label
_atom_site_fract_x
_atom_site_fract_y
_atom_site_fract_z
Si Si1 0.728114 0.798285 0.337257
Si Si2 0.449979 0.294955 0.153674
Si Si3 0.020554 0.732804 0.654870
Si Si4 0.314751 0.806089 0.677178
Si Si5 0.234880 0.322793 0.875961
Si Si6 0.383807 0.017030 0.141335
Si Si7 0.490053 0.255899 0.692533
Si Si8 0.321216 0.772501 0.430096
O O1 0.702314 0.735304 0.204446
O O2 0.542301 0.704503 0.221647
O O3 0.012333 0.718534 0.444903
O O4 0.702473 0.063193 0.515371
O O5 0.730673 0.252977 0.245193
O O6 0.507860 0.314927 0.272242
O O7 0.353663 0.515472 0.240668
O O8 0.288983 0.059638 0.877511
O O9 0.000000 0.500000 0.500000
O O10 0.769533 0.719806 0.467471
O O11 0.096397 0.928999 0.894116
O O12 0.462480 0.822979 0.704486
O O13 0.454068 0.200608 0.936686
O O14 0.950508 0.232459 0.680312
O O15 0.280422 0.586306 0.097010
O O16 0.438062 0.130472 0.322613
O O17 0.500000 0.000000 0.500000
#
# Coordination Sequence:
#
# PCOD9090847 Si02
#       8
#     2   2   2   2   2   2   2   2
#     4  11  22  43  64  93 131 169 212 261 325 385
#     4  10  24  37  63  96 127 168 211 269 318 371
#     4  11  23  44  65  85 131 176 210 255 331 383
#     4  10  19  39  60  88 128 166 206 258 325 372
#     4  11  22  43  66  95 134 175 208 261 332 382
#     4  10  20  41  67  94 125 172 211 263 319 382
#     4  12  28  43  66  97 129 171 221 267 316 385
#     4  11  23  40  69 103 126 163 225 266 314 380
#
# _framework density 23.689126999999999
#
# number of rings (size 3 to 8) (size 9 to 14) (size 15 to 20)
#    0.000    1.250    5.000    1.125    3.500    1.000 
#    2.250    0.625    0.000    0.000    0.000    0.000 
#    0.000    0.000    0.000    0.000    0.000    0.000 
#
# Total GULP energy -89329.063373 kJ/mol
# GULP energy per Si atom -5583.066461 kJ/mol
# Density = 2.363521 g / cm^3
# Si number density = 23.689127 Si / 1000 Ang^3
#
#
#
# Elastic Constant Matrix: (Units=GPa)
#
#
# Indices 1 2 3 4 5 6 
#
# 1 52.6051 2.2516 18.8845 -6.6138 1.7705 22.3460
# 2 2.2516 73.5170 -9.4754 10.3202 -2.6151 20.5421
# 3 18.8845 -9.4754 39.2535 15.3708 2.8599 11.0620
# 4 -6.6138 10.3202 15.3708 29.0039 9.0630 -13.1076
# 5 1.7705 -2.6151 2.8599 9.0630 30.5169 11.1285
# 6 22.3460 20.5421 11.0620 -13.1076 11.1285 26.9436
#
#
#
# Elastic Compliance Matrix: (Units=1/GPa)
#
#
# Indices 1 2 3 4 5 6 
#
# 1 0.031606 -0.002512 -0.018304 0.013595 -0.000781 -0.009846
# 2 -0.002512 -0.000451 -0.015775 0.025825 -0.016379 0.028232
# 3 -0.018304 -0.015775 0.009190 0.025646 -0.025740 0.046542
# 4 0.013595 0.025825 0.025646 -0.024474 0.030331 -0.065928
# 5 -0.000781 -0.016379 -0.025740 0.030331 0.012704 0.033211
# 6 -0.009846 0.028232 0.046542 -0.065928 0.033211 -0.041143
#
#
# Mechanical properties :
#
#
# Convention : Reuss Voigt Hill
#
# Bulk Modulus (GPa) = -30.45304 20.96635 -4.74334
# Shear Modulus (GPa) = 100.66381 27.54055 64.10218
#
# Velocity S-wave (km/s) = 6.52579 3.41336 5.20754
# Velocity P-wave (km/s) = 6.62556 4.94010 5.84391
#
# Compressibility (1/GPa) = -0.03283744
#
# Stress axis : x y z
#
# Youngs Moduli (GPa) = 31.63954 -2219.10131 108.81169
#
# Poissons Ratio (x) = -5.57478 1.99167
# Poissons Ratio (y) = 0.07948 1.71656
# Poissons Ratio (z) = 0.57913 -35.00739
#
# Static dielectric constant tensor:
#      x y z
#    x 2.039140 0.076790 -0.067680 
#    y 0.076790 1.944050 0.087220 
#    z -0.067680 0.087220 2.053440 
# 
# From -- ./inp_files/226117.got.cif
#   From: 2010.05.17/outbox.cif.g08.bks.cpg/sg2_114_cif.got.tgz:226117.got - 2010.06.03 11:33:40.
