data_PCOD9090518
_publ_section_title
;
Structure prediction by ZEFSAII (Michael W. Deem and Ramdas Pophale) SiO2 
 PCOD9090518
Probable space group: P -1
;
_chemical_formula_sum "Si O2"
_cell_formula_units_Z 16
_cell_length_a 11.151580
_cell_length_b 11.704151
_cell_length_c 7.673910
_cell_angle_alpha 90.439551
_cell_angle_beta 44.664152
_cell_angle_gamma 95.776455
_cell_volume 697.566154
_symmetry_space_group_name_H-M "P -1"
_symmetry_group_IT_number 2
_symmetry_cell_setting 'triclinic'
loop_
_space_group_symop_operation_xyz
x,y,z
-x,-y,-z
loop_
_atom_site_type_symbol
_atom_site_label
_atom_site_fract_x
_atom_site_fract_y
_atom_site_fract_z
Si Si1 0.103065 0.902911 0.469489
Si Si2 0.604790 0.131430 0.603396
Si Si3 0.619920 0.574275 0.608475
Si Si4 0.007539 0.419635 0.742422
Si Si5 0.412640 0.929497 0.920935
Si Si6 0.526551 0.657324 0.091111
Si Si7 0.360391 0.714896 0.764627
Si Si8 0.084339 0.347954 0.264914
O O1 0.238701 0.932484 0.487549
O O2 0.998365 0.784647 0.643700
O O3 0.221008 0.885261 0.180730
O O4 0.000000 0.000000 0.500000
O O5 0.546541 0.222962 0.804808
O O6 0.660649 0.211294 0.384344
O O7 0.443075 0.031938 0.749070
O O8 0.817507 0.609346 0.348870
O O9 0.601383 0.440994 0.682287
O O10 0.484773 0.617041 0.616287
O O11 0.557303 0.625824 0.858234
O O12 0.050761 0.391666 0.496350
O O13 0.987552 0.555571 0.777916
O O14 0.825316 0.347177 0.980533
O O15 0.463763 0.814569 0.782948
O O16 0.500000 0.000000 0.000000
O O17 0.714516 0.653463 0.977739
#
# Coordination Sequence:
#
# PCOD9090518 Si02
#       8
#     2   2   2   2   2   2   2   2
#     4  11  22  40  65  94 123 168 228 275 315 381
#     4  11  25  41  63  95 131 174 214 271 340 395
#     4  10  21  38  68  94 130 174 219 269 313 391
#     4  10  21  37  64 101 129 170 214 269 327 385
#     4  10  22  43  68  88 120 171 226 267 318 387
#     4  10  20  39  65  96 126 173 224 261 322 385
#     4  12  23  44  64  96 141 169 209 271 344 395
#     4  10  19  38  66  96 129 164 225 277 307 376
#
# _framework density 22.936893999999999
#
# number of rings (size 3 to 8) (size 9 to 14) (size 15 to 20)
#    0.000    1.500    2.500    3.375    1.750    3.500 
#    4.500    1.875    0.000    0.000    0.000    0.000 
#    0.000    0.000    0.000    0.000    0.000    0.000 
#
# Total GULP energy -89186.488267 kJ/mol
# GULP energy per Si atom -5574.155517 kJ/mol
# Density = 2.288469 g / cm^3
# Si number density = 22.936894 Si / 1000 Ang^3
#
#
#
# Elastic Constant Matrix: (Units=GPa)
#
#
# Indices 1 2 3 4 5 6 
#
# 1 60.2759 32.2970 34.6150 -0.0156 -10.8116 -22.5998
# 2 32.2970 154.4671 37.2407 -17.7500 -7.5577 -10.3480
# 3 34.6150 37.2407 70.3204 -14.5314 -13.9138 -6.5450
# 4 -0.0156 -17.7500 -14.5314 31.8184 5.8986 -3.9848
# 5 -10.8116 -7.5577 -13.9138 5.8986 32.1513 3.1224
# 6 -22.5998 -10.3480 -6.5450 -3.9848 3.1224 41.7450
#
#
#
# Elastic Compliance Matrix: (Units=1/GPa)
#
#
# Indices 1 2 3 4 5 6 
#
# 1 0.031602 -0.003104 -0.013281 -0.006881 0.004121 0.013292
# 2 -0.003104 0.008041 -0.002076 0.003730 -0.000775 0.000401
# 3 -0.013281 -0.002076 0.024171 0.008660 0.004248 -0.003406
# 4 -0.006881 0.003730 0.008660 0.038727 -0.005050 0.002632
# 5 0.004121 -0.000775 0.004248 -0.005050 0.035110 -0.000403
# 6 0.013292 0.000401 -0.003406 0.002632 -0.000403 0.030998
#
#
# Mechanical properties :
#
#
# Convention : Reuss Voigt Hill
#
# Bulk Modulus (GPa) = 37.18702 54.81877 46.00289
# Shear Modulus (GPa) = 23.30635 33.20366 28.25501
#
# Velocity S-wave (km/s) = 3.19110 3.80887 3.51359
# Velocity P-wave (km/s) = 5.46127 6.57990 6.04651
#
# Compressibility (1/GPa) = 0.02689111
#
# Stress axis : x y z
#
# Youngs Moduli (GPa) = 31.64380 124.36422 41.37263
#
# Poissons Ratio (x) = 0.38604 0.54949
# Poissons Ratio (y) = 0.09823 0.08587
# Poissons Ratio (z) = 0.42027 0.25812
#
# Static dielectric constant tensor:
#      x y z
#    x 2.006500 0.041160 0.040740 
#    y 0.041160 1.882620 -0.038800 
#    z 0.040740 -0.038800 1.885530 
# 
# From -- ./inp_files/239197.got.cif
#   From: 2010.05.17/outbox.cif.g08.bks.cpg/sg2_120_cif.got.tgz:239197.got - 2010.06.03 11:33:40.
