data_PCOD9090569
_publ_section_title
;
Structure prediction by ZEFSAII (Michael W. Deem and Ramdas Pophale) SiO2 
 PCOD9090569
Probable space group: P -1
;
_chemical_formula_sum "Si O2"
_cell_formula_units_Z 14
_cell_length_a 13.173785
_cell_length_b 11.351370
_cell_length_c 6.854848
_cell_angle_alpha 71.925204
_cell_angle_beta 45.981986
_cell_angle_gamma 49.871108
_cell_volume 545.691170
_symmetry_space_group_name_H-M "P -1"
_symmetry_group_IT_number 2
_symmetry_cell_setting 'triclinic'
loop_
_space_group_symop_operation_xyz
x,y,z
-x,-y,-z
loop_
_atom_site_type_symbol
_atom_site_label
_atom_site_fract_x
_atom_site_fract_y
_atom_site_fract_z
Si Si1 0.329553 0.007261 0.166613
Si Si2 0.840302 0.701485 0.022816
Si Si3 0.555537 0.477052 0.708485
Si Si4 0.239871 0.421132 0.514882
Si Si5 0.010043 0.861011 0.169719
Si Si6 0.772510 0.495960 0.965627
Si Si7 0.796907 0.164830 0.708343
O O1 0.184206 0.058797 0.507065
O O2 0.354510 0.857480 0.113950
O O3 0.227035 0.137567 0.067188
O O4 0.500000 0.000000 0.000000
O O5 0.761997 0.717765 0.333939
O O6 0.776736 0.621227 0.012660
O O7 0.054917 0.575288 0.777146
O O8 0.599133 0.596681 0.581386
O O9 0.744063 0.296503 0.552857
O O10 0.500000 0.500000 0.000000
O O11 0.411538 0.480822 0.776273
O O12 0.220007 0.463001 0.292497
O O13 0.073092 0.691155 0.093361
O O14 0.175479 0.791647 0.139042
O O15 0.000000 0.000000 0.000000
O O16 0.000000 0.000000 0.500000
#
# Coordination Sequence:
#
# PCOD9090569 Si02
#       7
#     2   2   2   2   2   2   2
#     4  11  24  43  61  93 135 168 217 269 331 399
#     4  11  23  39  65  94 124 174 210 259 335 393
#     4  10  19  38  67  92 123 168 217 271 318 373
#     4  10  21  38  63  94 124 164 216 259 326 386
#     4  11  24  42  65  95 126 176 219 266 338 396
#     4  11  22  42  66  92 135 159 219 282 315 383
#     4  10  20  41  67  87 133 174 211 265 330 391
#
# _framework density 25.655536000000001
#
# number of rings (size 3 to 8) (size 9 to 14) (size 15 to 20)
#    0.000    1.429    4.286    2.143    0.000    6.286 
#    0.000    0.714    0.000    0.000    0.000    0.000 
#    0.000    0.000    0.000    0.000    0.000    0.000 
#
# Total GULP energy -78143.757982 kJ/mol
# GULP energy per Si atom -5581.696999 kJ/mol
# Density = 2.559714 g / cm^3
# Si number density = 25.655536 Si / 1000 Ang^3
#
#
#
# Elastic Constant Matrix: (Units=GPa)
#
#
# Indices 1 2 3 4 5 6 
#
# 1 119.6709 -5.9525 39.0760 -6.0865 -32.4807 23.5260
# 2 -5.9525 92.2685 22.4344 -22.3101 10.4899 -0.6262
# 3 39.0760 22.4344 155.8890 -41.9761 -12.1201 -3.4371
# 4 -6.0865 -22.3101 -41.9761 42.9801 -7.9000 -6.3393
# 5 -32.4807 10.4899 -12.1201 -7.9000 52.2578 -7.7826
# 6 23.5260 -0.6262 -3.4371 -6.3393 -7.7826 43.7172
#
#
#
# Elastic Compliance Matrix: (Units=1/GPa)
#
#
# Indices 1 2 3 4 5 6 
#
# 1 0.011998 0.000649 -0.002966 -0.000668 0.005680 -0.005766
# 2 0.000649 0.012591 -0.000435 0.006041 -0.001244 0.000451
# 3 -0.002966 -0.000435 0.010451 0.010770 0.002966 0.004501
# 4 -0.000668 0.006041 0.010770 0.039567 0.008114 0.008475
# 5 0.005680 -0.001244 0.002966 0.008114 0.025252 0.002831
# 6 -0.005766 0.000451 0.004501 0.008475 0.002831 0.028071
#
#
# Mechanical properties :
#
#
# Convention : Reuss Voigt Hill
#
# Bulk Modulus (GPa) = 33.85761 53.21600 43.53680
# Shear Modulus (GPa) = 34.89690 48.60907 41.75298
#
# Velocity S-wave (km/s) = 3.69210 4.35752 4.03854
# Velocity P-wave (km/s) = 5.60367 6.79005 6.22519
#
# Compressibility (1/GPa) = 0.02953545
#
# Stress axis : x y z
#
# Youngs Moduli (GPa) = 83.34517 79.42388 95.68610
#
# Poissons Ratio (x) = -0.05155 0.28383
# Poissons Ratio (y) = -0.05409 0.04162
# Poissons Ratio (z) = 0.24723 0.03454
#
# Static dielectric constant tensor:
#      x y z
#    x 2.098760 0.018750 0.082280 
#    y 0.018750 2.149630 0.021740 
#    z 0.082280 0.021740 2.140360 
# 
# From -- ./inp_files/302481.got.cif
#   From: 2010.05.17/outbox.cif.g08.bks.cpg/sg2_152_cif.got.tgz:302481.got - 2010.06.03 11:33:40.
