data_PCOD9090818
_publ_section_title
;
Structure prediction by ZEFSAII (Michael W. Deem and Ramdas Pophale) SiO2 
 PCOD9090818
Probable space group: P -1
;
_chemical_formula_sum "Si O2"
_cell_formula_units_Z 14
_cell_length_a 9.059089
_cell_length_b 13.399853
_cell_length_c 7.540334
_cell_angle_alpha 53.939137
_cell_angle_beta 74.575063
_cell_angle_gamma 52.881251
_cell_volume 584.335928
_symmetry_space_group_name_H-M "P -1"
_symmetry_group_IT_number 2
_symmetry_cell_setting 'triclinic'
loop_
_space_group_symop_operation_xyz
x,y,z
-x,-y,-z
loop_
_atom_site_type_symbol
_atom_site_label
_atom_site_fract_x
_atom_site_fract_y
_atom_site_fract_z
Si Si1 0.139552 0.525059 0.322589
Si Si2 0.657877 0.805664 0.551856
Si Si3 0.274481 0.967607 0.353451
Si Si4 0.764712 0.980080 0.072777
Si Si5 0.155500 0.777942 0.672832
Si Si6 0.038469 0.342782 0.116811
Si Si7 0.208250 0.761734 0.081573
O O1 0.280445 0.358551 0.368811
O O2 0.240542 0.601003 0.291738
O O3 0.000000 0.500000 0.500000
O O4 0.005019 0.648720 0.085700
O O5 0.435916 0.909683 0.504079
O O6 0.725098 0.886409 0.318203
O O7 0.759752 0.773636 0.741597
O O8 0.250679 0.832462 0.462835
O O9 0.067733 0.093427 0.361056
O O10 0.316695 0.008648 0.109079
O O11 0.988930 0.879318 0.076965
O O12 0.705042 0.146820 0.977568
O O13 0.131103 0.652939 0.738606
O O14 0.241324 0.747207 0.872910
O O15 0.000000 0.500000 0.000000
#
# Coordination Sequence:
#
# PCOD9090818 Si02
#       7
#     2   2   2   2   2   2   2
#     4  10  19  39  60  84 116 154 193 232 286 348
#     4  11  22  37  59  88 119 150 191 241 285 334
#     4  10  22  37  58  85 119 151 190 240 285 335
#     4  10  20  34  59  86 118 146 193 238 285 335
#     4   9  20  39  59  79 116 155 191 231 291 344
#     4   9  21  37  59  86 113 152 194 230 288 345
#     4   9  19  36  58  86 109 153 193 234 283 346
#
# _framework density 23.958821
#
# number of rings (size 3 to 8) (size 9 to 14) (size 15 to 20)
#    0.000    2.286    1.429    0.429    8.000    0.571 
#    0.000    7.143    0.000    0.000    0.000    0.000 
#    0.000    0.000    0.000    0.000    0.000    0.000 
#
# Total GULP energy -77984.381451 kJ/mol
# GULP energy per Si atom -5570.312961 kJ/mol
# Density = 2.390429 g / cm^3
# Si number density = 23.958821 Si / 1000 Ang^3
#
#
#
# Elastic Constant Matrix: (Units=GPa)
#
#
# Indices 1 2 3 4 5 6 
#
# 1 57.7775 1.9124 41.4000 -4.2910 -4.0263 16.6790
# 2 1.9124 67.8285 18.2092 -23.4346 -9.5065 23.9183
# 3 41.4000 18.2092 128.8385 -5.2494 -9.2205 -1.1574
# 4 -4.2910 -23.4346 -5.2494 28.1235 12.8215 -14.2228
# 5 -4.0263 -9.5065 -9.2205 12.8215 40.6246 -9.9984
# 6 16.6790 23.9183 -1.1574 -14.2228 -9.9984 32.9620
#
#
#
# Elastic Compliance Matrix: (Units=1/GPa)
#
#
# Indices 1 2 3 4 5 6 
#
# 1 0.033786 0.011700 -0.012992 0.000531 -0.003656 -0.026922
# 2 0.011700 0.028850 -0.007699 0.015193 -0.003992 -0.021780
# 3 -0.012992 -0.007699 0.013363 -0.000721 0.003461 0.013369
# 4 0.000531 0.015193 -0.000721 0.059194 -0.012684 0.010376
# 5 -0.003656 -0.003992 0.003461 -0.012684 0.030215 0.008561
# 6 -0.026922 -0.021780 0.013369 0.010376 0.008561 0.067308
#
#
# Mechanical properties :
#
#
# Convention : Reuss Voigt Hill
#
# Bulk Modulus (GPa) = 17.23663 41.94310 29.58986
# Shear Modulus (GPa) = 18.51584 33.20353 25.85969
#
# Velocity S-wave (km/s) = 2.78298 3.72675 3.28889
# Velocity P-wave (km/s) = 4.18766 6.00521 5.17683
#
# Compressibility (1/GPa) = 0.05801598
#
# Stress axis : x y z
#
# Youngs Moduli (GPa) = 29.59789 34.66174 74.83319
#
# Poissons Ratio (x) = -0.40553 0.97223
# Poissons Ratio (y) = -0.34628 0.57616
# Poissons Ratio (z) = 0.38454 0.26687
#
# Static dielectric constant tensor:
#      x y z
#    x 2.013970 0.147430 -0.050410 
#    y 0.147430 2.094280 -0.036480 
#    z -0.050410 -0.036480 2.291010 
# 
# From -- ./inp_files/195158.got.cif
#   From: 2010.05.17/outbox.cif.g08.bks.cpg/sg2_98_cif.got.tgz:195158.got - 2010.06.03 11:33:40.
