data_PCOD9090393
_publ_section_title
;
Structure prediction by ZEFSAII (Michael W. Deem and Ramdas Pophale) SiO2 
 PCOD9090393
Probable space group: P -1
;
_chemical_formula_sum "Si O2"
_cell_formula_units_Z 14
_cell_length_a 8.316790
_cell_length_b 15.230242
_cell_length_c 9.996451
_cell_angle_alpha 142.649941
_cell_angle_beta 78.429425
_cell_angle_gamma 120.134653
_cell_volume 614.983656
_symmetry_space_group_name_H-M "P -1"
_symmetry_group_IT_number 2
_symmetry_cell_setting 'triclinic'
loop_
_space_group_symop_operation_xyz
x,y,z
-x,-y,-z
loop_
_atom_site_type_symbol
_atom_site_label
_atom_site_fract_x
_atom_site_fract_y
_atom_site_fract_z
Si Si1 0.630462 0.523232 0.132750
Si Si2 0.285973 0.879581 0.316808
Si Si3 0.190755 0.993305 0.979448
Si Si4 0.333393 0.134852 0.420818
Si Si5 0.554059 0.294344 0.102526
Si Si6 0.214133 0.649561 0.272934
Si Si7 0.034804 0.421710 0.527933
O O1 0.715852 0.719542 0.405264
O O2 0.500421 0.375914 0.089326
O O3 0.500000 0.500000 0.000000
O O4 0.769396 0.470441 0.982518
O O5 0.166700 0.763935 0.326280
O O6 0.500000 0.000000 0.500000
O O7 0.224204 0.993723 0.389085
O O8 0.334460 0.786793 0.081151
O O9 0.099932 0.790211 0.715662
O O10 0.277191 0.039123 0.171526
O O11 0.369637 0.141015 0.032978
O O12 0.000000 0.000000 0.000000
O O13 0.569715 0.236025 0.546016
O O14 0.725208 0.470655 0.367226
O O15 0.049221 0.543810 0.283965
O O16 0.000000 0.500000 0.500000
#
# Coordination Sequence:
#
# PCOD9090393 Si02
#       7
#     2   2   2   2   2   2   2
#     4   9  20  38  66  96 128 172 215 264 324 381
#     4   9  18  36  66  96 128 168 212 266 325 380
#     4  12  27  44  65  95 132 175 219 263 322 388
#     4  10  19  38  65  96 132 169 213 271 322 372
#     4  11  24  44  65  92 134 173 213 271 323 376
#     4   9  20  39  65  96 128 167 215 263 325 389
#     4  12  26  43  68  99 129 172 221 262 317 390
#
# _framework density 22.764831000000001
#
# number of rings (size 3 to 8) (size 9 to 14) (size 15 to 20)
#    0.000    1.714    0.000    5.143    0.000    8.571 
#    0.000    2.857    0.000   16.286    0.000    0.000 
#    0.000    0.000    0.000    0.000    0.000    0.000 
#
# Total GULP energy -78164.876553 kJ/mol
# GULP energy per Si atom -5583.205468 kJ/mol
# Density = 2.271302 g / cm^3
# Si number density = 22.764831 Si / 1000 Ang^3
#
#
#
# Elastic Constant Matrix: (Units=GPa)
#
#
# Indices 1 2 3 4 5 6 
#
# 1 49.7166 68.3661 30.0126 9.5283 19.4373 2.4236
# 2 68.3661 222.1493 53.8606 1.4136 10.6423 -14.0857
# 3 30.0126 53.8606 108.3130 8.8402 19.6992 7.7575
# 4 9.5283 1.4136 8.8402 31.7676 -3.6534 0.3702
# 5 19.4373 10.6423 19.6992 -3.6534 44.7118 7.3786
# 6 2.4236 -14.0857 7.7575 0.3702 7.3786 37.5564
#
#
#
# Elastic Compliance Matrix: (Units=1/GPa)
#
#
# Indices 1 2 3 4 5 6 
#
# 1 0.053078 -0.015130 -0.001977 -0.016849 -0.019194 -0.004754
# 2 -0.015130 0.009687 -0.002258 0.005267 0.005031 0.004035
# 3 -0.001977 -0.002258 0.012007 -0.003049 -0.003740 -0.002435
# 4 -0.016849 0.005267 -0.003049 0.038320 0.010333 0.001285
# 5 -0.019194 0.005031 -0.003740 0.010333 0.032429 -0.002575
# 6 -0.004754 0.004035 -0.002435 0.001285 -0.002575 0.029443
#
#
# Mechanical properties :
#
#
# Convention : Reuss Voigt Hill
#
# Bulk Modulus (GPa) = 27.74673 76.07308 51.90990
# Shear Modulus (GPa) = 22.15244 38.00314 30.07779
#
# Velocity S-wave (km/s) = 3.12284 4.09024 3.63883
# Velocity P-wave (km/s) = 5.02172 7.46968 6.36451
#
# Compressibility (1/GPa) = 0.03604028
#
# Stress axis : x y z
#
# Youngs Moduli (GPa) = 18.84009 103.23520 83.28521
#
# Poissons Ratio (x) = 1.56196 0.16468
# Poissons Ratio (y) = 0.28505 0.18809
# Poissons Ratio (z) = 0.03725 0.23314
#
# Static dielectric constant tensor:
#      x y z
#    x 1.865860 -0.010340 -0.017490 
#    y -0.010340 1.867610 0.065040 
#    z -0.017490 0.065040 1.968790 
# 
# From -- ./inp_files/174369.got.cif
#   From: 2010.05.17/outbox.cif.g08.bks.cpg/sg2_88_cif.got.tgz:174369.got - 2010.06.03 11:33:40.
