data_PCOD9090438
_publ_section_title
;
Structure prediction by ZEFSAII (Michael W. Deem and Ramdas Pophale) SiO2 
 PCOD9090438
Probable space group: P -1
;
_chemical_formula_sum "Si O2"
_cell_formula_units_Z 16
_cell_length_a 13.813209
_cell_length_b 8.943493
_cell_length_c 7.541157
_cell_angle_alpha 114.087345
_cell_angle_beta 117.732592
_cell_angle_gamma 96.148688
_cell_volume 700.098591
_symmetry_space_group_name_H-M "P -1"
_symmetry_group_IT_number 2
_symmetry_cell_setting 'triclinic'
loop_
_space_group_symop_operation_xyz
x,y,z
-x,-y,-z
loop_
_atom_site_type_symbol
_atom_site_label
_atom_site_fract_x
_atom_site_fract_y
_atom_site_fract_z
Si Si1 0.028386 0.655351 0.742121
Si Si2 0.066588 0.077867 0.332019
Si Si3 0.845486 0.228357 0.771081
Si Si4 0.574261 0.543055 0.768298
Si Si5 0.185435 0.161728 0.846949
Si Si6 0.781699 0.184905 0.295058
Si Si7 0.450100 0.790836 0.831111
Si Si8 0.415843 0.807044 0.393693
O O1 0.146629 0.780797 0.807328
O O2 0.000000 0.500000 0.500000
O O3 0.941901 0.763824 0.715724
O O4 0.059306 0.629006 0.956000
O O5 0.128585 0.170905 0.611921
O O6 0.135689 0.955902 0.268719
O O7 0.933745 0.937401 0.190095
O O8 0.849014 0.255683 0.573861
O O9 0.718720 0.211036 0.726276
O O10 0.500000 0.500000 0.500000
O O11 0.519009 0.666683 0.886464
O O12 0.564635 0.358875 0.759874
O O13 0.713831 0.658851 0.915665
O O14 0.252953 0.024635 0.815218
O O15 0.680712 0.263139 0.230012
O O16 0.440461 0.782571 0.607474
O O17 0.500000 0.000000 0.000000
O O18 0.500000 0.000000 0.500000
#
# Coordination Sequence:
#
# PCOD9090438 Si02
#       8
#     2   2   2   2   2   2   2   2
#     4  11  24  39  59  94 130 159 206 264 318 376
#     4   9  20  39  62  89 120 170 211 257 323 375
#     4  10  22  43  64  87 122 170 213 256 314 384
#     4  10  21  37  62  96 125 165 218 262 319 390
#     4   9  17  36  66  90 123 164 213 264 312 381
#     4   9  20  40  64  90 122 167 206 257 320 373
#     4  10  19  38  66  89 119 164 218 253 312 389
#     4  10  24  41  59  92 130 165 206 268 328 369
#
# _framework density 22.853923999999999
#
# number of rings (size 3 to 8) (size 9 to 14) (size 15 to 20)
#    0.000    2.250    1.250    1.125    3.500    1.500 
#    9.000    0.625    0.000    0.000    0.000    0.000 
#    0.000    0.000    0.000    0.000    0.000    0.000 
#
# Total GULP energy -89143.824630 kJ/mol
# GULP energy per Si atom -5571.489039 kJ/mol
# Density = 2.280191 g / cm^3
# Si number density = 22.853924 Si / 1000 Ang^3
#
#
#
# Elastic Constant Matrix: (Units=GPa)
#
#
# Indices 1 2 3 4 5 6 
#
# 1 73.0852 61.1906 14.0204 -0.3521 -1.1168 -38.4556
# 2 61.1906 95.2445 39.2847 12.0803 9.4473 -34.5979
# 3 14.0204 39.2847 117.5103 9.3796 7.1720 -6.2485
# 4 -0.3521 12.0803 9.3796 27.0612 4.3702 -8.1458
# 5 -1.1168 9.4473 7.1720 4.3702 25.1718 3.9486
# 6 -38.4556 -34.5979 -6.2485 -8.1458 3.9486 38.3615
#
#
#
# Elastic Compliance Matrix: (Units=1/GPa)
#
#
# Indices 1 2 3 4 5 6 
#
# 1 0.052656 -0.024838 0.002070 0.021305 0.001871 0.035053
# 2 -0.024838 0.031898 -0.006190 -0.010334 -0.009779 0.001674
# 3 0.002070 -0.006190 0.010330 -0.001443 0.000057 -0.002137
# 4 0.021305 -0.010334 -0.001443 0.050507 -0.007183 0.023266
# 5 0.001871 -0.009779 0.000057 -0.007183 0.046793 -0.013276
# 6 0.035053 0.001674 -0.002137 0.023266 -0.013276 0.068675
#
#
# Mechanical properties :
#
#
# Convention : Reuss Voigt Hill
#
# Bulk Modulus (GPa) = 27.04911 57.20347 42.12629
# Shear Modulus (GPa) = 15.10124 29.54186 22.32155
#
# Velocity S-wave (km/s) = 2.57334 3.59923 3.12862
# Velocity P-wave (km/s) = 4.54871 6.50822 5.61461
#
# Compressibility (1/GPa) = 0.03696979
#
# Stress axis : x y z
#
# Youngs Moduli (GPa) = 18.99113 31.34949 96.80327
#
# Poissons Ratio (x) = 0.77866 -0.20041
# Poissons Ratio (y) = 0.47170 0.59919
# Poissons Ratio (z) = -0.03932 0.19405
#
# Static dielectric constant tensor:
#      x y z
#    x 1.955500 -0.041040 0.000870 
#    y -0.041040 1.936800 0.036900 
#    z 0.000870 0.036900 1.923290 
# 
# From -- ./inp_files/296486.got.cif
#   From: 2010.05.17/outbox.cif.g08.bks.cpg/sg2_149_cif.got.tgz:296486.got - 2010.06.03 11:33:40.
