data_PCOD9090426
_publ_section_title
;
Structure prediction by ZEFSAII (Michael W. Deem and Ramdas Pophale) SiO2 
 PCOD9090426
Probable space group: P -1
;
_chemical_formula_sum "Si O2"
_cell_formula_units_Z 16
_cell_length_a 18.697529
_cell_length_b 9.032126
_cell_length_c 8.915735
_cell_angle_alpha 98.211823
_cell_angle_beta 144.975493
_cell_angle_gamma 69.155657
_cell_volume 775.994501
_symmetry_space_group_name_H-M "P -1"
_symmetry_group_IT_number 2
_symmetry_cell_setting 'triclinic'
loop_
_space_group_symop_operation_xyz
x,y,z
-x,-y,-z
loop_
_atom_site_type_symbol
_atom_site_label
_atom_site_fract_x
_atom_site_fract_y
_atom_site_fract_z
Si Si1 0.865044 0.838847 0.091609
Si Si2 0.761111 0.588143 0.149557
Si Si3 0.955677 0.013921 0.755657
Si Si4 0.667636 0.060179 0.298508
Si Si5 0.386283 0.045979 0.136514
Si Si6 0.003188 0.315345 0.390274
Si Si7 0.317985 0.201492 0.463018
Si Si8 0.583137 0.605286 0.111032
O O1 0.950747 0.740292 0.367041
O O2 0.724807 0.973053 0.946219
O O3 0.809617 0.746651 0.862068
O O4 0.958463 0.911067 0.179661
O O5 0.849331 0.454028 0.159205
O O6 0.685853 0.529335 0.137858
O O7 0.879266 0.625505 0.444208
O O8 0.656454 0.757119 0.914316
O O9 0.984382 0.837117 0.709220
O O10 0.791572 0.112102 0.491606
O O11 0.000000 0.000000 0.000000
O O12 0.698499 0.922904 0.459689
O O13 0.529031 0.218672 0.116135
O O14 0.645662 0.989097 0.093176
O O15 0.542657 0.914477 0.405419
O O16 0.344099 0.342751 0.617994
O O17 0.500000 0.500000 0.000000
#
# Coordination Sequence:
#
# PCOD9090426 Si02
#       8
#     2   2   2   2   2   2   2   2
#     4  11  23  35  62  93 123 160 206 264 306 369
#     4  10  19  40  63  85 124 168 205 245 323 379
#     4  12  23  39  62  93 125 156 215 261 304 369
#     4  11  20  40  65  89 124 169 209 254 308 373
#     4  10  19  38  66  86 117 166 214 254 300 376
#     4  10  23  39  63  90 125 170 200 254 323 374
#     4  11  20  40  64  95 123 165 217 251 312 375
#     4  11  23  37  65  94 123 166 210 265 311 365
#
# _framework density 20.618704000000001
#
# number of rings (size 3 to 8) (size 9 to 14) (size 15 to 20)
#    0.000    1.250    6.250    1.500    1.750    1.000 
#    0.000    4.375    0.000    4.500    0.000    0.000 
#    0.000    0.000    0.000    0.000    0.000    0.000 
#
# Total GULP energy -89299.839883 kJ/mol
# GULP energy per Si atom -5581.239993 kJ/mol
# Density = 2.057177 g / cm^3
# Si number density = 20.618704 Si / 1000 Ang^3
#
#
#
# Elastic Constant Matrix: (Units=GPa)
#
#
# Indices 1 2 3 4 5 6 
#
# 1 127.6881 11.9783 22.9206 12.7984 22.5821 23.8445
# 2 11.9783 29.4237 30.8689 18.6323 -2.4885 1.3327
# 3 22.9206 30.8689 71.8709 12.0004 -3.1104 -0.5423
# 4 12.7984 18.6323 12.0004 21.6451 -0.2969 9.2305
# 5 22.5821 -2.4885 -3.1104 -0.2969 37.2385 1.5350
# 6 23.8445 1.3327 -0.5423 9.2305 1.5350 30.3452
#
#
#
# Elastic Compliance Matrix: (Units=1/GPa)
#
#
# Indices 1 2 3 4 5 6 
#
# 1 0.011409 -0.000556 -0.003637 -0.000753 -0.006918 -0.008427
# 2 -0.000556 0.167063 -0.049535 -0.129291 0.005043 0.031288
# 3 -0.003637 -0.049535 0.031623 0.028655 0.001898 -0.003214
# 4 -0.000753 -0.129291 0.028655 0.159791 -0.002798 -0.041683
# 5 -0.006918 0.005043 0.001898 -0.002798 0.031336 0.004515
# 6 -0.008427 0.031288 -0.003214 -0.041683 0.004515 0.050595
#
#
# Mechanical properties :
#
#
# Convention : Reuss Voigt Hill
#
# Bulk Modulus (GPa) = 9.74288 40.05759 24.90024
# Shear Modulus (GPa) = 8.42482 28.72673 18.57577
#
# Velocity S-wave (km/s) = 2.02358 3.73666 3.00479
# Velocity P-wave (km/s) = 3.19302 6.17145 4.91336
#
# Compressibility (1/GPa) = 0.10263906
#
# Stress axis : x y z
#
# Youngs Moduli (GPa) = 87.64854 5.98578 31.62304
#
# Poissons Ratio (x) = 0.00333 0.11502
# Poissons Ratio (y) = 0.04870 1.56644
# Poissons Ratio (z) = 0.31880 0.29650
#
# Static dielectric constant tensor:
#      x y z
#    x 1.766780 0.003910 0.025080 
#    y 0.003910 1.768130 -0.032690 
#    z 0.025080 -0.032690 1.813270 
# 
# From -- ./inp_files/329231.got.cif
#   From: 2010.05.17/outbox.cif.g08.bks.cpg/sg2_165_cif.got.tgz:329231.got - 2010.06.03 11:33:40.
