data_PCOD9090398
_publ_section_title
;
Structure prediction by ZEFSAII (Michael W. Deem and Ramdas Pophale) SiO2 
 PCOD9090398
Probable space group: P -1
;
_chemical_formula_sum "Si O2"
_cell_formula_units_Z 14
_cell_length_a 7.824891
_cell_length_b 21.737319
_cell_length_c 8.995234
_cell_angle_alpha 133.306925
_cell_angle_beta 78.429830
_cell_angle_gamma 137.078895
_cell_volume 601.469264
_symmetry_space_group_name_H-M "P -1"
_symmetry_group_IT_number 2
_symmetry_cell_setting 'triclinic'
loop_
_space_group_symop_operation_xyz
x,y,z
-x,-y,-z
loop_
_atom_site_type_symbol
_atom_site_label
_atom_site_fract_x
_atom_site_fract_y
_atom_site_fract_z
Si Si1 0.667659 0.537604 0.380351
Si Si2 0.804587 0.147976 0.098102
Si Si3 0.777055 0.845928 0.877343
Si Si4 0.356492 0.320143 0.839633
Si Si5 0.193589 0.784761 0.125478
Si Si6 0.160245 0.016565 0.633254
Si Si7 0.672578 0.452846 0.709255
O O1 0.500000 0.500000 0.500000
O O2 0.565964 0.567443 0.328750
O O3 0.034607 0.701618 0.614985
O O4 0.524685 0.394971 0.096906
O O5 0.034247 0.160596 0.107140
O O6 0.766966 0.153892 0.940033
O O7 0.500000 0.000000 0.000000
O O8 0.476476 0.689105 0.579232
O O9 0.699009 0.868275 0.072890
O O10 0.000000 0.000000 0.000000
O O11 0.638076 0.438642 0.868895
O O12 0.067905 0.270494 0.824856
O O13 0.143118 0.157561 0.546945
O O14 0.536293 0.915027 0.355078
O O15 0.013050 0.621290 0.872766
O O16 0.000000 0.000000 0.500000
#
# Coordination Sequence:
#
# PCOD9090398 Si02
#       7
#     2   2   2   2   2   2   2
#     4  10  19  38  65  98 130 162 221 282 327 377
#     4  11  23  40  72 104 129 175 232 283 328 398
#     4  11  23  45  66  97 144 177 219 270 348 406
#     4  11  22  44  69  97 137 175 223 279 333 401
#     4  11  23  44  69 103 129 176 239 278 330 399
#     4  12  27  43  65  96 140 183 217 283 346 401
#     4  10  22  41  71  98 135 178 220 283 333 394
#
# _framework density 23.276335
#
# number of rings (size 3 to 8) (size 9 to 14) (size 15 to 20)
#    0.000    1.143    4.286    3.857    4.000    0.571 
#    5.143    2.143    0.000    0.000    0.000    0.000 
#    0.000    0.000    0.000    0.000    0.000    0.000 
#
# Total GULP energy -78052.497505 kJ/mol
# GULP energy per Si atom -5575.178393 kJ/mol
# Density = 2.322336 g / cm^3
# Si number density = 23.276335 Si / 1000 Ang^3
#
#
#
# Elastic Constant Matrix: (Units=GPa)
#
#
# Indices 1 2 3 4 5 6 
#
# 1 52.5129 24.8538 19.2068 0.4969 9.9659 -5.9288
# 2 24.8538 144.6082 71.5769 13.7435 -0.2495 -2.1473
# 3 19.2068 71.5769 143.9876 1.3955 -8.1351 1.7030
# 4 0.4969 13.7435 1.3955 44.2505 2.1982 -3.2735
# 5 9.9659 -0.2495 -8.1351 2.1982 29.9430 -0.9172
# 6 -5.9288 -2.1473 1.7030 -3.2735 -0.9172 22.1939
#
#
#
# Elastic Compliance Matrix: (Units=1/GPa)
#
#
# Indices 1 2 3 4 5 6 
#
# 1 0.023543 -0.003040 -0.002190 0.001614 -0.008389 0.006055
# 2 -0.003040 0.009946 -0.004507 -0.002912 0.000086 0.000070
# 3 -0.002190 -0.004507 0.009668 0.000849 0.003210 -0.001505
# 4 0.001614 -0.002912 0.000849 0.023816 -0.001971 0.003515
# 5 -0.008389 0.000086 0.003210 -0.001971 0.037169 -0.001234
# 6 0.006055 0.000070 -0.001505 0.003515 -0.001234 0.047265
#
#
# Mechanical properties :
#
#
# Convention : Reuss Voigt Hill
#
# Bulk Modulus (GPa) = 42.22297 63.59818 52.91057
# Shear Modulus (GPa) = 27.96787 34.30888 31.13838
#
# Velocity S-wave (km/s) = 3.47011 3.84341 3.66152
# Velocity P-wave (km/s) = 5.85105 6.86135 6.37624
#
# Compressibility (1/GPa) = 0.02368379
#
# Stress axis : x y z
#
# Youngs Moduli (GPa) = 42.47481 100.53988 103.42966
#
# Poissons Ratio (x) = 0.30565 0.22656
# Poissons Ratio (y) = 0.12913 0.46611
# Poissons Ratio (z) = 0.09304 0.45309
#
# Static dielectric constant tensor:
#      x y z
#    x 2.023930 -0.085530 -0.138860 
#    y -0.085530 1.831940 0.008410 
#    z -0.138860 0.008410 1.975910 
# 
# From -- ./inp_files/226486.got.cif
#   From: 2010.05.17/outbox.cif.g08.bks.cpg/sg2_114_cif.got.tgz:226486.got - 2010.06.03 11:33:40.
