data_PCOD9090078
_publ_section_title
;
Structure prediction by ZEFSAII (Michael W. Deem and Ramdas Pophale) SiO2 
 PCOD9090078
Probable space group: P -1
;
_chemical_formula_sum "Si O2"
_cell_formula_units_Z 12
_cell_length_a 16.940415
_cell_length_b 13.265267
_cell_length_c 12.423789
_cell_angle_alpha 148.472005
_cell_angle_beta 155.581197
_cell_angle_gamma 28.109602
_cell_volume 526.134625
_symmetry_space_group_name_H-M "P -1"
_symmetry_group_IT_number 2
_symmetry_cell_setting 'triclinic'
loop_
_space_group_symop_operation_xyz
x,y,z
-x,-y,-z
loop_
_atom_site_type_symbol
_atom_site_label
_atom_site_fract_x
_atom_site_fract_y
_atom_site_fract_z
Si Si1 0.781059 0.696877 0.092939
Si Si2 0.809180 0.708190 0.392651
Si Si3 0.683227 0.191735 0.657180
Si Si4 0.792927 0.460913 0.620740
Si Si5 0.296773 0.811012 0.562085
Si Si6 0.499446 0.560770 0.931546
O O1 0.823688 0.665578 0.244344
O O2 0.986727 0.536351 0.130283
O O3 0.755282 0.937696 0.253163
O O4 0.561345 0.685798 0.788400
O O5 0.000000 0.500000 0.500000
O O6 0.801879 0.940043 0.611496
O O7 0.578045 0.738754 0.175704
O O8 0.419028 0.296630 0.404991
O O9 0.769650 0.202399 0.655638
O O10 0.675217 0.353580 0.888351
O O11 0.794816 0.292084 0.558495
O O12 0.726263 0.380242 0.353645
O O13 0.500000 0.500000 0.000000
#
# Coordination Sequence:
#
# PCOD9090078 Si02
#       6
#     2   2   2   2   2   2
#     4  10  20  36  63  96 123 172 205 253 320 369
#     4  11  22  41  65  89 130 168 208 262 316 371
#     4   9  23  39  64  93 125 167 209 260 315 374
#     4  10  20  38  62  93 126 163 210 254 311 374
#     4  10  19  38  63  92 133 160 208 258 310 381
#     4  10  22  41  61  87 127 162 212 263 305 370
#
# _framework density 22.807850999999999
#
# number of rings (size 3 to 8) (size 9 to 14) (size 15 to 20)
#    1.000    1.000    1.667    2.000    0.000    2.000 
#    0.000    0.000    3.667    0.000    0.000    0.000 
#    0.000    0.000    0.000    0.000    0.000    0.000 
#
# Total GULP energy -67017.371324 kJ/mol
# GULP energy per Si atom -5584.780944 kJ/mol
# Density = 2.275594 g / cm^3
# Si number density = 22.807851 Si / 1000 Ang^3
#
#
#
# Elastic Constant Matrix: (Units=GPa)
#
#
# Indices 1 2 3 4 5 6 
#
# 1 129.0059 13.6804 41.1277 -0.1009 6.3978 28.1827
# 2 13.6804 92.7069 12.9683 7.0899 4.6854 29.7560
# 3 41.1277 12.9683 80.5596 2.2195 7.1833 17.2230
# 4 -0.1009 7.0899 2.2195 25.0500 -7.3106 6.6045
# 5 6.3978 4.6854 7.1833 -7.3106 41.9774 1.2703
# 6 28.1827 29.7560 17.2230 6.6045 1.2703 33.5032
#
#
#
# Elastic Compliance Matrix: (Units=1/GPa)
#
#
# Indices 1 2 3 4 5 6 
#
# 1 0.010802 0.001703 -0.003874 0.002124 -0.000531 -0.009005
# 2 0.001703 0.015488 0.000010 -0.000934 -0.001700 -0.014945
# 3 -0.003874 0.000010 0.015562 -0.000815 -0.002079 -0.004510
# 4 0.002124 -0.000934 -0.000815 0.045197 0.008086 -0.009755
# 5 -0.000531 -0.001700 -0.002079 0.008086 0.025843 0.000451
# 6 -0.009005 -0.014945 -0.004510 -0.009755 0.000451 0.054921
#
#
# Mechanical properties :
#
#
# Convention : Reuss Voigt Hill
#
# Bulk Modulus (GPa) = 26.64695 48.64725 37.64710
# Shear Modulus (GPa) = 27.07894 35.73919 31.40906
#
# Velocity S-wave (km/s) = 3.44941 3.96279 3.71498
# Velocity P-wave (km/s) = 5.25101 6.50490 5.91130
#
# Compressibility (1/GPa) = 0.03752775
#
# Stress axis : x y z
#
# Youngs Moduli (GPa) = 92.57948 64.56536 64.26075
#
# Poissons Ratio (x) = -0.10995 0.24898
# Poissons Ratio (y) = -0.15765 -0.00063
# Poissons Ratio (z) = 0.35870 -0.00063
#
# Static dielectric constant tensor:
#      x y z
#    x 1.842230 -0.042690 -0.057770 
#    y -0.042690 1.874710 -0.032290 
#    z -0.057770 -0.032290 1.938620 
# 
# From -- ./inp_files/181952.got.cif
#   From: 2010.05.17/outbox.cif.g08.bks.cpg/sg2_91_cif.got.tgz:181952.got - 2010.06.03 11:33:40.
