data_PCOD9090226
_publ_section_title
;
Structure prediction by ZEFSAII (Michael W. Deem and Ramdas Pophale) SiO2 
 PCOD9090226
Probable space group: P -1
;
_chemical_formula_sum "Si O2"
_cell_formula_units_Z 14
_cell_length_a 8.276710
_cell_length_b 12.283170
_cell_length_c 8.547798
_cell_angle_alpha 134.140360
_cell_angle_beta 85.810931
_cell_angle_gamma 92.459581
_cell_volume 621.924936
_symmetry_space_group_name_H-M "P -1"
_symmetry_group_IT_number 2
_symmetry_cell_setting 'triclinic'
loop_
_space_group_symop_operation_xyz
x,y,z
-x,-y,-z
loop_
_atom_site_type_symbol
_atom_site_label
_atom_site_fract_x
_atom_site_fract_y
_atom_site_fract_z
Si Si1 0.915524 0.922994 0.283327
Si Si2 0.392845 0.283105 0.853707
Si Si3 0.423264 0.479987 0.735112
Si Si4 0.475389 0.917040 0.127814
Si Si5 0.351577 0.205644 0.292348
Si Si6 0.020632 0.850733 0.740010
Si Si7 0.178951 0.727511 0.880935
O O1 0.767373 0.815967 0.227359
O O2 0.000000 0.000000 0.500000
O O3 0.879220 0.072500 0.329351
O O4 0.042071 0.808206 0.075796
O O5 0.401157 0.371825 0.779664
O O6 0.523295 0.155010 0.772588
O O7 0.430145 0.410928 0.113280
O O8 0.431967 0.368023 0.474888
O O9 0.265031 0.584195 0.812751
O O10 0.448244 0.093754 0.290446
O O11 0.623012 0.858736 0.949414
O O12 0.321756 0.848841 0.981360
O O13 0.160877 0.201722 0.342713
O O14 0.106154 0.718855 0.703073
O O15 0.000000 0.000000 0.000000
#
# Coordination Sequence:
#
# PCOD9090226 Si02
#       7
#     2   2   2   2   2   2   2
#     4  11  22  40  65  94 120 159 208 259 298 362
#     4  10  23  42  63  87 130 164 199 254 308 362
#     4  10  24  45  58  90 129 166 200 251 309 374
#     4  10  21  38  65  95 117 161 211 258 292 358
#     4  11  21  38  67  92 123 158 209 256 303 359
#     4  10  19  38  64  93 121 156 201 262 299 351
#     4  10  22  41  63  89 128 159 200 254 313 358
#
# _framework density 22.510755
#
# number of rings (size 3 to 8) (size 9 to 14) (size 15 to 20)
#    0.000    1.714    2.857    2.571    2.000    4.000 
#    5.143    2.857    0.000    0.000    0.000    0.000 
#    0.000    0.000    0.000    0.000    0.000    0.000 
#
# Total GULP energy -78055.669697 kJ/mol
# GULP energy per Si atom -5575.404978 kJ/mol
# Density = 2.245952 g / cm^3
# Si number density = 22.510755 Si / 1000 Ang^3
#
#
#
# Elastic Constant Matrix: (Units=GPa)
#
#
# Indices 1 2 3 4 5 6 
#
# 1 90.5061 41.8859 22.3313 7.8838 25.8194 7.0168
# 2 41.8859 173.5319 29.4636 2.4966 14.4849 -20.8720
# 3 22.3313 29.4636 74.1047 15.9164 28.6217 -7.8452
# 4 7.8838 2.4966 15.9164 26.5477 -0.1478 7.9802
# 5 25.8194 14.4849 28.6217 -0.1478 27.4073 9.6140
# 6 7.0168 -20.8720 -7.8452 7.9802 9.6140 45.0926
#
#
#
# Elastic Compliance Matrix: (Units=1/GPa)
#
#
# Indices 1 2 3 4 5 6 
#
# 1 0.018923 -0.002945 0.010347 -0.013555 -0.029302 0.006139
# 2 -0.002945 0.007257 -0.000750 -0.000621 -0.001743 0.004168
# 3 0.010347 -0.000750 0.052680 -0.044375 -0.075538 0.031166
# 4 -0.013555 -0.000621 -0.044375 0.079387 0.072269 -0.035356
# 5 -0.029302 -0.001743 -0.075538 0.072269 0.164359 -0.057221
# 6 0.006139 0.004168 0.031166 -0.035356 -0.057221 0.047030
#
#
# Mechanical properties :
#
#
# Convention : Reuss Voigt Hill
#
# Bulk Modulus (GPa) = 10.85019 58.38936 34.61978
# Shear Modulus (GPa) = 12.91817 36.10698 24.51258
#
# Velocity S-wave (km/s) = 2.39815 4.00933 3.30347
# Velocity P-wave (km/s) = 3.53534 6.88678 5.47386
#
# Compressibility (1/GPa) = 0.09216428
#
# Stress axis : x y z
#
# Youngs Moduli (GPa) = 52.84582 137.80585 18.98251
#
# Poissons Ratio (x) = 0.40585 -0.19642
# Poissons Ratio (y) = 0.15564 0.01423
# Poissons Ratio (z) = -0.54681 0.10332
#
# Static dielectric constant tensor:
#      x y z
#    x 1.838550 -0.022570 -0.012630 
#    y -0.022570 1.891890 -0.026520 
#    z -0.012630 -0.026520 1.849910 
# 
# From -- ./inp_files/190791.got.cif
#   From: 2010.05.17/outbox.cif.g08.bks.cpg/sg2_96_cif.got.tgz:190791.got - 2010.06.03 11:33:40.
