data_PCOD9090306
_publ_section_title
;
Structure prediction by ZEFSAII (Michael W. Deem and Ramdas Pophale) SiO2 
 PCOD9090306
Probable space group: P -1
;
_chemical_formula_sum "Si O2"
_cell_formula_units_Z 12
_cell_length_a 15.628816
_cell_length_b 21.145800
_cell_length_c 6.195241
_cell_angle_alpha 134.583834
_cell_angle_beta 139.112919
_cell_angle_gamma 23.082522
_cell_volume 525.260938
_symmetry_space_group_name_H-M "P -1"
_symmetry_group_IT_number 2
_symmetry_cell_setting 'triclinic'
loop_
_space_group_symop_operation_xyz
x,y,z
-x,-y,-z
loop_
_atom_site_type_symbol
_atom_site_label
_atom_site_fract_x
_atom_site_fract_y
_atom_site_fract_z
Si Si1 0.354399 0.454917 0.191532
Si Si2 0.365702 0.627814 0.859305
Si Si3 0.078536 0.382314 0.036152
Si Si4 0.221490 0.854083 0.422333
Si Si5 0.397847 0.911601 0.601294
Si Si6 0.379912 0.065355 0.656062
O O1 0.281722 0.596185 0.468127
O O2 0.465781 0.405914 0.050099
O O3 0.556712 0.299975 0.367924
O O4 0.121435 0.528470 0.959595
O O5 0.500000 0.500000 0.000000
O O6 0.188043 0.793343 0.041398
O O7 0.150105 0.255311 0.724220
O O8 0.327573 0.270949 0.346004
O O9 0.000000 0.500000 0.000000
O O10 0.275249 0.908606 0.505429
O O11 0.000000 0.000000 0.500000
O O12 0.319680 0.997411 0.432542
O O13 0.416150 0.994499 0.966291
O O14 0.500000 0.000000 0.500000
#
# Coordination Sequence:
#
# PCOD9090306 Si02
#       6
#     2   2   2   2   2   2
#     4  10  20  42  61  88 121 155 210 245 301 359
#     4   9  22  40  60  87 118 160 201 249 298 355
#     4  10  19  38  65  87 121 155 192 257 295 355
#     4  11  23  39  62  87 122 159 203 252 299 359
#     4   9  21  39  58  90 124 147 202 245 302 358
#     4   9  20  39  59  88 121 160 192 241 307 357
#
# _framework density 22.845789
#
# number of rings (size 3 to 8) (size 9 to 14) (size 15 to 20)
#    1.000    1.333    1.667    0.000    0.000    8.667 
#    6.000    1.667    0.000    0.000    0.000    0.000 
#    0.000    0.000    0.000    0.000    0.000    0.000 
#
# Total GULP energy -66872.816186 kJ/mol
# GULP energy per Si atom -5572.734682 kJ/mol
# Density = 2.279379 g / cm^3
# Si number density = 22.845789 Si / 1000 Ang^3
#
#
#
# Elastic Constant Matrix: (Units=GPa)
#
#
# Indices 1 2 3 4 5 6 
#
# 1 239.5158 89.8137 34.0468 11.0199 -6.6939 -2.5358
# 2 89.8137 116.8199 22.6209 25.5897 0.4379 -4.3216
# 3 34.0468 22.6209 33.8239 23.0060 -5.6153 -11.3658
# 4 11.0199 25.5897 23.0060 28.8826 -5.0341 -4.4155
# 5 -6.6939 0.4379 -5.6153 -5.0341 29.8139 3.8967
# 6 -2.5358 -4.3216 -11.3658 -4.4155 3.8967 50.6665
#
#
#
# Elastic Compliance Matrix: (Units=1/GPa)
#
#
# Indices 1 2 3 4 5 6 
#
# 1 0.007848 -0.006479 -0.012691 0.012877 0.001907 -0.002031
# 2 -0.006479 0.016113 0.008688 -0.019087 -0.003487 0.001604
# 3 -0.012691 0.008688 0.091127 -0.073283 -0.000039 0.014164
# 4 0.012877 -0.019087 -0.073283 0.105074 0.008274 -0.008902
# 5 0.001907 -0.003487 -0.000039 0.008274 0.035703 -0.002235
# 6 -0.002031 0.001604 0.014164 -0.008902 -0.002235 0.022346
#
#
# Mechanical properties :
#
#
# Convention : Reuss Voigt Hill
#
# Bulk Modulus (GPa) = 10.62431 75.90250 43.26341
# Shear Modulus (GPa) = 15.12638 38.11783 26.62210
#
# Velocity S-wave (km/s) = 2.57594 4.08914 3.41735
# Velocity P-wave (km/s) = 3.67530 7.45592 5.87786
#
# Compressibility (1/GPa) = 0.09412373
#
# Stress axis : x y z
#
# Youngs Moduli (GPa) = 127.42059 62.06321 10.97371
#
# Poissons Ratio (x) = 0.40212 0.13927
# Poissons Ratio (y) = 0.82559 -0.09534
# Poissons Ratio (z) = 1.61709 -0.53923
#
# Static dielectric constant tensor:
#      x y z
#    x 1.777470 0.004490 0.085460 
#    y 0.004490 1.879160 -0.016710 
#    z 0.085460 -0.016710 1.841220 
# 
# From -- ./inp_files/79424.got.cif
#   From: 2010.05.17/outbox.cif.g08.bks.cpg/sg2_40_cif.got.tgz:79424.got - 2010.06.03 11:33:40.
