data_PCOD9090514
_publ_section_title
;
Structure prediction by ZEFSAII (Michael W. Deem and Ramdas Pophale) SiO2 
 PCOD9090514
Probable space group: P -1
;
_chemical_formula_sum "Si O2"
_cell_formula_units_Z 16
_cell_length_a 18.149026
_cell_length_b 9.015241
_cell_length_c 22.168081
_cell_angle_alpha 140.739476
_cell_angle_beta 16.115328
_cell_angle_gamma 141.894925
_cell_volume 617.726303
_symmetry_space_group_name_H-M "P -1"
_symmetry_group_IT_number 2
_symmetry_cell_setting 'triclinic'
loop_
_space_group_symop_operation_xyz
x,y,z
-x,-y,-z
loop_
_atom_site_type_symbol
_atom_site_label
_atom_site_fract_x
_atom_site_fract_y
_atom_site_fract_z
Si Si1 0.464513 0.851551 0.054094
Si Si2 0.385554 0.391532 0.299139
Si Si3 0.780652 0.375472 0.285625
Si Si4 0.181253 0.399406 0.074833
Si Si5 0.314526 0.106161 0.490335
Si Si6 0.008740 0.263371 0.456216
Si Si7 0.770666 0.426077 0.104159
Si Si8 0.781473 0.894516 0.927549
O O1 0.733884 0.841849 0.800295
O O2 0.546974 0.756178 0.023051
O O3 0.218308 0.672387 0.156793
O O4 0.443263 0.123454 0.165993
O O5 0.079578 0.338483 0.493969
O O6 0.568811 0.567230 0.159614
O O7 0.490231 0.480256 0.312400
O O8 0.582565 0.156676 0.337285
O O9 0.663834 0.615004 0.460465
O O10 0.902587 0.300934 0.227254
O O11 0.039236 0.485976 0.075360
O O12 0.196338 0.241291 0.071388
O O13 0.245653 0.934517 0.432633
O O14 0.065914 0.985163 0.694082
O O15 0.000000 0.500000 0.500000
O O16 0.708046 0.145141 0.076497
O O17 0.000000 0.500000 0.000000
#
# Coordination Sequence:
#
# PCOD9090514 Si02
#       8
#     2   2   2   2   2   2   2   2
#     4   9  17  33  55  76 105 141 182 218 256 320
#     4   9  18  34  57  80  99 144 192 211 254 326
#     4   9  18  33  56  75  97 140 189 211 257 326
#     4  10  16  28  51  85  99 122 177 232 263 292
#     4   9  18  35  52  71 105 145 177 207 263 334
#     4  10  18  31  52  80 109 137 168 222 273 310
#     4   9  18  36  53  74 101 138 178 225 262 314
#     4   9  18  30  51  79 103 130 173 228 268 300
#
# _framework density 25.901439
#
# number of rings (size 3 to 8) (size 9 to 14) (size 15 to 20)
#    0.000    2.750    0.000    4.875    0.000    0.500 
#    6.750    1.250    5.500    0.750    0.000    0.000 
#    0.000    0.000    0.000    0.000    0.000    0.000 
#
# Total GULP energy -89206.524988 kJ/mol
# GULP energy per Si atom -5575.407812 kJ/mol
# Density = 2.584249 g / cm^3
# Si number density = 25.901439 Si / 1000 Ang^3
#
#
#
# Elastic Constant Matrix: (Units=GPa)
#
#
# Indices 1 2 3 4 5 6 
#
# 1 187.2018 44.9011 52.7490 -17.3690 -68.9410 -3.1394
# 2 44.9011 94.4116 35.0995 -18.4657 -22.4583 4.0642
# 3 52.7490 35.0995 79.5592 -29.3390 -30.3577 4.7207
# 4 -17.3690 -18.4657 -29.3390 34.7631 8.3947 -23.0163
# 5 -68.9410 -22.4583 -30.3577 8.3947 65.9961 -11.7934
# 6 -3.1394 4.0642 4.7207 -23.0163 -11.7934 50.6517
#
#
#
# Elastic Compliance Matrix: (Units=1/GPa)
#
#
# Indices 1 2 3 4 5 6 
#
# 1 0.010163 -0.001432 -0.000847 0.004672 0.010091 0.005296
# 2 -0.001432 0.013539 -0.002730 0.004904 0.001529 0.001664
# 3 -0.000847 -0.002730 0.026958 0.026474 0.009338 0.011858
# 4 0.004672 0.004904 0.026474 0.075806 0.015422 0.035466
# 5 0.010091 0.001529 0.009338 0.015422 0.031025 0.013864
# 6 0.005296 0.001664 0.011858 0.035466 0.013864 0.038176
#
#
# Mechanical properties :
#
#
# Convention : Reuss Voigt Hill
#
# Bulk Modulus (GPa) = 24.60597 69.63019 47.11808
# Shear Modulus (GPa) = 22.80671 45.51037 34.15854
#
# Velocity S-wave (km/s) = 2.97057 4.19628 3.63545
# Velocity P-wave (km/s) = 4.61370 7.10066 5.98772
#
# Compressibility (1/GPa) = 0.04064054
#
# Stress axis : x y z
#
# Youngs Moduli (GPa) = 98.40012 73.85826 37.09495
#
# Poissons Ratio (x) = 0.10577 0.03142
# Poissons Ratio (y) = 0.14092 0.10129
# Poissons Ratio (z) = 0.08335 0.20167
#
# Static dielectric constant tensor:
#      x y z
#    x 2.205310 -0.027780 0.039630 
#    y -0.027780 1.319240 0.258260 
#    z 0.039630 0.258260 2.040680 
# 
# From -- ./inp_files/620210.got.cif
#   From: 2010.05.17/outbox.cif.g08.bks.cpg/sg2_311_cif.got.tgz:620210.got - 2010.06.03 11:33:40.
