data_PCOD9090945
_publ_section_title
;
Structure prediction by ZEFSAII (Michael W. Deem and Ramdas Pophale) SiO2 
 PCOD9090945
Probable space group: P -1
;
_chemical_formula_sum "Si O2"
_cell_formula_units_Z 14
_cell_length_a 6.542690
_cell_length_b 18.537450
_cell_length_c 18.651711
_cell_angle_alpha 21.742511
_cell_angle_beta 57.419072
_cell_angle_gamma 45.846428
_cell_volume 548.817213
_symmetry_space_group_name_H-M "P -1"
_symmetry_group_IT_number 2
_symmetry_cell_setting 'triclinic'
loop_
_space_group_symop_operation_xyz
x,y,z
-x,-y,-z
loop_
_atom_site_type_symbol
_atom_site_label
_atom_site_fract_x
_atom_site_fract_y
_atom_site_fract_z
Si Si1 0.355940 0.087382 0.322063
Si Si2 0.698684 0.405041 0.390526
Si Si3 0.986398 0.772794 0.221770
Si Si4 0.289958 0.486090 0.875177
Si Si5 0.209659 0.496590 0.568682
Si Si6 0.963271 0.121265 0.242790
Si Si7 0.376010 0.368630 0.223235
O O1 0.187578 0.020787 0.361623
O O2 0.613751 0.844535 0.543496
O O3 0.624929 0.236902 0.232236
O O4 0.433048 0.223744 0.128348
O O5 0.690635 0.504033 0.222306
O O6 0.826969 0.477983 0.362442
O O7 0.894003 0.107583 0.625528
O O8 0.338868 0.534543 0.354486
O O9 0.770162 0.736383 0.249175
O O10 0.949650 0.730033 0.351565
O O11 0.000000 0.000000 0.000000
O O12 0.474916 0.563689 0.808388
O O13 0.927219 0.696118 0.773399
O O14 0.500000 0.500000 0.500000
O O15 0.918593 0.358786 0.999544
#
# Coordination Sequence:
#
# PCOD9090945 Si02
#       7
#     2   2   2   2   2   2   2
#     4  10  19  40  61  83 140 188 237 289 360 403
#     4  11  21  42  67 102 144 175 247 303 352 431
#     4  10  23  47  74 101 142 188 225 294 386 452
#     4  10  20  38  60  93 130 187 235 301 346 409
#     4   9  22  46  74 104 139 179 229 298 375 452
#     4  10  20  38  61  93 130 186 240 301 347 414
#     4  10  19  39  62  82 137 191 239 290 356 408
#
# _framework density 25.509405000000001
#
# number of rings (size 3 to 8) (size 9 to 14) (size 15 to 20)
#    0.000    2.000    2.857    0.857    0.000    3.429 
#   18.000    2.857    0.000    0.000    0.000    0.000 
#    0.000    0.000    0.000    0.000    0.000    0.000 
#
# Total GULP energy -78320.907189 kJ/mol
# GULP energy per Si atom -5594.350513 kJ/mol
# Density = 2.545134 g / cm^3
# Si number density = 25.509405 Si / 1000 Ang^3
#
#
#
# Elastic Constant Matrix: (Units=GPa)
#
#
# Indices 1 2 3 4 5 6 
#
# 1 135.1045 40.8583 48.4798 1.0449 -16.3060 28.8876
# 2 40.8583 86.7352 33.8145 13.0668 7.2207 24.5422
# 3 48.4798 33.8145 201.2913 10.6298 -1.7179 11.4206
# 4 1.0449 13.0668 10.6298 40.2123 8.8370 10.2188
# 5 -16.3060 7.2207 -1.7179 8.8370 52.7027 5.6818
# 6 28.8876 24.5422 11.4206 10.2188 5.6818 43.9345
#
#
#
# Elastic Compliance Matrix: (Units=1/GPa)
#
#
# Indices 1 2 3 4 5 6 
#
# 1 0.010739 -0.003383 -0.001760 0.001839 0.004031 -0.005663
# 2 -0.003383 0.015776 -0.001405 -0.002841 -0.002209 -0.005276
# 3 -0.001760 -0.001405 0.005646 -0.001170 -0.000053 0.000753
# 4 0.001839 -0.002841 -0.001170 0.028143 -0.003212 -0.005448
# 5 0.004031 -0.002209 -0.000053 -0.003212 0.021430 -0.003427
# 6 -0.005663 -0.005276 0.000753 -0.005448 -0.003427 0.030947
#
#
# Mechanical properties :
#
#
# Convention : Reuss Voigt Hill
#
# Bulk Modulus (GPa) = 52.44906 74.38181 63.41544
# Shear Modulus (GPa) = 37.84099 47.36847 42.60473
#
# Velocity S-wave (km/s) = 3.85569 4.31385 4.09119
# Velocity P-wave (km/s) = 6.35823 7.35080 6.87246
#
# Compressibility (1/GPa) = 0.01906612
#
# Stress axis : x y z
#
# Youngs Moduli (GPa) = 93.11536 63.38942 177.10693
#
# Poissons Ratio (x) = 0.21446 0.31163
# Poissons Ratio (y) = 0.31503 0.24879
# Poissons Ratio (z) = 0.16384 0.08905
#
# Static dielectric constant tensor:
#      x y z
#    x 2.118450 -0.015010 -0.024290 
#    y -0.015010 2.045060 0.028130 
#    z -0.024290 0.028130 1.986900 
# 
# From -- ./inp_files/584181.got.cif
#   From: 2010.05.17/outbox.cif.g08.bks.cpg/sg2_293_cif.got.tgz:584181.got - 2010.06.03 11:33:40.
