data_PCOD9090177
_publ_section_title
;
Structure prediction by ZEFSAII (Michael W. Deem and Ramdas Pophale) SiO2 
 PCOD9090177
Probable space group: P -1
;
_chemical_formula_sum "Si O2"
_cell_formula_units_Z 16
_cell_length_a 14.487436
_cell_length_b 8.023246
_cell_length_c 9.688779
_cell_angle_alpha 49.544844
_cell_angle_beta 94.560132
_cell_angle_gamma 119.470245
_cell_volume 695.498975
_symmetry_space_group_name_H-M "P -1"
_symmetry_group_IT_number 2
_symmetry_cell_setting 'triclinic'
loop_
_space_group_symop_operation_xyz
x,y,z
-x,-y,-z
loop_
_atom_site_type_symbol
_atom_site_label
_atom_site_fract_x
_atom_site_fract_y
_atom_site_fract_z
Si Si1 0.596716 0.338135 0.026466
Si Si2 0.095719 0.103267 0.659669
Si Si3 0.152866 0.354817 0.077457
Si Si4 0.985570 0.563450 0.618549
Si Si5 0.409897 0.363813 0.856230
Si Si6 0.794645 0.119793 0.356173
Si Si7 0.151934 0.029340 0.993381
Si Si8 0.543468 0.887189 0.453007
O O1 0.594121 0.485121 0.087561
O O2 0.562590 0.047796 0.228904
O O3 0.728260 0.522169 0.894588
O O4 0.501789 0.304946 0.933068
O O5 0.091929 0.328740 0.462616
O O6 0.190688 0.068847 0.637156
O O7 0.970357 0.823587 0.770592
O O8 0.117100 0.144374 0.804110
O O9 0.144558 0.154675 0.066891
O O10 0.171614 0.613107 0.865628
O O11 0.111435 0.786758 0.566310
O O12 0.000000 0.500000 0.500000
O O13 0.929596 0.292051 0.844745
O O14 0.455197 0.569121 0.623335
O O15 0.280630 0.120636 0.946073
O O16 0.666779 0.972645 0.470208
O O17 0.500000 0.000000 0.500000
#
# Coordination Sequence:
#
# PCOD9090177 Si02
#       8
#     2   2   2   2   2   2   2   2
#     4   8  17  31  55  89 113 150 207 257 301 351
#     4  12  24  41  62  93 134 171 203 264 320 377
#     4  10  19  38  64  89 125 166 209 258 310 377
#     4  12  25  40  64  95 128 168 213 261 310 381
#     4   9  18  33  58  84 117 156 202 260 300 357
#     4  11  24  41  64  97 127 164 213 263 324 372
#     4  11  23  41  62  95 130 168 213 255 319 374
#     4   9  19  37  60  88 117 158 210 262 303 366
#
# _framework density 23.005068000000001
#
# number of rings (size 3 to 8) (size 9 to 14) (size 15 to 20)
#    0.000    1.750    2.500    2.625    1.750    3.000 
#    0.000    0.625    0.000    3.750    0.000    0.000 
#    0.000    0.000    0.000    0.000    0.000    0.000 
#
# Total GULP energy -89488.538867 kJ/mol
# GULP energy per Si atom -5593.033679 kJ/mol
# Density = 2.295271 g / cm^3
# Si number density = 23.005068 Si / 1000 Ang^3
#
#
#
# Elastic Constant Matrix: (Units=GPa)
#
#
# Indices 1 2 3 4 5 6 
#
# 1 140.5851 7.7846 33.8039 -6.1326 -18.5220 31.0515
# 2 7.7846 20.4464 17.2186 4.5399 -17.2028 20.4600
# 3 33.8039 17.2186 38.5539 -3.8776 22.1669 -10.8860
# 4 -6.1326 4.5399 -3.8776 19.8983 2.9253 6.7082
# 5 -18.5220 -17.2028 22.1669 2.9253 17.2448 14.1446
# 6 31.0515 20.4600 -10.8860 6.7082 14.1446 17.6766
#
#
#
# Elastic Compliance Matrix: (Units=1/GPa)
#
#
# Indices 1 2 3 4 5 6 
#
# 1 0.006830 -0.008894 0.001131 0.004774 -0.004325 0.000641
# 2 -0.008894 0.019228 0.010509 -0.007748 -0.014101 0.014063
# 3 0.001131 0.010509 0.011783 0.004090 0.008111 -0.014937
# 4 0.004774 -0.007748 0.004090 0.060296 -0.005416 -0.015449
# 5 -0.004325 -0.014101 0.008111 -0.005416 0.012709 0.020799
# 6 0.000641 0.014063 -0.014937 -0.015449 0.020799 0.019189
#
#
# Mechanical properties :
#
#
# Convention : Reuss Voigt Hill
#
# Bulk Modulus (GPa) = 23.07598 35.24438 29.16018
# Shear Modulus (GPa) = 35.97446 20.34915 28.16180
#
# Velocity S-wave (km/s) = 3.95873 2.97737 3.50259
# Velocity P-wave (km/s) = 5.56310 5.21279 5.39079
#
# Compressibility (1/GPa) = 0.04333511
#
# Stress axis : x y z
#
# Youngs Moduli (GPa) = 146.40241 52.00736 84.86920
#
# Poissons Ratio (x) = 0.46254 -0.09599
# Poissons Ratio (y) = 1.30206 -0.89193
# Poissons Ratio (z) = -0.16559 -0.54657
#
# Static dielectric constant tensor:
#      x y z
#    x 1.861820 -0.026250 -0.007030 
#    y -0.026250 1.848740 0.005890 
#    z -0.007030 0.005890 1.860790 
# 
# From -- ./inp_files/446650.got.cif
#   From: 2010.05.17/outbox.cif.g08.bks.cpg/sg2_224_cif.got.tgz:446650.got - 2010.06.03 11:33:40.
