data_PCOD9090873
_publ_section_title
;
Structure prediction by ZEFSAII (Michael W. Deem and Ramdas Pophale) SiO2 
 PCOD9090873
Probable space group: P -1
;
_chemical_formula_sum "Si O2"
_cell_formula_units_Z 12
_cell_length_a 13.183279
_cell_length_b 15.760584
_cell_length_c 10.106235
_cell_angle_alpha 54.471728
_cell_angle_beta 72.489941
_cell_angle_gamma 26.474692
_cell_volume 606.921313
_symmetry_space_group_name_H-M "P -1"
_symmetry_group_IT_number 2
_symmetry_cell_setting 'triclinic'
loop_
_space_group_symop_operation_xyz
x,y,z
-x,-y,-z
loop_
_atom_site_type_symbol
_atom_site_label
_atom_site_fract_x
_atom_site_fract_y
_atom_site_fract_z
Si Si1 0.755752 0.786083 0.700782
Si Si2 0.804762 0.240846 0.549394
Si Si3 0.979220 0.735971 0.450531
Si Si4 0.663518 0.647090 0.855206
Si Si5 0.957819 0.170658 0.270097
Si Si6 0.529557 0.767514 0.487692
O O1 0.970611 0.665765 0.644536
O O2 0.841501 0.589445 0.874303
O O3 0.500000 0.000000 0.500000
O O4 0.609090 0.990955 0.683648
O O5 0.500000 0.500000 0.500000
O O6 0.791654 0.275217 0.366311
O O7 0.937993 0.223523 0.573872
O O8 0.997366 0.961418 0.735172
O O9 0.206003 0.488836 0.480357
O O10 0.655780 0.040399 0.248486
O O11 0.626843 0.668116 0.692008
O O12 0.799722 0.417766 0.061196
O O13 0.276383 0.916721 0.419772
#
# Coordination Sequence:
#
# PCOD9090873 Si02
#       6
#     2   2   2   2   2   2
#     4   8  18  36  59  86 118 150 189 235 285 340
#     4  11  22  40  62  84 115 155 194 238 289 340
#     4  10  19  39  61  85 119 154 190 234 290 340
#     4  10  23  39  59  91 115 149 198 236 284 344
#     4  11  23  40  62  83 118 153 193 242 285 340
#     4  10  19  39  61  83 120 155 184 236 291 336
#
# _framework density 19.771922
#
# number of rings (size 3 to 8) (size 9 to 14) (size 15 to 20)
#    0.000    2.333    5.000    0.000    0.000    8.667 
#    0.000    2.500    0.000    0.000    0.000    0.000 
#    0.000    0.000    0.000    0.000    0.000    0.000 
#
# Total GULP energy -66912.130034 kJ/mol
# GULP energy per Si atom -5576.010836 kJ/mol
# Density = 1.972692 g / cm^3
# Si number density = 19.771922 Si / 1000 Ang^3
#
#
#
# Elastic Constant Matrix: (Units=GPa)
#
#
# Indices 1 2 3 4 5 6 
#
# 1 123.7811 54.1579 35.0748 -6.9030 -31.6845 -8.0083
# 2 54.1579 173.3250 50.7167 -25.8675 -19.4300 6.8681
# 3 35.0748 50.7167 98.3994 -15.8210 -40.3197 0.6375
# 4 -6.9030 -25.8675 -15.8210 12.0666 2.6104 -3.6437
# 5 -31.6845 -19.4300 -40.3197 2.6104 39.8533 -2.2739
# 6 -8.0083 6.8681 0.6375 -3.6437 -2.2739 31.3383
#
#
#
# Elastic Compliance Matrix: (Units=1/GPa)
#
#
# Indices 1 2 3 4 5 6 
#
# 1 0.011799 -0.002991 0.001486 0.001578 0.009580 0.004519
# 2 -0.002991 0.009637 -0.001125 0.017214 0.000006 -0.000852
# 3 0.001486 -0.001125 0.024065 0.026383 0.023532 0.004912
# 4 0.001578 0.017214 0.026383 0.154228 0.027150 0.015996
# 5 0.009580 0.000006 0.023532 0.027150 0.055261 0.009135
# 6 0.004519 -0.000852 0.004912 0.015996 0.009135 0.035674
#
#
# Mechanical properties :
#
#
# Convention : Reuss Voigt Hill
#
# Bulk Modulus (GPa) = 24.85089 75.04494 49.94792
# Shear Modulus (GPa) = 16.16350 33.68869 24.92610
#
# Velocity S-wave (km/s) = 2.86229 4.13227 3.55446
# Velocity P-wave (km/s) = 4.84971 7.79777 6.49326
#
# Compressibility (1/GPa) = 0.04024000
#
# Stress axis : x y z
#
# Youngs Moduli (GPa) = 84.75245 103.76827 41.55327
#
# Poissons Ratio (x) = 0.31039 -0.06173
# Poissons Ratio (y) = 0.25351 0.04675
# Poissons Ratio (z) = -0.12592 0.11676
#
# Static dielectric constant tensor:
#      x y z
#    x 1.759430 -0.007200 -0.014360 
#    y -0.007200 1.668660 0.012610 
#    z -0.014360 0.012610 1.759870 
# 
# From -- ./inp_files/89550.got.cif
#   From: 2010.05.17/outbox.cif.g08.bks.cpg/sg2_45_cif.got.tgz:89550.got - 2010.06.03 11:33:40.
