data_PCOD9090469
_publ_section_title
;
Structure prediction by ZEFSAII (Michael W. Deem and Ramdas Pophale) SiO2 
 PCOD9090469
Probable space group: P -1
;
_chemical_formula_sum "Si O2"
_cell_formula_units_Z 14
_cell_length_a 15.059587
_cell_length_b 8.137478
_cell_length_c 7.960422
_cell_angle_alpha 56.163842
_cell_angle_beta 106.619884
_cell_angle_gamma 73.393180
_cell_volume 643.718420
_symmetry_space_group_name_H-M "P -1"
_symmetry_group_IT_number 2
_symmetry_cell_setting 'triclinic'
loop_
_space_group_symop_operation_xyz
x,y,z
-x,-y,-z
loop_
_atom_site_type_symbol
_atom_site_label
_atom_site_fract_x
_atom_site_fract_y
_atom_site_fract_z
Si Si1 0.687476 0.637798 0.106143
Si Si2 0.922117 0.348357 0.909262
Si Si3 0.843807 0.868321 0.686928
Si Si4 0.568571 0.720264 0.656609
Si Si5 0.348643 0.890103 0.294255
Si Si6 0.279204 0.546028 0.409200
Si Si7 0.870022 0.203145 0.297217
O O1 0.668410 0.565119 0.317834
O O2 0.817625 0.445690 0.237295
O O3 0.626636 0.605681 0.931571
O O4 0.653152 0.909155 0.932455
O O5 0.889986 0.614936 0.771338
O O6 0.851582 0.359303 0.706028
O O7 0.864637 0.279966 0.059846
O O8 0.055143 0.178311 0.108039
O O9 0.734380 0.958431 0.683908
O O10 0.816678 0.068346 0.421080
O O11 0.471651 0.696774 0.542856
O O12 0.656246 0.644780 0.596020
O O13 0.500000 0.000000 0.500000
O O14 0.297559 0.755125 0.262992
O O15 0.000000 0.000000 0.500000
#
# Coordination Sequence:
#
# PCOD9090469 Si02
#       7
#     2   2   2   2   2   2   2
#     4  11  23  44  65  96 131 167 215 263 312 381
#     4  10  21  39  65  91 131 166 213 262 310 381
#     4  10  20  39  66  92 124 175 209 256 323 374
#     4  10  23  45  68  90 128 171 211 266 316 376
#     4  11  23  40  64  94 131 164 215 263 316 376
#     4  12  24  42  65  98 127 166 215 262 322 374
#     4  10  19  38  66  92 125 171 213 253 312 378
#
# _framework density 21.748642
#
# number of rings (size 3 to 8) (size 9 to 14) (size 15 to 20)
#    0.000    1.429    4.286    1.286    0.000    4.571 
#    0.000    0.714    0.000    0.000    0.000    0.000 
#    0.000    0.000    0.000    0.000    0.000    0.000 
#
# Total GULP energy -78036.344375 kJ/mol
# GULP energy per Si atom -5574.024598 kJ/mol
# Density = 2.169914 g / cm^3
# Si number density = 21.748642 Si / 1000 Ang^3
#
#
#
# Elastic Constant Matrix: (Units=GPa)
#
#
# Indices 1 2 3 4 5 6 
#
# 1 60.6677 1.2964 30.2442 6.3126 16.4640 7.6416
# 2 1.2964 68.2371 28.3096 -0.3203 8.3590 5.7661
# 3 30.2442 28.3096 112.7979 2.5748 -2.9809 -0.2966
# 4 6.3126 -0.3203 2.5748 30.5190 5.2073 -1.8837
# 5 16.4640 8.3590 -2.9809 5.2073 40.6800 0.1524
# 6 7.6416 5.7661 -0.2966 -1.8837 0.1524 38.6233
#
#
#
# Elastic Compliance Matrix: (Units=1/GPa)
#
#
# Indices 1 2 3 4 5 6 
#
# 1 0.024325 0.004640 -0.007929 -0.002786 -0.011001 -0.005659
# 2 0.004640 0.018097 -0.005969 0.000550 -0.006091 -0.003615
# 3 -0.007929 -0.005969 0.012644 -0.000252 0.005385 0.002523
# 4 -0.002786 0.000550 -0.000252 0.034078 -0.003374 0.002142
# 5 -0.011001 -0.006091 0.005385 -0.003374 0.031102 0.002840
# 6 -0.005659 -0.003615 0.002523 0.002142 0.002840 0.027663
#
#
# Mechanical properties :
#
#
# Convention : Reuss Voigt Hill
#
# Bulk Modulus (GPa) = 27.35935 40.15590 33.75762
# Shear Modulus (GPa) = 27.99426 34.08797 31.04112
#
# Velocity S-wave (km/s) = 3.59161 3.96329 3.78202
# Velocity P-wave (km/s) = 5.45955 6.28070 5.88447
#
# Compressibility (1/GPa) = 0.03655058
#
# Stress axis : x y z
#
# Youngs Moduli (GPa) = 41.11011 55.25727 79.08812
#
# Poissons Ratio (x) = -0.25639 0.62707
# Poissons Ratio (y) = -0.19075 0.47208
# Poissons Ratio (z) = 0.32595 0.32984
#
# Static dielectric constant tensor:
#      x y z
#    x 1.852080 0.032560 0.047190 
#    y 0.032560 1.824680 0.027930 
#    z 0.047190 0.027930 1.881230 
# 
# From -- ./inp_files/186354.got.cif
#   From: 2010.05.17/outbox.cif.g08.bks.cpg/sg2_94_cif.got.tgz:186354.got - 2010.06.03 11:33:40.
