data_PCOD9090195
_publ_section_title
;
Structure prediction by ZEFSAII (Michael W. Deem and Ramdas Pophale) SiO2 
 PCOD9090195
Probable space group: P -1
;
_chemical_formula_sum "Si O2"
_cell_formula_units_Z 16
_cell_length_a 11.713384
_cell_length_b 13.333349
_cell_length_c 11.647521
_cell_angle_alpha 105.360623
_cell_angle_beta 103.486599
_cell_angle_gamma 143.722204
_cell_volume 645.573946
_symmetry_space_group_name_H-M "P -1"
_symmetry_group_IT_number 2
_symmetry_cell_setting 'triclinic'
loop_
_space_group_symop_operation_xyz
x,y,z
-x,-y,-z
loop_
_atom_site_type_symbol
_atom_site_label
_atom_site_fract_x
_atom_site_fract_y
_atom_site_fract_z
Si Si1 0.196442 0.955524 0.292434
Si Si2 0.702860 0.499382 0.842008
Si Si3 0.832885 0.795494 0.799777
Si Si4 0.752182 0.737162 0.227257
Si Si5 0.136353 0.510204 0.313274
Si Si6 0.841209 0.489898 0.202165
Si Si7 0.278816 0.453620 0.631333
Si Si8 0.784672 0.039079 0.208329
O O1 0.076931 0.968407 0.318805
O O2 0.435521 0.748545 0.538599
O O3 0.087070 0.776423 0.302299
O O4 0.990759 0.762731 0.073240
O O5 0.723075 0.599530 0.774288
O O6 0.376787 0.259476 0.754667
O O7 0.742661 0.423247 0.764902
O O8 0.532641 0.619832 0.650668
O O9 0.068439 0.947945 0.804713
O O10 0.000000 0.000000 0.000000
O O11 0.723256 0.635849 0.297875
O O12 0.500000 0.500000 0.000000
O O13 0.994994 0.508247 0.275886
O O14 0.885694 0.219416 0.206398
O O15 0.656641 0.388188 0.235998
O O16 0.584109 0.267842 0.975265
O O17 0.955950 0.202186 0.416087
#
# Coordination Sequence:
#
# PCOD9090195 Si02
#       8
#     2   2   2   2   2   2   2   2
#     4  10  22  40  65  88 119 163 210 256 310 370
#     4   9  21  39  60  90 125 159 200 256 314 366
#     4  10  19  38  64  90 128 163 197 255 319 373
#     4   8  17  39  62  89 121 159 196 248 311 368
#     4  11  25  40  61  91 123 164 215 257 305 368
#     4  11  24  43  61  87 126 168 209 259 309 363
#     4  10  21  38  63  94 123 162 207 252 308 373
#     4  11  24  40  64  94 124 162 211 258 311 371
#
# _framework density 24.784146
#
# number of rings (size 3 to 8) (size 9 to 14) (size 15 to 20)
#    0.000    2.000    1.250    1.125    1.750    4.500 
#    0.000    0.000    0.000    0.000    0.000    0.000 
#    0.000    0.000    0.000    0.000    0.000    0.000 
#
# Total GULP energy -89549.305039 kJ/mol
# GULP energy per Si atom -5596.831565 kJ/mol
# Density = 2.472774 g / cm^3
# Si number density = 24.784146 Si / 1000 Ang^3
#
#
#
# Elastic Constant Matrix: (Units=GPa)
#
#
# Indices 1 2 3 4 5 6 
#
# 1 134.3224 10.5674 32.5789 -5.6461 25.4823 -7.2917
# 2 10.5674 70.9992 0.7311 4.0462 2.3975 1.6635
# 3 32.5789 0.7311 111.0822 2.3398 11.2500 4.2459
# 4 -5.6461 4.0462 2.3398 38.9496 4.2382 -2.8843
# 5 25.4823 2.3975 11.2500 4.2382 37.3900 -1.2169
# 6 -7.2917 1.6635 4.2459 -2.8843 -1.2169 24.1495
#
#
#
# Elastic Compliance Matrix: (Units=1/GPa)
#
#
# Indices 1 2 3 4 5 6 
#
# 1 0.009541 -0.001423 -0.002378 0.002565 -0.005876 0.003407
# 2 -0.001423 0.014436 0.000420 -0.001866 0.000074 -0.001717
# 3 -0.002378 0.000420 0.009961 -0.001037 -0.001373 -0.002691
# 4 0.002565 -0.001866 -0.001037 0.027069 -0.004252 0.004104
# 5 -0.005876 0.000074 -0.001373 -0.004252 0.031625 -0.000452
# 6 0.003407 -0.001717 -0.002691 0.004104 -0.000452 0.043496
#
#
# Mechanical properties :
#
#
# Convention : Reuss Voigt Hill
#
# Bulk Modulus (GPa) = 36.79816 44.90651 40.85234
# Shear Modulus (GPa) = 32.90565 38.26625 35.58595
#
# Velocity S-wave (km/s) = 3.64770 3.93362 3.79335
# Velocity P-wave (km/s) = 5.71145 6.22812 5.97537
#
# Compressibility (1/GPa) = 0.02717527
#
# Stress axis : x y z
#
# Youngs Moduli (GPa) = 104.81107 69.26991 100.39330
#
# Poissons Ratio (x) = 0.09859 0.23874
# Poissons Ratio (y) = 0.14917 -0.04215
# Poissons Ratio (z) = 0.24925 -0.02909
#
# Static dielectric constant tensor:
#      x y z
#    x 1.938700 0.044520 -0.025350 
#    y 0.044520 2.065230 -0.027490 
#    z -0.025350 -0.027490 1.950810 
# 
# From -- ./inp_files/431610.got.cif
#   From: 2010.05.17/outbox.cif.g08.bks.cpg/sg2_216_cif.got.tgz:431610.got - 2010.06.03 11:33:40.
