data_PCOD9090727
_publ_section_title
;
Structure prediction by ZEFSAII (Michael W. Deem and Ramdas Pophale) SiO2 
 PCOD9090727
Probable space group: P -1
;
_chemical_formula_sum "Si O2"
_cell_formula_units_Z 16
_cell_length_a 4.968267
_cell_length_b 21.944582
_cell_length_c 13.397026
_cell_angle_alpha 146.667388
_cell_angle_beta 49.411532
_cell_angle_gamma 129.955247
_cell_volume 592.248906
_symmetry_space_group_name_H-M "P -1"
_symmetry_group_IT_number 2
_symmetry_cell_setting 'triclinic'
loop_
_space_group_symop_operation_xyz
x,y,z
-x,-y,-z
loop_
_atom_site_type_symbol
_atom_site_label
_atom_site_fract_x
_atom_site_fract_y
_atom_site_fract_z
Si Si1 0.281320 0.275362 0.838819
Si Si2 0.500125 0.906758 0.099256
Si Si3 0.729622 0.414274 0.217680
Si Si4 0.485893 0.498547 0.824197
Si Si5 0.664384 0.969748 0.816460
Si Si6 0.677990 0.124092 0.671193
Si Si7 0.894424 0.715600 0.675276
Si Si8 0.272093 0.263821 0.481378
O O1 0.500145 0.211232 0.770975
O O2 0.110933 0.191853 0.674774
O O3 0.516770 0.409004 0.960286
O O4 0.918013 0.306255 0.016797
O O5 0.416664 0.903613 0.228350
O O6 0.150371 0.908614 0.114530
O O7 0.652331 0.037221 0.200428
O O8 0.739877 0.825409 0.892082
O O9 0.612768 0.447180 0.181590
O O10 0.396407 0.382012 0.329247
O O11 0.089136 0.505697 0.291280
O O12 0.266110 0.367802 0.700184
O O13 0.850667 0.865647 0.627507
O O14 0.500000 0.000000 0.000000
O O15 0.500000 0.000000 0.500000
O O16 0.888558 0.709620 0.548626
O O17 0.302208 0.731271 0.636981
#
# Coordination Sequence:
#
# PCOD9090727 Si02
#       8
#     2   2   2   2   2   2   2   2
#     4  10  19  39  56  82 118 145 179 228 297 348
#     4  12  22  39  59  79 120 157 181 248 292 323
#     4  10  20  34  53  76 109 155 183 220 289 341
#     4  10  20  37  51  76 117 150 195 230 279 326
#     4  12  23  39  56  82 114 161 205 230 275 326
#     4  12  24  39  64  93 114 143 189 235 300 368
#     4  12  21  33  54  78 116 154 192 233 280 329
#     4  12  25  33  53  83 109 157 209 229 258 338
#
# _framework density 27.015667000000001
#
# number of rings (size 3 to 8) (size 9 to 14) (size 15 to 20)
#    0.750    0.000    5.000    3.750    1.750    3.000 
#    0.000    0.000    0.000    0.000    0.000    5.250 
#    0.000    0.000    0.000    0.000    0.000    0.000 
#
# Total GULP energy -89130.819176 kJ/mol
# GULP energy per Si atom -5570.676199 kJ/mol
# Density = 2.695418 g / cm^3
# Si number density = 27.015667 Si / 1000 Ang^3
#
#
#
# Elastic Constant Matrix: (Units=GPa)
#
#
# Indices 1 2 3 4 5 6 
#
# 1 121.9734 51.6133 26.4649 4.6386 3.4105 -27.3426
# 2 51.6133 84.4611 47.2831 15.2147 4.0326 -28.2327
# 3 26.4649 47.2831 147.0865 32.9592 19.3507 -15.9637
# 4 4.6386 15.2147 32.9592 35.1599 -4.3010 -16.4816
# 5 3.4105 4.0326 19.3507 -4.3010 46.3969 -5.1878
# 6 -27.3426 -28.2327 -15.9637 -16.4816 -5.1878 40.4347
#
#
#
# Elastic Compliance Matrix: (Units=1/GPa)
#
#
# Indices 1 2 3 4 5 6 
#
# 1 0.011881 -0.005785 -0.000794 0.004436 0.001000 0.005618
# 2 -0.005785 0.021213 -0.005282 0.001270 0.001974 0.009585
# 3 -0.000794 -0.005282 0.011419 -0.011440 -0.005880 -0.005134
# 4 0.004436 0.001270 -0.011440 0.049181 0.011226 0.020857
# 5 0.001000 0.001974 -0.005880 0.011226 0.025651 0.007600
# 6 0.005618 0.009585 -0.005134 0.020857 0.007600 0.042672
#
#
# Mechanical properties :
#
#
# Convention : Reuss Voigt Hill
#
# Bulk Modulus (GPa) = 48.09690 67.13820 57.61755
# Shear Modulus (GPa) = 25.95094 39.60894 32.77994
#
# Velocity S-wave (km/s) = 3.10270 3.83318 3.48712
# Velocity P-wave (km/s) = 5.53874 6.67058 6.13083
#
# Compressibility (1/GPa) = 0.02079136
#
# Stress axis : x y z
#
# Youngs Moduli (GPa) = 84.16454 47.14061 87.56957
#
# Poissons Ratio (x) = 0.27271 0.06952
# Poissons Ratio (y) = 0.48690 0.46258
# Poissons Ratio (z) = 0.06682 0.24901
#
# Static dielectric constant tensor:
#      x y z
#    x 2.073600 0.176930 0.055010 
#    y 0.176930 2.263040 0.147370 
#    z 0.055010 0.147370 2.189470 
# 
# From -- ./inp_files/370446.got.cif
#   From: 2010.05.17/outbox.cif.g08.bks.cpg/sg2_186_cif.got.tgz:370446.got - 2010.06.03 11:33:40.
