data_PCOD9090062
_publ_section_title
;
Structure prediction by ZEFSAII (Michael W. Deem and Ramdas Pophale) SiO2 
 PCOD9090062
Probable space group: P -1
;
_chemical_formula_sum "Si O2"
_cell_formula_units_Z 16
_cell_length_a 9.228308
_cell_length_b 10.050619
_cell_length_c 10.623652
_cell_angle_alpha 119.961641
_cell_angle_beta 90.946467
_cell_angle_gamma 66.106010
_cell_volume 758.734016
_symmetry_space_group_name_H-M "P -1"
_symmetry_group_IT_number 2
_symmetry_cell_setting 'triclinic'
loop_
_space_group_symop_operation_xyz
x,y,z
-x,-y,-z
loop_
_atom_site_type_symbol
_atom_site_label
_atom_site_fract_x
_atom_site_fract_y
_atom_site_fract_z
Si Si1 0.928470 0.372669 0.387890
Si Si2 0.487960 0.381801 0.062709
Si Si3 0.243902 0.623070 0.377732
Si Si4 0.831105 0.325533 0.089470
Si Si5 0.691223 0.695674 0.161277
Si Si6 0.358331 0.861187 0.368522
Si Si7 0.078183 0.967771 0.230973
Si Si8 0.102488 0.157742 0.648940
O O1 0.773366 0.418188 0.498145
O O2 0.885567 0.383288 0.244985
O O3 0.000000 0.500000 0.500000
O O4 0.041251 0.164274 0.302835
O O5 0.354804 0.478796 0.213177
O O6 0.661194 0.316682 0.101243
O O7 0.500000 0.500000 0.000000
O O8 0.420904 0.258620 0.941922
O O9 0.322670 0.752092 0.422190
O O10 0.058357 0.706172 0.360587
O O11 0.790280 0.487742 0.073555
O O12 0.940211 0.141500 0.937285
O O13 0.549065 0.777625 0.304409
O O14 0.822179 0.763695 0.211793
O O15 0.259426 0.857936 0.239718
O O16 0.250305 0.055254 0.506416
O O17 0.960309 0.962703 0.336571
#
# Coordination Sequence:
#
# PCOD9090062 Si02
#       8
#     2   2   2   2   2   2   2   2
#     4  12  26  43  64  91 127 169 220 261 301 375
#     4  10  19  38  63  91 124 162 203 257 315 373
#     4  11  20  39  64  89 124 165 210 252 317 372
#     4  11  23  40  65  90 129 172 208 248 316 383
#     4  11  21  37  63 101 127 161 205 262 324 369
#     4  11  18  38  66  91 129 160 202 268 320 373
#     4  11  22  42  68  89 123 172 209 262 321 366
#     4  11  21  34  64 101 126 156 210 273 317 365
#
# _framework density 21.087758000000001
#
# number of rings (size 3 to 8) (size 9 to 14) (size 15 to 20)
#    0.000    1.000    6.250    4.500    0.000    3.500 
#    0.000    0.000    0.000    1.500    0.000    0.000 
#    0.000    0.000    0.000    0.000    0.000    0.000 
#
# Total GULP energy -89103.666951 kJ/mol
# GULP energy per Si atom -5568.979184 kJ/mol
# Density = 2.103976 g / cm^3
# Si number density = 21.087758 Si / 1000 Ang^3
#
#
#
# Elastic Constant Matrix: (Units=GPa)
#
#
# Indices 1 2 3 4 5 6 
#
# 1 65.0944 7.9732 27.4402 9.6940 13.3134 1.9387
# 2 7.9732 27.0510 11.4622 5.5071 3.8529 6.3580
# 3 27.4402 11.4622 130.3654 4.4271 0.7002 -6.2078
# 4 9.6940 5.5071 4.4271 31.0587 -6.5407 -2.4021
# 5 13.3134 3.8529 0.7002 -6.5407 49.1955 -1.8446
# 6 1.9387 6.3580 -6.2078 -2.4021 -1.8446 9.9830
#
#
#
# Elastic Compliance Matrix: (Units=1/GPa)
#
#
# Indices 1 2 3 4 5 6 
#
# 1 0.020072 0.001147 -0.004521 -0.008110 -0.006936 -0.010673
# 2 0.001147 0.053455 -0.006479 -0.013903 -0.007869 -0.043095
# 3 -0.004521 -0.006479 0.009666 0.002622 0.002395 0.012088
# 4 -0.008110 -0.013903 0.002622 0.040654 0.009536 0.023604
# 5 -0.006936 -0.007869 0.002395 0.009536 0.024605 0.014689
# 6 -0.010673 -0.043095 0.012088 0.023604 0.014689 0.145600
#
#
# Mechanical properties :
#
#
# Convention : Reuss Voigt Hill
#
# Bulk Modulus (GPa) = 15.75156 35.14023 25.44590
# Shear Modulus (GPa) = 14.92898 29.75647 22.34273
#
# Velocity S-wave (km/s) = 2.66361 3.76051 3.25855
# Velocity P-wave (km/s) = 4.11649 5.96282 5.12351
#
# Compressibility (1/GPa) = 0.06348577
#
# Stress axis : x y z
#
# Youngs Moduli (GPa) = 49.82092 18.70744 103.45729
#
# Poissons Ratio (x) = -0.02146 0.46776
# Poissons Ratio (y) = -0.05715 0.67031
# Poissons Ratio (z) = 0.22526 0.12121
#
# Static dielectric constant tensor:
#      x y z
#    x 1.762890 -0.025010 -0.007370 
#    y -0.025010 1.829480 0.041660 
#    z -0.007370 0.041660 1.919410 
# 
# From -- ./inp_files/393127.got.cif
#   From: 2010.05.17/outbox.cif.g08.bks.cpg/sg2_197_cif.got.tgz:393127.got - 2010.06.03 11:33:40.
