data_PCOD9090548
_publ_section_title
;
Structure prediction by ZEFSAII (Michael W. Deem and Ramdas Pophale) SiO2 
 PCOD9090548
Probable space group: P -1
;
_chemical_formula_sum "Si O2"
_cell_formula_units_Z 16
_cell_length_a 9.816834
_cell_length_b 8.196875
_cell_length_c 21.074915
_cell_angle_alpha 140.744005
_cell_angle_beta 134.848191
_cell_angle_gamma 43.994949
_cell_volume 701.738087
_symmetry_space_group_name_H-M "P -1"
_symmetry_group_IT_number 2
_symmetry_cell_setting 'triclinic'
loop_
_space_group_symop_operation_xyz
x,y,z
-x,-y,-z
loop_
_atom_site_type_symbol
_atom_site_label
_atom_site_fract_x
_atom_site_fract_y
_atom_site_fract_z
Si Si1 0.696114 0.230288 0.963685
Si Si2 0.238173 0.596241 0.622007
Si Si3 0.916979 0.819090 0.212078
Si Si4 0.002681 0.669330 0.330764
Si Si5 0.107094 0.168569 0.516739
Si Si6 0.208767 0.233534 0.973455
Si Si7 0.356747 0.326705 0.176662
Si Si8 0.023738 0.094861 0.138384
O O1 0.658831 0.948873 0.881892
O O2 0.783382 0.179215 0.904951
O O3 0.500000 0.500000 0.000000
O O4 0.886539 0.218706 0.067680
O O5 0.234586 0.308543 0.560193
O O6 0.459032 0.611038 0.711805
O O7 0.130056 0.666832 0.538643
O O8 0.088153 0.867211 0.695129
O O9 0.864379 0.771119 0.252486
O O10 0.142496 0.588499 0.200016
O O11 0.762613 0.787198 0.098672
O O12 0.092778 0.335063 0.259484
O O13 0.884009 0.770530 0.388044
O O14 0.153546 0.840495 0.425632
O O15 0.371113 0.266918 0.087047
O O16 0.134544 0.983728 0.893617
O O17 0.000000 0.500000 0.000000
#
# Coordination Sequence:
#
# PCOD9090548 Si02
#       8
#     2   2   2   2   2   2   2   2
#     4  10  22  34  59  94 122 158 202 244 312 378
#     4  10  21  39  67  85 126 161 208 263 315 362
#     4  10  20  38  64  87 123 171 197 249 320 365
#     4  10  19  38  67  84 125 162 211 259 309 365
#     4   9  21  39  62  96 114 167 217 261 315 359
#     4   9  20  36  59  91 125 162 207 239 304 379
#     4  10  21  38  60  94 124 161 208 253 303 379
#     4  10  20  38  61  87 124 164 198 250 307 377
#
# _framework density 22.800529000000001
#
# number of rings (size 3 to 8) (size 9 to 14) (size 15 to 20)
#    0.000    2.250    1.250    0.750    5.250    0.500 
#    0.000   12.500    0.000    0.000    0.000    0.000 
#    0.000    0.000    0.000    0.000    0.000    0.000 
#
# Total GULP energy -89269.516051 kJ/mol
# GULP energy per Si atom -5579.344753 kJ/mol
# Density = 2.274863 g / cm^3
# Si number density = 22.800529 Si / 1000 Ang^3
#
#
#
# Elastic Constant Matrix: (Units=GPa)
#
#
# Indices 1 2 3 4 5 6 
#
# 1 66.7127 27.1854 43.0115 -8.0568 -4.9110 5.6890
# 2 27.1854 72.9176 33.0127 13.8755 6.5555 -17.4879
# 3 43.0115 33.0127 109.9509 1.3725 2.4997 4.1414
# 4 -8.0568 13.8755 1.3725 58.0182 15.2763 -0.8672
# 5 -4.9110 6.5555 2.4997 15.2763 47.7938 -3.2695
# 6 5.6890 -17.4879 4.1414 -0.8672 -3.2695 37.7506
#
#
#
# Elastic Compliance Matrix: (Units=1/GPa)
#
#
# Indices 1 2 3 4 5 6 
#
# 1 0.024166 -0.008696 -0.006699 0.004973 0.001982 -0.006649
# 2 -0.008696 0.022836 -0.003810 -0.006124 -0.001043 0.012076
# 3 -0.006699 -0.003810 0.012968 -0.000106 -0.000965 -0.002264
# 4 0.004973 -0.006124 -0.000106 0.020798 -0.005536 -0.003576
# 5 0.001982 -0.001043 -0.000965 -0.005536 0.023172 0.001204
# 6 -0.006649 0.012076 -0.002264 -0.003576 0.001204 0.033356
#
#
# Mechanical properties :
#
#
# Convention : Reuss Voigt Hill
#
# Bulk Modulus (GPa) = 46.38017 50.66671 48.52344
# Shear Modulus (GPa) = 27.33856 38.47062 32.90459
#
# Velocity S-wave (km/s) = 3.46646 4.11209 3.80300
# Velocity P-wave (km/s) = 6.03388 6.69445 6.37273
#
# Compressibility (1/GPa) = 0.02156094
#
# Stress axis : x y z
#
# Youngs Moduli (GPa) = 41.38090 43.79033 77.11314
#
# Poissons Ratio (x) = 0.38079 0.51659
# Poissons Ratio (y) = 0.35984 0.29377
# Poissons Ratio (z) = 0.27722 0.16682
#
# Static dielectric constant tensor:
#      x y z
#    x 1.907170 0.030340 -0.008860 
#    y 0.030340 1.909030 0.023770 
#    z -0.008860 0.023770 1.885700 
# 
# From -- ./inp_files/609695.got.cif
#   From: 2010.05.17/outbox.cif.g08.bks.cpg/sg2_305_cif.got.tgz:609695.got - 2010.06.03 11:33:40.
