data_PCOD9090389
_publ_section_title
;
Structure prediction by ZEFSAII (Michael W. Deem and Ramdas Pophale) SiO2 
 PCOD9090389
Probable space group: P -1
;
_chemical_formula_sum "Si O2"
_cell_formula_units_Z 16
_cell_length_a 12.378909
_cell_length_b 11.195156
_cell_length_c 8.000532
_cell_angle_alpha 46.169473
_cell_angle_beta 51.391719
_cell_angle_gamma 64.234568
_cell_volume 625.011632
_symmetry_space_group_name_H-M "P -1"
_symmetry_group_IT_number 2
_symmetry_cell_setting 'triclinic'
loop_
_space_group_symop_operation_xyz
x,y,z
-x,-y,-z
loop_
_atom_site_type_symbol
_atom_site_label
_atom_site_fract_x
_atom_site_fract_y
_atom_site_fract_z
Si Si1 0.175453 0.466397 0.701044
Si Si2 0.596446 0.340206 0.564350
Si Si3 0.674027 0.064745 0.537612
Si Si4 0.342398 0.559790 0.109764
Si Si5 0.221667 0.084169 0.069794
Si Si6 0.914818 0.567997 0.679080
Si Si7 0.424588 0.881897 0.868480
Si Si8 0.043917 0.040611 0.731701
O O1 0.247319 0.597062 0.626069
O O2 0.196687 0.278478 0.915598
O O3 0.015831 0.504842 0.786939
O O4 0.266032 0.492433 0.416739
O O5 0.500000 0.500000 0.500000
O O6 0.590237 0.227050 0.517079
O O7 0.562376 0.231145 0.866084
O O8 0.759965 0.500765 0.877584
O O9 0.577346 0.950767 0.626527
O O10 0.706601 0.975281 0.771717
O O11 0.355332 0.757478 0.926111
O O12 0.500000 0.500000 0.000000
O O13 0.323119 0.030029 0.874402
O O14 0.078868 0.993370 0.247686
O O15 0.000000 0.500000 0.500000
O O16 0.086724 0.233084 0.501766
O O17 0.827738 0.079716 0.309218
O O18 0.000000 0.000000 0.000000
#
# Coordination Sequence:
#
# PCOD9090389 Si02
#       8
#     2   2   2   2   2   2   2   2
#     4  10  21  38  62  91 124 169 214 263 323 384
#     4  10  19  38  65  96 128 163 212 273 326 382
#     4  11  23  42  67  97 129 170 217 268 326 389
#     4  10  20  37  60  90 126 168 213 266 324 383
#     4  11  22  42  66  93 130 172 214 266 326 389
#     4  10  20  40  62  86 126 171 212 262 317 379
#     4  10  21  38  63  91 124 167 215 268 320 382
#     4  12  25  43  65  94 130 172 216 266 324 390
#
# _framework density 25.599526000000001
#
# number of rings (size 3 to 8) (size 9 to 14) (size 15 to 20)
#    0.000    1.500    0.000    8.625    0.000    0.000 
#    0.000   22.500    0.000    0.000    0.000    0.000 
#    0.000    0.000    0.000    0.000    0.000    0.000 
#
# Total GULP energy -89714.151121 kJ/mol
# GULP energy per Si atom -5607.134445 kJ/mol
# Density = 2.554126 g / cm^3
# Si number density = 25.599526 Si / 1000 Ang^3
#
#
#
# Elastic Constant Matrix: (Units=GPa)
#
#
# Indices 1 2 3 4 5 6 
#
# 1 185.9587 29.3252 34.9010 -7.2590 -36.0529 3.2052
# 2 29.3252 73.5463 32.7337 -12.0524 -2.5947 -5.5211
# 3 34.9010 32.7337 81.6836 -14.5174 -8.5090 3.5485
# 4 -7.2590 -12.0524 -14.5174 41.6352 2.0843 -0.2658
# 5 -36.0529 -2.5947 -8.5090 2.0843 48.0777 -8.8928
# 6 3.2052 -5.5211 3.5485 -0.2658 -8.8928 51.0542
#
#
#
# Elastic Compliance Matrix: (Units=1/GPa)
#
#
# Indices 1 2 3 4 5 6 
#
# 1 0.006923 -0.001802 -0.001776 -0.000175 0.004850 0.000338
# 2 -0.001802 0.017563 -0.005998 0.002751 -0.001170 0.002240
# 3 -0.001776 -0.005998 0.016182 0.003548 0.000775 -0.001508
# 4 -0.000175 0.002751 0.003548 0.026045 -0.000462 0.000117
# 5 0.004850 -0.001170 0.000775 -0.000462 0.025254 0.003912
# 6 0.000338 0.002240 -0.001508 0.000117 0.003912 0.020595
#
#
# Mechanical properties :
#
#
# Convention : Reuss Voigt Hill
#
# Bulk Modulus (GPa) = 46.48073 59.45648 52.96861
# Shear Modulus (GPa) = 36.00081 44.43534 40.21808
#
# Velocity S-wave (km/s) = 3.75415 4.17080 3.96794
# Velocity P-wave (km/s) = 6.08176 6.81690 6.45979
#
# Compressibility (1/GPa) = 0.02151429
#
# Stress axis : x y z
#
# Youngs Moduli (GPa) = 144.45325 56.93851 61.79731
#
# Poissons Ratio (x) = 0.10259 0.10977
# Poissons Ratio (y) = 0.26028 0.37069
# Poissons Ratio (z) = 0.25659 0.34154
#
# Static dielectric constant tensor:
#      x y z
#    x 1.994990 0.053800 0.040480 
#    y 0.053800 2.009690 0.066950 
#    z 0.040480 0.066950 2.060210 
# 
# From -- ./inp_files/302086.got.cif
#   From: 2010.05.17/outbox.cif.g08.bks.cpg/sg2_152_cif.got.tgz:302086.got - 2010.06.03 11:33:40.
