data_PCOD9090235
_publ_section_title
;
Structure prediction by ZEFSAII (Michael W. Deem and Ramdas Pophale) SiO2 
 PCOD9090235
Probable space group: P -1
;
_chemical_formula_sum "Si O2"
_cell_formula_units_Z 16
_cell_length_a 9.270290
_cell_length_b 12.054817
_cell_length_c 12.454660
_cell_angle_alpha 126.232461
_cell_angle_beta 144.833256
_cell_angle_gamma 62.303341
_cell_volume 646.112301
_symmetry_space_group_name_H-M "P -1"
_symmetry_group_IT_number 2
_symmetry_cell_setting 'triclinic'
loop_
_space_group_symop_operation_xyz
x,y,z
-x,-y,-z
loop_
_atom_site_type_symbol
_atom_site_label
_atom_site_fract_x
_atom_site_fract_y
_atom_site_fract_z
Si Si1 0.578587 0.960415 0.907264
Si Si2 0.650662 0.090665 0.810120
Si Si3 0.374468 0.625847 0.135086
Si Si4 0.099657 0.845630 0.475213
Si Si5 0.058924 0.111849 0.234866
Si Si6 0.337231 0.649279 0.370458
Si Si7 0.150458 0.448311 0.331854
Si Si8 0.090500 0.346334 0.566965
O O1 0.381791 0.835332 0.692594
O O2 0.512739 0.054853 0.817535
O O3 0.879394 0.985099 0.102200
O O4 0.500000 0.000000 0.000000
O O5 0.919483 0.137870 0.052266
O O6 0.561384 0.212153 0.753972
O O7 0.685934 0.955514 0.683501
O O8 0.306534 0.600463 0.202258
O O9 0.643531 0.570991 0.236722
O O10 0.640198 0.662363 0.579479
O O11 0.158950 0.776960 0.357814
O O12 0.923428 0.749847 0.389365
O O13 0.000000 0.000000 0.500000
O O14 0.046997 0.241191 0.380524
O O15 0.248922 0.536886 0.340303
O O16 0.133347 0.589531 0.896725
O O17 0.121038 0.544994 0.474053
#
# Coordination Sequence:
#
# PCOD9090235 Si02
#       8
#     2   2   2   2   2   2   2   2
#     4  10  19  38  64  93 136 183 215 269 335 410
#     4   9  22  38  62 101 140 170 227 281 332 418
#     4  12  25  41  73 102 135 180 226 294 347 395
#     4  11  23  41  64 103 143 171 228 281 345 412
#     4   9  21  40  62  97 139 177 225 265 352 403
#     4  10  26  46  75  97 132 186 231 283 348 411
#     4  10  25  52  67  98 135 182 239 285 333 414
#     4  11  24  43  65 101 137 180 232 279 339 416
#
# _framework density 24.763497999999998
#
# number of rings (size 3 to 8) (size 9 to 14) (size 15 to 20)
#    0.750    1.000    1.250    1.500    7.000    1.000 
#    2.250    0.000    0.000    0.000    0.000    0.000 
#    0.000    0.000    0.000    0.000    0.000    0.000 
#
# Total GULP energy -89143.358840 kJ/mol
# GULP energy per Si atom -5571.459928 kJ/mol
# Density = 2.470713 g / cm^3
# Si number density = 24.763498 Si / 1000 Ang^3
#
#
#
# Elastic Constant Matrix: (Units=GPa)
#
#
# Indices 1 2 3 4 5 6 
#
# 1 124.9291 57.5536 35.9712 15.1371 -27.4478 -11.7023
# 2 57.5536 94.7444 9.8449 -5.0344 -9.9261 -18.9654
# 3 35.9712 9.8449 98.0086 -0.2617 -6.1568 -10.3303
# 4 15.1371 -5.0344 -0.2617 15.7055 2.4923 -0.1640
# 5 -27.4478 -9.9261 -6.1568 2.4923 42.6375 10.3019
# 6 -11.7023 -18.9654 -10.3303 -0.1640 10.3019 28.6294
#
#
#
# Elastic Compliance Matrix: (Units=1/GPa)
#
#
# Indices 1 2 3 4 5 6 
#
# 1 0.022431 -0.014622 -0.006832 -0.028674 0.013675 -0.008067
# 2 -0.014622 0.021987 0.004089 0.022648 -0.008204 0.013146
# 3 -0.006832 0.004089 0.012715 0.008727 -0.003527 0.005823
# 4 -0.028674 0.022648 0.008727 0.102274 -0.021466 0.014742
# 5 0.013675 -0.008204 -0.003527 -0.021466 0.034381 -0.013612
# 6 -0.008067 0.013146 0.005823 0.014742 -0.013612 0.047424
#
#
# Mechanical properties :
#
#
# Convention : Reuss Voigt Hill
#
# Bulk Modulus (GPa) = 44.63526 58.26906 51.45216
# Shear Modulus (GPa) = 17.64229 31.68197 24.66213
#
# Velocity S-wave (km/s) = 2.67204 3.58073 3.15922
# Velocity P-wave (km/s) = 5.25200 6.37783 5.84210
#
# Compressibility (1/GPa) = 0.02240381
#
# Stress axis : x y z
#
# Youngs Moduli (GPa) = 44.58163 45.48040 78.64491
#
# Poissons Ratio (x) = 0.66501 0.53728
# Poissons Ratio (y) = 0.65187 -0.32155
# Poissons Ratio (z) = 0.30457 -0.18595
#
# Static dielectric constant tensor:
#      x y z
#    x 2.073140 -0.041450 0.054570 
#    y -0.041450 2.028060 0.041980 
#    z 0.054570 0.041980 2.079640 
# 
# From -- ./inp_files/396451.got.cif
#   From: 2010.05.17/outbox.cif.g08.bks.cpg/sg2_199_cif.got.tgz:396451.got - 2010.06.03 11:33:40.
