data_PCOD9090576
_publ_section_title
;
Structure prediction by ZEFSAII (Michael W. Deem and Ramdas Pophale) SiO2 
 PCOD9090576
Probable space group: P -1
;
_chemical_formula_sum "Si O2"
_cell_formula_units_Z 12
_cell_length_a 10.208893
_cell_length_b 8.676734
_cell_length_c 18.524864
_cell_angle_alpha 145.024446
_cell_angle_beta 30.220830
_cell_angle_gamma 147.341614
_cell_volume 419.403088
_symmetry_space_group_name_H-M "P -1"
_symmetry_group_IT_number 2
_symmetry_cell_setting 'triclinic'
loop_
_space_group_symop_operation_xyz
x,y,z
-x,-y,-z
loop_
_atom_site_type_symbol
_atom_site_label
_atom_site_fract_x
_atom_site_fract_y
_atom_site_fract_z
Si Si1 0.202108 0.524281 0.634108
Si Si2 0.659939 0.247366 0.147939
Si Si3 0.665686 0.888459 0.141465
Si Si4 0.896810 0.556477 0.649700
Si Si5 0.642071 0.811747 0.320235
Si Si6 0.243255 0.634430 0.079424
O O1 0.500000 0.500000 0.500000
O O2 0.609247 0.539644 0.283710
O O3 0.011587 0.420432 0.609645
O O4 0.984130 0.399460 0.759335
O O5 0.015838 0.414856 0.042060
O O6 0.555749 0.033077 0.186177
O O7 0.445772 0.981555 0.095358
O O8 0.447163 0.619311 0.272108
O O9 0.557281 0.529295 0.056842
O O10 0.688528 0.115677 0.281545
O O11 0.000000 0.000000 0.000000
O O12 0.000000 0.500000 0.500000
O O13 0.027089 0.916164 0.739561
O O14 0.500000 0.000000 0.500000
#
# Coordination Sequence:
#
# PCOD9090576 Si02
#       6
#     2   2   2   2   2   2
#     4  10  22  41  67 102 133 168 221 277 331 387
#     4  10  19  38  67  94 121 175 225 259 325 395
#     4   8  19  38  66  94 128 169 214 275 328 382
#     4  10  23  40  61  86 137 176 210 258 334 389
#     4  10  22  39  61  87 132 181 215 256 326 401
#     4  10  22  40  69  94 130 168 219 275 329 381
#
# _framework density 28.612093000000002
#
# number of rings (size 3 to 8) (size 9 to 14) (size 15 to 20)
#    0.000    2.667    0.000    1.500    9.333    2.667 
#    0.000    4.167    0.000   26.000    0.000    0.000 
#    0.000    0.000    0.000    0.000    0.000    0.000 
#
# Total GULP energy -66896.920773 kJ/mol
# GULP energy per Si atom -5574.743398 kJ/mol
# Density = 2.854697 g / cm^3
# Si number density = 28.612093 Si / 1000 Ang^3
#
#
#
# Elastic Constant Matrix: (Units=GPa)
#
#
# Indices 1 2 3 4 5 6 
#
# 1 215.9932 67.6467 67.2117 8.1244 3.6331 21.5661
# 2 67.6467 260.7196 53.4335 40.3773 -24.0113 39.6185
# 3 67.2117 53.4335 128.7297 21.9230 -12.5264 -4.6844
# 4 8.1244 40.3773 21.9230 49.5135 -13.3606 -8.1410
# 5 3.6331 -24.0113 -12.5264 -13.3606 51.5015 -2.3565
# 6 21.5661 39.6185 -4.6844 -8.1410 -2.3565 48.1488
#
#
#
# Elastic Compliance Matrix: (Units=1/GPa)
#
#
# Indices 1 2 3 4 5 6 
#
# 1 0.006114 -0.000730 -0.003162 0.000144 -0.001618 -0.002501
# 2 -0.000730 0.005973 -0.001388 -0.004764 0.001012 -0.005479
# 3 -0.003162 -0.001388 0.010636 -0.002027 0.001790 0.003338
# 4 0.000144 -0.004764 -0.002027 0.027673 0.004847 0.008575
# 5 -0.001618 0.001012 0.001790 0.004847 0.021785 0.001952
# 6 -0.002501 -0.005479 0.003338 0.008575 0.001952 0.028267
#
#
# Mechanical properties :
#
#
# Convention : Reuss Voigt Hill
#
# Bulk Modulus (GPa) = 82.21293 109.11404 95.66348
# Shear Modulus (GPa) = 43.45488 57.64280 50.54884
#
# Velocity S-wave (km/s) = 3.90135 4.49333 4.20777
# Velocity P-wave (km/s) = 7.00643 8.07084 7.55740
#
# Compressibility (1/GPa) = 0.01216354
#
# Stress axis : x y z
#
# Youngs Moduli (GPa) = 163.56706 167.42327 94.01896
#
# Poissons Ratio (x) = 0.12214 0.29731
# Poissons Ratio (y) = 0.11933 0.13049
# Poissons Ratio (z) = 0.51723 0.23236
#
# Static dielectric constant tensor:
#      x y z
#    x 2.311310 0.173880 -0.232490 
#    y 0.173880 2.475440 -0.151170 
#    z -0.232490 -0.151170 2.207890 
# 
# From -- ./inp_files/555569.got.cif
#   From: 2010.05.17/outbox.cif.g08.bks.cpg/sg2_278_cif.got.tgz:555569.got - 2010.06.03 11:33:40.
