data_PCOD9090649
_publ_section_title
;
Structure prediction by ZEFSAII (Michael W. Deem and Ramdas Pophale) SiO2 
 PCOD9090649
Probable space group: P -1
;
_chemical_formula_sum "Si O2"
_cell_formula_units_Z 16
_cell_length_a 14.212137
_cell_length_b 10.135688
_cell_length_c 8.794432
_cell_angle_alpha 81.337686
_cell_angle_beta 50.397499
_cell_angle_gamma 53.604021
_cell_volume 730.844978
_symmetry_space_group_name_H-M "P -1"
_symmetry_group_IT_number 2
_symmetry_cell_setting 'triclinic'
loop_
_space_group_symop_operation_xyz
x,y,z
-x,-y,-z
loop_
_atom_site_type_symbol
_atom_site_label
_atom_site_fract_x
_atom_site_fract_y
_atom_site_fract_z
Si Si1 0.365244 0.375550 0.190505
Si Si2 0.808055 0.211098 0.349381
Si Si3 0.389795 0.969020 0.542355
Si Si4 0.329329 0.103845 0.240414
Si Si5 0.055697 0.135324 0.912908
Si Si6 0.520391 0.606741 0.610366
Si Si7 0.786985 0.291685 0.916330
Si Si8 0.745652 0.109940 0.750253
O O1 0.280144 0.292674 0.275041
O O2 0.385629 0.394647 0.342767
O O3 0.266913 0.557781 0.172222
O O4 0.550685 0.251152 0.955999
O O5 0.645793 0.409252 0.451676
O O6 0.788231 0.156757 0.542618
O O7 0.854137 0.064743 0.203067
O O8 0.957806 0.200429 0.158934
O O9 0.367944 0.010428 0.379488
O O10 0.210564 0.116681 0.769002
O O11 0.500000 0.000000 0.500000
O O12 0.467723 0.768778 0.532095
O O13 0.219655 0.072420 0.273711
O O14 0.500000 0.000000 0.000000
O O15 0.927130 0.245276 0.890035
O O16 0.368247 0.641971 0.838256
O O17 0.826777 0.132180 0.801513
#
# Coordination Sequence:
#
# PCOD9090649 Si02
#       8
#     2   2   2   2   2   2   2   2
#     4  10  19  39  67 106 133 177 236 273 324 403
#     4  11  21  42  64 103 139 168 229 282 336 396
#     4  12  25  47  71  91 134 185 226 279 341 409
#     4  10  22  40  65  99 133 174 232 271 330 411
#     4  11  27  41  61 104 142 171 221 287 350 394
#     4  11  21  39  76 101 130 182 234 274 329 405
#     4  11  22  41  70 104 141 171 223 294 332 394
#     4  10  19  38  68  99 134 178 229 270 335 396
#
# _framework density 21.892467
#
# number of rings (size 3 to 8) (size 9 to 14) (size 15 to 20)
#    0.000    1.250    5.000    2.250    0.000    4.500 
#    0.000    1.250    2.750    0.000    0.000    0.000 
#    0.000    0.000    0.000    0.000    0.000    0.000 
#
# Total GULP energy -89345.941834 kJ/mol
# GULP energy per Si atom -5584.121365 kJ/mol
# Density = 2.184264 g / cm^3
# Si number density = 21.892467 Si / 1000 Ang^3
#
#
#
# Elastic Constant Matrix: (Units=GPa)
#
#
# Indices 1 2 3 4 5 6 
#
# 1 107.0198 34.5396 28.7221 -1.4104 -17.8387 10.9683
# 2 34.5396 112.0462 34.6526 -13.1909 -9.0090 1.4431
# 3 28.7221 34.6526 127.5382 -6.3008 -3.2647 -2.4817
# 4 -1.4104 -13.1909 -6.3008 33.6761 -0.0612 -3.7760
# 5 -17.8387 -9.0090 -3.2647 -0.0612 32.4403 6.1883
# 6 10.9683 1.4431 -2.4817 -3.7760 6.1883 25.4103
#
#
#
# Elastic Compliance Matrix: (Units=1/GPa)
#
#
# Indices 1 2 3 4 5 6 
#
# 1 0.012855 -0.002796 -0.002182 -0.001816 0.007540 -0.007709
# 2 -0.002796 0.010984 -0.002121 0.003865 0.001180 0.000663
# 3 -0.002182 -0.002121 0.008972 0.001025 -0.001345 0.002419
# 4 -0.001816 0.003865 0.001025 0.031952 -0.000833 0.005615
# 5 0.007540 0.001180 -0.001345 -0.000833 0.037592 -0.012732
# 6 -0.007709 0.000663 0.002419 0.005615 -0.012732 0.046815
#
#
# Mechanical properties :
#
#
# Convention : Reuss Voigt Hill
#
# Bulk Modulus (GPa) = 53.72528 60.27031 56.99779
# Shear Modulus (GPa) = 29.48595 34.88468 32.18531
#
# Velocity S-wave (km/s) = 3.67393 3.99614 3.83842
# Velocity P-wave (km/s) = 6.52617 6.99158 6.76288
#
# Compressibility (1/GPa) = 0.01861321
#
# Stress axis : x y z
#
# Youngs Moduli (GPa) = 77.79007 91.04095 111.46217
#
# Poissons Ratio (x) = 0.25456 0.24321
# Poissons Ratio (y) = 0.21751 0.23637
# Poissons Ratio (z) = 0.16974 0.19307
#
# Static dielectric constant tensor:
#      x y z
#    x 1.904900 0.036960 -0.024250 
#    y 0.036960 1.805720 -0.011910 
#    z -0.024250 -0.011910 1.864790 
# 
# From -- ./inp_files/302752.got.cif
#   From: 2010.05.17/outbox.cif.g08.bks.cpg/sg2_152_cif.got.tgz:302752.got - 2010.06.03 11:33:40.
