data_PCOD9090161
_publ_section_title
;
Structure prediction by ZEFSAII (Michael W. Deem and Ramdas Pophale) SiO2 
 PCOD9090161
Probable space group: P -1
;
_chemical_formula_sum "Si O2"
_cell_formula_units_Z 16
_cell_length_a 9.444745
_cell_length_b 13.245655
_cell_length_c 15.739801
_cell_angle_alpha 57.714637
_cell_angle_beta 121.483185
_cell_angle_gamma 71.872325
_cell_volume 815.602602
_symmetry_space_group_name_H-M "P -1"
_symmetry_group_IT_number 2
_symmetry_cell_setting 'triclinic'
loop_
_space_group_symop_operation_xyz
x,y,z
-x,-y,-z
loop_
_atom_site_type_symbol
_atom_site_label
_atom_site_fract_x
_atom_site_fract_y
_atom_site_fract_z
Si Si1 0.718101 0.957821 0.633437
Si Si2 0.186344 0.882721 0.527912
Si Si3 0.045660 0.823609 0.350577
Si Si4 0.364711 0.408394 0.629897
Si Si5 0.395202 0.804089 0.366249
Si Si6 0.623300 0.049235 0.978318
Si Si7 0.130683 0.550623 0.051901
Si Si8 0.951040 0.217348 0.928835
O O1 0.500000 0.000000 0.500000
O O2 0.833557 0.983210 0.590545
O O3 0.542974 0.135207 0.569974
O O4 0.977855 0.735686 0.859345
O O5 0.059006 0.861023 0.433150
O O6 0.523933 0.660004 0.751631
O O7 0.000000 0.000000 0.500000
O O8 0.095132 0.653547 0.446291
O O9 0.297975 0.742975 0.413019
O O10 0.770200 0.021162 0.119983
O O11 0.367358 0.363699 0.553570
O O12 0.408074 0.270125 0.767149
O O13 0.646362 0.329483 0.767342
O O14 0.135167 0.015532 0.134628
O O15 0.500000 0.000000 0.000000
O O16 0.869576 0.877248 0.060582
O O17 0.072840 0.644722 0.085961
O O18 0.000000 0.500000 0.000000
#
# Coordination Sequence:
#
# PCOD9090161 Si02
#       8
#     2   2   2   2   2   2   2   2
#     4  10  21  39  63  90 127 162 206 256 311 368
#     4  11  25  42  62  91 125 164 208 260 316 367
#     4  11  21  37  65  86 115 158 206 247 301 369
#     4  11  19  37  65  88 115 153 210 241 295 368
#     4   9  18  33  61  93 114 149 199 254 291 355
#     4  11  24  39  56  91 132 156 190 253 317 361
#     4  11  22  40  66  94 124 161 216 262 302 365
#     4  10  19  38  64  88 116 162 202 246 297 366
#
# _framework density 19.617398000000001
#
# number of rings (size 3 to 8) (size 9 to 14) (size 15 to 20)
#    0.000    1.500    5.000    1.125    0.000    2.000 
#    2.250    1.250    0.000    0.000    0.000    0.000 
#    0.000    0.000    0.000    0.000    0.000    0.000 
#
# Total GULP energy -89255.948367 kJ/mol
# GULP energy per Si atom -5578.496773 kJ/mol
# Density = 1.957275 g / cm^3
# Si number density = 19.617398 Si / 1000 Ang^3
#
#
#
# Elastic Constant Matrix: (Units=GPa)
#
#
# Indices 1 2 3 4 5 6 
#
# 1 70.1215 61.4902 28.4959 -1.4117 -20.8629 -0.0338
# 2 61.4902 142.7582 47.6361 12.7305 -14.8635 -6.3568
# 3 28.4959 47.6361 67.5180 4.3040 -20.1227 -7.4054
# 4 -1.4117 12.7305 4.3040 31.6520 7.5042 -4.5171
# 5 -20.8629 -14.8635 -20.1227 7.5042 24.1203 0.3816
# 6 -0.0338 -6.3568 -7.4054 -4.5171 0.3816 30.5358
#
#
#
# Elastic Compliance Matrix: (Units=1/GPa)
#
#
# Indices 1 2 3 4 5 6 
#
# 1 0.029327 -0.011102 0.000816 0.000850 0.018976 -0.002192
# 2 -0.011102 0.013688 -0.006167 -0.003825 -0.005136 0.000840
# 3 0.000816 -0.006167 0.025408 -0.005032 0.019607 0.003890
# 4 0.000850 -0.003825 -0.005032 0.038660 -0.017909 0.003927
# 5 0.018976 -0.005136 0.019607 -0.017909 0.076635 0.000100
# 6 -0.002192 0.000840 0.003890 0.003927 0.000100 0.034444
#
#
# Mechanical properties :
#
#
# Convention : Reuss Voigt Hill
#
# Bulk Modulus (GPa) = 28.15439 61.73802 44.94620
# Shear Modulus (GPa) = 19.01822 26.77998 22.89910
#
# Velocity S-wave (km/s) = 3.11699 3.69875 3.42026
# Velocity P-wave (km/s) = 5.22848 7.05552 6.20957
#
# Compressibility (1/GPa) = 0.03551844
#
# Stress axis : x y z
#
# Youngs Moduli (GPa) = 34.09885 73.05535 39.35785
#
# Poissons Ratio (x) = 0.81106 -0.03213
# Poissons Ratio (y) = 0.37856 0.24270
# Poissons Ratio (z) = -0.02784 0.45050
#
# Static dielectric constant tensor:
#      x y z
#    x 1.714000 -0.004540 0.035980 
#    y -0.004540 1.725250 -0.026010 
#    z 0.035980 -0.026010 1.719920 
# 
# From -- ./inp_files/306283.got.cif
#   From: 2010.05.17/outbox.cif.g08.bks.cpg/sg2_154_cif.got.tgz:306283.got - 2010.06.03 11:33:40.
