data_PCOD9090552
_publ_section_title
;
Structure prediction by ZEFSAII (Michael W. Deem and Ramdas Pophale) SiO2 
 PCOD9090552
Probable space group: P -1
;
_chemical_formula_sum "Si O2"
_cell_formula_units_Z 16
_cell_length_a 8.306136
_cell_length_b 14.167935
_cell_length_c 14.108948
_cell_angle_alpha 138.036366
_cell_angle_beta 85.799426
_cell_angle_gamma 65.119150
_cell_volume 776.812144
_symmetry_space_group_name_H-M "P -1"
_symmetry_group_IT_number 2
_symmetry_cell_setting 'triclinic'
loop_
_space_group_symop_operation_xyz
x,y,z
-x,-y,-z
loop_
_atom_site_type_symbol
_atom_site_label
_atom_site_fract_x
_atom_site_fract_y
_atom_site_fract_z
Si Si1 0.995015 0.596722 0.804028
Si Si2 0.342777 0.017515 0.416004
Si Si3 0.565475 0.451869 0.572943
Si Si4 0.424679 0.223639 0.432376
Si Si5 0.917149 0.912937 0.702928
Si Si6 0.504076 0.966444 0.084105
Si Si7 0.186629 0.350272 0.799881
Si Si8 0.116980 0.841890 0.961920
O O1 0.147114 0.415109 0.586890
O O2 0.120035 0.489262 0.817800
O O3 0.022152 0.742918 0.887114
O O4 0.726289 0.733147 0.923679
O O5 0.460630 0.077429 0.399058
O O6 0.187245 0.034000 0.358291
O O7 0.196028 0.186191 0.630690
O O8 0.553590 0.795171 0.281097
O O9 0.500000 0.500000 0.500000
O O10 0.522150 0.318925 0.513872
O O11 0.389009 0.661206 0.793032
O O12 0.833697 0.313598 0.471329
O O13 0.523614 0.100851 0.240178
O O14 0.730318 0.954042 0.808747
O O15 0.935759 0.054304 0.857268
O O16 0.500000 0.000000 0.000000
O O17 0.000000 0.500000 0.000000
O O18 0.000000 0.000000 0.000000
#
# Coordination Sequence:
#
# PCOD9090552 Si02
#       8
#     2   2   2   2   2   2   2   2
#     4  10  22  40  61  87 113 160 203 240 297 359
#     4   9  21  40  61  89 116 151 193 258 304 346
#     4  11  23  37  60  82 119 166 201 234 286 349
#     4   9  21  40  57  82 120 154 203 236 295 356
#     4  11  23  38  57  91 124 153 201 250 294 354
#     4  11  23  35  56  86 122 154 196 251 295 346
#     4  10  19  38  67  87 114 150 201 248 311 355
#     4  11  22  40  62  84 123 168 203 233 290 361
#
# _framework density 20.597000999999999
#
# number of rings (size 3 to 8) (size 9 to 14) (size 15 to 20)
#    0.000    1.750    1.250    3.000    3.500    4.500 
#    0.000    0.625    0.000   17.250    0.000    0.000 
#    0.000    0.000    0.000    0.000    0.000    0.000 
#
# Total GULP energy -89314.791131 kJ/mol
# GULP energy per Si atom -5582.174446 kJ/mol
# Density = 2.055012 g / cm^3
# Si number density = 20.597001 Si / 1000 Ang^3
#
#
#
# Elastic Constant Matrix: (Units=GPa)
#
#
# Indices 1 2 3 4 5 6 
#
# 1 44.6264 13.0049 14.4576 17.4451 -25.2602 -10.3658
# 2 13.0049 96.7939 47.0298 13.3491 -7.0284 -21.4693
# 3 14.4576 47.0298 149.7393 -2.2419 -34.6295 -18.3272
# 4 17.4451 13.3491 -2.2419 41.9762 -7.1895 2.9582
# 5 -25.2602 -7.0284 -34.6295 -7.1895 37.9530 5.5714
# 6 -10.3658 -21.4693 -18.3272 2.9582 5.5714 33.4383
#
#
#
# Elastic Compliance Matrix: (Units=1/GPa)
#
#
# Indices 1 2 3 4 5 6 
#
# 1 0.047270 -0.001462 0.004225 -0.014596 0.030483 0.012243
# 2 -0.001462 0.015086 -0.004841 -0.005839 -0.004863 0.007906
# 3 0.004225 -0.004841 0.010823 0.002269 0.011935 0.001944
# 4 -0.014596 -0.005839 0.002269 0.032349 -0.001174 -0.009696
# 5 0.030483 -0.004863 0.011935 -0.001174 0.055865 0.003664
# 6 0.012243 0.007906 0.001944 -0.009696 0.003664 0.040090
#
#
# Mechanical properties :
#
#
# Convention : Reuss Voigt Hill
#
# Bulk Modulus (GPa) = 14.48830 48.90493 31.69661
# Shear Modulus (GPa) = 21.86778 37.11798 29.49288
#
# Velocity S-wave (km/s) = 3.26190 4.24973 3.78815
# Velocity P-wave (km/s) = 4.60827 6.91921 5.87842
#
# Compressibility (1/GPa) = 0.06902119
#
# Stress axis : x y z
#
# Youngs Moduli (GPa) = 21.15527 66.28817 92.39599
#
# Poissons Ratio (x) = 0.09689 -0.39034
# Poissons Ratio (y) = 0.03092 0.44733
# Poissons Ratio (z) = -0.08937 0.32093
#
# Static dielectric constant tensor:
#      x y z
#    x 1.779710 -0.013660 -0.008730 
#    y -0.013660 1.748310 0.000560 
#    z -0.008730 0.000560 1.799840 
# 
# From -- ./inp_files/273065.got.cif
#   From: 2010.05.17/outbox.cif.g08.bks.cpg/sg2_137_cif.got.tgz:273065.got - 2010.06.03 11:33:40.
