data_PCOD9090638
_publ_section_title
;
Structure prediction by ZEFSAII (Michael W. Deem and Ramdas Pophale) SiO2 
 PCOD9090638
Probable space group: P -1
;
_chemical_formula_sum "Si O2"
_cell_formula_units_Z 14
_cell_length_a 11.978391
_cell_length_b 7.839827
_cell_length_c 9.313298
_cell_angle_alpha 70.265172
_cell_angle_beta 56.757478
_cell_angle_gamma 60.310823
_cell_volume 632.812653
_symmetry_space_group_name_H-M "P -1"
_symmetry_group_IT_number 2
_symmetry_cell_setting 'triclinic'
loop_
_space_group_symop_operation_xyz
x,y,z
-x,-y,-z
loop_
_atom_site_type_symbol
_atom_site_label
_atom_site_fract_x
_atom_site_fract_y
_atom_site_fract_z
Si Si1 0.352494 0.043522 0.497699
Si Si2 0.261952 0.476157 0.489139
Si Si3 0.572135 0.707026 0.291576
Si Si4 0.558296 0.359196 0.862538
Si Si5 0.725917 0.983093 0.995788
Si Si6 0.967936 0.345801 0.169084
Si Si7 0.837668 0.116352 0.138802
O O1 0.292694 0.273417 0.440015
O O2 0.500000 0.000000 0.500000
O O3 0.412486 0.877259 0.382467
O O4 0.227131 0.007125 0.681450
O O5 0.372631 0.413076 0.566307
O O6 0.304129 0.613674 0.314010
O O7 0.107201 0.564511 0.652716
O O8 0.561293 0.588209 0.193853
O O9 0.672059 0.828076 0.153561
O O10 0.606030 0.130560 0.934807
O O11 0.500000 0.500000 0.000000
O O12 0.883103 0.846295 0.860948
O O13 0.744700 0.135480 0.055247
O O14 0.854193 0.284508 0.176316
O O15 0.000000 0.500000 0.000000
O O16 0.000000 0.000000 0.000000
#
# Coordination Sequence:
#
# PCOD9090638 Si02
#       7
#     2   2   2   2   2   2   2
#     4  10  19  38  68  95 129 168 230 280 323 389
#     4  11  22  41  67  99 129 176 232 272 329 406
#     4  11  22  43  69  92 134 181 229 277 333 399
#     4  12  28  40  63 101 142 175 219 281 353 395
#     4  11  23  42  63  97 137 178 217 285 340 397
#     4  11  22  41  70  99 129 175 237 279 327 407
#     4  10  20  37  64  96 129 174 224 276 333 394
#
# _framework density 22.123452
#
# number of rings (size 3 to 8) (size 9 to 14) (size 15 to 20)
#    0.000    1.143    4.286    3.429    4.000    0.571 
#    0.000    0.000    0.000    7.714    0.000    0.000 
#    0.000    0.000    0.000    0.000    0.000    0.000 
#
# Total GULP energy -78149.640659 kJ/mol
# GULP energy per Si atom -5582.117190 kJ/mol
# Density = 2.207310 g / cm^3
# Si number density = 22.123452 Si / 1000 Ang^3
#
#
#
# Elastic Constant Matrix: (Units=GPa)
#
#
# Indices 1 2 3 4 5 6 
#
# 1 39.3668 1.3978 15.0672 -1.4122 -6.0719 9.1951
# 2 1.3978 76.3674 23.6994 16.5996 -1.2816 1.5085
# 3 15.0672 23.6994 106.5802 12.2904 -12.0370 4.9190
# 4 -1.4122 16.5996 12.2904 45.9457 8.6680 -4.4001
# 5 -6.0719 -1.2816 -12.0370 8.6680 37.3911 -1.0976
# 6 9.1951 1.5085 4.9190 -4.4001 -1.0976 33.8120
#
#
#
# Elastic Compliance Matrix: (Units=1/GPa)
#
#
# Indices 1 2 3 4 5 6 
#
# 1 0.028957 0.000720 -0.003578 0.000271 0.003300 -0.007244
# 2 0.000720 0.015040 -0.002727 -0.004950 0.000870 -0.001086
# 3 -0.003578 -0.002727 0.011273 -0.002897 0.003602 -0.000805
# 4 0.000271 -0.004950 -0.002897 0.026010 -0.006979 0.003727
# 5 0.003300 0.000870 0.003602 -0.006979 0.030047 -0.001393
# 6 -0.007244 -0.001086 -0.000805 0.003727 -0.001393 0.032151
#
#
# Mechanical properties :
#
#
# Convention : Reuss Voigt Hill
#
# Bulk Modulus (GPa) = 22.67591 33.62704 28.15147
# Shear Modulus (GPa) = 29.52536 35.57307 32.54922
#
# Velocity S-wave (km/s) = 3.65714 4.01426 3.83985
# Velocity P-wave (km/s) = 5.30141 6.05957 5.69312
#
# Compressibility (1/GPa) = 0.04409967
#
# Stress axis : x y z
#
# Youngs Moduli (GPa) = 34.53440 66.49069 88.70877
#
# Poissons Ratio (x) = -0.04787 0.31739
# Poissons Ratio (y) = -0.02486 0.24189
# Poissons Ratio (z) = 0.12356 0.18131
#
# Static dielectric constant tensor:
#      x y z
#    x 1.844450 0.017700 0.031520 
#    y 0.017700 1.839210 0.042830 
#    z 0.031520 0.042830 1.831160 
# 
# From -- ./inp_files/241873.got.cif
#   From: 2010.05.17/outbox.cif.g08.bks.cpg/sg2_121_cif.got.tgz:241873.got - 2010.06.03 11:33:40.
