data_PCOD9090467
_publ_section_title
;
Structure prediction by ZEFSAII (Michael W. Deem and Ramdas Pophale) SiO2 
 PCOD9090467
Probable space group: P -1
;
_chemical_formula_sum "Si O2"
_cell_formula_units_Z 14
_cell_length_a 9.399913
_cell_length_b 8.854472
_cell_length_c 12.714599
_cell_angle_alpha 134.004613
_cell_angle_beta 82.144060
_cell_angle_gamma 108.949449
_cell_volume 713.756181
_symmetry_space_group_name_H-M "P -1"
_symmetry_group_IT_number 2
_symmetry_cell_setting 'triclinic'
loop_
_space_group_symop_operation_xyz
x,y,z
-x,-y,-z
loop_
_atom_site_type_symbol
_atom_site_label
_atom_site_fract_x
_atom_site_fract_y
_atom_site_fract_z
Si Si1 0.278153 0.986708 0.704230
Si Si2 0.004652 0.653046 0.471512
Si Si3 0.170971 0.031514 0.314082
Si Si4 0.965760 0.910925 0.078891
Si Si5 0.499309 0.712409 0.541116
Si Si6 0.469135 0.753679 0.334150
Si Si7 0.121597 0.580635 0.212339
O O1 0.155032 0.868970 0.570858
O O2 0.362631 0.805906 0.628662
O O3 0.178013 0.031677 0.830113
O O4 0.403991 0.202461 0.747716
O O5 0.024352 0.531919 0.305736
O O6 0.000000 0.500000 0.500000
O O7 0.872681 0.762276 0.533947
O O8 0.096833 0.792912 0.261046
O O9 0.107510 0.014238 0.193335
O O10 0.348721 0.093238 0.347042
O O11 0.925319 0.645641 0.956868
O O12 0.000000 0.000000 0.000000
O O13 0.500000 0.500000 0.500000
O O14 0.491980 0.639434 0.384178
O O15 0.299639 0.648035 0.257977
O O16 0.500000 0.000000 0.500000
#
# Coordination Sequence:
#
# PCOD9090467 Si02
#       7
#     2   2   2   2   2   2   2
#     4  10  20  43  61  90 125 164 205 251 317 376
#     4  11  21  36  66  94 126 165 206 257 317 362
#     4  11  23  40  62  97 123 160 216 259 306 372
#     4  11  27  43  64  86 132 171 206 254 323 377
#     4  11  21  37  68  98 125 153 211 265 308 367
#     4  10  19  38  66  92 122 159 203 261 315 355
#     4  12  21  41  66  90 127 166 215 255 306 381
#
# _framework density 19.614540000000002
#
# number of rings (size 3 to 8) (size 9 to 14) (size 15 to 20)
#    0.000    1.143    5.714    3.429    2.000    1.714 
#    0.000    2.143    0.000    0.000    0.000    0.000 
#    0.000    0.000    0.000    0.000    0.000    0.000 
#
# Total GULP energy -78098.633517 kJ/mol
# GULP energy per Si atom -5578.473823 kJ/mol
# Density = 1.956990 g / cm^3
# Si number density = 19.614540 Si / 1000 Ang^3
#
#
#
# Elastic Constant Matrix: (Units=GPa)
#
#
# Indices 1 2 3 4 5 6 
#
# 1 85.2180 6.8877 30.3892 -14.9040 -5.0874 -2.5700
# 2 6.8877 90.7678 11.8932 -16.7635 -13.6080 -21.8717
# 3 30.3892 11.8932 78.2287 -11.0404 -13.4092 8.0503
# 4 -14.9040 -16.7635 -11.0404 36.5387 0.3258 2.4835
# 5 -5.0874 -13.6080 -13.4092 0.3258 33.9933 1.4279
# 6 -2.5700 -21.8717 8.0503 2.4835 1.4279 27.1130
#
#
#
# Elastic Compliance Matrix: (Units=1/GPa)
#
#
# Indices 1 2 3 4 5 6 
#
# 1 0.014540 0.001437 -0.005530 0.004662 0.000369 0.003733
# 2 0.001437 0.016402 -0.002645 0.006362 0.005118 0.013301
# 3 -0.005530 -0.002645 0.017428 0.002315 0.005316 -0.008325
# 4 0.004662 0.006362 0.002315 0.032740 0.003773 0.001689
# 5 0.000369 0.005118 0.005316 0.003773 0.033562 0.000472
# 6 0.003733 0.013301 -0.008325 0.001689 0.000472 0.050258
#
#
# Mechanical properties :
#
#
# Convention : Reuss Voigt Hill
#
# Bulk Modulus (GPa) = 28.65845 39.17274 33.91559
# Shear Modulus (GPa) = 26.31044 33.19864 29.75454
#
# Velocity S-wave (km/s) = 3.66645 4.11853 3.89905
# Velocity P-wave (km/s) = 5.70669 6.52924 6.13178
#
# Compressibility (1/GPa) = 0.03489373
#
# Stress axis : x y z
#
# Youngs Moduli (GPa) = 68.77357 60.96844 57.37902
#
# Poissons Ratio (x) = -0.08761 0.31730
# Poissons Ratio (y) = -0.09883 0.15179
# Poissons Ratio (z) = 0.38031 0.16129
#
# Static dielectric constant tensor:
#      x y z
#    x 1.819810 0.065440 0.046710 
#    y 0.065440 1.805550 -0.006190 
#    z 0.046710 -0.006190 1.715290 
# 
# From -- ./inp_files/153964.got.cif
#   From: 2010.05.17/outbox.cif.g08.bks.cpg/sg2_77_cif.got.tgz:153964.got - 2010.06.03 11:33:40.
