data_PCOD9090916
_publ_section_title
;
Structure prediction by ZEFSAII (Michael W. Deem and Ramdas Pophale) SiO2 
 PCOD9090916
Probable space group: P -1
;
_chemical_formula_sum "Si O2"
_cell_formula_units_Z 14
_cell_length_a 9.123865
_cell_length_b 11.712860
_cell_length_c 12.014483
_cell_angle_alpha 142.335372
_cell_angle_beta 56.737313
_cell_angle_gamma 130.686289
_cell_volume 593.451514
_symmetry_space_group_name_H-M "P -1"
_symmetry_group_IT_number 2
_symmetry_cell_setting 'triclinic'
loop_
_space_group_symop_operation_xyz
x,y,z
-x,-y,-z
loop_
_atom_site_type_symbol
_atom_site_label
_atom_site_fract_x
_atom_site_fract_y
_atom_site_fract_z
Si Si1 0.432115 0.125558 0.038104
Si Si2 0.154140 0.352972 0.080445
Si Si3 0.789431 0.378927 0.943491
Si Si4 0.772752 0.080237 0.531034
Si Si5 0.822505 0.263043 0.298561
Si Si6 0.591123 0.319309 0.626483
Si Si7 0.048824 0.123770 0.268862
O O1 0.273601 0.183787 0.207743
O O2 0.621412 0.306250 0.048096
O O3 0.500000 0.000000 0.000000
O O4 0.315493 0.963965 0.864556
O O5 0.229133 0.471943 0.027248
O O6 0.327945 0.458653 0.177031
O O7 0.966626 0.382091 0.229583
O O8 0.070473 0.110520 0.908292
O O9 0.779245 0.180450 0.725204
O O10 0.000000 0.500000 0.000000
O O11 0.679837 0.192790 0.571388
O O12 0.976806 0.123405 0.423644
O O13 0.633162 0.836841 0.403586
O O14 0.683789 0.339422 0.481294
O O15 0.971270 0.251169 0.319440
#
# Coordination Sequence:
#
# PCOD9090916 Si02
#       7
#     2   2   2   2   2   2   2
#     4  11  22  40  63  85 120 167 202 237 309 370
#     4  10  20  33  58  93 121 152 203 249 295 352
#     4  11  22  40  63  85 118 165 212 243 292 372
#     4   9  19  37  59  87 121 158 198 251 307 347
#     4  10  19  39  61  91 125 161 198 247 307 357
#     4   9  17  33  60  89 121 158 198 246 301 363
#     4  10  22  40  62  93 127 156 195 256 308 354
#
# _framework density 23.590807000000002
#
# number of rings (size 3 to 8) (size 9 to 14) (size 15 to 20)
#    0.000    2.000    1.429    3.857    2.000    0.571 
#    2.571    3.571    0.000    0.000    0.000    0.000 
#    0.000    0.000    0.000    0.000    0.000    0.000 
#
# Total GULP energy -78315.540047 kJ/mol
# GULP energy per Si atom -5593.967146 kJ/mol
# Density = 2.353711 g / cm^3
# Si number density = 23.590807 Si / 1000 Ang^3
#
#
#
# Elastic Constant Matrix: (Units=GPa)
#
#
# Indices 1 2 3 4 5 6 
#
# 1 63.7307 38.0855 4.1349 -22.5202 -12.7877 23.2732
# 2 38.0855 172.4040 28.9660 -19.8608 -15.8758 33.3958
# 3 4.1349 28.9660 66.6344 -9.8381 -10.8457 18.8369
# 4 -22.5202 -19.8608 -9.8381 43.0965 10.9801 -2.1487
# 5 -12.7877 -15.8758 -10.8457 10.9801 18.3904 1.1334
# 6 23.2732 33.3958 18.8369 -2.1487 1.1334 39.9211
#
#
#
# Elastic Compliance Matrix: (Units=1/GPa)
#
#
# Indices 1 2 3 4 5 6 
#
# 1 0.032898 -0.001073 0.010391 0.012262 0.022183 -0.023154
# 2 -0.001073 0.007896 -0.000703 0.001299 0.005233 -0.005727
# 3 0.010391 -0.000703 0.023069 0.004871 0.018338 -0.016613
# 4 0.012262 0.001299 0.004871 0.032514 -0.006362 -0.008603
# 5 0.022183 0.005233 0.018338 -0.006362 0.090712 -0.028881
# 6 -0.023154 -0.005727 -0.016613 -0.008603 -0.028881 0.051535
#
#
# Mechanical properties :
#
#
# Convention : Reuss Voigt Hill
#
# Bulk Modulus (GPa) = 12.33149 49.46023 30.89586
# Shear Modulus (GPa) = 20.12686 35.72043 27.92364
#
# Velocity S-wave (km/s) = 2.92407 3.89545 3.44418
# Velocity P-wave (km/s) = 4.07907 6.42216 5.37973
#
# Compressibility (1/GPa) = 0.08109319
#
# Stress axis : x y z
#
# Youngs Moduli (GPa) = 30.39741 126.63965 43.34882
#
# Poissons Ratio (x) = 0.13585 -0.45046
# Poissons Ratio (y) = 0.03261 0.03049
# Poissons Ratio (z) = -0.31587 0.08908
#
# Static dielectric constant tensor:
#      x y z
#    x 1.894080 -0.019520 -0.048450 
#    y -0.019520 1.905610 0.019030 
#    z -0.048450 0.019030 1.951080 
# 
# From -- ./inp_files/393280.got.cif
#   From: 2010.05.17/outbox.cif.g08.bks.cpg/sg2_197_cif.got.tgz:393280.got - 2010.06.03 11:33:40.
