data_PCOD9090433
_publ_section_title
;
Structure prediction by ZEFSAII (Michael W. Deem and Ramdas Pophale) SiO2 
 PCOD9090433
Probable space group: P -1
;
_chemical_formula_sum "Si O2"
_cell_formula_units_Z 16
_cell_length_a 9.500131
_cell_length_b 13.387330
_cell_length_c 18.671470
_cell_angle_alpha 159.623073
_cell_angle_beta 111.770600
_cell_angle_gamma 60.189160
_cell_volume 680.930464
_symmetry_space_group_name_H-M "P -1"
_symmetry_group_IT_number 2
_symmetry_cell_setting 'triclinic'
loop_
_space_group_symop_operation_xyz
x,y,z
-x,-y,-z
loop_
_atom_site_type_symbol
_atom_site_label
_atom_site_fract_x
_atom_site_fract_y
_atom_site_fract_z
Si Si1 0.663960 0.458629 0.120677
Si Si2 0.285351 0.866745 0.277891
Si Si3 0.516179 0.241712 0.065190
Si Si4 0.030702 0.954343 0.392254
Si Si5 0.537997 0.157606 0.340602
Si Si6 0.806799 0.637396 0.147729
Si Si7 0.700661 0.553219 0.693836
Si Si8 0.806630 0.735616 0.602499
O O1 0.487240 0.655178 0.175801
O O2 0.780435 0.605212 0.206372
O O3 0.598542 0.450103 0.183007
O O4 0.751739 0.082768 0.862946
O O5 0.216200 0.885104 0.356565
O O6 0.225331 0.189206 0.437479
O O7 0.191543 0.681326 0.097980
O O8 0.439884 0.094132 0.889134
O O9 0.663583 0.910779 0.904819
O O10 0.384738 0.414135 0.221261
O O11 0.969428 0.681354 0.185657
O O12 0.895697 0.285236 0.551992
O O13 0.000000 0.000000 0.500000
O O14 0.610669 0.416407 0.528225
O O15 0.338570 0.348308 0.451957
O O16 0.645633 0.929221 0.274417
O O17 0.000000 0.500000 0.500000
#
# Coordination Sequence:
#
# PCOD9090433 Si02
#       8
#     2   2   2   2   2   2   2   2
#     4  10  19  38  67  86 120 166 205 251 318 369
#     4  11  19  38  62  88 120 165 200 257 313 365
#     4  10  20  38  63  86 125 162 204 255 308 364
#     4  11  25  38  56  90 129 155 210 262 314 357
#     4  10  19  38  66  88 122 164 213 250 311 375
#     4  10  19  40  62  91 115 162 215 252 302 390
#     4  10  23  40  58  95 123 167 212 252 308 383
#     4  10  20  34  60  93 125 154 208 261 306 365
#
# _framework density 23.497259
#
# number of rings (size 3 to 8) (size 9 to 14) (size 15 to 20)
#    0.000    1.750    3.750    2.250    3.500    0.000 
#    2.250    6.875    0.000    3.750    0.000    0.000 
#    0.000    0.000    0.000    0.000    0.000    0.000 
#
# Total GULP energy -89279.203994 kJ/mol
# GULP energy per Si atom -5579.950250 kJ/mol
# Density = 2.344378 g / cm^3
# Si number density = 23.497259 Si / 1000 Ang^3
#
#
#
# Elastic Constant Matrix: (Units=GPa)
#
#
# Indices 1 2 3 4 5 6 
#
# 1 73.8718 21.6727 11.9743 1.0437 -17.2419 26.0226
# 2 21.6727 63.7731 12.0147 3.5890 1.9634 18.8777
# 3 11.9743 12.0147 45.6843 -9.9056 1.9407 -2.0508
# 4 1.0437 3.5890 -9.9056 41.9669 -0.3874 -3.7882
# 5 -17.2419 1.9634 1.9407 -0.3874 21.1069 3.2297
# 6 26.0226 18.8777 -2.0508 -3.7882 3.2297 45.2533
#
#
#
# Elastic Compliance Matrix: (Units=1/GPa)
#
#
# Indices 1 2 3 4 5 6 
#
# 1 0.028811 -0.003310 -0.009526 -0.004046 0.027385 -0.017911
# 2 -0.003310 0.020129 -0.005370 -0.003550 -0.003105 -0.006813
# 3 -0.009526 -0.005370 0.028548 0.008279 -0.011364 0.010516
# 4 -0.004046 -0.003550 0.008279 0.026754 -0.004274 0.006727
# 5 0.027385 -0.003105 -0.011364 -0.004274 0.074158 -0.020618
# 6 -0.017911 -0.006813 0.010516 0.006727 -0.020618 0.037751
#
#
# Mechanical properties :
#
#
# Convention : Reuss Voigt Hill
#
# Bulk Modulus (GPa) = 24.34454 30.51694 27.43074
# Shear Modulus (GPa) = 18.77900 30.84328 24.81114
#
# Velocity S-wave (km/s) = 2.83008 3.62696 3.25301
# Velocity P-wave (km/s) = 4.58936 5.52769 5.08024
#
# Compressibility (1/GPa) = 0.04107697
#
# Stress axis : x y z
#
# Youngs Moduli (GPa) = 34.70943 49.67928 35.02839
#
# Poissons Ratio (x) = 0.16443 0.33367
# Poissons Ratio (y) = 0.11488 0.18810
# Poissons Ratio (z) = 0.33063 0.26678
#
# Static dielectric constant tensor:
#      x y z
#    x 1.920870 0.087250 0.009700 
#    y 0.087250 2.010500 -0.078070 
#    z 0.009700 -0.078070 1.994220 
# 
# From -- ./inp_files/392671.got.cif
#   From: 2010.05.17/outbox.cif.g08.bks.cpg/sg2_197_cif.got.tgz:392671.got - 2010.06.03 11:33:40.
