data_PCOD9090237
_publ_section_title
;
Structure prediction by ZEFSAII (Michael W. Deem and Ramdas Pophale) SiO2 
 PCOD9090237
Probable space group: P -1
;
_chemical_formula_sum "Si O2"
_cell_formula_units_Z 16
_cell_length_a 24.151615
_cell_length_b 9.094721
_cell_length_c 9.321557
_cell_angle_alpha 47.309432
_cell_angle_beta 30.623583
_cell_angle_gamma 54.748054
_cell_volume 766.514852
_symmetry_space_group_name_H-M "P -1"
_symmetry_group_IT_number 2
_symmetry_cell_setting 'triclinic'
loop_
_space_group_symop_operation_xyz
x,y,z
-x,-y,-z
loop_
_atom_site_type_symbol
_atom_site_label
_atom_site_fract_x
_atom_site_fract_y
_atom_site_fract_z
Si Si1 0.463565 0.112128 0.704753
Si Si2 0.451587 0.671300 0.892366
Si Si3 0.859986 0.211958 0.332266
Si Si4 0.911583 0.603247 0.332856
Si Si5 0.096274 0.843929 0.393062
Si Si6 0.262652 0.138355 0.331347
Si Si7 0.246401 0.438116 0.545761
Si Si8 0.300207 0.014402 0.658210
O O1 0.473607 0.267339 0.448750
O O2 0.432417 0.885754 0.870126
O O3 0.586010 0.091529 0.503355
O O4 0.375346 0.177103 0.973381
O O5 0.500000 0.500000 0.000000
O O6 0.335872 0.571129 0.171945
O O7 0.864175 0.166079 0.523551
O O8 0.793332 0.418639 0.334357
O O9 0.802517 0.035861 0.491194
O O10 0.983615 0.254990 0.981730
O O11 0.944276 0.374277 0.422813
O O12 0.816349 0.673365 0.603284
O O13 0.857627 0.614885 0.286450
O O14 0.000000 0.000000 0.500000
O O15 0.196997 0.900438 0.029388
O O16 0.285323 0.065423 0.490778
O O17 0.300172 0.228197 0.599827
#
# Coordination Sequence:
#
# PCOD9090237 Si02
#       8
#     2   2   2   2   2   2   2   2
#     4  11  23  41  66  97 134 174 216 268 332 389
#     4  11  22  40  68 101 128 165 225 281 313 384
#     4  11  21  40  67  91 123 172 223 270 326 383
#     4  10  22  40  61  91 129 169 212 270 332 387
#     4  11  22  41  66  95 122 171 226 270 321 390
#     4  11  24  42  62  95 133 173 211 273 335 389
#     4  10  19  38  64  94 122 165 213 265 325 379
#     4  11  23  41  66  94 135 169 215 272 331 392
#
# _framework density 20.873698000000001
#
# number of rings (size 3 to 8) (size 9 to 14) (size 15 to 20)
#    0.000    1.250    2.500    6.000    1.750    0.000 
#    2.250    6.875    0.000    0.000    0.000    0.000 
#    0.000    0.000    0.000    0.000    0.000    0.000 
#
# Total GULP energy -89395.340041 kJ/mol
# GULP energy per Si atom -5587.208753 kJ/mol
# Density = 2.082619 g / cm^3
# Si number density = 20.873698 Si / 1000 Ang^3
#
#
#
# Elastic Constant Matrix: (Units=GPa)
#
#
# Indices 1 2 3 4 5 6 
#
# 1 69.0648 34.0557 32.7831 4.2622 -1.7663 -11.2233
# 2 34.0557 116.0936 35.6247 23.4399 2.5545 -16.3451
# 3 32.7831 35.6247 134.8916 23.0367 -0.3594 -21.8390
# 4 4.2622 23.4399 23.0367 38.5831 2.2634 -0.7740
# 5 -1.7663 2.5545 -0.3594 2.2634 32.7870 -3.1353
# 6 -11.2233 -16.3451 -21.8390 -0.7740 -3.1353 25.6347
#
#
#
# Elastic Compliance Matrix: (Units=1/GPa)
#
#
# Indices 1 2 3 4 5 6 
#
# 1 0.018656 -0.004664 -0.003346 0.002741 0.001391 0.002596
# 2 -0.004664 0.012115 -0.000046 -0.006696 -0.000216 0.005415
# 3 -0.003346 -0.000046 0.010406 -0.005729 0.001033 0.007324
# 4 0.002741 -0.006696 -0.005729 0.033097 -0.002371 -0.007240
# 5 0.001391 -0.000216 0.001033 -0.002371 0.031255 0.005103
# 6 0.002596 0.005415 0.007324 -0.007240 0.005103 0.050243
#
#
# Mechanical properties :
#
#
# Convention : Reuss Voigt Hill
#
# Bulk Modulus (GPa) = 39.90018 58.33079 49.11549
# Shear Modulus (GPa) = 27.74073 33.90674 30.82374
#
# Velocity S-wave (km/s) = 3.64947 4.03473 3.84693
# Velocity P-wave (km/s) = 6.07575 7.05058 6.58124
#
# Compressibility (1/GPa) = 0.02506254
#
# Stress axis : x y z
#
# Youngs Moduli (GPa) = 53.60278 82.54022 96.10131
#
# Poissons Ratio (x) = 0.38500 0.32158
# Poissons Ratio (y) = 0.25002 0.00446
# Poissons Ratio (z) = 0.17937 0.00383
#
# Static dielectric constant tensor:
#      x y z
#    x 1.766810 -0.032220 -0.025920 
#    y -0.032220 1.775740 0.006710 
#    z -0.025920 0.006710 1.754650 
# 
# From -- ./inp_files/352016.got.cif
#   From: 2010.05.17/outbox.cif.g08.bks.cpg/sg2_177_cif.got.tgz:352016.got - 2010.06.03 11:33:40.
