data_PCOD9090180
_publ_section_title
;
Structure prediction by ZEFSAII (Michael W. Deem and Ramdas Pophale) SiO2 
 PCOD9090180
Probable space group: P -1
;
_chemical_formula_sum "Si O2"
_cell_formula_units_Z 16
_cell_length_a 8.662787
_cell_length_b 25.663311
_cell_length_c 6.102242
_cell_angle_alpha 119.853763
_cell_angle_beta 128.185036
_cell_angle_gamma 41.853730
_cell_volume 709.686489
_symmetry_space_group_name_H-M "P -1"
_symmetry_group_IT_number 2
_symmetry_cell_setting 'triclinic'
loop_
_space_group_symop_operation_xyz
x,y,z
-x,-y,-z
loop_
_atom_site_type_symbol
_atom_site_label
_atom_site_fract_x
_atom_site_fract_y
_atom_site_fract_z
Si Si1 0.336708 0.169692 0.309336
Si Si2 0.989234 0.821812 0.308946
Si Si3 0.849654 0.588369 0.792899
Si Si4 0.283376 0.871838 0.818760
Si Si5 0.540272 0.335105 0.763146
Si Si6 0.596094 0.738241 0.158286
Si Si7 0.608029 0.536454 0.800106
Si Si8 0.487607 0.931723 0.362176
O O1 0.496145 0.169839 0.257404
O O2 0.246628 0.241762 0.533417
O O3 0.522452 0.090716 0.448185
O O4 0.123651 0.170739 0.013150
O O5 0.059816 0.877434 0.525769
O O6 0.237411 0.729969 0.345161
O O7 0.761222 0.854249 0.346510
O O8 0.725533 0.608100 0.485657
O O9 0.721780 0.560636 0.769951
O O10 0.759529 0.668832 0.985281
O O11 0.152276 0.527182 0.966923
O O12 0.374799 0.815565 0.991408
O O13 0.275378 0.941578 0.044898
O O14 0.513148 0.287013 0.814392
O O15 0.580168 0.388227 0.048719
O O16 0.500000 0.500000 0.500000
O O17 0.500000 0.000000 0.500000
#
# Coordination Sequence:
#
# PCOD9090180 Si02
#       8
#     2   2   2   2   2   2   2   2
#     4  10  22  39  64  92 127 163 207 268 312 371
#     4  11  23  38  65  98 121 163 217 259 317 379
#     4  10  21  41  59  86 129 162 210 261 314 370
#     4  10  21  42  64  95 126 162 214 259 315 380
#     4  11  22  40  65  92 128 164 210 269 316 370
#     4  10  19  38  64  89 127 162 205 264 317 365
#     4  10  24  41  60  90 123 174 213 252 314 380
#     4  10  25  44  63  93 133 169 208 260 317 381
#
# _framework density 22.545166999999999
#
# number of rings (size 3 to 8) (size 9 to 14) (size 15 to 20)
#    0.000    1.750    2.500    0.375    3.500    3.000 
#    6.750    1.250    0.000    0.000    0.000    0.000 
#    0.000    0.000    0.000    0.000    0.000    0.000 
#
# Total GULP energy -89316.587162 kJ/mol
# GULP energy per Si atom -5582.286698 kJ/mol
# Density = 2.249385 g / cm^3
# Si number density = 22.545167 Si / 1000 Ang^3
#
#
#
# Elastic Constant Matrix: (Units=GPa)
#
#
# Indices 1 2 3 4 5 6 
#
# 1 50.8357 27.8803 32.4595 6.0187 6.4933 -0.6779
# 2 27.8803 60.6930 36.5079 16.7842 -1.2677 4.9661
# 3 32.4595 36.5079 184.5888 28.7142 22.5332 12.6877
# 4 6.0187 16.7842 28.7142 28.4446 10.4473 2.6221
# 5 6.4933 -1.2677 22.5332 10.4473 30.8826 -2.6681
# 6 -0.6779 4.9661 12.6877 2.6221 -2.6681 29.4971
#
#
#
# Elastic Compliance Matrix: (Units=1/GPa)
#
#
# Indices 1 2 3 4 5 6 
#
# 1 0.029309 -0.014145 -0.002858 0.007270 -0.006857 0.003018
# 2 -0.014145 0.028924 -0.001942 -0.015893 0.010784 -0.001971
# 3 -0.002858 -0.001942 0.007647 -0.004270 -0.003873 -0.002999
# 4 0.007270 -0.015893 -0.004270 0.053864 -0.017433 -0.001685
# 5 -0.006857 0.010784 -0.003873 -0.017433 0.043435 0.005171
# 6 0.003018 -0.001971 -0.002999 -0.001685 0.005171 0.036210
#
#
# Mechanical properties :
#
#
# Convention : Reuss Voigt Hill
#
# Bulk Modulus (GPa) = 35.72618 54.42367 45.07493
# Shear Modulus (GPa) = 20.27497 31.04953 25.66225
#
# Velocity S-wave (km/s) = 3.00209 3.71511 3.37747
# Velocity P-wave (km/s) = 5.28182 6.52648 5.93686
#
# Compressibility (1/GPa) = 0.02799068
#
# Stress axis : x y z
#
# Youngs Moduli (GPa) = 34.11924 34.57348 130.76698
#
# Poissons Ratio (x) = 0.48905 0.37367
# Poissons Ratio (y) = 0.48262 0.25394
# Poissons Ratio (z) = 0.09750 0.06714
#
# Static dielectric constant tensor:
#      x y z
#    x 1.820530 -0.037580 0.009440 
#    y -0.037580 1.876440 -0.002230 
#    z 0.009440 -0.002230 1.863760 
# 
# From -- ./inp_files/55665.got.cif
#   From: 2010.05.17/outbox.cif.g08.bks.cpg/sg2_28_cif.got.tgz:55665.got - 2010.06.03 11:33:40.
