data_PCOD9090778
_publ_section_title
;
Structure prediction by ZEFSAII (Michael W. Deem and Ramdas Pophale) SiO2 
 PCOD9090778
Probable space group: P -1
;
_chemical_formula_sum "Si O2"
_cell_formula_units_Z 16
_cell_length_a 23.478400
_cell_length_b 7.577835
_cell_length_c 5.268655
_cell_angle_alpha 65.730816
_cell_angle_beta 123.271086
_cell_angle_gamma 121.026894
_cell_volume 660.745620
_symmetry_space_group_name_H-M "P -1"
_symmetry_group_IT_number 2
_symmetry_cell_setting 'triclinic'
loop_
_space_group_symop_operation_xyz
x,y,z
-x,-y,-z
loop_
_atom_site_type_symbol
_atom_site_label
_atom_site_fract_x
_atom_site_fract_y
_atom_site_fract_z
Si Si1 0.979980 0.225556 0.405008
Si Si2 0.216050 0.565799 0.034363
Si Si3 0.648515 0.952285 0.403844
Si Si4 0.620517 0.170405 0.700872
Si Si5 0.544773 0.489142 0.365559
Si Si6 0.911206 0.507632 0.896620
Si Si7 0.185407 0.876184 0.445174
Si Si8 0.884701 0.840414 0.101601
O O1 0.028022 0.308839 0.215158
O O2 0.944924 0.397661 0.253673
O O3 0.040578 0.199956 0.756716
O O4 0.915016 0.007749 0.304753
O O5 0.301084 0.633665 0.252563
O O6 0.159619 0.464140 0.181847
O O7 0.180541 0.378735 0.856257
O O8 0.206575 0.780016 0.804671
O O9 0.617579 0.023438 0.539279
O O10 0.737633 0.040956 0.571069
O O11 0.624513 0.054090 0.040694
O O12 0.383128 0.296511 0.565609
O O13 0.561666 0.278860 0.512638
O O14 0.500000 0.500000 0.500000
O O15 0.500000 0.500000 0.000000
O O16 0.876307 0.321987 0.718051
O O17 0.149571 0.048244 0.251147
#
# Coordination Sequence:
#
# PCOD9090778 Si02
#       8
#     2   2   2   2   2   2   2   2
#     4   9  20  37  56  83 122 166 210 280 344 414
#     4  11  22  39  63  88 119 169 220 277 331 396
#     4  11  24  46  73 105 143 185 234 283 338 409
#     4  11  25  45  74 106 140 187 235 281 342 408
#     4  12  27  47  74 111 149 185 225 277 339 414
#     4  10  19  39  59  81 121 161 214 275 336 394
#     4  10  21  41  60  87 123 166 218 276 330 390
#     4  10  20  38  56  83 122 164 217 274 342 402
#
# _framework density 24.215067999999999
#
# number of rings (size 3 to 8) (size 9 to 14) (size 15 to 20)
#    0.000    1.500    2.500    2.250    0.000    4.000 
#    6.750    1.250    0.000    0.000    0.000    0.000 
#    0.000    0.000    0.000    0.000    0.000    0.000 
#
# Total GULP energy -89412.224149 kJ/mol
# GULP energy per Si atom -5588.264009 kJ/mol
# Density = 2.415995 g / cm^3
# Si number density = 24.215068 Si / 1000 Ang^3
#
#
#
# Elastic Constant Matrix: (Units=GPa)
#
#
# Indices 1 2 3 4 5 6 
#
# 1 104.4391 8.2694 40.6450 -7.2708 -3.8814 -13.9314
# 2 8.2694 98.2153 21.7904 -12.4461 0.4046 -13.8806
# 3 40.6450 21.7904 108.5639 -10.7460 6.1372 -21.5719
# 4 -7.2708 -12.4461 -10.7460 34.5608 -13.0668 13.7993
# 5 -3.8814 0.4046 6.1372 -13.0668 32.8323 -4.0845
# 6 -13.9314 -13.8806 -21.5719 13.7993 -4.0845 37.7705
#
#
#
# Elastic Compliance Matrix: (Units=1/GPa)
#
#
# Indices 1 2 3 4 5 6 
#
# 1 0.011600 0.000387 -0.004064 0.001754 0.003047 0.001789
# 2 0.000387 0.011276 -0.001728 0.003410 0.001868 0.002256
# 3 -0.004064 -0.001728 0.012097 -0.000469 -0.002323 0.004695
# 4 0.001754 0.003410 -0.000469 0.040695 0.015005 -0.011613
# 5 0.003047 0.001868 -0.002323 0.015005 0.037078 -0.000989
# 6 0.001789 0.002256 0.004695 -0.011613 -0.000989 0.034782
#
#
# Mechanical properties :
#
#
# Convention : Reuss Voigt Hill
#
# Bulk Modulus (GPa) = 41.38379 50.29196 45.83788
# Shear Modulus (GPa) = 30.04965 37.06696 33.55831
#
# Velocity S-wave (km/s) = 3.52653 3.91671 3.72673
# Velocity P-wave (km/s) = 5.80595 6.42403 6.12279
#
# Compressibility (1/GPa) = 0.02416405
#
# Stress axis : x y z
#
# Youngs Moduli (GPa) = 86.20892 88.68577 82.66300
#
# Poissons Ratio (x) = -0.03436 0.33592
# Poissons Ratio (y) = -0.03340 0.14285
# Poissons Ratio (z) = 0.35033 0.15325
#
# Static dielectric constant tensor:
#      x y z
#    x 1.929160 -0.037150 0.002760 
#    y -0.037150 2.002750 0.005680 
#    z 0.002760 0.005680 1.992520 
# 
# From -- ./inp_files/120595.got.cif
#   From: 2010.05.17/outbox.cif.g08.bks.cpg/sg2_61_cif.got.tgz:120595.got - 2010.06.03 11:33:40.
