data_PCOD9090464
_publ_section_title
;
Structure prediction by ZEFSAII (Michael W. Deem and Ramdas Pophale) SiO2 
 PCOD9090464
Probable space group: P -1
;
_chemical_formula_sum "Si O2"
_cell_formula_units_Z 12
_cell_length_a 9.133713
_cell_length_b 9.130688
_cell_length_c 9.630281
_cell_angle_alpha 115.027971
_cell_angle_beta 52.963861
_cell_angle_gamma 88.414606
_cell_volume 534.775214
_symmetry_space_group_name_H-M "P -1"
_symmetry_group_IT_number 2
_symmetry_cell_setting 'triclinic'
loop_
_space_group_symop_operation_xyz
x,y,z
-x,-y,-z
loop_
_atom_site_type_symbol
_atom_site_label
_atom_site_fract_x
_atom_site_fract_y
_atom_site_fract_z
Si Si1 0.362386 0.677722 0.067238
Si Si2 0.743230 0.738978 0.848425
Si Si3 0.803820 0.969606 0.150572
Si Si4 0.104397 0.665757 0.432744
Si Si5 0.065763 0.657218 0.999758
Si Si6 0.684896 0.351009 0.405005
O O1 0.186724 0.765887 0.315233
O O2 0.500000 0.500000 0.000000
O O3 0.514536 0.763908 0.966447
O O4 0.247567 0.645349 0.988574
O O5 0.860780 0.527779 0.725343
O O6 0.878774 0.762833 0.655424
O O7 0.738701 0.867565 0.028242
O O8 0.655738 0.167442 0.344233
O O9 0.878112 0.843102 0.190236
O O10 0.000000 0.000000 0.000000
O O11 0.247628 0.625965 0.470146
O O12 0.139038 0.652004 0.798440
O O13 0.000000 0.500000 0.000000
O O14 0.500000 0.500000 0.500000
#
# Coordination Sequence:
#
# PCOD9090464 Si02
#       6
#     2   2   2   2   2   2
#     4  10  21  36  61  99 134 174 223 269 329 408
#     4  10  19  38  66  91 131 180 213 272 341 389
#     4  10  21  42  69  92 138 180 218 275 345 399
#     4  10  20  37  67  95 133 172 225 274 335 396
#     4  11  22  41  66  98 136 177 216 274 348 394
#     4  11  23  43  69  98 128 178 231 277 332 407
#
# _framework density 22.439336000000001
#
# number of rings (size 3 to 8) (size 9 to 14) (size 15 to 20)
#    0.000    1.667    3.333    4.000    2.333    0.000 
#    0.000   11.667    0.000    0.000    0.000    0.000 
#    0.000    0.000    0.000    0.000    0.000    0.000 
#
# Total GULP energy -66931.505201 kJ/mol
# GULP energy per Si atom -5577.625433 kJ/mol
# Density = 2.238826 g / cm^3
# Si number density = 22.439336 Si / 1000 Ang^3
#
#
#
# Elastic Constant Matrix: (Units=GPa)
#
#
# Indices 1 2 3 4 5 6 
#
# 1 164.9332 62.2792 52.2866 8.1322 14.8907 36.5167
# 2 62.2792 111.5628 34.4543 22.7648 -1.1797 5.6572
# 3 52.2866 34.4543 75.0215 -11.7221 1.9012 13.4922
# 4 8.1322 22.7648 -11.7221 43.1509 10.5515 -3.0366
# 5 14.8907 -1.1797 1.9012 10.5515 44.6602 -1.0694
# 6 36.5167 5.6572 13.4922 -3.0366 -1.0694 32.8124
#
#
#
# Elastic Compliance Matrix: (Units=1/GPa)
#
#
# Indices 1 2 3 4 5 6 
#
# 1 0.012048 -0.004762 -0.004229 -0.000691 -0.004064 -0.011045
# 2 -0.004762 0.015318 -0.006145 -0.009677 0.004646 0.004441
# 3 -0.004229 -0.006145 0.021103 0.010140 -0.002095 -0.002042
# 4 -0.000691 -0.009677 0.010140 0.033267 -0.008291 0.001076
# 5 -0.004064 0.004646 -0.002095 -0.008291 0.026029 0.004664
# 6 -0.011045 0.004441 -0.002042 0.001076 0.004664 0.043093
#
#
# Mechanical properties :
#
#
# Convention : Reuss Voigt Hill
#
# Bulk Modulus (GPa) = 54.94682 72.17306 63.55994
# Shear Modulus (GPa) = 26.71015 37.62454 32.16735
#
# Velocity S-wave (km/s) = 3.45385 4.09922 3.79030
# Velocity P-wave (km/s) = 6.35968 7.39177 6.89506
#
# Compressibility (1/GPa) = 0.01819942
#
# Stress axis : x y z
#
# Youngs Moduli (GPa) = 83.00176 65.28320 47.38595
#
# Poissons Ratio (x) = 0.31086 0.20038
# Poissons Ratio (y) = 0.39523 0.29116
# Poissons Ratio (z) = 0.35098 0.40113
#
# Static dielectric constant tensor:
#      x y z
#    x 1.845920 -0.030010 -0.086480 
#    y -0.030010 1.884140 0.052720 
#    z -0.086480 0.052720 1.981660 
# 
# From -- ./inp_files/155768.got.cif
#   From: 2010.05.17/outbox.cif.g08.bks.cpg/sg2_78_cif.got.tgz:155768.got - 2010.06.03 11:33:40.
