data_PCOD9090457
_publ_section_title
;
Structure prediction by ZEFSAII (Michael W. Deem and Ramdas Pophale) SiO2 
 PCOD9090457
Probable space group: P -1
;
_chemical_formula_sum "Si O2"
_cell_formula_units_Z 16
_cell_length_a 8.674509
_cell_length_b 12.787110
_cell_length_c 14.838184
_cell_angle_alpha 67.468539
_cell_angle_beta 54.459560
_cell_angle_gamma 111.260230
_cell_volume 775.952180
_symmetry_space_group_name_H-M "P -1"
_symmetry_group_IT_number 2
_symmetry_cell_setting 'triclinic'
loop_
_space_group_symop_operation_xyz
x,y,z
-x,-y,-z
loop_
_atom_site_type_symbol
_atom_site_label
_atom_site_fract_x
_atom_site_fract_y
_atom_site_fract_z
Si Si1 0.365542 0.115463 0.735796
Si Si2 0.361146 0.207935 0.891370
Si Si3 0.683082 0.510864 0.004430
Si Si4 0.640312 0.096837 0.323442
Si Si5 0.645598 0.967660 0.903477
Si Si6 0.634296 0.526749 0.213210
Si Si7 0.319802 0.756166 0.905326
Si Si8 0.633340 0.670752 0.449352
O O1 0.473025 0.180148 0.780696
O O2 0.477959 0.272930 0.586880
O O3 0.423307 0.032667 0.683805
O O4 0.003340 0.958647 0.922053
O O5 0.437536 0.372942 0.788360
O O6 0.453185 0.194829 0.958696
O O7 0.006234 0.721696 0.836141
O O8 0.500000 0.500000 0.000000
O O9 0.531565 0.444771 0.175977
O O10 0.721568 0.395900 0.009551
O O11 0.564129 0.170065 0.261476
O O12 0.500000 0.000000 0.500000
O O13 0.533329 0.908303 0.858936
O O14 0.004247 0.153074 0.728706
O O15 0.500000 0.000000 0.000000
O O16 0.481813 0.387842 0.390724
O O17 0.993662 0.666965 0.051554
O O18 0.500000 0.500000 0.500000
#
# Coordination Sequence:
#
# PCOD9090457 Si02
#       8
#     2   2   2   2   2   2   2   2
#     4  10  20  35  65  90 125 160 217 250 322 374
#     4  10  19  38  66  91 120 167 209 259 319 389
#     4  11  25  44  64  92 130 174 217 263 322 382
#     4  11  24  42  66  96 128 173 219 266 319 385
#     4  11  24  41  65  94 130 165 212 263 326 387
#     4  11  21  42  66  91 125 166 219 262 323 379
#     4  11  24  43  65  93 129 171 216 263 327 382
#     4  11  23  38  64  98 124 165 208 266 322 382
#
# _framework density 20.619826
#
# number of rings (size 3 to 8) (size 9 to 14) (size 15 to 20)
#    0.000    1.250    3.750    3.750    7.000    1.000 
#    0.000    1.875    0.000    0.000    0.000    0.000 
#    0.000    0.000    0.000    0.000    0.000    0.000 
#
# Total GULP energy -89267.371521 kJ/mol
# GULP energy per Si atom -5579.210720 kJ/mol
# Density = 2.057289 g / cm^3
# Si number density = 20.619826 Si / 1000 Ang^3
#
#
#
# Elastic Constant Matrix: (Units=GPa)
#
#
# Indices 1 2 3 4 5 6 
#
# 1 122.1969 37.2813 32.3098 2.0927 24.2811 15.5946
# 2 37.2813 96.4506 17.7465 6.2872 1.9368 2.8387
# 3 32.3098 17.7465 86.6190 14.6050 32.1531 8.1590
# 4 2.0927 6.2872 14.6050 31.0118 6.7738 12.1725
# 5 24.2811 1.9368 32.1531 6.7738 30.6716 0.6588
# 6 15.5946 2.8387 8.1590 12.1725 0.6588 42.7942
#
#
#
# Elastic Compliance Matrix: (Units=1/GPa)
#
#
# Indices 1 2 3 4 5 6 
#
# 1 0.012237 -0.004643 -0.000096 0.004436 -0.010161 -0.005238
# 2 -0.004643 0.012729 -0.003043 -0.003175 0.006716 0.002228
# 3 -0.000096 -0.003043 0.020671 -0.003711 -0.020531 -0.002332
# 4 0.004436 -0.003175 -0.003711 0.040922 -0.008196 -0.012212
# 5 -0.010161 0.006716 -0.020531 -0.008196 0.063373 0.008527
# 6 -0.005238 0.002228 -0.002332 -0.012212 0.008527 0.028916
#
#
# Mechanical properties :
#
#
# Convention : Reuss Voigt Hill
#
# Bulk Modulus (GPa) = 33.25386 53.32686 43.29036
# Shear Modulus (GPa) = 24.45736 35.42412 29.94074
#
# Velocity S-wave (km/s) = 3.44773 4.14933 3.81469
# Velocity P-wave (km/s) = 5.65785 6.99099 6.35945
#
# Compressibility (1/GPa) = 0.03007170
#
# Stress axis : x y z
#
# Youngs Moduli (GPa) = 81.71872 78.55873 48.37705
#
# Poissons Ratio (x) = 0.36477 0.00465
# Poissons Ratio (y) = 0.37945 0.14723
# Poissons Ratio (z) = 0.00786 0.23908
#
# Static dielectric constant tensor:
#      x y z
#    x 1.765060 -0.014580 0.022360 
#    y -0.014580 1.774670 -0.000390 
#    z 0.022360 -0.000390 1.750120 
# 
# From -- ./inp_files/189540.got.cif
#   From: 2010.05.17/outbox.cif.g08.bks.cpg/sg2_95_cif.got.tgz:189540.got - 2010.06.03 11:33:40.
