data_PCOD9090319
_publ_section_title
;
Structure prediction by ZEFSAII (Michael W. Deem and Ramdas Pophale) SiO2 
 PCOD9090319
Probable space group: P -1
;
_chemical_formula_sum "Si O2"
_cell_formula_units_Z 16
_cell_length_a 13.518756
_cell_length_b 8.084707
_cell_length_c 13.459524
_cell_angle_alpha 45.847647
_cell_angle_beta 135.583322
_cell_angle_gamma 135.883385
_cell_volume 663.748420
_symmetry_space_group_name_H-M "P -1"
_symmetry_group_IT_number 2
_symmetry_cell_setting 'triclinic'
loop_
_space_group_symop_operation_xyz
x,y,z
-x,-y,-z
loop_
_atom_site_type_symbol
_atom_site_label
_atom_site_fract_x
_atom_site_fract_y
_atom_site_fract_z
Si Si1 0.648400 0.422102 0.824159
Si Si2 0.770138 0.055361 0.965273
Si Si3 0.174938 0.573479 0.554999
Si Si4 0.711038 0.511902 0.124471
Si Si5 0.264884 0.114704 0.447527
Si Si6 0.050784 0.295983 0.934419
Si Si7 0.910641 0.968962 0.307709
Si Si8 0.349932 0.001710 0.769349
O O1 0.676220 0.200380 0.880906
O O2 0.648732 0.629038 0.659738
O O3 0.474749 0.248150 0.814382
O O4 0.796458 0.572962 0.939760
O O5 0.896899 0.267466 0.893888
O O6 0.682582 0.763964 0.980371
O O7 0.859199 0.002109 0.145014
O O8 0.284485 0.552078 0.731008
O O9 0.148850 0.326557 0.574416
O O10 0.000000 0.500000 0.500000
O O11 0.239766 0.875692 0.456069
O O12 0.888082 0.586534 0.178615
O O13 0.615863 0.246716 0.109900
O O14 0.346590 0.087706 0.617822
O O15 0.097471 0.089383 0.379017
O O16 0.000000 0.000000 0.000000
O O17 0.819866 0.081380 0.266060
#
# Coordination Sequence:
#
# PCOD9090319 Si02
#       8
#     2   2   2   2   2   2   2   2
#     4  12  24  39  61  89 132 164 193 255 316 362
#     4  10  21  38  62  90 118 164 204 250 307 362
#     4   8  17  35  60  86 113 157 201 252 297 340
#     4   9  20  37  59  88 123 155 204 253 293 363
#     4  10  21  40  62  85 122 167 206 246 299 369
#     4  10  21  38  60  90 120 154 208 253 301 362
#     4  10  19  38  65  89 117 159 213 252 294 361
#     4  11  24  39  59  94 126 160 207 251 305 361
#
# _framework density 24.105519000000001
#
# number of rings (size 3 to 8) (size 9 to 14) (size 15 to 20)
#    0.000    2.000    1.250    1.875    3.500    2.500 
#    0.000    6.875    0.000    0.000    0.000    0.000 
#    0.000    0.000    0.000    0.000    0.000    0.000 
#
# Total GULP energy -89189.398463 kJ/mol
# GULP energy per Si atom -5574.337404 kJ/mol
# Density = 2.405065 g / cm^3
# Si number density = 24.105519 Si / 1000 Ang^3
#
#
#
# Elastic Constant Matrix: (Units=GPa)
#
#
# Indices 1 2 3 4 5 6 
#
# 1 38.9632 2.4600 -1.5079 -11.1723 10.7283 -7.3602
# 2 2.4600 112.9964 15.1131 -32.7612 6.3219 -4.6867
# 3 -1.5079 15.1131 63.0003 -14.0153 -4.3763 -3.5922
# 4 -11.1723 -32.7612 -14.0153 32.7061 -5.5521 4.5321
# 5 10.7283 6.3219 -4.3763 -5.5521 29.5622 -6.7911
# 6 -7.3602 -4.6867 -3.5922 4.5321 -6.7911 30.8992
#
#
#
# Elastic Compliance Matrix: (Units=1/GPa)
#
#
# Indices 1 2 3 4 5 6 
#
# 1 0.032772 0.003623 0.002672 0.013854 -0.008579 0.004749
# 2 0.003623 0.012880 0.000011 0.013846 -0.001355 0.000489
# 3 0.002672 0.000011 0.018382 0.009160 0.004000 0.002311
# 4 0.013854 0.013846 0.009160 0.053760 0.003304 -0.000694
# 5 -0.008579 -0.001355 0.004000 0.003304 0.039938 0.006509
# 6 0.004749 0.000489 0.002311 -0.000694 0.006509 0.035370
#
#
# Mechanical properties :
#
#
# Convention : Reuss Voigt Hill
#
# Bulk Modulus (GPa) = 13.04703 27.45448 20.25076
# Shear Modulus (GPa) = 24.26744 31.89315 28.08029
#
# Velocity S-wave (km/s) = 3.17632 3.64134 3.41675
# Velocity P-wave (km/s) = 4.34468 5.39381 4.89742
#
# Compressibility (1/GPa) = 0.07664581
#
# Stress axis : x y z
#
# Youngs Moduli (GPa) = 30.51395 77.63939 54.40233
#
# Poissons Ratio (x) = -0.28128 -0.14537
# Poissons Ratio (y) = -0.11055 -0.00060
# Poissons Ratio (z) = -0.08154 -0.00086
#
# Static dielectric constant tensor:
#      x y z
#    x 2.013390 -0.016290 -0.005100 
#    y -0.016290 2.059170 -0.009860 
#    z -0.005100 -0.009860 1.933200 
# 
# From -- ./inp_files/523859.got.cif
#   From: 2010.05.17/outbox.cif.g08.bks.cpg/sg2_262_cif.got.tgz:523859.got - 2010.06.03 11:33:40.
