data_PCOD9090914
_publ_section_title
;
Structure prediction by ZEFSAII (Michael W. Deem and Ramdas Pophale) SiO2 
 PCOD9090914
Probable space group: P -1
;
_chemical_formula_sum "Si O2"
_cell_formula_units_Z 16
_cell_length_a 13.825526
_cell_length_b 11.765030
_cell_length_c 12.237974
_cell_angle_alpha 91.270038
_cell_angle_beta 64.700562
_cell_angle_gamma 149.279078
_cell_volume 610.766870
_symmetry_space_group_name_H-M "P -1"
_symmetry_group_IT_number 2
_symmetry_cell_setting 'triclinic'
loop_
_space_group_symop_operation_xyz
x,y,z
-x,-y,-z
loop_
_atom_site_type_symbol
_atom_site_label
_atom_site_fract_x
_atom_site_fract_y
_atom_site_fract_z
Si Si1 0.913126 0.350342 0.763784
Si Si2 0.667564 0.221819 0.610067
Si Si3 0.561292 0.739712 0.539804
Si Si4 0.411673 0.671794 0.931611
Si Si5 0.796544 0.487945 0.744875
Si Si6 0.636579 0.621337 0.056339
Si Si7 0.150596 0.507074 0.856678
Si Si8 0.611552 0.672479 0.295368
O O1 0.256018 0.675303 0.550545
O O2 0.881555 0.288259 0.904818
O O3 0.836353 0.404729 0.783862
O O4 0.689096 0.039811 0.801695
O O5 0.626217 0.288214 0.709785
O O6 0.000000 0.500000 0.500000
O O7 0.398703 0.859520 0.742968
O O8 0.275906 0.524508 0.726775
O O9 0.544088 0.703696 0.416146
O O10 0.571711 0.622287 0.579195
O O11 0.867981 0.119130 0.430405
O O12 0.490194 0.627531 0.845362
O O13 0.130580 0.442865 0.988602
O O14 0.347859 0.586263 0.087690
O O15 0.553474 0.627278 0.192519
O O16 0.500000 0.500000 0.000000
O O17 0.014780 0.984814 0.871355
#
# Coordination Sequence:
#
# PCOD9090914 Si02
#       8
#     2   2   2   2   2   2   2   2
#     4  11  24  39  65  99 128 170 215 254 314 388
#     4  10  19  39  61  90 132 167 206 257 309 369
#     4  11  21  42  69  93 127 170 212 263 325 366
#     4  12  24  44  65  90 132 174 204 267 327 376
#     4  11  22  42  65  94 136 170 209 263 317 377
#     4  11  25  46  69  95 127 165 216 266 324 381
#     4  12  23  41  67  93 131 175 210 259 316 381
#     4  10  24  45  69  93 127 166 214 274 316 373
#
# _framework density 26.196572
#
# number of rings (size 3 to 8) (size 9 to 14) (size 15 to 20)
#    0.000    1.000    7.500    0.750    1.750    0.500 
#    2.250    2.500    0.000    0.000    0.000    0.000 
#    0.000    0.000    0.000    0.000    0.000    0.000 
#
# Total GULP energy -89519.471482 kJ/mol
# GULP energy per Si atom -5594.966968 kJ/mol
# Density = 2.613695 g / cm^3
# Si number density = 26.196572 Si / 1000 Ang^3
#
#
#
# Elastic Constant Matrix: (Units=GPa)
#
#
# Indices 1 2 3 4 5 6 
#
# 1 82.0542 48.6656 10.1151 6.2777 17.7177 -2.7467
# 2 48.6656 148.8519 35.9126 22.4920 8.4052 -1.5349
# 3 10.1151 35.9126 87.4315 36.1878 7.6284 2.8676
# 4 6.2777 22.4920 36.1878 60.7124 -4.0993 10.8325
# 5 17.7177 8.4052 7.6284 -4.0993 30.9997 19.1707
# 6 -2.7467 -1.5349 2.8676 10.8325 19.1707 50.0967
#
#
#
# Elastic Compliance Matrix: (Units=1/GPa)
#
#
# Indices 1 2 3 4 5 6 
#
# 1 0.018755 -0.005268 0.002671 -0.003889 -0.014966 0.007282
# 2 -0.005268 0.009229 -0.002805 -0.001131 0.001052 -0.000004
# 3 0.002671 -0.002805 0.017687 -0.011394 -0.009904 0.005302
# 4 -0.003889 -0.001131 -0.011394 0.027257 0.016156 -0.011672
# 5 -0.014966 0.001052 -0.009904 0.016156 0.062092 -0.027476
# 6 0.007282 -0.000004 0.005302 -0.011672 -0.027476 0.033095
#
#
# Mechanical properties :
#
#
# Convention : Reuss Voigt Hill
#
# Bulk Modulus (GPa) = 28.68118 56.41380 42.54749
# Shear Modulus (GPa) = 26.24104 43.27139 34.75622
#
# Velocity S-wave (km/s) = 3.16839 4.06864 3.64641
# Velocity P-wave (km/s) = 4.93530 6.60707 5.83140
#
# Compressibility (1/GPa) = 0.03486607
#
# Stress axis : x y z
#
# Youngs Moduli (GPa) = 53.31813 108.35803 56.53951
#
# Poissons Ratio (x) = 0.57087 -0.15101
# Poissons Ratio (y) = 0.28090 0.15858
# Poissons Ratio (z) = -0.14241 0.30392
#
# Static dielectric constant tensor:
#      x y z
#    x 2.066070 0.024510 -0.038810 
#    y 0.024510 2.034810 0.043430 
#    z -0.038810 0.043430 2.174480 
# 
# From -- ./inp_files/313294.got.cif
#   From: 2010.05.17/outbox.cif.g08.bks.cpg/sg2_157_cif.got.tgz:313294.got - 2010.06.03 11:33:40.
