data_PCOD9090147
_publ_section_title
;
Structure prediction by ZEFSAII (Michael W. Deem and Ramdas Pophale) SiO2 
 PCOD9090147
Probable space group: P -1
;
_chemical_formula_sum "Si O2"
_cell_formula_units_Z 16
_cell_length_a 8.078180
_cell_length_b 16.544275
_cell_length_c 9.648878
_cell_angle_alpha 115.126073
_cell_angle_beta 48.631774
_cell_angle_gamma 79.468938
_cell_volume 640.815460
_symmetry_space_group_name_H-M "P -1"
_symmetry_group_IT_number 2
_symmetry_cell_setting 'triclinic'
loop_
_space_group_symop_operation_xyz
x,y,z
-x,-y,-z
loop_
_atom_site_type_symbol
_atom_site_label
_atom_site_fract_x
_atom_site_fract_y
_atom_site_fract_z
Si Si1 0.461677 0.781910 0.661603
Si Si2 0.319044 0.258600 0.779792
Si Si3 0.778939 0.975025 0.596389
Si Si4 0.217121 0.732469 0.351340
Si Si5 0.456721 0.360618 0.153841
Si Si6 0.953143 0.845465 0.131522
Si Si7 0.265431 0.483271 0.618398
Si Si8 0.279143 0.217434 0.193430
O O1 0.584840 0.795033 0.467440
O O2 0.604295 0.642543 0.476443
O O3 0.581688 0.797469 0.743469
O O4 0.105720 0.864451 0.943461
O O5 0.601363 0.235597 0.661571
O O6 0.202360 0.200244 0.871797
O O7 0.034780 0.402976 0.056262
O O8 0.762366 0.951348 0.427821
O O9 0.946344 0.852247 0.501610
O O10 0.000000 0.000000 0.500000
O O11 0.469660 0.086983 0.922547
O O12 0.065987 0.712508 0.536248
O O13 0.434808 0.625973 0.039520
O O14 0.226261 0.468928 0.466856
O O15 0.347602 0.290514 0.129103
O O16 0.757674 0.267251 0.016362
O O17 0.500000 0.500000 0.500000
#
# Coordination Sequence:
#
# PCOD9090147 Si02
#       8
#     2   2   2   2   2   2   2   2
#     4  10  20  37  63  85 111 154 201 227 277 347
#     4  12  23  38  55  89 128 143 184 246 293 335
#     4  11  18  41  66  83 106 156 204 232 275 347
#     4  11  24  36  58  89 120 151 182 243 300 324
#     4   9  19  39  62  85 109 154 204 229 272 344
#     4   9  19  37  61  85 111 153 194 233 280 335
#     4  10  19  38  64  86 108 158 198 228 280 342
#     4  10  20  39  64  82 112 149 206 234 270 348
#
# _framework density 24.968185999999999
#
# number of rings (size 3 to 8) (size 9 to 14) (size 15 to 20)
#    0.000    2.000    6.250    2.250    0.000    1.500 
#    0.000    5.625    0.000    0.000    0.000    0.000 
#    0.000    0.000    0.000    0.000    0.000    0.000 
#
# Total GULP energy -89515.627245 kJ/mol
# GULP energy per Si atom -5594.726703 kJ/mol
# Density = 2.491136 g / cm^3
# Si number density = 24.968186 Si / 1000 Ang^3
#
#
#
# Elastic Constant Matrix: (Units=GPa)
#
#
# Indices 1 2 3 4 5 6 
#
# 1 64.3294 8.1167 19.3420 -6.0360 -2.3505 19.8443
# 2 8.1167 51.2823 22.3043 -15.5371 -14.2894 18.5919
# 3 19.3420 22.3043 155.1615 -21.9627 18.2522 4.1511
# 4 -6.0360 -15.5371 -21.9627 40.2770 10.6058 -8.4555
# 5 -2.3505 -14.2894 18.2522 10.6058 35.0462 -3.5772
# 6 19.8443 18.5919 4.1511 -8.4555 -3.5772 38.6494
#
#
#
# Elastic Compliance Matrix: (Units=1/GPa)
#
#
# Indices 1 2 3 4 5 6 
#
# 1 0.019514 0.002843 -0.003027 -0.000757 0.003157 -0.010935
# 2 0.002843 0.031240 -0.005661 0.002878 0.013577 -0.013993
# 3 -0.003027 -0.005661 0.009336 0.005507 -0.008665 0.003677
# 4 -0.000757 0.002878 0.005507 0.032726 -0.011186 0.004537
# 5 0.003157 0.013577 -0.008665 -0.011186 0.041585 -0.005820
# 6 -0.010935 -0.013993 0.003677 0.004537 -0.005820 0.038278
#
#
# Mechanical properties :
#
#
# Convention : Reuss Voigt Hill
#
# Bulk Modulus (GPa) = 20.66073 41.14436 30.90255
# Shear Modulus (GPa) = 24.93724 37.52853 31.23288
#
# Velocity S-wave (km/s) = 3.16375 3.88113 3.54065
# Velocity P-wave (km/s) = 4.65172 6.04969 5.39617
#
# Compressibility (1/GPa) = 0.04840100
#
# Stress axis : x y z
#
# Youngs Moduli (GPa) = 51.24504 32.01024 107.10752
#
# Poissons Ratio (x) = -0.09101 0.32424
# Poissons Ratio (y) = -0.14569 0.60629
# Poissons Ratio (z) = 0.15513 0.18120
#
# Static dielectric constant tensor:
#      x y z
#    x 2.011340 -0.029810 -0.013830 
#    y -0.029810 1.969180 -0.016670 
#    z -0.013830 -0.016670 2.040380 
# 
# From -- ./inp_files/405500.got.cif
#   From: 2010.05.17/outbox.cif.g08.bks.cpg/sg2_203_cif.got.tgz:405500.got - 2010.06.03 11:33:40.
