data_PCOD9090487
_publ_section_title
;
Structure prediction by ZEFSAII (Michael W. Deem and Ramdas Pophale) SiO2 
 PCOD9090487
Probable space group: P -1
;
_chemical_formula_sum "Si O2"
_cell_formula_units_Z 16
_cell_length_a 20.228740
_cell_length_b 8.448304
_cell_length_c 5.551605
_cell_angle_alpha 73.257843
_cell_angle_beta 106.777450
_cell_angle_gamma 136.050604
_cell_volume 625.819065
_symmetry_space_group_name_H-M "P -1"
_symmetry_group_IT_number 2
_symmetry_cell_setting 'triclinic'
loop_
_space_group_symop_operation_xyz
x,y,z
-x,-y,-z
loop_
_atom_site_type_symbol
_atom_site_label
_atom_site_fract_x
_atom_site_fract_y
_atom_site_fract_z
Si Si1 0.797505 0.219659 0.935120
Si Si2 0.481951 0.116600 0.241204
Si Si3 0.945348 0.291905 0.731375
Si Si4 0.900533 0.706068 0.897631
Si Si5 0.172891 0.312619 0.677810
Si Si6 0.760128 0.891605 0.426752
Si Si7 0.643347 0.200253 0.156160
Si Si8 0.378969 0.164754 0.412945
O O1 0.895935 0.320484 0.871971
O O2 0.810351 0.432188 0.905038
O O3 0.716805 0.032465 0.749099
O O4 0.774885 0.086256 0.213297
O O5 0.573870 0.243226 0.112901
O O6 0.500000 0.000000 0.500000
O O7 0.464151 0.268848 0.267637
O O8 0.385153 0.894791 0.104183
O O9 0.000000 0.500000 0.500000
O O10 0.855447 0.047749 0.622439
O O11 0.015695 0.275667 0.930553
O O12 0.897437 0.765040 0.591119
O O13 0.881621 0.787496 0.078749
O O14 0.227669 0.237865 0.688479
O O15 0.256403 0.585240 0.704218
O O16 0.657688 0.734916 0.524777
O O17 0.608773 0.970454 0.339672
#
# Coordination Sequence:
#
# PCOD9090487 Si02
#       8
#     2   2   2   2   2   2   2   2
#     4  11  22  41  69  94 128 174 231 279 329 399
#     4   9  19  35  67 102 128 165 223 279 322 395
#     4  11  24  42  70  98 127 173 239 288 327 393
#     4  12  25  44  68  94 132 182 230 278 336 400
#     4  12  28  43  65 100 142 180 219 280 347 402
#     4  11  26  41  63  97 135 179 223 278 339 401
#     4  10  20  39  65 101 131 170 223 275 333 399
#     4  10  19  38  66  93 128 173 225 271 324 398
#
# _framework density 25.566497999999999
#
# number of rings (size 3 to 8) (size 9 to 14) (size 15 to 20)
#    0.000    1.250    2.500    3.375    7.000    1.000 
#    0.000    0.625    0.000   10.500    0.000    0.000 
#    0.000    0.000    0.000    0.000    0.000    0.000 
#
# Total GULP energy -89238.750192 kJ/mol
# GULP energy per Si atom -5577.421887 kJ/mol
# Density = 2.550831 g / cm^3
# Si number density = 25.566498 Si / 1000 Ang^3
#
#
#
# Elastic Constant Matrix: (Units=GPa)
#
#
# Indices 1 2 3 4 5 6 
#
# 1 159.7861 3.1520 43.7935 16.4165 -31.4605 6.5089
# 2 3.1520 50.2779 28.8920 16.8416 -1.0376 -3.5860
# 3 43.7935 28.8920 140.5343 19.6223 4.8697 9.2084
# 4 16.4165 16.8416 19.6223 33.1568 -1.9241 5.0250
# 5 -31.4605 -1.0376 4.8697 -1.9241 49.2567 17.6509
# 6 6.5089 -3.5860 9.2084 5.0250 17.6509 21.8961
#
#
#
# Elastic Compliance Matrix: (Units=1/GPa)
#
#
# Indices 1 2 3 4 5 6 
#
# 1 0.009298 0.001122 -0.002641 -0.001795 0.009186 -0.008462
# 2 0.001122 0.028061 -0.004852 -0.013924 -0.003037 0.011946
# 3 -0.002641 -0.004852 0.009356 -0.001602 -0.002102 -0.001882
# 4 -0.001795 -0.013924 -0.001602 0.041739 0.005859 -0.015375
# 5 0.009186 -0.003037 -0.002102 0.005859 0.039181 -0.035273
# 6 -0.008462 0.011946 -0.001882 -0.015375 -0.035273 0.082896
#
#
# Mechanical properties :
#
#
# Convention : Reuss Voigt Hill
#
# Bulk Modulus (GPa) = 29.43565 55.80817 42.62191
# Shear Modulus (GPa) = 21.31308 39.17930 30.24619
#
# Velocity S-wave (km/s) = 2.89040 3.91889 3.44327
# Velocity P-wave (km/s) = 4.76210 6.50792 5.70222
#
# Compressibility (1/GPa) = 0.03397241
#
# Stress axis : x y z
#
# Youngs Moduli (GPa) = 107.55192 35.63695 106.88256
#
# Poissons Ratio (x) = -0.03999 0.28231
# Poissons Ratio (y) = -0.12069 0.51859
# Poissons Ratio (z) = 0.28408 0.17291
#
# Static dielectric constant tensor:
#      x y z
#    x 2.186810 0.056090 -0.077430 
#    y 0.056090 2.028590 -0.007030 
#    z -0.077430 -0.007030 2.120460 
# 
# From -- ./inp_files/116079.got.cif
#   From: 2010.05.17/outbox.cif.g08.bks.cpg/sg2_59_cif.got.tgz:116079.got - 2010.06.03 11:33:40.
