data_PCOD9090794
_publ_section_title
;
Structure prediction by ZEFSAII (Michael W. Deem and Ramdas Pophale) SiO2 
 PCOD9090794
Probable space group: P -1
;
_chemical_formula_sum "Si O2"
_cell_formula_units_Z 12
_cell_length_a 8.033396
_cell_length_b 7.138039
_cell_length_c 11.484826
_cell_angle_alpha 68.802371
_cell_angle_beta 57.329723
_cell_angle_gamma 58.422192
_cell_volume 469.423849
_symmetry_space_group_name_H-M "P -1"
_symmetry_group_IT_number 2
_symmetry_cell_setting 'triclinic'
loop_
_space_group_symop_operation_xyz
x,y,z
-x,-y,-z
loop_
_atom_site_type_symbol
_atom_site_label
_atom_site_fract_x
_atom_site_fract_y
_atom_site_fract_z
Si Si1 0.014112 0.837131 0.208152
Si Si2 0.772984 0.713907 0.033799
Si Si3 0.371005 0.706817 0.303271
Si Si4 0.724610 0.823134 0.758185
Si Si5 0.139125 0.487921 0.565857
Si Si6 0.292286 0.837148 0.900493
O O1 0.166887 0.797702 0.270511
O O2 0.849728 0.724399 0.321493
O O3 0.859427 0.086159 0.172614
O O4 0.185616 0.734627 0.059038
O O5 0.591842 0.632832 0.164375
O O6 0.748773 0.925061 0.074830
O O7 0.715354 0.812121 0.903713
O O8 0.000000 0.500000 0.000000
O O9 0.342669 0.531115 0.438320
O O10 0.347085 0.933639 0.322331
O O11 0.971894 0.686530 0.660788
O O12 0.549122 0.730235 0.803800
O O13 0.000000 0.500000 0.500000
#
# Coordination Sequence:
#
# PCOD9090794 Si02
#       6
#     2   2   2   2   2   2
#     4  10  19  39  59  89 127 150 191 244 297 350
#     4  11  21  38  63  93 115 154 205 249 289 347
#     4  10  20  42  62  88 122 157 195 245 295 354
#     4  11  20  40  63  86 116 163 202 240 293 348
#     4  10  23  39  58  89 125 157 195 242 300 355
#     4  10  20  37  63  91 121 152 200 247 292 348
#
# _framework density 25.563251000000001
#
# number of rings (size 3 to 8) (size 9 to 14) (size 15 to 20)
#    0.000    1.667    3.333    2.500    0.000    0.667 
#   12.000   12.500    0.000    0.000    0.000    0.000 
#    0.000    0.000    0.000    0.000    0.000    0.000 
#
# Total GULP energy -67115.957519 kJ/mol
# GULP energy per Si atom -5592.996460 kJ/mol
# Density = 2.550507 g / cm^3
# Si number density = 25.563251 Si / 1000 Ang^3
#
#
#
# Elastic Constant Matrix: (Units=GPa)
#
#
# Indices 1 2 3 4 5 6 
#
# 1 84.5712 10.0744 29.7994 -9.1082 -16.0190 -12.0169
# 2 10.0744 59.8954 20.4052 -15.4563 -8.1204 -0.1812
# 3 29.7994 20.4052 167.8666 -28.9549 -43.1502 10.8753
# 4 -9.1082 -15.4563 -28.9549 43.9285 9.3544 -5.5033
# 5 -16.0190 -8.1204 -43.1502 9.3544 43.4305 -6.1395
# 6 -12.0169 -0.1812 10.8753 -5.5033 -6.1395 28.8206
#
#
#
# Elastic Compliance Matrix: (Units=1/GPa)
#
#
# Indices 1 2 3 4 5 6 
#
# 1 0.014639 -0.000849 -0.001570 0.001757 0.004429 0.007970
# 2 -0.000849 0.018811 -0.000913 0.005756 0.001265 0.001477
# 3 -0.001570 -0.000913 0.008881 0.003471 0.007066 -0.001844
# 4 0.001757 0.005756 0.003471 0.028083 -0.000200 0.004779
# 5 0.004429 0.001265 0.007066 -0.000200 0.032827 0.006143
# 6 0.007970 0.001477 -0.001844 0.004779 0.006143 0.040947
#
#
# Mechanical properties :
#
#
# Convention : Reuss Voigt Hill
#
# Bulk Modulus (GPa) = 28.03819 48.09903 38.06861
# Shear Modulus (GPa) = 30.72306 40.03954 35.38130
#
# Velocity S-wave (km/s) = 3.47052 3.96194 3.72434
# Velocity P-wave (km/s) = 5.20109 6.30760 5.78088
#
# Compressibility (1/GPa) = 0.03566565
#
# Stress axis : x y z
#
# Youngs Moduli (GPa) = 68.30841 53.15958 112.59497
#
# Poissons Ratio (x) = 0.04516 0.17682
# Poissons Ratio (y) = 0.05803 0.10284
# Poissons Ratio (z) = 0.10727 0.04855
#
# Static dielectric constant tensor:
#      x y z
#    x 2.129290 0.087390 0.034310 
#    y 0.087390 2.098710 0.075510 
#    z 0.034310 0.075510 2.198980 
# 
# From -- ./inp_files/145277.got.cif
#   From: 2010.05.17/outbox.cif.g08.bks.cpg/sg2_73_cif.got.tgz:145277.got - 2010.06.03 11:33:40.
