data_PCOD9090317
_publ_section_title
;
Structure prediction by ZEFSAII (Michael W. Deem and Ramdas Pophale) SiO2 
 PCOD9090317
Probable space group: P -1
;
_chemical_formula_sum "Si O2"
_cell_formula_units_Z 16
_cell_length_a 7.802328
_cell_length_b 6.576075
_cell_length_c 17.834858
_cell_angle_alpha 95.973794
_cell_angle_beta 49.246419
_cell_angle_gamma 106.702940
_cell_volume 659.533516
_symmetry_space_group_name_H-M "P -1"
_symmetry_group_IT_number 2
_symmetry_cell_setting 'triclinic'
loop_
_space_group_symop_operation_xyz
x,y,z
-x,-y,-z
loop_
_atom_site_type_symbol
_atom_site_label
_atom_site_fract_x
_atom_site_fract_y
_atom_site_fract_z
Si Si1 0.176306 0.952189 0.664126
Si Si2 0.824313 0.160295 0.696769
Si Si3 0.414135 0.682486 0.360720
Si Si4 0.003251 0.983932 0.861544
Si Si5 0.361105 0.836546 0.097134
Si Si6 0.211637 0.444583 0.031121
Si Si7 0.258744 0.552986 0.552328
Si Si8 0.728294 0.568560 0.149712
O O1 0.091418 0.852553 0.767169
O O2 0.278950 0.787874 0.585081
O O3 0.372042 0.166026 0.644963
O O4 0.974344 0.997515 0.669577
O O5 0.697785 0.168803 0.653692
O O6 0.623460 0.133255 0.817466
O O7 0.027407 0.388991 0.648753
O O8 0.241002 0.547239 0.467140
O O9 0.522677 0.537971 0.268568
O O10 0.826817 0.805239 0.954579
O O11 0.169436 0.171011 0.870647
O O12 0.893528 0.126187 0.844084
O O13 0.334104 0.599131 0.068624
O O14 0.500000 0.000000 0.000000
O O15 0.946884 0.473628 0.100985
O O16 0.340486 0.514770 0.917695
O O17 0.500000 0.500000 0.500000
#
# Coordination Sequence:
#
# PCOD9090317 Si02
#       8
#     2   2   2   2   2   2   2   2
#     4  10  23  46  67 101 135 182 222 280 351 404
#     4  11  25  48  69 100 144 173 229 294 330 412
#     4  11  24  45  70 103 137 179 231 282 342 407
#     4   9  19  36  66  88 127 176 221 269 339 400
#     4  10  23  41  62  93 136 177 224 272 334 403
#     4  10  19  38  65  88 136 183 219 278 337 397
#     4  12  25  45  77  98 137 183 227 284 349 406
#     4   9  21  38  58 101 131 167 230 279 331 406
#
# _framework density 24.259571000000001
#
# number of rings (size 3 to 8) (size 9 to 14) (size 15 to 20)
#    0.000    1.750    1.250    2.625    3.500    1.000 
#   11.250    0.000    0.000    0.000    0.000    0.000 
#    0.000    0.000    0.000    0.000    0.000    0.000 
#
# Total GULP energy -89240.029976 kJ/mol
# GULP energy per Si atom -5577.501874 kJ/mol
# Density = 2.420436 g / cm^3
# Si number density = 24.259571 Si / 1000 Ang^3
#
#
#
# Elastic Constant Matrix: (Units=GPa)
#
#
# Indices 1 2 3 4 5 6 
#
# 1 119.4106 18.4155 20.7984 8.8740 5.5602 -30.2351
# 2 18.4155 60.7116 22.8465 3.5293 2.0109 -23.9455
# 3 20.7984 22.8465 115.1980 3.6143 21.6053 -24.9643
# 4 8.8740 3.5293 3.6143 46.4280 -7.4421 -10.4247
# 5 5.5602 2.0109 21.6053 -7.4421 31.3279 -3.8766
# 6 -30.2351 -23.9455 -24.9643 -10.4247 -3.8766 29.0407
#
#
#
# Elastic Compliance Matrix: (Units=1/GPa)
#
#
# Indices 1 2 3 4 5 6 
#
# 1 0.011586 0.001863 0.000786 0.000698 -0.000768 0.014423
# 2 0.001863 0.025244 -0.000761 0.003469 0.002325 0.023656
# 3 0.000786 -0.000761 0.012148 -0.000040 -0.007284 0.009647
# 4 0.000698 0.003469 -0.000040 0.025398 0.007404 0.013658
# 5 -0.000768 0.002325 -0.007284 0.007404 0.039027 0.002724
# 6 0.014423 0.023656 0.009647 0.013658 0.002724 0.082515
#
#
# Mechanical properties :
#
#
# Convention : Reuss Voigt Hill
#
# Bulk Modulus (GPa) = 18.95599 46.60459 32.78029
# Shear Modulus (GPa) = 23.84057 36.90997 30.37527
#
# Velocity S-wave (km/s) = 3.13825 3.90482 3.54233
# Velocity P-wave (km/s) = 4.57846 6.29148 5.50204
#
# Compressibility (1/GPa) = 0.05275376
#
# Stress axis : x y z
#
# Youngs Moduli (GPa) = 86.31172 39.61301 82.32062
#
# Poissons Ratio (x) = -0.07380 -0.06473
# Poissons Ratio (y) = -0.16081 0.06268
# Poissons Ratio (z) = -0.06787 0.03016
#
# Static dielectric constant tensor:
#      x y z
#    x 1.997110 -0.037190 -0.082020 
#    y -0.037190 1.907430 -0.025560 
#    z -0.082020 -0.025560 2.128840 
# 
# From -- ./inp_files/553601.got.cif
#   From: 2010.05.17/outbox.cif.g08.bks.cpg/sg2_277_cif.got.tgz:553601.got - 2010.06.03 11:33:40.
