data_PCOD9090174
_publ_section_title
;
Structure prediction by ZEFSAII (Michael W. Deem and Ramdas Pophale) SiO2 
 PCOD9090174
Probable space group: P -1
;
_chemical_formula_sum "Si O2"
_cell_formula_units_Z 16
_cell_length_a 15.430539
_cell_length_b 20.868334
_cell_length_c 9.305829
_cell_angle_alpha 27.673410
_cell_angle_beta 36.138495
_cell_angle_gamma 28.647461
_cell_volume 660.960646
_symmetry_space_group_name_H-M "P -1"
_symmetry_group_IT_number 2
_symmetry_cell_setting 'triclinic'
loop_
_space_group_symop_operation_xyz
x,y,z
-x,-y,-z
loop_
_atom_site_type_symbol
_atom_site_label
_atom_site_fract_x
_atom_site_fract_y
_atom_site_fract_z
Si Si1 0.084612 0.728775 0.081752
Si Si2 0.284579 0.139222 0.346146
Si Si3 0.490844 0.368070 0.673765
Si Si4 0.311157 0.811361 0.979198
Si Si5 0.308337 0.103428 0.728108
Si Si6 0.107753 0.639729 0.559765
Si Si7 0.657604 0.635033 0.673440
Si Si8 0.419004 0.686401 0.667520
O O1 0.100441 0.650472 0.374462
O O2 0.181569 0.564764 0.170657
O O3 0.875783 0.877761 0.031659
O O4 0.209985 0.795554 0.779438
O O5 0.300804 0.143669 0.488639
O O6 0.087151 0.303598 0.235551
O O7 0.488510 0.061592 0.174300
O O8 0.255160 0.992476 0.641606
O O9 0.500000 0.500000 0.500000
O O10 0.614105 0.201035 0.936234
O O11 0.276732 0.459904 0.754822
O O12 0.568105 0.330705 0.485304
O O13 0.167516 0.766817 0.260454
O O14 0.490244 0.673276 0.920721
O O15 0.279582 0.261998 0.538359
O O16 0.552710 0.721839 0.490886
O O17 0.500000 0.500000 0.000000
#
# Coordination Sequence:
#
# PCOD9090174 Si02
#       8
#     2   2   2   2   2   2   2   2
#     4  10  16  28  50  80 104 126 171 219 258 290
#     4   9  19  33  49  72 107 140 176 210 247 305
#     4  10  18  29  50  85 109 128 162 219 269 300
#     4  10  19  31  51  83 108 130 167 218 266 300
#     4   9  19  31  49  75  98 141 178 218 237 300
#     4  10  16  29  51  79 102 134 169 209 260 304
#     4  10  17  30  51  81 104 131 173 215 258 302
#     4  10  16  29  50  82 103 130 164 219 256 306
#
# _framework density 24.207191999999999
#
# number of rings (size 3 to 8) (size 9 to 14) (size 15 to 20)
#    0.000    2.250    3.750    3.000    0.000    0.000 
#    0.000    0.000    0.000   22.500   45.500    0.000 
#    0.000    0.000    0.000    0.000    0.000    0.000 
#
# Total GULP energy -89258.386129 kJ/mol
# GULP energy per Si atom -5578.649133 kJ/mol
# Density = 2.415209 g / cm^3
# Si number density = 24.207192 Si / 1000 Ang^3
#
#
#
# Elastic Constant Matrix: (Units=GPa)
#
#
# Indices 1 2 3 4 5 6 
#
# 1 92.0537 51.1220 22.0026 19.7933 -7.7580 -1.7891
# 2 51.1220 139.9508 21.7262 29.9060 -7.9195 -40.4093
# 3 22.0026 21.7262 36.3197 7.0551 -2.3075 -7.0300
# 4 19.7933 29.9060 7.0551 26.1756 -4.0022 -18.3806
# 5 -7.7580 -7.9195 -2.3075 -4.0022 45.1267 13.1849
# 6 -1.7891 -40.4093 -7.0300 -18.3806 13.1849 51.3557
#
#
#
# Elastic Compliance Matrix: (Units=1/GPa)
#
#
# Indices 1 2 3 4 5 6 
#
# 1 0.018475 -0.005800 -0.007123 -0.011971 0.003691 -0.010128
# 2 -0.005800 0.012782 -0.001806 -0.003922 -0.001720 0.008646
# 3 -0.007123 -0.001806 0.033396 0.000677 -0.000749 0.003337
# 4 -0.011971 -0.003922 0.000677 0.065771 -0.002984 0.020895
# 5 0.003691 -0.001720 -0.000749 -0.002984 0.024746 -0.008749
# 6 -0.010128 0.008646 0.003337 0.020895 -0.008749 0.036104
#
#
# Mechanical properties :
#
#
# Convention : Reuss Voigt Hill
#
# Bulk Modulus (GPa) = 28.41406 50.89176 39.65291
# Shear Modulus (GPa) = 21.50881 36.09647 28.80264
#
# Velocity S-wave (km/s) = 2.98406 3.86573 3.45315
# Velocity P-wave (km/s) = 4.86170 6.40267 5.68464
#
# Compressibility (1/GPa) = 0.03519385
#
# Stress axis : x y z
#
# Youngs Moduli (GPa) = 54.12669 78.23688 29.94405
#
# Poissons Ratio (x) = 0.45379 0.21329
# Poissons Ratio (y) = 0.31395 0.05408
# Poissons Ratio (z) = 0.38555 0.14130
#
# Static dielectric constant tensor:
#      x y z
#    x 2.002130 -0.003490 -0.034790 
#    y -0.003490 2.015120 -0.041040 
#    z -0.034790 -0.041040 1.996600 
# 
# From -- ./inp_files/302887.got.cif
#   From: 2010.05.17/outbox.cif.g08.bks.cpg/sg2_152_cif.got.tgz:302887.got - 2010.06.03 11:33:40.
