data_PCOD9090556
_publ_section_title
;
Structure prediction by ZEFSAII (Michael W. Deem and Ramdas Pophale) SiO2 
 PCOD9090556
Probable space group: P -1
;
_chemical_formula_sum "Si O2"
_cell_formula_units_Z 16
_cell_length_a 15.408097
_cell_length_b 9.273638
_cell_length_c 14.383111
_cell_angle_alpha 65.986677
_cell_angle_beta 41.612797
_cell_angle_gamma 34.809554
_cell_volume 652.835060
_symmetry_space_group_name_H-M "P -1"
_symmetry_group_IT_number 2
_symmetry_cell_setting 'triclinic'
loop_
_space_group_symop_operation_xyz
x,y,z
-x,-y,-z
loop_
_atom_site_type_symbol
_atom_site_label
_atom_site_fract_x
_atom_site_fract_y
_atom_site_fract_z
Si Si1 0.834533 0.293747 0.401134
Si Si2 0.453043 0.687207 0.914144
Si Si3 0.378600 0.269357 0.938146
Si Si4 0.217491 0.122514 0.135183
Si Si5 0.280614 0.277947 0.332002
Si Si6 0.769376 0.141294 0.346901
Si Si7 0.631404 0.367405 0.204477
Si Si8 0.523360 0.079193 0.552581
O O1 0.935662 0.056613 0.312016
O O2 0.636896 0.416353 0.596166
O O3 0.707178 0.563063 0.369321
O O4 0.039466 0.187736 0.317033
O O5 0.685708 0.568916 0.746697
O O6 0.361978 0.714110 0.881368
O O7 0.500000 0.500000 0.000000
O O8 0.248170 0.013827 0.038515
O O9 0.335539 0.479165 0.869189
O O10 0.516892 0.162651 0.951668
O O11 0.576251 0.967735 0.797701
O O12 0.159997 0.367142 0.107155
O O13 0.000000 0.500000 0.500000
O O14 0.438968 0.073206 0.351434
O O15 0.500000 0.500000 0.500000
O O16 0.811575 0.130833 0.207212
O O17 0.745261 0.978961 0.414414
O O18 0.500000 0.000000 0.500000
#
# Coordination Sequence:
#
# PCOD9090556 Si02
#       8
#     2   2   2   2   2   2   2   2
#     4  10  21  39  67  90 119 161 217 251 308 375
#     4  11  23  41  56  91 130 163 196 261 314 363
#     4  10  21  39  60  85 132 164 203 251 320 360
#     4  10  23  40  59  88 128 170 199 257 314 370
#     4  11  24  39  65  93 121 162 215 253 306 373
#     4   8  17  35  60  89 118 154 197 257 305 356
#     4  10  19  38  67  88 119 163 210 252 308 366
#     4  10  20  38  60  93 129 154 197 270 314 352
#
# _framework density 24.508489000000001
#
# number of rings (size 3 to 8) (size 9 to 14) (size 15 to 20)
#    0.000    2.250    1.250    3.750    3.500    2.500 
#    0.000    7.500    0.000    0.000    0.000    0.000 
#    0.000    0.000    0.000    0.000    0.000    0.000 
#
# Total GULP energy -89279.494468 kJ/mol
# GULP energy per Si atom -5579.968404 kJ/mol
# Density = 2.445271 g / cm^3
# Si number density = 24.508489 Si / 1000 Ang^3
#
#
#
# Elastic Constant Matrix: (Units=GPa)
#
#
# Indices 1 2 3 4 5 6 
#
# 1 146.6524 33.6013 59.3987 -10.9791 3.7234 27.3503
# 2 33.6013 86.8430 41.9304 -31.7470 -0.0718 15.4777
# 3 59.3987 41.9304 105.2075 -31.7039 -17.9011 13.0409
# 4 -10.9791 -31.7470 -31.7039 44.9813 5.5394 -2.7838
# 5 3.7234 -0.0718 -17.9011 5.5394 60.7626 -19.3078
# 6 27.3503 15.4777 13.0409 -2.7838 -19.3078 28.7493
#
#
#
# Elastic Compliance Matrix: (Units=1/GPa)
#
#
# Indices 1 2 3 4 5 6 
#
# 1 0.012113 0.000504 -0.007049 -0.001632 -0.006931 -0.013410
# 2 0.000504 0.019532 -0.004341 0.010854 -0.006115 -0.012082
# 3 -0.007049 -0.004341 0.017822 0.007305 0.007044 0.006397
# 4 -0.001632 0.010854 0.007305 0.034612 -0.002850 -0.006167
# 5 -0.006931 -0.006115 0.007044 -0.002850 0.027013 0.024556
# 6 -0.013410 -0.012082 0.006397 -0.006167 0.024556 0.067039
#
#
# Mechanical properties :
#
#
# Convention : Reuss Voigt Hill
#
# Bulk Modulus (GPa) = 36.10673 67.61818 51.86246
# Shear Modulus (GPa) = 23.90812 40.48348 32.19580
#
# Velocity S-wave (km/s) = 3.12669 4.06866 3.62838
# Velocity P-wave (km/s) = 5.27250 7.05135 6.22579
#
# Compressibility (1/GPa) = 0.02769566
#
# Stress axis : x y z
#
# Youngs Moduli (GPa) = 82.55612 51.19740 56.11095
#
# Poissons Ratio (x) = -0.02582 0.39550
# Poissons Ratio (y) = -0.04163 0.24360
# Poissons Ratio (z) = 0.58190 0.22227
#
# Static dielectric constant tensor:
#      x y z
#    x 2.229000 -0.155960 0.036050 
#    y -0.155960 2.035540 -0.044950 
#    z 0.036050 -0.044950 2.321090 
# 
# From -- ./inp_files/528252.got.cif
#   From: 2010.05.17/outbox.cif.g08.bks.cpg/sg2_265_cif.got.tgz:528252.got - 2010.06.03 11:33:40.
