data_PCOD9090172
_publ_section_title
;
Structure prediction by ZEFSAII (Michael W. Deem and Ramdas Pophale) SiO2 
 PCOD9090172
Probable space group: P -1
;
_chemical_formula_sum "Si O2"
_cell_formula_units_Z 14
_cell_length_a 24.501330
_cell_length_b 8.715443
_cell_length_c 18.311058
_cell_angle_alpha 42.006942
_cell_angle_beta 159.214958
_cell_angle_gamma 148.687616
_cell_volume 687.470896
_symmetry_space_group_name_H-M "P -1"
_symmetry_group_IT_number 2
_symmetry_cell_setting 'triclinic'
loop_
_space_group_symop_operation_xyz
x,y,z
-x,-y,-z
loop_
_atom_site_type_symbol
_atom_site_label
_atom_site_fract_x
_atom_site_fract_y
_atom_site_fract_z
Si Si1 0.181467 0.857511 0.124684
Si Si2 0.881252 0.786138 0.322587
Si Si3 0.080554 0.434732 0.398500
Si Si4 0.988714 0.793665 0.222662
Si Si5 0.255611 0.185765 0.539038
Si Si6 0.374731 0.776144 0.515125
Si Si7 0.376792 0.642516 0.976679
O O1 0.284695 0.909413 0.314907
O O2 0.379403 0.009202 0.264851
O O3 0.000000 0.500000 0.000000
O O4 0.092402 0.028484 0.953624
O O5 0.877870 0.627698 0.446832
O O6 0.685581 0.533970 0.115575
O O7 0.917120 0.088016 0.282692
O O8 0.083788 0.940244 0.470794
O O9 0.287604 0.651063 0.531521
O O10 0.001191 0.616410 0.238623
O O11 0.831670 0.529775 0.178432
O O12 0.206250 0.024571 0.456973
O O13 0.254062 0.455943 0.432594
O O14 0.476075 0.362556 0.787604
O O15 0.500000 0.000000 0.000000
#
# Coordination Sequence:
#
# PCOD9090172 Si02
#       7
#     2   2   2   2   2   2   2
#     4  11  22  42  68  89 114 170 214 264 307 374
#     4   9  21  40  61  87 137 172 201 243 319 376
#     4  10  21  41  62  94 133 165 197 267 313 369
#     4  11  22  38  65  95 127 158 215 264 307 358
#     4  10  19  38  64  89 123 168 211 248 298 384
#     4  10  22  40  65  87 122 161 214 251 320 377
#     4  11  21  36  63  95 124 170 212 249 298 382
#
# _framework density 20.364498999999999
#
# number of rings (size 3 to 8) (size 9 to 14) (size 15 to 20)
#    0.000    1.714    2.857    1.714    0.000    2.857 
#    0.000   19.286    0.000    0.000    0.000    0.000 
#    0.000    0.000    0.000    0.000    0.000    0.000 
#
# Total GULP energy -78005.768850 kJ/mol
# GULP energy per Si atom -5571.840632 kJ/mol
# Density = 2.031815 g / cm^3
# Si number density = 20.364499 Si / 1000 Ang^3
#
#
#
# Elastic Constant Matrix: (Units=GPa)
#
#
# Indices 1 2 3 4 5 6 
#
# 1 60.8220 42.3898 37.1368 4.6585 8.6369 -7.4753
# 2 42.3898 118.1097 50.3346 0.2267 11.5117 -3.8343
# 3 37.1368 50.3346 98.2318 7.7046 -8.8955 -14.2711
# 4 4.6585 0.2267 7.7046 26.8104 -5.0598 7.4122
# 5 8.6369 11.5117 -8.8955 -5.0598 20.3179 1.4212
# 6 -7.4753 -3.8343 -14.2711 7.4122 1.4212 33.8341
#
#
#
# Elastic Compliance Matrix: (Units=1/GPa)
#
#
# Indices 1 2 3 4 5 6 
#
# 1 0.028017 -0.004962 -0.008271 -0.006348 -0.014590 0.004143
# 2 -0.004962 0.013589 -0.006247 0.001700 -0.007745 -0.002238
# 3 -0.008271 -0.006247 0.018792 -0.002715 0.014230 0.005388
# 4 -0.006348 0.001700 -0.002715 0.045088 0.012668 -0.012765
# 5 -0.014590 -0.007745 0.014230 0.012668 0.069458 -0.003792
# 6 0.004143 -0.002238 0.005388 -0.012765 -0.003792 0.035446
#
#
# Mechanical properties :
#
#
# Convention : Reuss Voigt Hill
#
# Bulk Modulus (GPa) = 46.64532 59.65398 53.14965
# Shear Modulus (GPa) = 19.49362 26.01265 22.75314
#
# Velocity S-wave (km/s) = 3.09728 3.57788 3.34622
# Velocity P-wave (km/s) = 5.97878 6.81359 6.40979
#
# Compressibility (1/GPa) = 0.02143838
#
# Stress axis : x y z
#
# Youngs Moduli (GPa) = 35.69296 73.59059 53.21397
#
# Poissons Ratio (x) = 0.36514 0.44012
# Poissons Ratio (y) = 0.17710 0.33242
# Poissons Ratio (z) = 0.29521 0.45972
#
# Static dielectric constant tensor:
#      x y z
#    x 1.734600 -0.003740 -0.007350 
#    y -0.003740 1.799680 -0.081680 
#    z -0.007350 -0.081680 1.814910 
# 
# From -- ./inp_files/78068.got.cif
#   From: 2010.05.17/outbox.cif.g08.bks.cpg/sg2_40_cif.got.tgz:78068.got - 2010.06.03 11:33:40.
