data_PCOD9090956
_publ_section_title
;
Structure prediction by ZEFSAII (Michael W. Deem and Ramdas Pophale) SiO2 
 PCOD9090956
Probable space group: P -1
;
_chemical_formula_sum "Si O2"
_cell_formula_units_Z 16
_cell_length_a 8.840468
_cell_length_b 8.874283
_cell_length_c 17.673544
_cell_angle_alpha 96.534832
_cell_angle_beta 127.383544
_cell_angle_gamma 121.835586
_cell_volume 716.835249
_symmetry_space_group_name_H-M "P -1"
_symmetry_group_IT_number 2
_symmetry_cell_setting 'triclinic'
loop_
_space_group_symop_operation_xyz
x,y,z
-x,-y,-z
loop_
_atom_site_type_symbol
_atom_site_label
_atom_site_fract_x
_atom_site_fract_y
_atom_site_fract_z
Si Si1 0.829172 0.391878 0.804796
Si Si2 0.065501 0.700972 0.320132
Si Si3 0.699463 0.737379 0.407640
Si Si4 0.538902 0.776409 0.518042
Si Si5 0.437908 0.287818 0.303727
Si Si6 0.154292 0.869307 0.100521
Si Si7 0.141349 0.876889 0.921712
Si Si8 0.554301 0.651804 0.957800
O O1 0.814049 0.260722 0.725668
O O2 0.535244 0.311293 0.716036
O O3 0.880534 0.321311 0.889554
O O4 0.069775 0.660228 0.867524
O O5 0.214854 0.653373 0.408149
O O6 0.721340 0.506405 0.191126
O O7 0.222087 0.947930 0.408517
O O8 0.589747 0.692609 0.458984
O O9 0.704095 0.560643 0.382075
O O10 0.000000 0.000000 0.500000
O O11 0.584421 0.749806 0.615514
O O12 0.163370 0.223184 0.191046
O O13 0.395687 0.106702 0.235311
O O14 0.225748 0.918790 0.037487
O O15 0.844081 0.766450 0.011024
O O16 0.367005 0.135013 0.971886
O O17 0.500000 0.500000 0.000000
#
# Coordination Sequence:
#
# PCOD9090956 Si02
#       8
#     2   2   2   2   2   2   2   2
#     4  10  20  41  60  85 125 158 195 243 305 353
#     4  10  20  36  61  91 117 155 198 248 288 349
#     4  10  23  39  61  90 120 152 199 248 292 354
#     4  10  20  38  64  83 120 160 197 238 302 347
#     4  10  19  39  62  86 116 158 199 240 300 355
#     4  11  21  40  64  86 120 164 195 243 308 355
#     4  10  23  37  62  88 122 160 197 245 302 356
#     4  11  20  37  61  89 117 151 205 247 290 352
#
# _framework density 22.320330999999999
#
# number of rings (size 3 to 8) (size 9 to 14) (size 15 to 20)
#    0.000    1.750    2.500    3.000    0.000    3.500 
#    2.250    0.625    0.000    0.000    0.000    0.000 
#    0.000    0.000    0.000    0.000    0.000    0.000 
#
# Total GULP energy -89277.857753 kJ/mol
# GULP energy per Si atom -5579.866110 kJ/mol
# Density = 2.226953 g / cm^3
# Si number density = 22.320331 Si / 1000 Ang^3
#
#
#
# Elastic Constant Matrix: (Units=GPa)
#
#
# Indices 1 2 3 4 5 6 
#
# 1 20.2560 6.4294 14.2732 3.3694 -2.8725 -10.7174
# 2 6.4294 89.9928 39.3935 4.8899 -6.4505 -15.9690
# 3 14.2732 39.3935 101.0543 10.3846 -5.8367 -12.5608
# 4 3.3694 4.8899 10.3846 45.0266 12.4860 -9.3366
# 5 -2.8725 -6.4505 -5.8367 12.4860 29.8174 5.0487
# 6 -10.7174 -15.9690 -12.5608 -9.3366 5.0487 19.1827
#
#
#
# Elastic Compliance Matrix: (Units=1/GPa)
#
#
# Indices 1 2 3 4 5 6 
#
# 1 0.075916 0.005631 -0.008049 0.005907 -0.003231 0.045557
# 2 0.005631 0.015290 -0.005308 0.002022 -0.000316 0.013466
# 3 -0.008049 -0.005308 0.013257 -0.002999 0.002318 -0.002305
# 4 0.005907 0.002022 -0.002999 0.031583 -0.016662 0.022777
# 5 -0.003231 -0.000316 0.002318 -0.016662 0.044017 -0.020245
# 6 0.045557 0.013466 -0.002305 0.022777 -0.020245 0.103699
#
#
# Mechanical properties :
#
#
# Convention : Reuss Voigt Hill
#
# Bulk Modulus (GPa) = 11.23444 36.83282 24.03363
# Shear Modulus (GPa) = 15.20291 28.88580 22.04435
#
# Velocity S-wave (km/s) = 2.61267 3.60133 3.14608
# Velocity P-wave (km/s) = 3.76106 5.81640 4.89776
#
# Compressibility (1/GPa) = 0.08901197
#
# Stress axis : x y z
#
# Youngs Moduli (GPa) = 13.17249 65.40080 75.42995
#
# Poissons Ratio (x) = -0.36827 0.60710
# Poissons Ratio (y) = -0.07417 0.40039
# Poissons Ratio (z) = 0.10602 0.34715
#
# Static dielectric constant tensor:
#      x y z
#    x 1.841840 -0.016320 -0.008620 
#    y -0.016320 1.855700 0.029460 
#    z -0.008620 0.029460 1.855010 
# 
# From -- ./inp_files/226772.got.cif
#   From: 2010.05.17/outbox.cif.g08.bks.cpg/sg2_114_cif.got.tgz:226772.got - 2010.06.03 11:33:40.
