data_PCOD9090170
_publ_section_title
;
Structure prediction by ZEFSAII (Michael W. Deem and Ramdas Pophale) SiO2 
 PCOD9090170
Probable space group: P -1
;
_chemical_formula_sum "Si O2"
_cell_formula_units_Z 14
_cell_length_a 9.258563
_cell_length_b 21.861056
_cell_length_c 21.098806
_cell_angle_alpha 161.093781
_cell_angle_beta 45.809377
_cell_angle_gamma 143.856627
_cell_volume 764.437130
_symmetry_space_group_name_H-M "P -1"
_symmetry_group_IT_number 2
_symmetry_cell_setting 'triclinic'
loop_
_space_group_symop_operation_xyz
x,y,z
-x,-y,-z
loop_
_atom_site_type_symbol
_atom_site_label
_atom_site_fract_x
_atom_site_fract_y
_atom_site_fract_z
Si Si1 0.950419 0.366778 0.174301
Si Si2 0.137331 0.090509 0.200787
Si Si3 0.444028 0.533971 0.641252
Si Si4 0.941767 0.819210 0.493025
Si Si5 0.261694 0.901978 0.604098
Si Si6 0.139664 0.670814 0.184921
Si Si7 0.192360 0.365532 0.967971
O O1 0.708138 0.359970 0.223942
O O2 0.156664 0.640939 0.407226
O O3 0.094016 0.366030 0.068050
O O4 0.866475 0.137196 0.016211
O O5 0.330197 0.301023 0.401249
O O6 0.257623 0.244963 0.250702
O O7 0.858428 0.006838 0.225373
O O8 0.345358 0.406247 0.614468
O O9 0.132882 0.853936 0.525749
O O10 0.997944 0.757349 0.348465
O O11 0.016490 0.081993 0.724811
O O12 0.568079 0.094540 0.692185
O O13 0.150175 0.514664 0.081213
O O14 0.000000 0.500000 0.000000
O O15 0.500000 0.500000 0.000000
#
# Coordination Sequence:
#
# PCOD9090170 Si02
#       7
#     2   2   2   2   2   2   2
#     4  10  16  28  50  79 103 138 171 211 263 304
#     4   9  16  29  47  82 107 130 168 223 256 299
#     4   9  17  27  48  78 114 128 168 216 267 300
#     4  10  19  34  55  79 104 140 180 209 263 316
#     4  10  19  33  53  78 101 140 178 209 257 317
#     4  12  24  37  52  78 111 139 173 227 266 304
#     4  12  19  32  57  77 102 143 180 211 257 316
#
# _framework density 18.314129000000001
#
# number of rings (size 3 to 8) (size 9 to 14) (size 15 to 20)
#    0.000    2.000    7.143    1.714    0.000    0.571 
#    0.000    0.000    0.000    0.857    0.000    2.000 
#    0.000    0.000    0.000    0.000    0.000    0.000 
#
# Total GULP energy -77994.916155 kJ/mol
# GULP energy per Si atom -5571.065440 kJ/mol
# Density = 1.827244 g / cm^3
# Si number density = 18.314129 Si / 1000 Ang^3
#
#
#
# Elastic Constant Matrix: (Units=GPa)
#
#
# Indices 1 2 3 4 5 6 
#
# 1 -5.6742 -4.3282 0.2211 0.7764 -0.6016 -0.3234
# 2 -4.3282 97.0993 16.9328 12.7025 2.3145 -0.2054
# 3 0.2211 16.9328 94.9828 4.5521 -31.2572 -0.2329
# 4 0.7764 12.7025 4.5521 30.3963 -6.5481 -7.6982
# 5 -0.6016 2.3145 -31.2572 -6.5481 24.6781 0.6789
# 6 -0.3234 -0.2054 -0.2329 -7.6982 0.6789 -0.4871
#
#
#
# Elastic Compliance Matrix: (Units=1/GPa)
#
#
# Indices 1 2 3 4 5 6 
#
# 1 -0.168387 -0.008885 0.002071 0.007499 0.001397 -0.001999
# 2 -0.008885 0.011058 -0.004325 -0.001438 -0.007541 0.015527
# 3 0.002071 -0.004325 0.019877 0.002306 0.026481 -0.008593
# 4 0.007499 -0.001438 0.002306 0.007238 0.008144 -0.108504
# 5 0.001397 -0.007541 0.026481 0.008144 0.077809 -0.030670
# 6 -0.001999 0.015527 -0.008593 -0.108504 -0.030670 -0.382001
#
#
# Mechanical properties :
#
#
# Convention : Reuss Voigt Hill
#
# Bulk Modulus (GPa) = -6.26055 23.56214 8.65080
# Shear Modulus (GPa) = -10.74408 22.48960 5.87276
#
# Velocity S-wave (km/s) = -2.42472 3.50807 1.79266
# Velocity P-wave (km/s) = 3.35632 5.41316 3.00311
#
# Compressibility (1/GPa) = -0.15973041
#
# Stress axis : x y z
#
# Youngs Moduli (GPa) = -5.93870 90.43517 50.30861
#
# Poissons Ratio (x) = 0.80356 -0.10421
# Poissons Ratio (y) = -0.05277 0.21759
# Poissons Ratio (z) = 0.01230 0.39114
#
# Static dielectric constant tensor:
#      x y z
#    x 1.554160 -0.060310 0.048830 
#    y -0.060310 1.617870 0.067230 
#    z 0.048830 0.067230 1.573780 
# 
# From -- ./inp_files/221397.got.cif
#   From: 2010.05.17/outbox.cif.g08.bks.cpg/sg2_111_cif.got.tgz:221397.got - 2010.06.03 11:33:40.
