data_PCOD9090336
_publ_section_title
;
Structure prediction by ZEFSAII (Michael W. Deem and Ramdas Pophale) SiO2 
 PCOD9090336
Probable space group: P -1
;
_chemical_formula_sum "Si O2"
_cell_formula_units_Z 14
_cell_length_a 9.149809
_cell_length_b 9.930500
_cell_length_c 7.423670
_cell_angle_alpha 62.437735
_cell_angle_beta 87.499203
_cell_angle_gamma 69.795408
_cell_volume 555.682666
_symmetry_space_group_name_H-M "P -1"
_symmetry_group_IT_number 2
_symmetry_cell_setting 'triclinic'
loop_
_space_group_symop_operation_xyz
x,y,z
-x,-y,-z
loop_
_atom_site_type_symbol
_atom_site_label
_atom_site_fract_x
_atom_site_fract_y
_atom_site_fract_z
Si Si1 0.819665 0.534143 0.942960
Si Si2 0.180609 0.386274 0.522552
Si Si3 0.460568 0.168724 0.137982
Si Si4 0.886325 0.898955 0.401335
Si Si5 0.619370 0.097331 0.558508
Si Si6 0.224670 0.776994 0.988109
Si Si7 0.222068 0.676976 0.454654
O O1 0.795750 0.594646 0.701164
O O2 0.700580 0.680331 0.974618
O O3 0.774505 0.373489 0.043382
O O4 0.000000 0.500000 0.000000
O O5 0.196255 0.199964 0.656217
O O6 0.271689 0.482381 0.565691
O O7 0.000000 0.500000 0.500000
O O8 0.503850 0.153850 0.359728
O O9 0.435301 0.997773 0.224757
O O10 0.606928 0.202565 0.026391
O O11 0.059327 0.770021 0.511900
O O12 0.780402 0.970055 0.538763
O O13 0.889989 0.054300 0.195928
O O14 0.650467 0.253830 0.527807
O O15 0.180404 0.739564 0.212442
#
# Coordination Sequence:
#
# PCOD9090336 Si02
#       7
#     2   2   2   2   2   2   2
#     4  11  23  41  66  93 124 163 212 257 308 370
#     4   9  20  39  58  91 128 156 201 260 311 354
#     4  10  22  42  62  90 130 166 207 251 311 379
#     4  10  19  38  65  90 127 166 211 258 298 372
#     4  10  21  38  68  89 121 170 212 252 303 373
#     4  10  23  39  62  93 132 164 199 262 319 362
#     4  10  21  37  62  97 126 158 211 261 314 354
#
# _framework density 25.194234000000002
#
# number of rings (size 3 to 8) (size 9 to 14) (size 15 to 20)
#    0.000    2.000    1.429    1.286    2.000    5.143 
#    0.000    4.286    0.000    0.000    0.000    0.000 
#    0.000    0.000    0.000    0.000    0.000    0.000 
#
# Total GULP energy -78317.506896 kJ/mol
# GULP energy per Si atom -5594.107635 kJ/mol
# Density = 2.513689 g / cm^3
# Si number density = 25.194234 Si / 1000 Ang^3
#
#
#
# Elastic Constant Matrix: (Units=GPa)
#
#
# Indices 1 2 3 4 5 6 
#
# 1 102.3319 33.8458 8.4482 -4.2482 -11.3199 2.6347
# 2 33.8458 91.5384 9.7412 -27.2752 -8.2570 35.4286
# 3 8.4482 9.7412 86.2193 -10.2344 -17.9438 2.5002
# 4 -4.2482 -27.2752 -10.2344 27.5588 5.8947 -18.0995
# 5 -11.3199 -8.2570 -17.9438 5.8947 31.6358 -6.5349
# 6 2.6347 35.4286 2.5002 -18.0995 -6.5349 56.7801
#
#
#
# Elastic Compliance Matrix: (Units=1/GPa)
#
#
# Indices 1 2 3 4 5 6 
#
# 1 0.012012 -0.006088 -0.000175 -0.003322 0.003771 0.002624
# 2 -0.006088 0.020434 -0.000036 0.014227 -0.001183 -0.008067
# 3 -0.000175 -0.000036 0.013601 0.004588 0.007142 0.001716
# 4 -0.003322 0.014227 0.004588 0.058470 -0.003853 0.009270
# 5 0.003771 -0.001183 0.007142 -0.003853 0.038123 0.003408
# 6 0.002624 -0.008067 0.001716 0.009270 0.003408 0.025795
#
#
# Mechanical properties :
#
#
# Convention : Reuss Voigt Hill
#
# Bulk Modulus (GPa) = 29.89559 42.68443 36.29001
# Shear Modulus (GPa) = 26.01711 38.39856 32.20784
#
# Velocity S-wave (km/s) = 3.21699 3.90821 3.57932
# Velocity P-wave (km/s) = 5.06858 6.11101 5.61404
#
# Compressibility (1/GPa) = 0.03344975
#
# Stress axis : x y z
#
# Youngs Moduli (GPa) = 83.25156 48.93887 73.52559
#
# Poissons Ratio (x) = 0.29794 0.01285
# Poissons Ratio (y) = 0.50683 0.00261
# Poissons Ratio (z) = 0.01455 0.00174
#
# Static dielectric constant tensor:
#      x y z
#    x 2.047670 0.030820 -0.030630 
#    y 0.030820 2.023820 -0.005040 
#    z -0.030630 -0.005040 1.989010 
# 
# From -- ./inp_files/156610.got.cif
#   From: 2010.05.17/outbox.cif.g08.bks.cpg/sg2_79_cif.got.tgz:156610.got - 2010.06.03 11:33:40.
