data_PCOD9090716
_publ_section_title
;
Structure prediction by ZEFSAII (Michael W. Deem and Ramdas Pophale) SiO2 
 PCOD9090716
Probable space group: P -1
;
_chemical_formula_sum "Si O2"
_cell_formula_units_Z 16
_cell_length_a 9.189444
_cell_length_b 11.672893
_cell_length_c 18.002195
_cell_angle_alpha 148.729183
_cell_angle_beta 119.946022
_cell_angle_gamma 48.246292
_cell_volume 735.467443
_symmetry_space_group_name_H-M "P -1"
_symmetry_group_IT_number 2
_symmetry_cell_setting 'triclinic'
loop_
_space_group_symop_operation_xyz
x,y,z
-x,-y,-z
loop_
_atom_site_type_symbol
_atom_site_label
_atom_site_fract_x
_atom_site_fract_y
_atom_site_fract_z
Si Si1 0.699791 0.800379 0.779755
Si Si2 0.528499 0.390005 0.029356
Si Si3 0.780676 0.276753 0.740045
Si Si4 0.863927 0.927911 0.376416
Si Si5 0.133272 0.522820 0.779120
Si Si6 0.295242 0.152196 0.489469
Si Si7 0.459048 0.512955 0.358184
Si Si8 0.217247 0.414470 0.479543
O O1 0.584261 0.702145 0.744673
O O2 0.762252 0.628838 0.625889
O O3 0.899108 0.733592 0.837157
O O4 0.579375 0.097057 0.887423
O O5 0.336597 0.564197 0.129041
O O6 0.717225 0.394450 0.111042
O O7 0.500000 0.500000 0.000000
O O8 0.627243 0.405951 0.702686
O O9 0.992672 0.227734 0.742764
O O10 0.821180 0.989669 0.604279
O O11 0.830863 0.727031 0.302770
O O12 0.668390 0.214951 0.475938
O O13 0.000000 0.000000 0.500000
O O14 0.185200 0.429154 0.655094
O O15 0.340429 0.152335 0.414954
O O16 0.500000 0.000000 0.500000
O O17 0.686169 0.424439 0.379382
O O18 0.000000 0.500000 0.500000
#
# Coordination Sequence:
#
# PCOD9090716 Si02
#       8
#     2   2   2   2   2   2   2   2
#     4  12  26  45  64  96 145 183 220 277 350 406
#     4  12  29  46  64  96 141 188 232 278 332 414
#     4  11  21  40  71  98 128 179 233 270 337 404
#     4  10  19  38  73 105 128 163 228 286 341 407
#     4  12  21  44  69  97 133 181 228 281 344 394
#     4  12  19  37  71  99 128 171 226 281 329 396
#     4  11  22  44  71 104 137 173 220 291 349 398
#     4  12  25  39  66 109 139 168 222 287 344 396
#
# _framework density 21.75487
#
# number of rings (size 3 to 8) (size 9 to 14) (size 15 to 20)
#    0.000    0.500    8.750    1.500    1.750    0.500 
#    0.000    0.625    0.000    0.000    0.000    0.000 
#    0.000    0.000    0.000    0.000    0.000    0.000 
#
# Total GULP energy -89349.644854 kJ/mol
# GULP energy per Si atom -5584.352803 kJ/mol
# Density = 2.170536 g / cm^3
# Si number density = 21.754870 Si / 1000 Ang^3
#
#
#
# Elastic Constant Matrix: (Units=GPa)
#
#
# Indices 1 2 3 4 5 6 
#
# 1 132.6097 28.5786 36.8685 3.2820 -1.6613 9.4828
# 2 28.5786 73.7979 25.6187 2.0557 0.8919 8.2318
# 3 36.8685 25.6187 62.0367 8.7580 -4.5044 11.9165
# 4 3.2820 2.0557 8.7580 25.6197 6.9567 0.3590
# 5 -1.6613 0.8919 -4.5044 6.9567 31.3470 5.3698
# 6 9.4828 8.2318 11.9165 0.3590 5.3698 42.6454
#
#
#
# Elastic Compliance Matrix: (Units=1/GPa)
#
#
# Indices 1 2 3 4 5 6 
#
# 1 0.009286 -0.001917 -0.004772 0.000662 -0.000228 -0.000338
# 2 -0.001917 0.016372 -0.005735 0.001319 -0.001521 -0.000951
# 3 -0.004772 -0.005735 0.024018 -0.008750 0.006203 -0.005251
# 4 0.000662 0.001319 -0.008750 0.044988 -0.011783 0.003148
# 5 -0.000228 -0.001521 0.006203 -0.011783 0.036446 -0.005879
# 6 -0.000338 -0.000951 -0.005251 0.003148 -0.005879 0.025889
#
#
# Mechanical properties :
#
#
# Convention : Reuss Voigt Hill
#
# Bulk Modulus (GPa) = 40.27986 50.06399 45.17193
# Shear Modulus (GPa) = 26.29876 31.74765 29.02320
#
# Velocity S-wave (km/s) = 3.48065 3.82427 3.65650
# Velocity P-wave (km/s) = 5.89141 6.52402 6.21577
#
# Compressibility (1/GPa) = 0.02482630
#
# Stress axis : x y z
#
# Youngs Moduli (GPa) = 107.69188 61.08066 41.63522
#
# Poissons Ratio (x) = 0.11712 0.19868
# Poissons Ratio (y) = 0.20649 0.23880
# Poissons Ratio (z) = 0.51389 0.35033
#
# Static dielectric constant tensor:
#      x y z
#    x 1.849140 -0.037400 -0.019620 
#    y -0.037400 1.899890 0.008610 
#    z -0.019620 0.008610 1.803230 
# 
# From -- ./inp_files/308262.got.cif
#   From: 2010.05.17/outbox.cif.g08.bks.cpg/sg2_155_cif.got.tgz:308262.got - 2010.06.03 11:33:40.
