data_PCOD9090645
_publ_section_title
;
Structure prediction by ZEFSAII (Michael W. Deem and Ramdas Pophale) SiO2 
 PCOD9090645
Probable space group: P -1
;
_chemical_formula_sum "Si O2"
_cell_formula_units_Z 16
_cell_length_a 15.106406
_cell_length_b 7.784696
_cell_length_c 11.297167
_cell_angle_alpha 74.154249
_cell_angle_beta 37.919233
_cell_angle_gamma 58.023295
_cell_volume 665.341610
_symmetry_space_group_name_H-M "P -1"
_symmetry_group_IT_number 2
_symmetry_cell_setting 'triclinic'
loop_
_space_group_symop_operation_xyz
x,y,z
-x,-y,-z
loop_
_atom_site_type_symbol
_atom_site_label
_atom_site_fract_x
_atom_site_fract_y
_atom_site_fract_z
Si Si1 0.492788 0.028830 0.829801
Si Si2 0.221110 0.695123 0.588505
Si Si3 0.614880 0.353936 0.253594
Si Si4 0.878253 0.334047 0.564846
Si Si5 0.362582 0.714570 0.035275
Si Si6 0.238196 0.259317 0.226348
Si Si7 0.277800 0.006695 0.604095
Si Si8 0.045837 0.756013 0.985167
O O1 0.647753 0.942886 0.773824
O O2 0.568489 0.000630 0.625128
O O3 0.419256 0.880310 0.952001
O O4 0.346208 0.247434 0.999832
O O5 0.418135 0.532154 0.447174
O O6 0.196809 0.651478 0.488456
O O7 0.205779 0.914287 0.598594
O O8 0.081300 0.694974 0.821545
O O9 0.649830 0.151142 0.330808
O O10 0.639840 0.320852 0.094220
O O11 0.766613 0.384052 0.131280
O O12 0.820396 0.204541 0.729117
O O13 0.802306 0.549413 0.680402
O O14 0.071933 0.263477 0.363887
O O15 0.500000 0.500000 0.000000
O O16 0.115211 0.224583 0.782709
O O17 0.000000 0.000000 0.000000
#
# Coordination Sequence:
#
# PCOD9090645 Si02
#       8
#     2   2   2   2   2   2   2   2
#     4  11  25  44  65  98 136 177 218 272 332 390
#     4  10  19  38  68  97 128 177 225 261 327 397
#     4  10  20  37  66  97 128 176 222 262 328 391
#     4  11  24  44  67  97 135 171 218 279 321 398
#     4  12  24  42  69  99 134 173 224 266 325 400
#     4  10  25  44  64 100 135 173 216 273 340 381
#     4  10  23  40  63  97 137 172 217 276 326 386
#     4   8  18  37  60  97 131 168 219 271 319 385
#
# _framework density 24.047796999999999
#
# number of rings (size 3 to 8) (size 9 to 14) (size 15 to 20)
#    0.000    2.000    2.500    1.500    7.000    4.000 
#    0.000    0.000    0.000    2.250    0.000    0.000 
#    0.000    0.000    0.000    0.000    0.000    0.000 
#
# Total GULP energy -89363.012924 kJ/mol
# GULP energy per Si atom -5585.188308 kJ/mol
# Density = 2.399306 g / cm^3
# Si number density = 24.047797 Si / 1000 Ang^3
#
#
#
# Elastic Constant Matrix: (Units=GPa)
#
#
# Indices 1 2 3 4 5 6 
#
# 1 103.5811 34.5282 65.7999 -14.0163 20.6927 2.1449
# 2 34.5282 51.8131 49.6126 -10.3022 11.5788 4.0894
# 3 65.7999 49.6126 227.9629 0.3228 17.9945 -13.2791
# 4 -14.0163 -10.3022 0.3228 28.4968 -5.7476 9.1272
# 5 20.6927 11.5788 17.9945 -5.7476 45.4057 -1.6923
# 6 2.1449 4.0894 -13.2791 9.1272 -1.6923 21.8299
#
#
#
# Elastic Compliance Matrix: (Units=1/GPa)
#
#
# Indices 1 2 3 4 5 6 
#
# 1 0.015098 -0.003789 -0.003615 0.007366 -0.003786 -0.006346
# 2 -0.003789 0.033397 -0.006947 0.015057 -0.002750 -0.016618
# 3 -0.003615 -0.006947 0.007505 -0.007381 -0.000143 0.009297
# 4 0.007366 0.015057 -0.007381 0.054353 0.001466 -0.030646
# 5 -0.003786 -0.002750 -0.000143 0.001466 0.024771 0.002107
# 6 -0.006346 -0.016618 0.009297 -0.030646 0.002107 0.068177
#
#
# Mechanical properties :
#
#
# Convention : Reuss Voigt Hill
#
# Bulk Modulus (GPa) = 36.63056 75.91538 56.27297
# Shear Modulus (GPa) = 20.73813 34.70757 27.72285
#
# Velocity S-wave (km/s) = 2.93980 3.80317 3.39901
# Velocity P-wave (km/s) = 5.17578 7.13600 6.23343
#
# Compressibility (1/GPa) = 0.02729961
#
# Stress axis : x y z
#
# Youngs Moduli (GPa) = 66.23463 29.94288 133.24008
#
# Poissons Ratio (x) = 0.11344 0.48161
# Poissons Ratio (y) = 0.25093 0.92563
# Poissons Ratio (z) = 0.23941 0.20802
#
# Static dielectric constant tensor:
#      x y z
#    x 1.888180 0.020760 -0.002260 
#    y 0.020760 2.011810 0.027730 
#    z -0.002260 0.027730 2.060050 
# 
# From -- ./inp_files/447331.got.cif
#   From: 2010.05.17/outbox.cif.g08.bks.cpg/sg2_224_cif.got.tgz:447331.got - 2010.06.03 11:33:40.
