data_PCOD9090258
_publ_section_title
;
Structure prediction by ZEFSAII (Michael W. Deem and Ramdas Pophale) SiO2 
 PCOD9090258
Probable space group: P -1
;
_chemical_formula_sum "Si O2"
_cell_formula_units_Z 16
_cell_length_a 16.330819
_cell_length_b 9.310675
_cell_length_c 11.374914
_cell_angle_alpha 99.933014
_cell_angle_beta 133.599144
_cell_angle_gamma 116.674916
_cell_volume 746.611728
_symmetry_space_group_name_H-M "P -1"
_symmetry_group_IT_number 2
_symmetry_cell_setting 'triclinic'
loop_
_space_group_symop_operation_xyz
x,y,z
-x,-y,-z
loop_
_atom_site_type_symbol
_atom_site_label
_atom_site_fract_x
_atom_site_fract_y
_atom_site_fract_z
Si Si1 0.999303 0.258683 0.527935
Si Si2 0.471018 0.045102 0.751508
Si Si3 0.181278 0.624260 0.573366
Si Si4 0.213710 0.834879 0.004588
Si Si5 0.243541 0.157703 0.952205
Si Si6 0.970170 0.100931 0.729943
Si Si7 0.448103 0.363729 0.811169
Si Si8 0.839591 0.216859 0.786727
O O1 0.866708 0.265552 0.405853
O O2 0.040930 0.251925 0.700635
O O3 0.165505 0.486531 0.640090
O O4 0.884735 0.015932 0.312472
O O5 0.475124 0.216883 0.822699
O O6 0.372473 0.841401 0.723079
O O7 0.327175 0.901183 0.479122
O O8 0.666216 0.179865 0.921151
O O9 0.004036 0.409248 0.281963
O O10 0.290152 0.053006 0.042225
O O11 0.232382 0.883546 0.167668
O O12 0.113831 0.121328 0.902671
O O13 0.419600 0.432027 0.127464
O O14 0.933840 0.177526 0.808010
O O15 0.767559 0.830880 0.458831
O O16 0.500000 0.500000 0.000000
O O17 0.000000 0.500000 0.000000
#
# Coordination Sequence:
#
# PCOD9090258 Si02
#       8
#     2   2   2   2   2   2   2   2
#     4  10  19  38  64  95 128 168 211 260 317 384
#     4  11  23  41  69  98 126 169 217 264 321 381
#     4  10  20  39  63  97 132 159 214 268 319 371
#     4  11  25  43  65  97 128 168 222 266 317 372
#     4  11  25  41  63  95 133 173 209 260 324 386
#     4  11  23  42  65  93 130 173 215 257 323 386
#     4  11  23  40  65  97 133 170 211 255 322 391
#     4  11  22  44  71  91 124 167 219 273 318 370
#
# _framework density 21.430147000000002
#
# number of rings (size 3 to 8) (size 9 to 14) (size 15 to 20)
#    0.000    1.250    5.000    0.750    3.500    2.500 
#    0.000    8.750    0.000    0.000    0.000    0.000 
#    0.000    0.000    0.000    0.000    0.000    0.000 
#
# Total GULP energy -89518.589281 kJ/mol
# GULP energy per Si atom -5594.911830 kJ/mol
# Density = 2.138137 g / cm^3
# Si number density = 21.430147 Si / 1000 Ang^3
#
#
#
# Elastic Constant Matrix: (Units=GPa)
#
#
# Indices 1 2 3 4 5 6 
#
# 1 97.7595 36.4098 35.3041 3.5380 -8.3598 13.2552
# 2 36.4098 82.3316 38.6306 24.9834 11.3179 11.6322
# 3 35.3041 38.6306 82.3407 11.9161 -11.3033 -1.3787
# 4 3.5380 24.9834 11.9161 31.9192 -2.4212 0.9407
# 5 -8.3598 11.3179 -11.3033 -2.4212 25.9794 -3.0751
# 6 13.2552 11.6322 -1.3787 0.9407 -3.0751 30.0927
#
#
#
# Elastic Compliance Matrix: (Units=1/GPa)
#
#
# Indices 1 2 3 4 5 6 
#
# 1 0.014889 -0.007639 -0.002744 0.005986 0.007105 -0.003192
# 2 -0.007639 0.033961 -0.013268 -0.022433 -0.026582 -0.012385
# 3 -0.002744 -0.013268 0.021297 0.003658 0.015544 0.008787
# 4 0.005986 -0.022433 0.003658 0.048071 0.018552 0.006595
# 5 0.007105 -0.026582 0.015544 0.018552 0.062468 0.013661
# 6 -0.003192 -0.012385 0.008787 0.006595 0.013661 0.041017
#
#
# Mechanical properties :
#
#
# Convention : Reuss Voigt Hill
#
# Bulk Modulus (GPa) = 43.77257 53.68008 48.72633
# Shear Modulus (GPa) = 18.07529 27.73739 22.90634
#
# Velocity S-wave (km/s) = 2.90737 3.60156 3.27293
# Velocity P-wave (km/s) = 5.63387 6.51139 6.08846
#
# Compressibility (1/GPa) = 0.02284536
#
# Stress axis : x y z
#
# Youngs Moduli (GPa) = 67.16304 29.44570 46.95388
#
# Poissons Ratio (x) = 0.22494 0.12886
# Poissons Ratio (y) = 0.51306 0.62297
# Poissons Ratio (z) = 0.18432 0.39068
#
# Static dielectric constant tensor:
#      x y z
#    x 1.660160 0.006080 0.055470 
#    y 0.006080 1.791430 0.010000 
#    z 0.055470 0.010000 1.750110 
# 
# From -- ./inp_files/447906.got.cif
#   From: 2010.05.17/outbox.cif.g08.bks.cpg/sg2_224_cif.got.tgz:447906.got - 2010.06.03 11:33:40.
