data_PCOD9090796
_publ_section_title
;
Structure prediction by ZEFSAII (Michael W. Deem and Ramdas Pophale) SiO2 
 PCOD9090796
Probable space group: P -1
;
_chemical_formula_sum "Si O2"
_cell_formula_units_Z 16
_cell_length_a 8.618370
_cell_length_b 15.173956
_cell_length_c 7.719382
_cell_angle_alpha 55.034406
_cell_angle_beta 97.829924
_cell_angle_gamma 115.438831
_cell_volume 738.783290
_symmetry_space_group_name_H-M "P -1"
_symmetry_group_IT_number 2
_symmetry_cell_setting 'triclinic'
loop_
_space_group_symop_operation_xyz
x,y,z
-x,-y,-z
loop_
_atom_site_type_symbol
_atom_site_label
_atom_site_fract_x
_atom_site_fract_y
_atom_site_fract_z
Si Si1 0.447285 0.553400 0.767540
Si Si2 0.949190 0.051452 0.183458
Si Si3 0.251095 0.004359 0.445811
Si Si4 0.443496 0.751023 0.753262
Si Si5 0.186606 0.583310 0.504134
Si Si6 0.502094 0.371172 0.756766
Si Si7 0.138631 0.198416 0.723476
Si Si8 0.146245 0.766812 0.521341
O O1 0.505004 0.691949 0.669202
O O2 0.244222 0.516747 0.739611
O O3 0.509103 0.495924 0.686297
O O4 0.500000 0.500000 0.000000
O O5 0.125211 0.062337 0.292533
O O6 0.829402 0.059569 0.311491
O O7 0.860606 0.917909 0.238540
O O8 0.007102 0.144045 0.928976
O O9 0.439549 0.108624 0.384788
O O10 0.235550 0.908315 0.406283
O O11 0.240610 0.722840 0.733041
O O12 0.481135 0.697103 0.992698
O O13 0.334783 0.609731 0.356795
O O14 0.189861 0.706137 0.432580
O O15 0.000000 0.500000 0.500000
O O16 0.321936 0.287843 0.728562
O O17 0.054874 0.259347 0.507042
#
# Coordination Sequence:
#
# PCOD9090796 Si02
#       8
#     2   2   2   2   2   2   2   2
#     4   9  21  41  64  92 113 157 207 245 298 360
#     4   9  20  35  61  90 122 158 204 251 281 353
#     4  10  19  39  59  90 122 166 198 243 300 353
#     4  10  21  40  61  90 126 157 204 247 300 363
#     4  11  24  44  61  91 124 154 200 256 308 353
#     4  11  22  41  67  86 117 164 202 251 300 354
#     4  10  20  39  60  92 121 156 206 244 297 353
#     4  10  23  39  60  91 126 159 200 245 305 360
#
# _framework density 21.657228
#
# number of rings (size 3 to 8) (size 9 to 14) (size 15 to 20)
#    0.000    2.000    1.250    1.500    3.500    1.000 
#    4.500    8.125    0.000    0.000    0.000    0.000 
#    0.000    0.000    0.000    0.000    0.000    0.000 
#
# Total GULP energy -89164.569256 kJ/mol
# GULP energy per Si atom -5572.785578 kJ/mol
# Density = 2.160794 g / cm^3
# Si number density = 21.657228 Si / 1000 Ang^3
#
#
#
# Elastic Constant Matrix: (Units=GPa)
#
#
# Indices 1 2 3 4 5 6 
#
# 1 114.2311 82.0719 46.5466 4.0949 19.4231 13.8226
# 2 82.0719 154.2567 38.3365 16.6264 -0.9316 -2.0764
# 3 46.5466 38.3365 62.8056 9.1436 11.1162 16.9904
# 4 4.0949 16.6264 9.1436 25.6221 3.6319 10.6323
# 5 19.4231 -0.9316 11.1162 3.6319 32.1541 7.8287
# 6 13.8226 -2.0764 16.9904 10.6323 7.8287 39.2391
#
#
#
# Elastic Compliance Matrix: (Units=1/GPa)
#
#
# Indices 1 2 3 4 5 6 
#
# 1 0.021873 -0.010997 -0.007563 0.010196 -0.010695 -0.005641
# 2 -0.010997 0.014135 -0.002106 -0.010578 0.007284 0.006947
# 3 -0.007563 -0.002106 0.025635 -0.003261 -0.002229 -0.007219
# 4 0.010196 -0.010578 -0.003261 0.052963 -0.007525 -0.015589
# 5 -0.010695 0.007284 -0.002229 -0.007525 0.039572 -0.000738
# 6 -0.005641 0.006947 -0.007219 -0.015589 -0.000738 0.035337
#
#
# Mechanical properties :
#
#
# Convention : Reuss Voigt Hill
#
# Bulk Modulus (GPa) = 49.23754 73.91150 61.57452
# Shear Modulus (GPa) = 21.04226 30.35895 25.70061
#
# Velocity S-wave (km/s) = 3.12044 3.74811 3.44859
# Velocity P-wave (km/s) = 5.98056 7.27551 6.65959
#
# Compressibility (1/GPa) = 0.02030971
#
# Stress axis : x y z
#
# Youngs Moduli (GPa) = 45.71888 70.74704 39.00910
#
# Poissons Ratio (x) = 0.77803 0.29503
# Poissons Ratio (y) = 0.50278 0.08216
# Poissons Ratio (z) = 0.34578 0.14900
#
# Static dielectric constant tensor:
#      x y z
#    x 1.716880 -0.005280 0.092760 
#    y -0.005280 1.798150 0.028180 
#    z 0.092760 0.028180 1.815880 
# 
# From -- ./inp_files/200330.got.cif
#   From: 2010.05.17/outbox.cif.g08.bks.cpg/sg2_101_cif.got.tgz:200330.got - 2010.06.03 11:33:40.
