data_PCOD9090628
_publ_section_title
;
Structure prediction by ZEFSAII (Michael W. Deem and Ramdas Pophale) SiO2 
 PCOD9090628
Probable space group: P -1
;
_chemical_formula_sum "Si O2"
_cell_formula_units_Z 16
_cell_length_a 8.988209
_cell_length_b 5.458840
_cell_length_c 18.168047
_cell_angle_alpha 75.635981
_cell_angle_beta 57.405236
_cell_angle_gamma 83.685760
_cell_volume 727.238444
_symmetry_space_group_name_H-M "P -1"
_symmetry_group_IT_number 2
_symmetry_cell_setting 'triclinic'
loop_
_space_group_symop_operation_xyz
x,y,z
-x,-y,-z
loop_
_atom_site_type_symbol
_atom_site_label
_atom_site_fract_x
_atom_site_fract_y
_atom_site_fract_z
Si Si1 0.720965 0.334917 0.408039
Si Si2 0.080394 0.901293 0.187121
Si Si3 0.331464 0.098955 0.667195
Si Si4 0.352631 0.207393 0.021166
Si Si5 0.027472 0.026333 0.353535
Si Si6 0.621487 0.510184 0.851782
Si Si7 0.188292 0.435606 0.489608
Si Si8 0.356968 0.182460 0.328500
O O1 0.651483 0.104094 0.391288
O O2 0.717575 0.359344 0.496233
O O3 0.931934 0.292553 0.350400
O O4 0.653965 0.604486 0.379693
O O5 0.205430 0.659768 0.170537
O O6 0.158900 0.079170 0.087948
O O7 0.118144 0.985629 0.254882
O O8 0.867263 0.908368 0.244773
O O9 0.478669 0.995604 0.690359
O O10 0.372594 0.334906 0.085903
O O11 0.426235 0.373360 0.921646
O O12 0.500000 0.000000 0.000000
O O13 0.172860 0.025815 0.377645
O O14 0.877244 0.811399 0.426702
O O15 0.627532 0.651638 0.761980
O O16 0.318787 0.354725 0.396575
O O17 0.000000 0.500000 0.500000
#
# Coordination Sequence:
#
# PCOD9090628 Si02
#       8
#     2   2   2   2   2   2   2   2
#     4  11  23  48  63  92 136 184 229 264 326 408
#     4  10  19  38  68  93 125 178 217 268 328 403
#     4  11  27  43  66  98 142 182 218 270 342 397
#     4   9  19  36  67  98 121 162 223 274 328 389
#     4  11  22  42  69  95 130 176 234 277 321 388
#     4  10  20  39  66  96 127 164 223 278 325 392
#     4  12  24  40  71  99 129 176 238 283 327 376
#     4  12  25  41  63 104 133 174 221 290 328 391
#
# _framework density 22.001035999999999
#
# number of rings (size 3 to 8) (size 9 to 14) (size 15 to 20)
#    0.000    1.250    5.000    1.875    1.750    3.000 
#    0.000    0.625    0.000    6.750    0.000    0.000 
#    0.000    0.000    0.000    0.000    0.000    0.000 
#
# Total GULP energy -89091.852728 kJ/mol
# GULP energy per Si atom -5568.240796 kJ/mol
# Density = 2.195096 g / cm^3
# Si number density = 22.001036 Si / 1000 Ang^3
#
#
#
# Elastic Constant Matrix: (Units=GPa)
#
#
# Indices 1 2 3 4 5 6 
#
# 1 102.2862 49.2906 14.0831 9.7785 -11.2552 -29.1660
# 2 49.2906 123.0941 55.9129 26.0834 -1.0646 -26.1456
# 3 14.0831 55.9129 128.3998 6.9406 -18.7649 -8.4743
# 4 9.7785 26.0834 6.9406 51.9990 -6.8881 -2.4862
# 5 -11.2552 -1.0646 -18.7649 -6.8881 17.6146 3.4235
# 6 -29.1660 -26.1456 -8.4743 -2.4862 3.4235 31.9792
#
#
#
# Elastic Compliance Matrix: (Units=1/GPa)
#
#
# Indices 1 2 3 4 5 6 
#
# 1 0.016186 -0.006237 0.003262 0.001726 0.012299 0.009344
# 2 -0.006237 0.017808 -0.008564 -0.008479 -0.016853 0.007746
# 3 0.003262 -0.008564 0.013412 0.004162 0.017883 -0.002064
# 4 0.001726 -0.008479 0.004162 0.024448 0.015362 -0.003999
# 5 0.012299 -0.016853 0.017883 0.015362 0.089884 -0.006252
# 6 0.009344 0.007746 -0.002064 -0.003999 -0.006252 0.045937
#
#
# Mechanical properties :
#
#
# Convention : Reuss Voigt Hill
#
# Bulk Modulus (GPa) = 41.10774 65.81704 53.46239
# Shear Modulus (GPa) = 20.93252 35.95147 28.44199
#
# Velocity S-wave (km/s) = 3.08788 4.04676 3.59939
# Velocity P-wave (km/s) = 5.60699 7.19829 6.45189
#
# Compressibility (1/GPa) = 0.02432632
#
# Stress axis : x y z
#
# Youngs Moduli (GPa) = 61.78224 56.15567 74.56034
#
# Poissons Ratio (x) = 0.35026 -0.24319
# Poissons Ratio (y) = 0.38536 0.63852
# Poissons Ratio (z) = -0.20151 0.48091
#
# Static dielectric constant tensor:
#      x y z
#    x 2.346970 -1.646670 -3.143320 
#    y -1.646670 8.168130 11.024140 
#    z -3.143320 11.024140 21.679950 
# 
# From -- ./inp_files/552558.got.cif
#   From: 2010.05.17/outbox.cif.g08.bks.cpg/sg2_277_cif.got.tgz:552558.got - 2010.06.03 11:33:40.
