data_PCOD9090291
_publ_section_title
;
Structure prediction by ZEFSAII (Michael W. Deem and Ramdas Pophale) SiO2 
 PCOD9090291
Probable space group: P -1
;
_chemical_formula_sum "Si O2"
_cell_formula_units_Z 16
_cell_length_a 11.771230
_cell_length_b 17.187365
_cell_length_c 22.986083
_cell_angle_alpha 160.393775
_cell_angle_beta 146.884887
_cell_angle_gamma 31.920589
_cell_volume 805.942660
_symmetry_space_group_name_H-M "P -1"
_symmetry_group_IT_number 2
_symmetry_cell_setting 'triclinic'
loop_
_space_group_symop_operation_xyz
x,y,z
-x,-y,-z
loop_
_atom_site_type_symbol
_atom_site_label
_atom_site_fract_x
_atom_site_fract_y
_atom_site_fract_z
Si Si1 0.680859 0.819749 0.102413
Si Si2 0.626945 0.350226 0.863325
Si Si3 0.961200 0.592978 0.961258
Si Si4 0.608289 0.496450 0.248714
Si Si5 0.374662 0.688411 0.405016
Si Si6 0.921144 0.795153 0.790072
Si Si7 0.523966 0.114785 0.766014
Si Si8 0.454635 0.339441 0.418340
O O1 0.851199 0.593499 0.049765
O O2 0.625824 0.069530 0.289040
O O3 0.792773 0.804485 0.076793
O O4 0.459750 0.750526 0.954676
O O5 0.519978 0.347155 0.751699
O O6 0.562065 0.179762 0.762015
O O7 0.534071 0.631079 0.044597
O O8 0.890499 0.295352 0.936322
O O9 0.825591 0.419903 0.758994
O O10 0.514349 0.613486 0.352604
O O11 0.867842 0.413237 0.291917
O O12 0.502632 0.578224 0.441151
O O13 0.340224 0.979877 0.597884
O O14 0.787847 0.682295 0.698468
O O15 0.743265 0.930211 0.759664
O O16 0.000000 0.000000 0.000000
O O17 0.500000 0.500000 0.500000
#
# Coordination Sequence:
#
# PCOD9090291 Si02
#       8
#     2   2   2   2   2   2   2   2
#     4   9  18  37  60  82 114 150 192 233 282 350
#     4  10  20  38  58  88 118 148 194 241 277 349
#     4   9  18  36  61  83 109 154 189 230 294 340
#     4  10  19  38  65  84 111 153 200 230 287 348
#     4  10  22  39  58  86 117 150 187 242 290 338
#     4  11  19  39  65  80 109 167 192 225 289 353
#     4  10  22  36  57  88 121 145 192 245 285 337
#     4  11  24  40  55  86 122 148 194 244 282 340
#
# _framework density 19.852530000000002
#
# number of rings (size 3 to 8) (size 9 to 14) (size 15 to 20)
#    0.000    2.000    2.500    3.000    0.000    5.500 
#    6.750    1.250    0.000    0.000    0.000    0.000 
#    0.000    0.000    0.000    0.000    0.000    0.000 
#
# Total GULP energy -89167.571232 kJ/mol
# GULP energy per Si atom -5572.973202 kJ/mol
# Density = 1.980734 g / cm^3
# Si number density = 19.852530 Si / 1000 Ang^3
#
#
#
# Elastic Constant Matrix: (Units=GPa)
#
#
# Indices 1 2 3 4 5 6 
#
# 1 140.8285 41.4055 39.0676 -5.4401 16.5253 12.6332
# 2 41.4055 39.0874 12.5933 -8.9853 0.1151 -11.0925
# 3 39.0676 12.5933 49.9664 -12.2958 -2.4438 2.9997
# 4 -5.4401 -8.9853 -12.2958 20.6962 -2.8976 4.4635
# 5 16.5253 0.1151 -2.4438 -2.8976 27.0331 -9.5480
# 6 12.6332 -11.0925 2.9997 4.4635 -9.5480 31.7405
#
#
#
# Elastic Compliance Matrix: (Units=1/GPa)
#
#
# Indices 1 2 3 4 5 6 
#
# 1 0.027594 -0.035723 -0.016230 -0.015908 -0.030036 -0.028732
# 2 -0.035723 0.079469 0.014155 0.028891 0.043412 0.049649
# 3 -0.016230 0.014155 0.035141 0.023163 0.019274 0.010626
# 4 -0.015908 0.028891 0.023163 0.071283 0.023300 0.011224
# 5 -0.030036 0.043412 0.019274 0.023300 0.075175 0.044642
# 6 -0.028732 0.049649 0.010626 0.011224 0.044642 0.071139
#
#
# Mechanical properties :
#
#
# Convention : Reuss Voigt Hill
#
# Bulk Modulus (GPa) = 15.01381 46.22389 30.61885
# Shear Modulus (GPa) = 10.92657 25.01501 17.97079
#
# Velocity S-wave (km/s) = 2.34858 3.55356 3.01194
# Velocity P-wave (km/s) = 3.86439 6.33808 5.24903
#
# Compressibility (1/GPa) = 0.06660534
#
# Stress axis : x y z
#
# Youngs Moduli (GPa) = 36.23983 12.58357 28.45687
#
# Poissons Ratio (x) = 0.44953 0.46186
# Poissons Ratio (y) = 1.29461 -0.40279
# Poissons Ratio (z) = 0.58818 -0.17811
#
# Static dielectric constant tensor:
#      x y z
#    x 1.766320 -0.011190 -0.000800 
#    y -0.011190 1.688570 -0.015410 
#    z -0.000800 -0.015410 1.733880 
# 
# From -- ./inp_files/277243.got.cif
#   From: 2010.05.17/outbox.cif.g08.bks.cpg/sg2_139_cif.got.tgz:277243.got - 2010.06.03 11:33:40.
