data_PCOD9090387
_publ_section_title
;
Structure prediction by ZEFSAII (Michael W. Deem and Ramdas Pophale) SiO2 
 PCOD9090387
Probable space group: P -1
;
_chemical_formula_sum "Si O2"
_cell_formula_units_Z 16
_cell_length_a 8.225699
_cell_length_b 8.252332
_cell_length_c 15.427719
_cell_angle_alpha 69.671149
_cell_angle_beta 96.277348
_cell_angle_gamma 50.354427
_cell_volume 672.029486
_symmetry_space_group_name_H-M "P -1"
_symmetry_group_IT_number 2
_symmetry_cell_setting 'triclinic'
loop_
_space_group_symop_operation_xyz
x,y,z
-x,-y,-z
loop_
_atom_site_type_symbol
_atom_site_label
_atom_site_fract_x
_atom_site_fract_y
_atom_site_fract_z
Si Si1 0.864022 0.509333 0.412634
Si Si2 0.807215 0.189280 0.528097
Si Si3 0.693840 0.348581 0.774178
Si Si4 0.506752 0.069414 0.246665
Si Si5 0.356543 0.494136 0.062014
Si Si6 0.858554 0.302099 0.294338
Si Si7 0.548060 0.775891 0.591450
Si Si8 0.959996 0.783142 0.854769
O O1 0.757427 0.427229 0.472120
O O2 0.984758 0.333966 0.365816
O O3 0.000000 0.500000 0.500000
O O4 0.685268 0.775747 0.308183
O O5 0.588929 0.240991 0.480358
O O6 0.000000 0.000000 0.500000
O O7 0.962318 0.998065 0.650572
O O8 0.717951 0.368800 0.874585
O O9 0.405602 0.534235 0.716539
O O10 0.746970 0.478699 0.692713
O O11 0.838307 0.064819 0.811967
O O12 0.528105 0.205468 0.153907
O O13 0.546570 0.111241 0.338261
O O14 0.248281 0.185611 0.193501
O O15 0.500000 0.500000 0.000000
O O16 0.113500 0.622061 0.978009
O O17 0.851562 0.374673 0.183806
O O18 0.500000 0.000000 0.500000
#
# Coordination Sequence:
#
# PCOD9090387 Si02
#       8
#     2   2   2   2   2   2   2   2
#     4  11  23  40  70 108 143 190 235 290 358 424
#     4  10  19  38  65  95 141 188 226 285 347 411
#     4  11  23  46  72 103 144 183 237 299 353 429
#     4  11  24  42  68 106 144 180 242 300 348 435
#     4  11  25  46  75 101 138 188 236 305 370 420
#     4  11  22  42  71 102 144 190 234 285 362 422
#     4  11  22  40  67 104 146 187 236 287 349 427
#     4  12  24  46  74 103 139 186 242 302 363 418
#
# _framework density 23.808479999999999
#
# number of rings (size 3 to 8) (size 9 to 14) (size 15 to 20)
#    0.000    1.000    5.000    3.000    1.750    1.000 
#    0.000   12.500    0.000    0.000    0.000    0.000 
#    0.000    0.000    0.000    0.000    0.000    0.000 
#
# Total GULP energy -89112.350628 kJ/mol
# GULP energy per Si atom -5569.521914 kJ/mol
# Density = 2.375429 g / cm^3
# Si number density = 23.808480 Si / 1000 Ang^3
#
#
#
# Elastic Constant Matrix: (Units=GPa)
#
#
# Indices 1 2 3 4 5 6 
#
# 1 94.2075 37.0508 58.4021 5.1702 -5.4005 28.3629
# 2 37.0508 97.4873 52.4851 1.4006 -7.4976 11.5322
# 3 58.4021 52.4851 172.4088 -0.4264 -7.9099 7.8358
# 4 5.1702 1.4006 -0.4264 46.5117 17.8917 -2.4580
# 5 -5.4005 -7.4976 -7.9099 17.8917 42.8764 -7.1865
# 6 28.3629 11.5322 7.8358 -2.4580 -7.1865 32.3563
#
#
#
# Elastic Compliance Matrix: (Units=1/GPa)
#
#
# Indices 1 2 3 4 5 6 
#
# 1 0.019640 -0.002903 -0.005100 -0.002811 -0.000356 -0.015239
# 2 -0.002903 0.013195 -0.002912 -0.000748 0.001520 -0.001172
# 3 -0.005100 -0.002912 0.008281 0.000646 0.000729 0.003714
# 4 -0.002811 -0.000748 0.000646 0.026155 -0.010922 0.002135
# 5 -0.000356 0.001520 0.000729 -0.010922 0.029112 0.005230
# 6 -0.015239 -0.001172 0.003714 0.002135 0.005230 0.045106
#
#
# Mechanical properties :
#
#
# Convention : Reuss Voigt Hill
#
# Bulk Modulus (GPa) = 51.85289 73.33109 62.59199
# Shear Modulus (GPa) = 29.45538 38.75991 34.10764
#
# Velocity S-wave (km/s) = 3.52117 4.03921 3.78906
# Velocity P-wave (km/s) = 6.19338 7.25403 6.74459
#
# Compressibility (1/GPa) = 0.01928533
#
# Stress axis : x y z
#
# Youngs Moduli (GPa) = 50.91671 75.78420 120.76512
#
# Poissons Ratio (x) = 0.22000 0.61588
# Poissons Ratio (y) = 0.14781 0.35172
# Poissons Ratio (z) = 0.25967 0.22072
#
# Static dielectric constant tensor:
#      x y z
#    x 2.104620 0.011400 -0.093910 
#    y 0.011400 1.979580 -0.067790 
#    z -0.093910 -0.067790 2.127700 
# 
# From -- ./inp_files/556072.got.cif
#   From: 2010.05.17/outbox.cif.g08.bks.cpg/sg2_279_cif.got.tgz:556072.got - 2010.06.03 11:33:40.
