data_PCOD9090807
_publ_section_title
;
Structure prediction by ZEFSAII (Michael W. Deem and Ramdas Pophale) SiO2 
 PCOD9090807
Probable space group: P -1
;
_chemical_formula_sum "Si O2"
_cell_formula_units_Z 14
_cell_length_a 12.152838
_cell_length_b 13.995129
_cell_length_c 12.013653
_cell_angle_alpha 147.270253
_cell_angle_beta 120.802301
_cell_angle_gamma 40.537221
_cell_volume 669.304254
_symmetry_space_group_name_H-M "P -1"
_symmetry_group_IT_number 2
_symmetry_cell_setting 'triclinic'
loop_
_space_group_symop_operation_xyz
x,y,z
-x,-y,-z
loop_
_atom_site_type_symbol
_atom_site_label
_atom_site_fract_x
_atom_site_fract_y
_atom_site_fract_z
Si Si1 0.933221 0.385289 0.294383
Si Si2 0.260074 0.923114 0.865071
Si Si3 0.038595 0.112234 0.718025
Si Si4 0.668243 0.922659 0.260044
Si Si5 0.749923 0.689029 0.854387
Si Si6 0.833310 0.585633 0.206356
Si Si7 0.349040 0.479081 0.552133
O O1 0.806584 0.564713 0.300271
O O2 0.825352 0.372771 0.313660
O O3 0.000000 0.500000 0.500000
O O4 0.103882 0.120202 0.067214
O O5 0.166122 0.938118 0.718695
O O6 0.386171 0.647345 0.709329
O O7 0.324904 0.053723 0.987266
O O8 0.146344 0.155627 0.748198
O O9 0.000000 0.000000 0.500000
O O10 0.869155 0.372228 0.944696
O O11 0.682115 0.840662 0.311800
O O12 0.508510 0.213932 0.434179
O O13 0.676852 0.759716 0.011676
O O14 0.698056 0.578013 0.641664
O O15 0.969369 0.506473 0.785760
#
# Coordination Sequence:
#
# PCOD9090807 Si02
#       7
#     2   2   2   2   2   2   2
#     4  10  19  39  60  81 106 153 198 227 272 332
#     4   9  21  35  58  87 107 146 200 226 266 346
#     4   9  19  35  57  83 113 147 185 230 278 331
#     4  10  22  35  53  91 115 141 189 227 290 340
#     4   9  19  38  57  84 112 149 190 224 281 338
#     4   9  19  37  58  79 112 147 197 225 263 349
#     4  12  21  35  61  83 117 151 177 241 288 315
#
# _framework density 20.917242000000002
#
# number of rings (size 3 to 8) (size 9 to 14) (size 15 to 20)
#    0.000    2.857    2.857    2.571    4.000    2.857 
#    2.571    0.000    0.000    4.286    0.000    0.000 
#    0.000    0.000    0.000    0.000    0.000    0.000 
#
# Total GULP energy -78106.850135 kJ/mol
# GULP energy per Si atom -5579.060724 kJ/mol
# Density = 2.086963 g / cm^3
# Si number density = 20.917242 Si / 1000 Ang^3
#
#
#
# Elastic Constant Matrix: (Units=GPa)
#
#
# Indices 1 2 3 4 5 6 
#
# 1 43.1629 7.5819 24.4434 -5.5073 -2.2402 11.3024
# 2 7.5819 93.0617 53.8861 2.2712 16.4864 23.6366
# 3 24.4434 53.8861 92.9039 -16.6121 7.4797 14.6237
# 4 -5.5073 2.2712 -16.6121 37.5243 3.2638 4.8384
# 5 -2.2402 16.4864 7.4797 3.2638 28.7839 0.1964
# 6 11.3024 23.6366 14.6237 4.8384 0.1964 22.3380
#
#
#
# Elastic Compliance Matrix: (Units=1/GPa)
#
#
# Indices 1 2 3 4 5 6 
#
# 1 0.032475 0.007435 -0.009545 0.002435 0.000600 -0.018583
# 2 0.007435 0.024470 -0.012504 -0.002385 -0.009775 -0.020866
# 3 -0.009545 -0.012504 0.021829 0.008802 -0.000264 0.001865
# 4 0.002435 -0.002385 0.008802 0.032920 -0.004386 -0.011563
# 5 0.000600 -0.009775 -0.000264 -0.004386 0.040879 0.010803
# 6 -0.018583 -0.020866 0.001865 -0.011563 0.010803 0.077436
#
#
# Mechanical properties :
#
#
# Convention : Reuss Voigt Hill
#
# Bulk Modulus (GPa) = 20.18309 44.55014 32.36662
# Shear Modulus (GPa) = 18.13223 27.27708 22.70465
#
# Velocity S-wave (km/s) = 2.94744 3.61508 3.29819
# Velocity P-wave (km/s) = 4.61011 6.22652 5.47826
#
# Compressibility (1/GPa) = 0.04954643
#
# Stress axis : x y z
#
# Youngs Moduli (GPa) = 30.79283 40.86712 45.81009
#
# Poissons Ratio (x) = -0.30385 0.43724
# Poissons Ratio (y) = -0.22895 0.57281
# Poissons Ratio (z) = 0.29391 0.51101
#
# Static dielectric constant tensor:
#      x y z
#    x 1.765910 -0.015190 -0.006790 
#    y -0.015190 1.814710 0.024090 
#    z -0.006790 0.024090 1.768830 
# 
# From -- ./inp_files/432108.got.cif
#   From: 2010.05.17/outbox.cif.g08.bks.cpg/sg2_217_cif.got.tgz:432108.got - 2010.06.03 11:33:40.
