data_PCOD9090091
_publ_section_title
;
Structure prediction by ZEFSAII (Michael W. Deem and Ramdas Pophale) SiO2 
 PCOD9090091
Probable space group: P -1
;
_chemical_formula_sum "Si O2"
_cell_formula_units_Z 16
_cell_length_a 9.447007
_cell_length_b 8.325418
_cell_length_c 18.412349
_cell_angle_alpha 85.476947
_cell_angle_beta 128.049214
_cell_angle_gamma 53.917341
_cell_volume 663.291912
_symmetry_space_group_name_H-M "P -1"
_symmetry_group_IT_number 2
_symmetry_cell_setting 'triclinic'
loop_
_space_group_symop_operation_xyz
x,y,z
-x,-y,-z
loop_
_atom_site_type_symbol
_atom_site_label
_atom_site_fract_x
_atom_site_fract_y
_atom_site_fract_z
Si Si1 0.314903 0.366014 0.622842
Si Si2 0.610365 0.629175 0.609193
Si Si3 0.810749 0.769026 0.746232
Si Si4 0.924721 0.158555 0.542957
Si Si5 0.811623 0.211621 0.142014
Si Si6 0.749026 0.948219 0.229368
Si Si7 0.729824 0.312083 0.797287
Si Si8 0.105254 0.318660 0.972090
O O1 0.278711 0.533016 0.545533
O O2 0.445756 0.398102 0.725171
O O3 0.000000 0.500000 0.500000
O O4 0.572037 0.042233 0.710226
O O5 0.611539 0.813184 0.624789
O O6 0.283831 0.801411 0.471912
O O7 0.640201 0.507000 0.698905
O O8 0.919208 0.370788 0.671722
O O9 0.014053 0.758876 0.773866
O O10 0.019921 0.491312 0.868503
O O11 0.000000 0.000000 0.500000
O O12 0.232872 0.001765 0.683869
O O13 0.735343 0.122945 0.174376
O O14 0.500000 0.500000 0.000000
O O15 0.024761 0.980866 0.154691
O O16 0.472537 0.037854 0.110881
O O17 0.916746 0.288708 0.912621
O O18 0.000000 0.500000 0.000000
#
# Coordination Sequence:
#
# PCOD9090091 Si02
#       8
#     2   2   2   2   2   2   2   2
#     4  10  21  39  65  89 125 173 214 259 324 388
#     4   9  20  39  66  93 125 169 220 265 316 393
#     4  10  21  40  65  96 128 168 211 275 332 379
#     4  11  24  43  68  93 132 176 222 270 326 392
#     4  10  19  38  63  93 129 161 210 266 324 379
#     4  11  24  40  67  96 127 176 222 266 326 401
#     4   8  20  37  60  90 123 168 210 262 317 382
#     4  11  24  39  63  96 137 170 222 266 330 404
#
# _framework density 24.122109999999999
#
# number of rings (size 3 to 8) (size 9 to 14) (size 15 to 20)
#    0.000    2.000    1.250    1.875    8.750    1.500 
#    0.000    7.500    0.000    0.000    0.000    0.000 
#    0.000    0.000    0.000    0.000    0.000    0.000 
#
# Total GULP energy -89150.318225 kJ/mol
# GULP energy per Si atom -5571.894889 kJ/mol
# Density = 2.406721 g / cm^3
# Si number density = 24.122110 Si / 1000 Ang^3
#
#
#
# Elastic Constant Matrix: (Units=GPa)
#
#
# Indices 1 2 3 4 5 6 
#
# 1 61.1994 29.0855 32.1591 24.9044 37.2411 21.9016
# 2 29.0855 87.8908 34.5224 15.3482 14.4516 24.6681
# 3 32.1591 34.5224 119.0198 22.0881 43.9733 16.5567
# 4 24.9044 15.3482 22.0881 46.3161 15.5144 20.7954
# 5 37.2411 14.4516 43.9733 15.5144 47.4890 16.8913
# 6 21.9016 24.6681 16.5567 20.7954 16.8913 37.0857
#
#
#
# Elastic Compliance Matrix: (Units=1/GPa)
#
#
# Indices 1 2 3 4 5 6 
#
# 1 0.040750 -0.008191 0.004514 -0.010970 -0.029725 -0.000943
# 2 -0.008191 0.016845 -0.004938 0.002611 0.008375 -0.009441
# 3 0.004514 -0.004938 0.014606 -0.004133 -0.015437 0.003447
# 4 -0.010970 0.002611 -0.004133 0.033210 0.006046 -0.014789
# 5 -0.029725 0.008375 -0.015437 0.006046 0.058032 -0.010946
# 6 -0.000943 -0.009441 0.003447 -0.014789 -0.010946 0.045541
#
#
# Mechanical properties :
#
#
# Convention : Reuss Voigt Hill
#
# Bulk Modulus (GPa) = 18.19121 51.07156 34.63138
# Shear Modulus (GPa) = 20.44683 37.66771 29.05727
#
# Velocity S-wave (km/s) = 2.91458 3.95592 3.47449
# Velocity P-wave (km/s) = 4.34558 6.48720 5.52123
#
# Compressibility (1/GPa) = 0.05497162
#
# Stress axis : x y z
#
# Youngs Moduli (GPa) = 24.53970 59.36545 68.46680
#
# Poissons Ratio (x) = 0.48624 -0.30907
# Poissons Ratio (y) = 0.20100 0.33810
# Poissons Ratio (z) = -0.11078 0.29316
#
# Static dielectric constant tensor:
#      x y z
#    x 2.012380 -0.026240 0.075530 
#    y -0.026240 1.920750 0.034220 
#    z 0.075530 0.034220 2.119830 
# 
# From -- ./inp_files/594131.got.cif
#   From: 2010.05.17/outbox.cif.g08.bks.cpg/sg2_298_cif.got.tgz:594131.got - 2010.06.03 11:33:40.
