data_PCOD9090376
_publ_section_title
;
Structure prediction by ZEFSAII (Michael W. Deem and Ramdas Pophale) SiO2 
 PCOD9090376
Probable space group: P -1
;
_chemical_formula_sum "Si O2"
_cell_formula_units_Z 14
_cell_length_a 12.602338
_cell_length_b 8.869747
_cell_length_c 8.042340
_cell_angle_alpha 86.147995
_cell_angle_beta 57.973025
_cell_angle_gamma 110.552827
_cell_volume 676.311404
_symmetry_space_group_name_H-M "P -1"
_symmetry_group_IT_number 2
_symmetry_cell_setting 'triclinic'
loop_
_space_group_symop_operation_xyz
x,y,z
-x,-y,-z
loop_
_atom_site_type_symbol
_atom_site_label
_atom_site_fract_x
_atom_site_fract_y
_atom_site_fract_z
Si Si1 0.575230 0.773165 0.233340
Si Si2 0.850224 0.340957 0.613273
Si Si3 0.596047 0.111782 0.065558
Si Si4 0.875572 0.025972 0.516001
Si Si5 0.598054 0.737820 0.837046
Si Si6 0.851402 0.856084 0.201840
Si Si7 0.696718 0.520087 0.530689
O O1 0.723813 0.809330 0.184111
O O2 0.439610 0.620406 0.443718
O O3 0.580077 0.959495 0.211962
O O4 0.555017 0.695317 0.068149
O O5 0.891792 0.212219 0.492039
O O6 0.756581 0.407627 0.584333
O O7 0.000000 0.500000 0.500000
O O8 0.753032 0.238097 0.860006
O O9 0.518333 0.226681 0.165217
O O10 0.500000 0.000000 0.000000
O O11 0.735791 0.914286 0.741364
O O12 0.838952 0.950473 0.369268
O O13 0.000000 0.000000 0.500000
O O14 0.650544 0.625035 0.693956
O O15 0.820365 0.668395 0.308398
O O16 0.000000 0.000000 0.000000
#
# Coordination Sequence:
#
# PCOD9090376 Si02
#       7
#     2   2   2   2   2   2   2
#     4  11  20  39  65  92 131 161 210 264 314 374
#     4  12  23  38  66  98 128 155 220 268 309 369
#     4  10  19  38  65  94 126 165 204 263 316 372
#     4  11  22  43  66  92 125 170 211 259 319 385
#     4  10  19  38  68  97 124 164 219 251 316 375
#     4  11  26  42  62  89 130 174 210 255 329 378
#     4  11  23  40  65  97 128 167 215 264 307 375
#
# _framework density 20.700523
#
# number of rings (size 3 to 8) (size 9 to 14) (size 15 to 20)
#    0.000    1.143    5.714    3.429    2.000    0.000 
#    0.000    8.571    0.000    0.000    0.000    0.000 
#    0.000    0.000    0.000    0.000    0.000    0.000 
#
# Total GULP energy -77947.895072 kJ/mol
# GULP energy per Si atom -5567.706791 kJ/mol
# Density = 2.065341 g / cm^3
# Si number density = 20.700523 Si / 1000 Ang^3
#
#
#
# Elastic Constant Matrix: (Units=GPa)
#
#
# Indices 1 2 3 4 5 6 
#
# 1 92.9476 52.9608 22.9180 -5.9507 -16.1559 -9.8784
# 2 52.9608 119.1486 47.7643 -36.1518 -5.6653 -11.2535
# 3 22.9180 47.7643 78.4782 -36.3972 -20.7381 3.4257
# 4 -5.9507 -36.1518 -36.3972 43.5489 7.2519 -14.4086
# 5 -16.1559 -5.6653 -20.7381 7.2519 32.2873 -12.4907
# 6 -9.8784 -11.2535 3.4257 -14.4086 -12.4907 37.4759
#
#
#
# Elastic Compliance Matrix: (Units=1/GPa)
#
#
# Indices 1 2 3 4 5 6 
#
# 1 0.017274 -0.008543 0.000202 -0.005104 0.009671 0.003230
# 2 -0.008543 0.018610 -0.003061 0.015003 -0.003117 0.008346
# 3 0.000202 -0.003061 0.029149 0.022569 0.017460 0.010966
# 4 -0.005104 0.015003 0.022569 0.061040 0.011903 0.028532
# 5 0.009671 -0.003117 0.017460 0.011903 0.052329 0.022035
# 6 0.003230 0.008346 0.010966 0.028532 0.022035 0.047353
#
#
# Mechanical properties :
#
#
# Convention : Reuss Voigt Hill
#
# Bulk Modulus (GPa) = 23.68086 59.76229 41.72158
# Shear Modulus (GPa) = 19.03780 33.79118 26.41449
#
# Velocity S-wave (km/s) = 3.03591 4.04466 3.57603
# Velocity P-wave (km/s) = 4.87376 7.12355 6.10322
#
# Compressibility (1/GPa) = 0.04222819
#
# Stress axis : x y z
#
# Youngs Moduli (GPa) = 57.89022 53.73576 34.30669
#
# Poissons Ratio (x) = 0.45907 -0.00694
# Poissons Ratio (y) = 0.49456 0.10503
# Poissons Ratio (z) = -0.01171 0.16451
#
# Static dielectric constant tensor:
#      x y z
#    x 1.761850 -0.084400 -0.015910 
#    y -0.084400 1.791460 0.067770 
#    z -0.015910 0.067770 1.773090 
# 
# From -- ./inp_files/238254.got.cif
#   From: 2010.05.17/outbox.cif.g08.bks.cpg/sg2_120_cif.got.tgz:238254.got - 2010.06.03 11:33:40.
