data_PCOD9090224
_publ_section_title
;
Structure prediction by ZEFSAII (Michael W. Deem and Ramdas Pophale) SiO2 
 PCOD9090224
Probable space group: P -1
;
_chemical_formula_sum "Si O2"
_cell_formula_units_Z 16
_cell_length_a 9.423358
_cell_length_b 14.831563
_cell_length_c 21.092177
_cell_angle_alpha 19.988808
_cell_angle_beta 122.860290
_cell_angle_gamma 112.827754
_cell_volume 766.341660
_symmetry_space_group_name_H-M "P -1"
_symmetry_group_IT_number 2
_symmetry_cell_setting 'triclinic'
loop_
_space_group_symop_operation_xyz
x,y,z
-x,-y,-z
loop_
_atom_site_type_symbol
_atom_site_label
_atom_site_fract_x
_atom_site_fract_y
_atom_site_fract_z
Si Si1 0.159121 0.300532 0.582164
Si Si2 0.137685 0.479693 0.235618
Si Si3 0.452512 0.878428 0.393363
Si Si4 0.485887 0.189778 0.064756
Si Si5 0.909335 0.332476 0.379080
Si Si6 0.377240 0.450876 0.056992
Si Si7 0.908908 0.152057 0.718687
Si Si8 0.956451 0.706803 0.791643
O O1 0.150735 0.608444 0.398809
O O2 0.037522 0.331947 0.469157
O O3 0.058685 0.198171 0.680086
O O4 0.367181 0.060235 0.778033
O O5 0.345998 0.383665 0.375005
O O6 0.033190 0.321383 0.354723
O O7 0.146326 0.386272 0.226252
O O8 0.008312 0.821275 0.984888
O O9 0.275659 0.805312 0.393535
O O10 0.459380 0.036927 0.223872
O O11 0.420829 0.112649 0.287060
O O12 0.284660 0.382591 0.859398
O O13 0.577290 0.410346 0.961560
O O14 0.868664 0.047320 0.560290
O O15 0.500000 0.500000 0.000000
O O16 0.164039 0.630129 0.867594
O O17 0.000000 0.500000 0.000000
#
# Coordination Sequence:
#
# PCOD9090224 Si02
#       8
#     2   2   2   2   2   2   2   2
#     4  11  26  47  67  96 138 176 223 290 341 387
#     4  12  23  43  71 101 132 180 226 273 335 404
#     4  11  22  42  68 101 132 175 225 279 331 400
#     4  11  22  42  68 101 132 175 225 279 331 400
#     4  12  23  43  71 101 132 180 226 273 335 404
#     4  10  19  38  64  92 134 167 210 266 330 389
#     4  11  26  47  67  96 138 176 223 290 341 387
#     4  12  24  42  69 100 142 176 215 275 341 400
#
# _framework density 20.878416000000001
#
# number of rings (size 3 to 8) (size 9 to 14) (size 15 to 20)
#    0.000    0.750    5.000    3.375    0.000    3.000 
#    0.000    3.750    0.000    0.000    0.000    0.000 
#    0.000    0.000    0.000    0.000    0.000    0.000 
#
# Total GULP energy -89473.306140 kJ/mol
# GULP energy per Si atom -5592.081634 kJ/mol
# Density = 2.083090 g / cm^3
# Si number density = 20.878416 Si / 1000 Ang^3
#
#
#
# Elastic Constant Matrix: (Units=GPa)
#
#
# Indices 1 2 3 4 5 6 
#
# 1 95.9786 -21.7604 55.8952 -40.1709 30.3249 -13.9724
# 2 -21.7604 59.0745 39.3239 -14.6981 -6.4648 -2.9676
# 3 55.8952 39.3239 145.8714 -15.8856 27.9566 -4.2431
# 4 -40.1709 -14.6981 -15.8856 58.4916 -3.4740 12.1699
# 5 30.3249 -6.4648 27.9566 -3.4740 49.4363 1.7236
# 6 -13.9724 -2.9676 -4.2431 12.1699 1.7236 35.1581
#
#
#
# Elastic Compliance Matrix: (Units=1/GPa)
#
#
# Indices 1 2 3 4 5 6 
#
# 1 0.081235 0.070884 -0.040776 0.058866 -0.013841 0.013648
# 2 0.070884 0.085648 -0.042986 0.055966 -0.004424 0.011056
# 3 -0.040776 -0.042986 0.030673 -0.029209 0.000203 -0.006031
# 4 0.058866 0.055966 -0.029209 0.062482 -0.007999 0.003358
# 5 -0.013841 -0.004424 0.000203 -0.007999 0.027617 -0.004435
# 6 0.013648 0.011056 -0.006031 0.003358 -0.004435 0.033127
#
#
# Mechanical properties :
#
#
# Convention : Reuss Voigt Hill
#
# Bulk Modulus (GPa) = 5.82075 49.76019 27.79047
# Shear Modulus (GPa) = 12.38220 43.78159 28.08190
#
# Velocity S-wave (km/s) = 2.43793 4.58425 3.67143
# Velocity P-wave (km/s) = 3.27393 7.20455 5.59572
#
# Compressibility (1/GPa) = 0.17179906
#
# Stress axis : x y z
#
# Youngs Moduli (GPa) = 12.31002 11.67566 32.60213
#
# Poissons Ratio (x) = -0.82761 1.32939
# Poissons Ratio (y) = -0.87258 1.40143
# Poissons Ratio (z) = 0.50195 0.50189
#
# Static dielectric constant tensor:
#      x y z
#    x 1.774990 -0.014180 -0.018420 
#    y -0.014180 1.742150 -0.018320 
#    z -0.018420 -0.018320 1.741870 
# 
# From -- ./inp_files/273405.got.cif
#   From: 2010.05.17/outbox.cif.g08.bks.cpg/sg2_137_cif.got.tgz:273405.got - 2010.06.03 11:33:40.
