data_PCOD9090207
_publ_section_title
;
Structure prediction by ZEFSAII (Michael W. Deem and Ramdas Pophale) SiO2 
 PCOD9090207
Probable space group: P -1
;
_chemical_formula_sum "Si O2"
_cell_formula_units_Z 15
_cell_length_a 15.885484
_cell_length_b 8.787735
_cell_length_c 18.770714
_cell_angle_alpha 138.310546
_cell_angle_beta 26.919449
_cell_angle_gamma 140.331842
_cell_volume 740.549248
_symmetry_space_group_name_H-M "P -1"
_symmetry_group_IT_number 2
_symmetry_cell_setting 'triclinic'
loop_
_space_group_symop_operation_xyz
x,y,z
-x,-y,-z
loop_
_atom_site_type_symbol
_atom_site_label
_atom_site_fract_x
_atom_site_fract_y
_atom_site_fract_z
Si Si1 0.282887 0.323473 0.622110
Si Si2 0.957544 0.020360 0.956576
Si Si3 0.000000 0.500000 0.000000
Si Si4 0.143597 0.827878 0.624029
Si Si5 0.541429 0.846417 0.140245
Si Si6 0.725561 0.708473 0.822480
Si Si7 0.776425 0.915836 0.557179
Si Si8 0.805019 0.678506 0.596253
O O1 0.500000 0.500000 0.500000
O O2 0.172069 0.227998 0.597308
O O3 0.290297 0.084197 0.574402
O O4 0.157617 0.442033 0.806292
O O5 0.062896 0.867942 0.776180
O O6 0.020723 0.287388 0.966431
O O7 0.722286 0.907794 0.079420
O O8 0.000000 0.000000 0.000000
O O9 0.222521 0.605206 0.483035
O O10 0.951776 0.761933 0.693702
O O11 0.396992 0.571468 0.164883
O O12 0.411700 0.016963 0.301096
O O13 0.640570 0.867460 0.994156
O O14 0.713270 0.743195 0.760025
O O15 0.728801 0.758491 0.609588
O O16 0.960401 0.161495 0.520720
#
# Coordination Sequence:
#
# PCOD9090207 Si02
#       8
#     2   2   1   2   2   2   2   2
#     4  11  23  43  68  94 131 183 223 281 339 410
#     4  10  23  43  68  96 131 181 224 282 339 406
#     4  10  24  44  68  92 132 184 226 274 350 392
#     4  10  20  40  68  92 127 178 222 267 350 403
#     4  10  21  39  64  96 126 169 220 277 332 399
#     4  10  19  38  64  91 129 168 216 272 340 395
#     4  11  23  39  64  96 134 170 217 274 338 389
#     4  11  22  38  64  98 129 173 212 273 337 410
#
# _framework density 20.255237000000001
#
# number of rings (size 3 to 8) (size 9 to 14) (size 15 to 20)
#    0.000    1.600    2.667    2.000    1.867    0.533 
#    7.200    0.667    0.000    0.000    0.000    0.000 
#    0.000    0.000    0.000    0.000    0.000    0.000 
#
# Total GULP energy -83532.362512 kJ/mol
# GULP energy per Si atom -5568.824167 kJ/mol
# Density = 2.020914 g / cm^3
# Si number density = 20.255237 Si / 1000 Ang^3
#
#
#
# Elastic Constant Matrix: (Units=GPa)
#
#
# Indices 1 2 3 4 5 6 
#
# 1 98.0257 31.8869 52.6916 -5.2138 29.4839 0.6867
# 2 31.8869 84.3322 33.2527 -7.6400 -0.1979 -3.3474
# 3 52.6916 33.2527 110.5370 1.8589 12.8575 -3.2663
# 4 -5.2138 -7.6400 1.8589 20.7493 -0.7710 4.9516
# 5 29.4839 -0.1979 12.8575 -0.7710 21.9701 -5.6879
# 6 0.6867 -3.3474 -3.2663 4.9516 -5.6879 18.4761
#
#
#
# Elastic Compliance Matrix: (Units=1/GPa)
#
#
# Indices 1 2 3 4 5 6 
#
# 1 0.029400 -0.008209 -0.007621 0.007926 -0.039506 -0.018214
# 2 -0.008209 0.016583 -0.002625 0.003284 0.014480 0.006423
# 3 -0.007621 -0.002625 0.013290 -0.005034 0.003431 0.004562
# 4 0.007926 0.003284 -0.005034 0.055949 -0.010576 -0.018840
# 5 -0.039506 0.014480 0.003431 -0.010576 0.106742 0.040394
# 6 -0.018214 0.006423 0.004562 -0.018840 0.040394 0.074256
#
#
# Mechanical properties :
#
#
# Convention : Reuss Voigt Hill
#
# Bulk Modulus (GPa) = 44.71892 58.72857 51.72374
# Shear Modulus (GPa) = 14.68062 23.91002 19.29532
#
# Velocity S-wave (km/s) = 2.69510 3.43948 3.08978
# Velocity P-wave (km/s) = 5.64007 6.69556 6.19035
#
# Compressibility (1/GPa) = 0.02236190
#
# Stress axis : x y z
#
# Youngs Moduli (GPa) = 34.01363 60.30137 75.24484
#
# Poissons Ratio (x) = 0.49500 0.57347
# Poissons Ratio (y) = 0.27921 0.19755
# Poissons Ratio (z) = 0.25923 0.15832
#
# Static dielectric constant tensor:
#      x y z
#    x 1.697850 0.026890 0.033300 
#    y 0.026890 1.756130 -0.004880 
#    z 0.033300 -0.004880 1.715000 
# 
# From -- ./inp_files/387989.got.cif
#   From: 2010.05.17/outbox.cif.g08.bks.cpg/sg2_194_cif.got.tgz:387989.got - 2010.06.03 11:33:40.
