data_PCOD9090257
_publ_section_title
;
Structure prediction by ZEFSAII (Michael W. Deem and Ramdas Pophale) SiO2 
 PCOD9090257
Probable space group: P -1
;
_chemical_formula_sum "Si O2"
_cell_formula_units_Z 16
_cell_length_a 14.242393
_cell_length_b 7.054241
_cell_length_c 9.176939
_cell_angle_alpha 64.694058
_cell_angle_beta 71.907036
_cell_angle_gamma 113.629792
_cell_volume 621.073981
_symmetry_space_group_name_H-M "P -1"
_symmetry_group_IT_number 2
_symmetry_cell_setting 'triclinic'
loop_
_space_group_symop_operation_xyz
x,y,z
-x,-y,-z
loop_
_atom_site_type_symbol
_atom_site_label
_atom_site_fract_x
_atom_site_fract_y
_atom_site_fract_z
Si Si1 0.498591 0.236551 0.992452
Si Si2 0.182857 0.009457 0.724384
Si Si3 0.201199 0.553616 0.744215
Si Si4 0.459690 0.940729 0.372554
Si Si5 0.953024 0.426335 0.384113
Si Si6 0.910510 0.705923 0.841226
Si Si7 0.764041 0.803117 0.669845
Si Si8 0.400394 0.254540 0.739729
O O1 0.632753 0.520932 0.865730
O O2 0.428634 0.289333 0.887497
O O3 0.500000 0.000000 0.000000
O O4 0.443527 0.121286 0.218295
O O5 0.243429 0.221824 0.493949
O O6 0.261182 0.130844 0.794516
O O7 0.197408 0.784926 0.740751
O O8 0.037800 0.880657 0.819539
O O9 0.321261 0.665033 0.551250
O O10 0.086859 0.413625 0.730436
O O11 0.193059 0.415664 0.942357
O O12 0.568777 0.944810 0.249715
O O13 0.500000 0.000000 0.500000
O O14 0.000000 0.500000 0.500000
O O15 0.057169 0.456803 0.218624
O O16 0.825599 0.115419 0.558072
O O17 0.871068 0.815413 0.700493
O O18 0.500000 0.500000 0.500000
#
# Coordination Sequence:
#
# PCOD9090257 Si02
#       8
#     2   2   2   2   2   2   2   2
#     4  10  23  39  65 101 126 173 222 271 334 391
#     4  10  19  38  64  95 128 167 212 270 335 390
#     4  10  21  42  64  91 127 175 225 265 326 398
#     4  11  22  41  66  91 131 178 220 273 323 395
#     4  10  22  41  65  99 131 168 215 278 338 394
#     4  10  21  40  72  93 127 177 224 269 336 402
#     4  10  20  40  67  96 132 170 222 272 334 401
#     4  11  22  41  65  98 133 167 222 274 338 400
#
# _framework density 25.761827
#
# number of rings (size 3 to 8) (size 9 to 14) (size 15 to 20)
#    0.000    2.000    2.500    3.750    1.750    2.000 
#    4.500    8.750    0.000    0.000    0.000    0.000 
#    0.000    0.000    0.000    0.000    0.000    0.000 
#
# Total GULP energy -89171.621846 kJ/mol
# GULP energy per Si atom -5573.226365 kJ/mol
# Density = 2.570319 g / cm^3
# Si number density = 25.761827 Si / 1000 Ang^3
#
#
#
# Elastic Constant Matrix: (Units=GPa)
#
#
# Indices 1 2 3 4 5 6 
#
# 1 108.4583 44.2310 22.3087 20.9154 29.9052 39.6303
# 2 44.2310 123.8073 46.0819 18.8982 12.0100 21.6742
# 3 22.3087 46.0819 130.4161 26.6693 18.1164 26.2738
# 4 20.9154 18.8982 26.6693 31.8183 16.9869 13.9400
# 5 29.9052 12.0100 18.1164 16.9869 38.6025 12.0759
# 6 39.6303 21.6742 26.2738 13.9400 12.0759 42.8253
#
#
#
# Elastic Compliance Matrix: (Units=1/GPa)
#
#
# Indices 1 2 3 4 5 6 
#
# 1 0.017843 -0.003971 0.002432 -0.000673 -0.009320 -0.013147
# 2 -0.003971 0.010724 -0.002941 -0.002572 0.002165 0.000278
# 3 0.002432 -0.002941 0.010709 -0.005601 -0.001981 -0.004950
# 4 -0.000673 -0.002572 -0.005601 0.049238 -0.015771 -0.006219
# 5 -0.009320 0.002165 -0.001981 -0.015771 0.039461 0.002751
# 6 -0.013147 0.000278 -0.004950 -0.006219 0.002751 0.039661
#
#
# Mechanical properties :
#
#
# Convention : Reuss Voigt Hill
#
# Bulk Modulus (GPa) = 32.98678 65.32498 49.15588
# Shear Modulus (GPa) = 26.78080 39.31991 33.05036
#
# Velocity S-wave (km/s) = 3.22771 3.91101 3.58567
# Velocity P-wave (km/s) = 5.16944 6.76809 6.02205
#
# Compressibility (1/GPa) = 0.03031517
#
# Stress axis : x y z
#
# Youngs Moduli (GPa) = 56.04543 93.24608 93.38075
#
# Poissons Ratio (x) = 0.37031 -0.22709
# Poissons Ratio (y) = 0.22257 0.27463
# Poissons Ratio (z) = -0.13630 0.27423
#
# Static dielectric constant tensor:
#      x y z
#    x 2.254900 0.060550 -0.016120 
#    y 0.060550 2.221940 -0.014830 
#    z -0.016120 -0.014830 2.164840 
# 
# From -- ./inp_files/297651.got.cif
#   From: 2010.05.17/outbox.cif.g08.bks.cpg/sg2_149_cif.got.tgz:297651.got - 2010.06.03 11:33:40.
