data_PCOD9090181
_publ_section_title
;
Structure prediction by ZEFSAII (Michael W. Deem and Ramdas Pophale) SiO2 
 PCOD9090181
Probable space group: P -1
;
_chemical_formula_sum "Si O2"
_cell_formula_units_Z 14
_cell_length_a 6.962103
_cell_length_b 13.509882
_cell_length_c 6.891464
_cell_angle_alpha 86.189689
_cell_angle_beta 61.353908
_cell_angle_gamma 95.418050
_cell_volume 561.660990
_symmetry_space_group_name_H-M "P -1"
_symmetry_group_IT_number 2
_symmetry_cell_setting 'triclinic'
loop_
_space_group_symop_operation_xyz
x,y,z
-x,-y,-z
loop_
_atom_site_type_symbol
_atom_site_label
_atom_site_fract_x
_atom_site_fract_y
_atom_site_fract_z
Si Si1 0.054515 0.165453 0.997682
Si Si2 0.052520 0.724652 0.325470
Si Si3 0.775843 0.418395 0.979860
Si Si4 0.365837 0.681463 0.536332
Si Si5 0.646980 0.625616 0.090162
Si Si6 0.925918 0.105105 0.485346
Si Si7 0.463999 0.095098 0.634371
O O1 0.211505 0.265511 0.982664
O O2 0.223759 0.092645 0.847002
O O3 0.903954 0.202574 0.896022
O O4 0.926782 0.123149 0.253623
O O5 0.194702 0.696074 0.445013
O O6 0.922101 0.801705 0.497868
O O7 0.027699 0.619406 0.234721
O O8 0.739450 0.367510 0.213320
O O9 0.783800 0.536715 0.984086
O O10 0.550766 0.381105 0.971049
O O11 0.532062 0.616034 0.359249
O O12 0.490647 0.793985 0.498475
O O13 0.672251 0.101014 0.681358
O O14 0.000000 0.000000 0.500000
O O15 0.500000 0.000000 0.500000
#
# Coordination Sequence:
#
# PCOD9090181 Si02
#       7
#     2   2   2   2   2   2   2
#     4  11  24  43  64  91 132 165 205 264 311 374
#     4  10  21  38  59  89 123 163 208 252 310 369
#     4  10  19  38  64  89 129 166 208 266 309 366
#     4   9  19  37  61  90 127 165 207 260 311 368
#     4   9  21  37  60  95 124 167 212 252 321 375
#     4  11  25  43  64  93 127 165 210 259 316 374
#     4  10  22  40  64  93 121 164 213 253 312 373
#
# _framework density 24.926068000000001
#
# number of rings (size 3 to 8) (size 9 to 14) (size 15 to 20)
#    0.000    2.000    0.000    3.857    0.000    8.000 
#    0.000    5.714    0.000    0.000    0.000    0.000 
#    0.000    0.000    0.000    0.000    0.000    0.000 
#
# Total GULP energy -78019.454856 kJ/mol
# GULP energy per Si atom -5572.818204 kJ/mol
# Density = 2.486934 g / cm^3
# Si number density = 24.926068 Si / 1000 Ang^3
#
#
#
# Elastic Constant Matrix: (Units=GPa)
#
#
# Indices 1 2 3 4 5 6 
#
# 1 110.7268 40.9121 44.8350 7.7158 8.8451 -6.5676
# 2 40.9121 142.7149 58.9937 50.3529 9.0281 -10.4690
# 3 44.8350 58.9937 136.9046 20.1121 18.4091 -1.6489
# 4 7.7158 50.3529 20.1121 48.7894 -5.3016 -1.6380
# 5 8.8451 9.0281 18.4091 -5.3016 32.9437 5.3766
# 6 -6.5676 -10.4690 -1.6489 -1.6380 5.3766 42.9568
#
#
#
# Elastic Compliance Matrix: (Units=1/GPa)
#
#
# Indices 1 2 3 4 5 6 
#
# 1 0.011078 -0.002693 -0.002687 0.002110 -0.000572 0.001086
# 2 -0.002693 0.014066 -0.002596 -0.013391 -0.004317 0.002946
# 3 -0.002687 -0.002596 0.010129 -0.001560 -0.004453 -0.000157
# 4 0.002110 -0.013391 -0.001560 0.035635 0.010186 -0.002917
# 5 -0.000572 -0.004317 -0.004453 0.010186 0.036719 -0.005518
# 6 0.001086 0.002946 -0.000157 -0.002917 -0.005518 0.024737
#
#
# Mechanical properties :
#
#
# Convention : Reuss Voigt Hill
#
# Bulk Modulus (GPa) = 51.76061 75.53644 63.64852
# Shear Modulus (GPa) = 32.30892 41.31168 36.81030
#
# Velocity S-wave (km/s) = 3.60417 4.07550 3.84706
# Velocity P-wave (km/s) = 6.17501 7.24681 6.73227
#
# Compressibility (1/GPa) = 0.01931971
#
# Stress axis : x y z
#
# Youngs Moduli (GPa) = 90.27246 71.09394 98.72538
#
# Poissons Ratio (x) = 0.19148 0.26529
# Poissons Ratio (y) = 0.24313 0.25629
# Poissons Ratio (z) = 0.24257 0.18456
#
# Static dielectric constant tensor:
#      x y z
#    x 2.191620 0.052990 -0.046110 
#    y 0.052990 2.005240 0.061710 
#    z -0.046110 0.061710 1.948340 
# 
# From -- ./inp_files/38471.got.cif
#   From: 2010.05.17/outbox.cif.g08.bks.cpg/sg2_20_cif.got.tgz:38471.got - 2010.06.03 11:33:40.
