data_PCOD9090988
_publ_section_title
;
Structure prediction by ZEFSAII (Michael W. Deem and Ramdas Pophale) SiO2 
 PCOD9090988
Probable space group: P -1
;
_chemical_formula_sum "Si O2"
_cell_formula_units_Z 14
_cell_length_a 9.584554
_cell_length_b 9.492366
_cell_length_c 10.078529
_cell_angle_alpha 86.881324
_cell_angle_beta 44.719926
_cell_angle_gamma 93.364143
_cell_volume 638.033046
_symmetry_space_group_name_H-M "P -1"
_symmetry_group_IT_number 2
_symmetry_cell_setting 'triclinic'
loop_
_space_group_symop_operation_xyz
x,y,z
-x,-y,-z
loop_
_atom_site_type_symbol
_atom_site_label
_atom_site_fract_x
_atom_site_fract_y
_atom_site_fract_z
Si Si1 0.333030 0.570330 0.535184
Si Si2 0.493038 0.133296 0.592731
Si Si3 0.808874 0.687267 0.875819
Si Si4 0.942323 0.832044 0.055615
Si Si5 0.549753 0.141157 0.871321
Si Si6 0.073504 0.576050 0.084821
Si Si7 0.872848 0.351817 0.555800
O O1 0.500000 0.500000 0.500000
O O2 0.349896 0.732156 0.568862
O O3 0.127491 0.467586 0.693904
O O4 0.329024 0.603822 0.380297
O O5 0.276854 0.187610 0.727753
O O6 0.525316 0.103811 0.730154
O O7 0.500000 0.000000 0.500000
O O8 0.772635 0.518031 0.947895
O O9 0.976190 0.709750 0.646205
O O10 0.904140 0.767065 0.938582
O O11 0.611159 0.756920 0.980132
O O12 0.095596 0.743200 0.032508
O O13 0.000000 0.000000 0.000000
O O14 0.773636 0.230011 0.728622
O O15 0.500000 0.000000 0.000000
O O16 0.000000 0.500000 0.000000
O O17 0.000000 0.500000 0.500000
#
# Coordination Sequence:
#
# PCOD9090988 Si02
#       7
#     2   2   2   2   2   2   2
#     4  10  19  39  62  89 128 163 215 278 329 387
#     4  10  22  38  61  96 130 167 221 275 338 398
#     4   9  21  42  62  91 132 179 219 282 337 407
#     4  10  20  34  58  95 133 166 210 272 339 403
#     4  10  23  46  66  94 139 179 226 284 342 406
#     4   9  18  33  58  87 120 171 206 256 338 384
#     4  10  23  43  68  95 132 179 235 277 334 414
#
# _framework density 21.942436000000001
#
# number of rings (size 3 to 8) (size 9 to 14) (size 15 to 20)
#    0.000    2.286    1.429    0.000   10.000    1.143 
#   12.857    0.000    0.000    0.000    0.000    0.000 
#    0.000    0.000    0.000    0.000    0.000    0.000 
#
# Total GULP energy -77936.479847 kJ/mol
# GULP energy per Si atom -5566.891418 kJ/mol
# Density = 2.189249 g / cm^3
# Si number density = 21.942436 Si / 1000 Ang^3
#
#
#
# Elastic Constant Matrix: (Units=GPa)
#
#
# Indices 1 2 3 4 5 6 
#
# 1 52.3851 45.6103 23.1354 3.8291 -1.0570 -8.3333
# 2 45.6103 198.1007 58.1011 -14.8535 -0.5332 -12.4464
# 3 23.1354 58.1011 118.8655 3.3955 -6.0319 -10.3456
# 4 3.8291 -14.8535 3.3955 38.1830 -3.5109 -0.2865
# 5 -1.0570 -0.5332 -6.0319 -3.5109 25.8289 -0.5262
# 6 -8.3333 -12.4464 -10.3456 -0.2865 -0.5262 38.0971
#
#
#
# Elastic Compliance Matrix: (Units=1/GPa)
#
#
# Indices 1 2 3 4 5 6 
#
# 1 0.025517 -0.005453 -0.001893 -0.004492 -0.000055 0.003252
# 2 -0.005453 0.007374 -0.002610 0.003635 -0.000175 0.000533
# 3 -0.001893 -0.002610 0.010344 -0.001540 0.002107 0.001560
# 4 -0.004492 0.003635 -0.001540 0.028505 0.003407 0.000048
# 5 -0.000055 -0.000175 0.002107 0.003407 0.039687 0.001077
# 6 0.003252 0.000533 0.001560 0.000048 0.001077 0.027573
#
#
# Mechanical properties :
#
#
# Convention : Reuss Voigt Hill
#
# Bulk Modulus (GPa) = 42.87237 69.22721 56.04979
# Shear Modulus (GPa) = 29.99661 36.58876 33.29269
#
# Velocity S-wave (km/s) = 3.70139 4.08792 3.89945
# Velocity P-wave (km/s) = 6.15207 7.34162 6.77301
#
# Compressibility (1/GPa) = 0.02332505
#
# Stress axis : x y z
#
# Youngs Moduli (GPa) = 39.18908 135.60608 96.67899
#
# Poissons Ratio (x) = 0.73941 0.18299
# Poissons Ratio (y) = 0.21368 0.25230
# Poissons Ratio (z) = 0.07418 0.35388
#
# Static dielectric constant tensor:
#      x y z
#    x 1.976730 0.003150 0.060250 
#    y 0.003150 1.858820 -0.056880 
#    z 0.060250 -0.056880 1.922200 
# 
# From -- ./inp_files/414857.got.cif
#   From: 2010.05.17/outbox.cif.g08.bks.cpg/sg2_208_cif.got.tgz:414857.got - 2010.06.03 11:33:40.
