data_PCOD9090530
_publ_section_title
;
Structure prediction by ZEFSAII (Michael W. Deem and Ramdas Pophale) SiO2 
 PCOD9090530
Probable space group: P -1
;
_chemical_formula_sum "Si O2"
_cell_formula_units_Z 14
_cell_length_a 11.084835
_cell_length_b 6.908430
_cell_length_c 22.588536
_cell_angle_alpha 67.423418
_cell_angle_beta 158.079509
_cell_angle_gamma 107.400821
_cell_volume 588.042687
_symmetry_space_group_name_H-M "P -1"
_symmetry_group_IT_number 2
_symmetry_cell_setting 'triclinic'
loop_
_space_group_symop_operation_xyz
x,y,z
-x,-y,-z
loop_
_atom_site_type_symbol
_atom_site_label
_atom_site_fract_x
_atom_site_fract_y
_atom_site_fract_z
Si Si1 0.408770 0.034890 0.282060
Si Si2 0.072586 0.372990 0.421428
Si Si3 0.492713 0.123492 0.184425
Si Si4 0.926288 0.060706 0.741025
Si Si5 0.981742 0.287199 0.554118
Si Si6 0.256649 0.341994 0.928797
Si Si7 0.213118 0.301114 0.358434
O O1 0.615643 0.797363 0.396052
O O2 0.284466 0.107116 0.151422
O O3 0.160426 0.033532 0.223335
O O4 0.672686 0.176890 0.409285
O O5 0.052613 0.609639 0.408622
O O6 0.081667 0.357692 0.357064
O O7 0.755622 0.271855 0.306916
O O8 0.704230 0.894281 0.291084
O O9 0.336544 0.226690 0.041046
O O10 0.593855 0.214402 0.550976
O O11 0.961833 0.880371 0.728982
O O12 0.217619 0.183025 0.876001
O O13 0.000000 0.500000 0.500000
O O14 0.500000 0.500000 0.000000
O O15 0.897375 0.488679 0.754338
#
# Coordination Sequence:
#
# PCOD9090530 Si02
#       7
#     2   2   2   2   2   2   2
#     4  10  21  39  64 101 133 170 229 275 334 398
#     4  10  19  38  66  98 130 171 226 278 322 391
#     4  11  22  39  62 103 138 168 225 277 338 399
#     4  10  25  46  71  95 134 182 230 279 329 406
#     4  11  19  36  68 100 132 179 222 276 334 394
#     4  12  26  45  67  99 138 184 222 277 343 401
#     4  10  23  47  67  98 130 180 231 272 330 400
#
# _framework density 23.807794999999999
#
# number of rings (size 3 to 8) (size 9 to 14) (size 15 to 20)
#    0.000    1.429    4.286    1.286    0.000    9.143 
#    0.000    0.714    0.000    0.000    0.000    0.000 
#    0.000    0.000    0.000    0.000    0.000    0.000 
#
# Total GULP energy -78314.452068 kJ/mol
# GULP energy per Si atom -5593.889433 kJ/mol
# Density = 2.375361 g / cm^3
# Si number density = 23.807795 Si / 1000 Ang^3
#
#
#
# Elastic Constant Matrix: (Units=GPa)
#
#
# Indices 1 2 3 4 5 6 
#
# 1 112.4872 57.1143 45.5074 9.8379 -37.3006 -1.8924
# 2 57.1143 155.6309 63.2974 23.1976 -17.4027 -14.1104
# 3 45.5074 63.2974 99.4283 9.0699 -37.0084 4.0549
# 4 9.8379 23.1976 9.0699 50.1277 3.3648 -10.7396
# 5 -37.3006 -17.4027 -37.0084 3.3648 33.3132 5.9003
# 6 -1.8924 -14.1104 4.0549 -10.7396 5.9003 45.3428
#
#
#
# Elastic Compliance Matrix: (Units=1/GPa)
#
#
# Indices 1 2 3 4 5 6 
#
# 1 0.018293 -0.005927 0.005307 -0.004738 0.024807 -0.005906
# 2 -0.005927 0.011641 -0.009260 -0.000557 -0.011779 0.005604
# 3 0.005307 -0.009260 0.027138 -0.006290 0.033833 -0.010979
# 4 -0.004738 -0.000557 -0.006290 0.025170 -0.016598 0.008313
# 5 0.024807 -0.011779 0.033833 -0.016598 0.094786 -0.021921
# 6 -0.005906 0.005604 -0.010979 0.008313 -0.021921 0.029355
#
#
# Mechanical properties :
#
#
# Convention : Reuss Voigt Hill
#
# Bulk Modulus (GPa) = 26.80067 77.70940 52.25503
# Shear Modulus (GPa) = 20.95727 39.19854 30.07791
#
# Velocity S-wave (km/s) = 2.97015 4.06206 3.55824
# Velocity P-wave (km/s) = 4.80041 7.39673 6.23520
#
# Compressibility (1/GPa) = 0.03731250
#
# Stress axis : x y z
#
# Youngs Moduli (GPa) = 54.66478 85.90502 36.84869
#
# Poissons Ratio (x) = 0.50918 -0.19556
# Poissons Ratio (y) = 0.32401 0.34121
# Poissons Ratio (z) = -0.29011 0.79546
#
# Static dielectric constant tensor:
#      x y z
#    x 2.015950 0.017910 -0.003550 
#    y 0.017910 1.919450 -0.018690 
#    z -0.003550 -0.018690 1.953920 
# 
# From -- ./inp_files/592753.got.cif
#   From: 2010.05.17/outbox.cif.g08.bks.cpg/sg2_297_cif.got.tgz:592753.got - 2010.06.03 11:33:40.
