data_PCOD9090790
_publ_section_title
;
Structure prediction by ZEFSAII (Michael W. Deem and Ramdas Pophale) SiO2 
 PCOD9090790
Probable space group: P -1
;
_chemical_formula_sum "Si O2"
_cell_formula_units_Z 16
_cell_length_a 8.426919
_cell_length_b 11.694599
_cell_length_c 18.193394
_cell_angle_alpha 44.545873
_cell_angle_beta 35.568827
_cell_angle_gamma 52.867243
_cell_volume 730.328615
_symmetry_space_group_name_H-M "P -1"
_symmetry_group_IT_number 2
_symmetry_cell_setting 'triclinic'
loop_
_space_group_symop_operation_xyz
x,y,z
-x,-y,-z
loop_
_atom_site_type_symbol
_atom_site_label
_atom_site_fract_x
_atom_site_fract_y
_atom_site_fract_z
Si Si1 0.563319 0.524534 0.190093
Si Si2 0.918998 0.036751 0.761211
Si Si3 0.965732 0.727170 0.163995
Si Si4 0.054404 0.365447 0.621960
Si Si5 0.861984 0.230286 0.303710
Si Si6 0.293391 0.134526 0.942055
Si Si7 0.400965 0.555312 0.592141
Si Si8 0.427280 0.374030 0.022669
O O1 0.711915 0.369102 0.244530
O O2 0.651030 0.690100 0.121499
O O3 0.644507 0.537139 0.068234
O O4 0.232009 0.532167 0.308393
O O5 0.105230 0.934649 0.679737
O O6 0.595250 0.047500 0.859448
O O7 0.900955 0.952376 0.887164
O O8 0.017746 0.218351 0.647722
O O9 0.880154 0.723218 0.283285
O O10 0.837435 0.849981 0.096098
O O11 0.855682 0.556911 0.250470
O O12 0.290033 0.732418 0.043911
O O13 0.311725 0.472675 0.459751
O O14 0.701868 0.263424 0.425821
O O15 0.172121 0.271517 0.183744
O O16 0.500000 0.500000 0.500000
O O17 0.500000 0.500000 0.000000
#
# Coordination Sequence:
#
# PCOD9090790 Si02
#       8
#     2   2   2   2   2   2   2   2
#     4  10  20  36  60  90 118 151 200 248 291 358
#     4  10  23  37  57  89 129 157 186 245 299 365
#     4  10  20  37  64  90 114 160 202 242 293 351
#     4   9  22  41  59  85 121 162 204 233 289 363
#     4  12  22  37  61  92 120 155 193 254 305 339
#     4  10  19  39  59  87 124 157 193 238 304 358
#     4  10  21  40  64  85 115 157 206 253 287 339
#     4  11  20  32  56  95 123 144 187 257 309 342
#
# _framework density 21.907945999999999
#
# number of rings (size 3 to 8) (size 9 to 14) (size 15 to 20)
#    0.000    1.750    3.750    0.375    3.500    1.500 
#    0.000    0.000    0.000    1.500    0.000    0.000 
#    0.000    0.000    0.000    0.000    0.000    0.000 
#
# Total GULP energy -89200.886309 kJ/mol
# GULP energy per Si atom -5575.055394 kJ/mol
# Density = 2.185808 g / cm^3
# Si number density = 21.907946 Si / 1000 Ang^3
#
#
#
# Elastic Constant Matrix: (Units=GPa)
#
#
# Indices 1 2 3 4 5 6 
#
# 1 112.0762 20.0396 24.5654 2.5766 13.9315 0.3556
# 2 20.0396 96.4529 17.5301 16.1598 5.0538 20.1080
# 3 24.5654 17.5301 66.7246 17.6955 -19.9647 5.8170
# 4 2.5766 16.1598 17.6955 28.3231 10.5057 2.4779
# 5 13.9315 5.0538 -19.9647 10.5057 44.2976 -0.1033
# 6 0.3556 20.1080 5.8170 2.4779 -0.1033 29.7197
#
#
#
# Elastic Compliance Matrix: (Units=1/GPa)
#
#
# Indices 1 2 3 4 5 6 
#
# 1 0.012718 -0.002517 -0.010267 0.010474 -0.010818 0.002649
# 2 -0.002517 0.013860 0.000428 -0.007618 0.001189 -0.008792
# 3 -0.010267 0.000428 0.034928 -0.030442 0.026131 -0.004374
# 4 0.010474 -0.007618 -0.030442 0.069360 -0.032583 0.005091
# 5 -0.010818 0.001189 0.026131 -0.032583 0.045339 -0.002916
# 6 0.002649 -0.008792 -0.004374 0.005091 -0.002916 0.039986
#
#
# Mechanical properties :
#
#
# Convention : Reuss Voigt Hill
#
# Bulk Modulus (GPa) = 27.17762 44.39156 35.78459
# Shear Modulus (GPa) = 19.74981 34.67598 27.21290
#
# Velocity S-wave (km/s) = 3.00574 3.98276 3.52823
# Velocity P-wave (km/s) = 4.94755 6.43868 5.74173
#
# Compressibility (1/GPa) = 0.03679498
#
# Stress axis : x y z
#
# Youngs Moduli (GPa) = 78.62684 72.15139 28.63049
#
# Poissons Ratio (x) = 0.18159 0.29394
# Poissons Ratio (y) = 0.19789 -0.01226
# Poissons Ratio (z) = 0.80724 -0.03089
#
# Static dielectric constant tensor:
#      x y z
#    x 1.847640 0.018930 0.075370 
#    y 0.018930 1.827320 0.024990 
#    z 0.075370 0.024990 1.955520 
# 
# From -- ./inp_files/266796.got.cif
#   From: 2010.05.17/outbox.cif.g08.bks.cpg/sg2_134_cif.got.tgz:266796.got - 2010.06.03 11:33:40.
