data_PCOD9090046
_publ_section_title
;
Structure prediction by ZEFSAII (Michael W. Deem and Ramdas Pophale) SiO2 
 PCOD9090046
Probable space group: P -1
;
_chemical_formula_sum "Si O2"
_cell_formula_units_Z 15
_cell_length_a 21.283287
_cell_length_b 10.644370
_cell_length_c 14.502236
_cell_angle_alpha 26.213331
_cell_angle_beta 156.842018
_cell_angle_gamma 153.228023
_cell_volume 525.260457
_symmetry_space_group_name_H-M "P -1"
_symmetry_group_IT_number 2
_symmetry_cell_setting 'triclinic'
loop_
_space_group_symop_operation_xyz
x,y,z
-x,-y,-z
loop_
_atom_site_type_symbol
_atom_site_label
_atom_site_fract_x
_atom_site_fract_y
_atom_site_fract_z
Si Si1 0.500000 0.500000 0.500000
Si Si2 0.555358 0.031849 0.157913
Si Si3 0.300684 0.530238 0.712793
Si Si4 0.162582 0.390175 0.413152
Si Si5 0.530396 0.158823 0.580469
Si Si6 0.168676 0.730246 0.849086
Si Si7 0.268762 0.242146 0.041352
Si Si8 0.003484 0.668545 0.295793
O O1 0.661238 0.835294 0.462139
O O2 0.482777 0.362184 0.457968
O O3 0.629481 0.384421 0.051905
O O4 0.366914 0.782083 0.111312
O O5 0.500000 0.000000 0.000000
O O6 0.253193 0.428500 0.611242
O O7 0.240534 0.251313 0.888487
O O8 0.186154 0.723111 0.463088
O O9 0.490390 0.808353 0.792247
O O10 0.279625 0.646527 0.331888
O O11 0.974669 0.391523 0.183587
O O12 0.160736 0.060511 0.596875
O O13 0.399878 0.114725 0.346832
O O14 0.121512 0.540317 0.816151
O O15 0.089385 0.108657 0.943864
O O16 0.000000 0.500000 0.500000
#
# Coordination Sequence:
#
# PCOD9090046 Si02
#       8
#     1   2   2   2   2   2   2   2
#     4  12  24  36  64  96 118 156 204 258 312 358
#     4  12  20  38  65  92 125 156 200 259 306 365
#     4  10  23  40  59  87 125 163 205 250 299 364
#     4  10  22  39  62  88 124 170 206 249 298 361
#     4  12  23  38  62  92 121 163 203 254 306 364
#     4  10  19  38  63  89 123 163 206 247 306 361
#     4  11  21  38  63  92 121 157 204 251 313 362
#     4   9  19  35  61  91 120 154 197 256 308 359
#
# _framework density 28.557261
#
# number of rings (size 3 to 8) (size 9 to 14) (size 15 to 20)
#    0.000    1.333    5.333    0.400    0.000    1.067 
#    0.000    0.667    0.000    0.000    0.000    0.000 
#    0.000    0.000    0.000    0.000    0.000    0.000 
#
# Total GULP energy -83756.177085 kJ/mol
# GULP energy per Si atom -5583.745139 kJ/mol
# Density = 2.849226 g / cm^3
# Si number density = 28.557261 Si / 1000 Ang^3
#
#
#
# Elastic Constant Matrix: (Units=GPa)
#
#
# Indices 1 2 3 4 5 6 
#
# 1 166.3405 28.1886 34.9476 5.6262 8.9764 25.6869
# 2 28.1886 58.4263 0.2792 -4.8835 -3.7420 6.2050
# 3 34.9476 0.2792 76.3781 -1.4116 -11.8576 4.7665
# 4 5.6262 -4.8835 -1.4116 62.8347 14.2776 8.5561
# 5 8.9764 -3.7420 -11.8576 14.2776 50.2943 8.0084
# 6 25.6869 6.2050 4.7665 8.5561 8.0084 55.6737
#
#
#
# Elastic Compliance Matrix: (Units=1/GPa)
#
#
# Indices 1 2 3 4 5 6 
#
# 1 0.007960 -0.003703 -0.003799 -0.000254 -0.002107 -0.002593
# 2 -0.003703 0.019295 0.002091 0.001506 0.002352 -0.001191
# 3 -0.003799 0.002091 0.015566 -0.000134 0.004614 -0.000456
# 4 -0.000254 0.001506 -0.000134 0.017348 -0.004471 -0.002062
# 5 -0.002107 0.002352 0.004614 -0.004471 0.023162 -0.002330
# 6 -0.002593 -0.001191 -0.000456 -0.002062 -0.002330 0.019982
#
#
# Mechanical properties :
#
#
# Convention : Reuss Voigt Hill
#
# Bulk Modulus (GPa) = 31.25061 47.55286 39.40174
# Shear Modulus (GPa) = 40.06398 49.60917 44.83657
#
# Velocity S-wave (km/s) = 3.74964 4.17247 3.96670
# Velocity P-wave (km/s) = 5.45099 6.31669 5.89974
#
# Compressibility (1/GPa) = 0.03199937
#
# Stress axis : x y z
#
# Youngs Moduli (GPa) = 125.62764 51.82652 64.24446
#
# Poissons Ratio (x) = 0.19192 0.24404
# Poissons Ratio (y) = 0.46521 -0.13434
# Poissons Ratio (z) = 0.47721 -0.10837
#
# Static dielectric constant tensor:
#      x y z
#    x 2.249960 0.066870 0.015770 
#    y 0.066870 2.290230 0.153910 
#    z 0.015770 0.153910 1.701710 
# 
# From -- ./inp_files/431763.got.cif
#   From: 2010.05.17/outbox.cif.g08.bks.cpg/sg2_216_cif.got.tgz:431763.got - 2010.06.03 11:33:40.
