data_PCOD9090585
_publ_section_title
;
Structure prediction by ZEFSAII (Michael W. Deem and Ramdas Pophale) SiO2 
 PCOD9090585
Probable space group: P -1
;
_chemical_formula_sum "Si O2"
_cell_formula_units_Z 16
_cell_length_a 8.935362
_cell_length_b 9.285267
_cell_length_c 12.399150
_cell_angle_alpha 68.086012
_cell_angle_beta 107.667240
_cell_angle_gamma 64.942281
_cell_volume 722.515114
_symmetry_space_group_name_H-M "P -1"
_symmetry_group_IT_number 2
_symmetry_cell_setting 'triclinic'
loop_
_space_group_symop_operation_xyz
x,y,z
-x,-y,-z
loop_
_atom_site_type_symbol
_atom_site_label
_atom_site_fract_x
_atom_site_fract_y
_atom_site_fract_z
Si Si1 0.458665 0.207156 0.940929
Si Si2 0.248367 0.250625 0.589866
Si Si3 0.370160 0.980562 0.388223
Si Si4 0.877462 0.438245 0.350615
Si Si5 0.705141 0.103032 0.221300
Si Si6 0.981107 0.899996 0.847175
Si Si7 0.625916 0.294174 0.374953
Si Si8 0.261626 0.735676 0.152014
O O1 0.240639 0.396064 0.811203
O O2 0.606712 0.208835 0.892034
O O3 0.520036 0.222654 0.068171
O O4 0.500000 0.000000 0.000000
O O5 0.474717 0.125233 0.645135
O O6 0.186866 0.440234 0.586276
O O7 0.112398 0.308946 0.438333
O O8 0.213780 0.121228 0.693102
O O9 0.161432 0.134672 0.237984
O O10 0.335098 0.836589 0.478451
O O11 0.500000 0.000000 0.500000
O O12 0.798132 0.313282 0.380285
O O13 0.629875 0.186009 0.300164
O O14 0.868813 0.117777 0.202763
O O15 0.853523 0.115969 0.815277
O O16 0.110650 0.767148 0.016576
O O17 0.419801 0.509613 0.281501
#
# Coordination Sequence:
#
# PCOD9090585 Si02
#       8
#     2   2   2   2   2   2   2   2
#     4  10  19  38  67  96 125 165 207 264 316 376
#     4  11  23  42  61  96 126 165 217 258 318 382
#     4  12  25  41  62  90 132 171 209 265 321 375
#     4  10  23  39  66  94 126 161 217 262 310 389
#     4  11  23  40  69  94 127 171 212 261 324 380
#     4  10  23  42  68  93 130 169 217 259 323 384
#     4  11  24  43  64  95 130 168 211 266 324 376
#     4   9  22  43  66  97 124 167 216 264 318 386
#
# _framework density 22.144867000000001
#
# number of rings (size 3 to 8) (size 9 to 14) (size 15 to 20)
#    0.000    1.500    2.500    2.250    1.750    9.500 
#    2.250    0.625    0.000    0.000    0.000    0.000 
#    0.000    0.000    0.000    0.000    0.000    0.000 
#
# Total GULP energy -89338.550927 kJ/mol
# GULP energy per Si atom -5583.659433 kJ/mol
# Density = 2.209446 g / cm^3
# Si number density = 22.144867 Si / 1000 Ang^3
#
#
#
# Elastic Constant Matrix: (Units=GPa)
#
#
# Indices 1 2 3 4 5 6 
#
# 1 40.0712 -2.8309 33.3414 1.0694 19.2886 3.8759
# 2 -2.8309 25.8299 -1.4101 5.8072 1.1747 8.7275
# 3 33.3414 -1.4101 111.6863 5.3024 32.5037 13.2226
# 4 1.0694 5.8072 5.3024 29.5468 4.3701 -0.4054
# 5 19.2886 1.1747 32.5037 4.3701 31.8312 -0.8505
# 6 3.8759 8.7275 13.2226 -0.4054 -0.8505 28.3804
#
#
#
# Elastic Compliance Matrix: (Units=1/GPa)
#
#
# Indices 1 2 3 4 5 6 
#
# 1 0.039670 0.006432 -0.005748 0.001023 -0.018687 -0.005263
# 2 0.006432 0.048150 0.003786 -0.009329 -0.008736 -0.017844
# 3 -0.005748 0.003786 0.015299 -0.001575 -0.012274 -0.007897
# 4 0.001023 -0.009329 -0.001575 0.036506 -0.003576 0.003877
# 5 -0.018687 -0.008736 -0.012274 -0.003576 0.056423 0.012597
# 6 -0.005263 -0.017844 -0.007897 0.003877 0.012597 0.045554
#
#
# Mechanical properties :
#
#
# Convention : Reuss Voigt Hill
#
# Bulk Modulus (GPa) = 8.92393 26.19870 17.56132
# Shear Modulus (GPa) = 18.51741 27.85080 23.18410
#
# Velocity S-wave (km/s) = 2.89484 3.55020 3.23914
# Velocity P-wave (km/s) = 3.90026 5.35365 4.68367
#
# Compressibility (1/GPa) = 0.11205821
#
# Stress axis : x y z
#
# Youngs Moduli (GPa) = 25.20800 20.76825 65.36293
#
# Poissons Ratio (x) = -0.13358 0.37573
# Poissons Ratio (y) = -0.16214 -0.24745
# Poissons Ratio (z) = 0.14491 -0.07862
#
# Static dielectric constant tensor:
#      x y z
#    x 1.800160 0.029580 0.062570 
#    y 0.029580 1.815470 0.020530 
#    z 0.062570 0.020530 1.857770 
# 
# From -- ./inp_files/186053.got.cif
#   From: 2010.05.17/outbox.cif.g08.bks.cpg/sg2_94_cif.got.tgz:186053.got - 2010.06.03 11:33:40.
