data_PCOD9090959
_publ_section_title
;
Structure prediction by ZEFSAII (Michael W. Deem and Ramdas Pophale) SiO2 
 PCOD9090959
Probable space group: P -1
;
_chemical_formula_sum "Si O2"
_cell_formula_units_Z 14
_cell_length_a 8.150831
_cell_length_b 17.265951
_cell_length_c 7.430067
_cell_angle_alpha 62.712850
_cell_angle_beta 124.675514
_cell_angle_gamma 139.187707
_cell_volume 561.278370
_symmetry_space_group_name_H-M "P -1"
_symmetry_group_IT_number 2
_symmetry_cell_setting 'triclinic'
loop_
_space_group_symop_operation_xyz
x,y,z
-x,-y,-z
loop_
_atom_site_type_symbol
_atom_site_label
_atom_site_fract_x
_atom_site_fract_y
_atom_site_fract_z
Si Si1 0.514332 0.581643 0.225787
Si Si2 0.786245 0.977336 0.198797
Si Si3 0.985275 0.631122 0.989601
Si Si4 0.281806 0.535296 0.665018
Si Si5 0.433542 0.266181 0.622091
Si Si6 0.115185 0.225352 0.035596
Si Si7 0.569832 0.030197 0.720800
O O1 0.642938 0.524534 0.347725
O O2 0.636570 0.671672 0.369989
O O3 0.622376 0.672152 0.026355
O O4 0.187885 0.466500 0.172169
O O5 0.782104 0.874167 0.340078
O O6 0.642657 0.979311 0.279223
O O7 0.608974 0.950306 0.938806
O O8 0.063074 0.110642 0.187009
O O9 0.781286 0.535448 0.117791
O O10 0.961220 0.727504 0.904963
O O11 0.286263 0.688222 0.161105
O O12 0.491442 0.674318 0.591571
O O13 0.000000 0.500000 0.500000
O O14 0.861070 0.162123 0.801732
O O15 0.500000 0.000000 0.500000
#
# Coordination Sequence:
#
# PCOD9090959 Si02
#       7
#     2   2   2   2   2   2   2
#     4  11  22  36  62  92 124 171 214 254 320 382
#     4   9  19  37  61  91 127 161 210 267 321 365
#     4  10  19  39  62  86 121 173 209 257 319 374
#     4   9  20  36  58  81 120 167 209 258 312 366
#     4  11  20  38  58  91 130 165 206 267 317 381
#     4   9  18  37  60  86 123 160 210 264 315 366
#     4   9  17  36  63  91 119 165 219 253 316 380
#
# _framework density 24.943059999999999
#
# number of rings (size 3 to 8) (size 9 to 14) (size 15 to 20)
#    0.857    1.429    1.429    2.571    0.000    0.571 
#    2.571   10.000    0.000    4.286    0.000    0.000 
#    0.000    0.000    0.000    0.000    0.000    0.000 
#
# Total GULP energy -78005.501902 kJ/mol
# GULP energy per Si atom -5571.821564 kJ/mol
# Density = 2.488629 g / cm^3
# Si number density = 24.943060 Si / 1000 Ang^3
#
#
#
# Elastic Constant Matrix: (Units=GPa)
#
#
# Indices 1 2 3 4 5 6 
#
# 1 32.6238 20.0345 8.8571 1.6053 7.8248 10.9263
# 2 20.0345 185.6047 26.7486 -32.2538 -0.5010 0.5380
# 3 8.8571 26.7486 93.2451 -8.2366 -12.3273 -8.8430
# 4 1.6053 -32.2538 -8.2366 40.6678 4.8226 -0.0155
# 5 7.8248 -0.5010 -12.3273 4.8226 38.5272 2.8031
# 6 10.9263 0.5380 -8.8430 -0.0155 2.8031 30.3659
#
#
#
# Elastic Compliance Matrix: (Units=1/GPa)
#
#
# Indices 1 2 3 4 5 6 
#
# 1 0.043032 -0.004743 -0.005936 -0.005624 -0.008809 -0.016318
# 2 -0.004743 0.006997 -0.000947 0.005550 -0.000039 0.001313
# 3 -0.005936 -0.000947 0.012835 0.001526 0.004712 0.005456
# 4 -0.005624 0.005550 0.001526 0.029786 -0.002214 0.002589
# 5 -0.008809 -0.000039 0.004712 -0.002214 0.029396 0.001828
# 6 -0.016318 0.001313 0.005456 0.002589 0.001828 0.040201
#
#
# Mechanical properties :
#
#
# Convention : Reuss Voigt Hill
#
# Bulk Modulus (GPa) = 25.24515 46.97268 36.10891
# Shear Modulus (GPa) = 25.16321 38.96773 32.06547
#
# Velocity S-wave (km/s) = 3.17965 3.95684 3.58934
# Velocity P-wave (km/s) = 4.86038 6.30463 5.62901
#
# Compressibility (1/GPa) = 0.03961157
#
# Stress axis : x y z
#
# Youngs Moduli (GPa) = 23.23863 142.92307 77.91153
#
# Poissons Ratio (x) = 0.67793 0.46246
# Poissons Ratio (y) = 0.11023 0.07378
# Poissons Ratio (z) = 0.13794 0.13534
#
# Static dielectric constant tensor:
#      x y z
#    x 2.012510 -0.014890 -0.106560 
#    y -0.014890 1.961740 0.174150 
#    z -0.106560 0.174150 2.199050 
# 
# From -- ./inp_files/212542.got.cif
#   From: 2010.05.17/outbox.cif.g08.bks.cpg/sg2_107_cif.got.tgz:212542.got - 2010.06.03 11:33:40.
