data_PCOD9090643
_publ_section_title
;
Structure prediction by ZEFSAII (Michael W. Deem and Ramdas Pophale) SiO2 
 PCOD9090643
Probable space group: P -1
;
_chemical_formula_sum "Si O2"
_cell_formula_units_Z 14
_cell_length_a 8.271224
_cell_length_b 14.144218
_cell_length_c 14.581354
_cell_angle_alpha 31.064332
_cell_angle_beta 105.190148
_cell_angle_gamma 124.322138
_cell_volume 621.612792
_symmetry_space_group_name_H-M "P -1"
_symmetry_group_IT_number 2
_symmetry_cell_setting 'triclinic'
loop_
_space_group_symop_operation_xyz
x,y,z
-x,-y,-z
loop_
_atom_site_type_symbol
_atom_site_label
_atom_site_fract_x
_atom_site_fract_y
_atom_site_fract_z
Si Si1 0.323078 0.094832 0.724669
Si Si2 0.208722 0.058185 0.426117
Si Si3 0.522706 0.393751 0.942917
Si Si4 0.252969 0.775517 0.809183
Si Si5 0.822475 0.633535 0.608576
Si Si6 0.016418 0.016296 0.098278
Si Si7 0.174863 0.525349 0.439944
O O1 0.314419 0.291829 0.513399
O O2 0.571716 0.248529 0.675479
O O3 0.273578 0.916639 0.784845
O O4 0.136742 0.950859 0.897656
O O5 0.400505 0.358101 0.205096
O O6 0.284044 0.935361 0.595567
O O7 0.000000 0.000000 0.500000
O O8 0.077749 0.897419 0.448875
O O9 0.696993 0.489088 0.804255
O O10 0.567438 0.256196 0.130698
O O11 0.272376 0.216781 0.008750
O O12 0.000000 0.500000 0.000000
O O13 0.829559 0.470223 0.674732
O O14 0.898901 0.738736 0.338221
O O15 0.000000 0.000000 0.000000
O O16 0.000000 0.500000 0.500000
#
# Coordination Sequence:
#
# PCOD9090643 Si02
#       7
#     2   2   2   2   2   2   2
#     4  11  22  41  67  91 132 177 213 273 334 384
#     4  10  19  38  68  96 134 173 213 270 330 386
#     4  11  21  39  69 101 132 172 220 269 325 393
#     4  12  21  38  69 102 129 170 225 268 326 391
#     4  10  19  40  67  89 129 179 210 261 340 379
#     4  11  24  42  64  96 132 175 226 265 326 398
#     4  11  24  42  64  95 130 168 221 278 326 387
#
# _framework density 22.522058000000001
#
# number of rings (size 3 to 8) (size 9 to 14) (size 15 to 20)
#    0.000    1.143    5.714    4.286    0.000    1.143 
#    0.000   10.714    0.000    8.571    0.000    0.000 
#    0.000    0.000    0.000    0.000    0.000    0.000 
#
# Total GULP energy -78285.607722 kJ/mol
# GULP energy per Si atom -5591.829123 kJ/mol
# Density = 2.247080 g / cm^3
# Si number density = 22.522058 Si / 1000 Ang^3
#
#
#
# Elastic Constant Matrix: (Units=GPa)
#
#
# Indices 1 2 3 4 5 6 
#
# 1 109.0974 69.6255 33.9207 -9.0792 -2.4494 8.4935
# 2 69.6255 149.4373 7.0839 -29.1720 -6.7130 6.0601
# 3 33.9207 7.0839 46.6960 -2.6687 7.9896 9.2530
# 4 -9.0792 -29.1720 -2.6687 44.8891 7.8764 -1.4833
# 5 -2.4494 -6.7130 7.9896 7.8764 36.5117 -4.7150
# 6 8.4935 6.0601 9.2530 -1.4833 -4.7150 42.2346
#
#
#
# Elastic Compliance Matrix: (Units=1/GPa)
#
#
# Indices 1 2 3 4 5 6 
#
# 1 0.018290 -0.008389 -0.012861 -0.003065 0.003237 0.000597
# 2 -0.008389 0.011579 0.005065 0.006276 -0.001022 -0.000978
# 3 -0.012861 0.005065 0.032952 0.003989 -0.008804 -0.006203
# 4 -0.003065 0.006276 0.003989 0.026972 -0.005855 -0.000864
# 5 0.003237 -0.001022 -0.008804 -0.005855 0.031215 0.004704
# 6 0.000597 -0.000978 -0.006203 -0.000864 0.004704 0.025551
#
#
# Mechanical properties :
#
#
# Convention : Reuss Voigt Hill
#
# Bulk Modulus (GPa) = 32.83928 58.49897 45.66912
# Shear Modulus (GPa) = 26.44391 37.70044 32.07218
#
# Velocity S-wave (km/s) = 3.43028 4.09581 3.77773
# Velocity P-wave (km/s) = 5.50470 6.95687 6.27295
#
# Compressibility (1/GPa) = 0.03045134
#
# Stress axis : x y z
#
# Youngs Moduli (GPa) = 54.67546 86.36133 30.34681
#
# Poissons Ratio (x) = 0.72449 0.39028
# Poissons Ratio (y) = 0.45868 -0.15370
# Poissons Ratio (z) = 0.70316 -0.43740
#
# Static dielectric constant tensor:
#      x y z
#    x 1.869160 -0.103420 -0.045420 
#    y -0.103420 1.900850 0.091470 
#    z -0.045420 0.091470 1.873640 
# 
# From -- ./inp_files/505113.got.cif
#   From: 2010.05.17/outbox.cif.g08.bks.cpg/sg2_253_cif.got.tgz:505113.got - 2010.06.03 11:33:40.
