data_PCOD9090937
_publ_section_title
;
Structure prediction by ZEFSAII (Michael W. Deem and Ramdas Pophale) SiO2 
 PCOD9090937
Probable space group: P -1
;
_chemical_formula_sum "Si O2"
_cell_formula_units_Z 14
_cell_length_a 17.813774
_cell_length_b 5.129660
_cell_length_c 9.946455
_cell_angle_alpha 68.029927
_cell_angle_beta 131.178079
_cell_angle_gamma 103.505607
_cell_volume 634.308088
_symmetry_space_group_name_H-M "P -1"
_symmetry_group_IT_number 2
_symmetry_cell_setting 'triclinic'
loop_
_space_group_symop_operation_xyz
x,y,z
-x,-y,-z
loop_
_atom_site_type_symbol
_atom_site_label
_atom_site_fract_x
_atom_site_fract_y
_atom_site_fract_z
Si Si1 0.602179 0.627377 0.964360
Si Si2 0.649339 0.523464 0.762555
Si Si3 0.034434 0.601716 0.233199
Si Si4 0.846517 0.506855 0.860264
Si Si5 0.646573 0.005494 0.200338
Si Si6 0.464266 0.105101 0.643718
Si Si7 0.139085 0.050705 0.429401
O O1 0.677177 0.607998 0.930397
O O2 0.408781 0.693355 0.940710
O O3 0.504715 0.784487 0.756439
O O4 0.636156 0.816374 0.092341
O O5 0.742937 0.401761 0.814207
O O6 0.561989 0.297024 0.715115
O O7 0.604245 0.793424 0.578967
O O8 0.093568 0.672882 0.148279
O O9 0.060980 0.823888 0.333394
O O10 0.082659 0.302938 0.390951
O O11 0.922284 0.564782 0.059501
O O12 0.826146 0.792983 0.697045
O O13 0.762263 0.058121 0.359538
O O14 0.597189 0.856300 0.298663
#
# Coordination Sequence:
#
# PCOD9090937 Si02
#       7
#     2   2   2   2   2   2   2
#     4  12  26  45  62  96 131 179 212 269 310 388
#     4  11  24  44  66  97 138 161 219 269 332 363
#     4   9  19  36  66  97 127 154 218 265 321 367
#     4   9  20  37  65  99 126 164 205 277 316 379
#     4  12  25  43  70  90 135 172 225 249 320 388
#     4  11  24  45  66  96 127 180 215 270 308 388
#     4  10  19  39  62 100 117 166 210 270 302 382
#
# _framework density 22.071294999999999
#
# number of rings (size 3 to 8) (size 9 to 14) (size 15 to 20)
#    0.857    0.571    2.857    2.571    2.000    1.143 
#    2.571    0.000    0.000    5.143    0.000    0.000 
#    0.000    0.000    0.000    0.000    0.000    0.000 
#
# Total GULP energy -78169.141504 kJ/mol
# GULP energy per Si atom -5583.510107 kJ/mol
# Density = 2.202106 g / cm^3
# Si number density = 22.071295 Si / 1000 Ang^3
#
#
#
# Elastic Constant Matrix: (Units=GPa)
#
#
# Indices 1 2 3 4 5 6 
#
# 1 50.4557 3.6966 23.6539 -4.6188 -1.2682 2.1431
# 2 3.6966 83.7325 19.1591 -1.3483 -12.8093 0.9192
# 3 23.6539 19.1591 80.3467 -10.9426 0.7411 13.1978
# 4 -4.6188 -1.3483 -10.9426 27.2643 -2.6394 -2.0283
# 5 -1.2682 -12.8093 0.7411 -2.6394 31.3798 1.9295
# 6 2.1431 0.9192 13.1978 -2.0283 1.9295 11.1038
#
#
#
# Elastic Compliance Matrix: (Units=1/GPa)
#
#
# Indices 1 2 3 4 5 6 
#
# 1 0.023304 0.000895 -0.007642 0.001391 0.001326 0.004535
# 2 0.000895 0.013633 -0.003975 -0.000051 0.005540 0.002451
# 3 -0.007642 -0.003975 0.019688 0.004808 -0.000726 -0.020592
# 4 0.001391 -0.000051 0.004808 0.039196 0.003180 0.000628
# 5 0.001326 0.005540 -0.000726 0.003180 0.034794 -0.005317
# 6 0.004535 0.002451 -0.020592 0.000628 -0.005317 0.114495
#
#
# Mechanical properties :
#
#
# Convention : Reuss Voigt Hill
#
# Bulk Modulus (GPa) = 28.42424 34.17265 31.29844
# Shear Modulus (GPa) = 17.96753 25.15128 21.55941
#
# Velocity S-wave (km/s) = 2.85628 3.37938 3.12878
# Velocity P-wave (km/s) = 4.87690 5.54467 5.22147
#
# Compressibility (1/GPa) = 0.03518124
#
# Stress axis : x y z
#
# Youngs Moduli (GPa) = 42.91043 73.35378 50.79318
#
# Poissons Ratio (x) = -0.06567 0.38816
# Poissons Ratio (y) = -0.03841 0.20190
# Poissons Ratio (z) = 0.32792 0.29158
#
# Static dielectric constant tensor:
#      x y z
#    x 1.830750 -0.012140 -0.014820 
#    y -0.012140 1.826730 -0.014860 
#    z -0.014820 -0.014860 1.799960 
# 
# From -- ./inp_files/323608.got.cif
#   From: 2010.05.17/outbox.cif.g08.bks.cpg/sg2_162_cif.got.tgz:323608.got - 2010.06.03 11:33:40.
