data_PCOD9090666
_publ_section_title
;
Structure prediction by ZEFSAII (Michael W. Deem and Ramdas Pophale) SiO2 
 PCOD9090666
Probable space group: P -1
;
_chemical_formula_sum "Si O2"
_cell_formula_units_Z 12
_cell_length_a 16.530625
_cell_length_b 12.116772
_cell_length_c 6.912217
_cell_angle_alpha 139.278521
_cell_angle_beta 133.346431
_cell_angle_gamma 34.103626
_cell_volume 499.831704
_symmetry_space_group_name_H-M "P -1"
_symmetry_group_IT_number 2
_symmetry_cell_setting 'triclinic'
loop_
_space_group_symop_operation_xyz
x,y,z
-x,-y,-z
loop_
_atom_site_type_symbol
_atom_site_label
_atom_site_fract_x
_atom_site_fract_y
_atom_site_fract_z
Si Si1 0.352577 0.769807 0.878667
Si Si2 0.123560 0.737236 0.864383
Si Si3 0.924370 0.667486 0.321170
Si Si4 0.378186 0.052723 0.019175
Si Si5 0.401632 0.396570 0.656428
Si Si6 0.949565 0.774722 0.930139
O O1 0.437720 0.747424 0.181666
O O2 0.408635 0.848626 0.914250
O O3 0.178252 0.975317 0.881986
O O4 0.384770 0.535817 0.625714
O O5 0.288245 0.595133 0.885292
O O6 0.053097 0.674765 0.515117
O O7 0.100834 0.701437 0.999835
O O8 0.000000 0.000000 0.000000
O O9 0.891198 0.734415 0.587128
O O10 0.002200 0.411147 0.085530
O O11 0.773010 0.832585 0.185991
O O12 0.362105 0.237830 0.368606
O O13 0.500000 0.000000 0.000000
#
# Coordination Sequence:
#
# PCOD9090666 Si02
#       6
#     2   2   2   2   2   2
#     4  11  24  43  66  95 128 162 227 260 306 386
#     4  10  19  38  69  93 120 161 214 259 319 367
#     4   9  21  39  61  91 129 161 212 257 313 378
#     4  12  27  42  62  96 135 172 206 264 326 370
#     4  11  24  43  69  95 123 174 213 260 320 379
#     4   9  19  40  66  86 124 168 203 268 303 373
#
# _framework density 24.008081000000001
#
# number of rings (size 3 to 8) (size 9 to 14) (size 15 to 20)
#    1.000    0.667    1.667    2.500    2.333    3.333 
#    3.000    1.667    0.000    0.000    0.000    0.000 
#    0.000    0.000    0.000    0.000    0.000    0.000 
#
# Total GULP energy -66853.098922 kJ/mol
# GULP energy per Si atom -5571.091577 kJ/mol
# Density = 2.395344 g / cm^3
# Si number density = 24.008081 Si / 1000 Ang^3
#
#
#
# Elastic Constant Matrix: (Units=GPa)
#
#
# Indices 1 2 3 4 5 6 
#
# 1 130.7175 28.4746 7.6619 14.0817 9.7056 -6.4389
# 2 28.4746 98.9859 -3.9421 7.6811 5.7091 10.4599
# 3 7.6619 -3.9421 6.4780 8.3523 -0.5005 10.0066
# 4 14.0817 7.6811 8.3523 33.7690 -1.1090 6.6781
# 5 9.7056 5.7091 -0.5005 -1.1090 29.2813 12.7321
# 6 -6.4389 10.4599 10.0066 6.6781 12.7321 41.8003
#
#
#
# Elastic Compliance Matrix: (Units=1/GPa)
#
#
# Indices 1 2 3 4 5 6 
#
# 1 0.017379 -0.011905 -0.093207 0.011640 -0.018379 0.031707
# 2 -0.011905 0.022034 0.107083 -0.019138 0.015869 -0.034758
# 3 -0.093207 0.107083 1.059576 -0.180264 0.157874 -0.314094
# 4 0.011640 -0.019138 -0.180264 0.063955 -0.020712 0.045827
# 5 -0.018379 0.015869 0.157874 -0.020712 0.065720 -0.061304
# 6 0.031707 -0.034758 -0.314094 0.045827 -0.061304 0.124048
#
#
# Mechanical properties :
#
#
# Convention : Reuss Voigt Hill
#
# Bulk Modulus (GPa) = 0.90667 33.39669 17.15168
# Shear Modulus (GPa) = 2.91305 34.56925 18.74115
#
# Velocity S-wave (km/s) = 1.10272 3.79872 2.79699
# Velocity P-wave (km/s) = 1.41414 5.76031 4.19410
#
# Compressibility (1/GPa) = 1.10293162
#
# Stress axis : x y z
#
# Youngs Moduli (GPa) = 57.54046 45.38353 0.94377
#
# Poissons Ratio (x) = 0.54029 0.08797
# Poissons Ratio (y) = 0.68502 -0.10106
# Poissons Ratio (z) = 5.36316 -4.85979
#
# Static dielectric constant tensor:
#      x y z
#    x 2.361270 0.244030 0.256550 
#    y 0.244030 2.013530 0.288030 
#    z 0.256550 0.288030 2.384900 
# 
# From -- ./inp_files/333929.got.cif
#   From: 2010.05.17/outbox.cif.g08.bks.cpg/sg2_167_cif.got.tgz:333929.got - 2010.06.03 11:33:40.
