data_PCOD9090864
_publ_section_title
;
Structure prediction by ZEFSAII (Michael W. Deem and Ramdas Pophale) SiO2 
 PCOD9090864
Probable space group: P -1
;
_chemical_formula_sum "Si O2"
_cell_formula_units_Z 16
_cell_length_a 11.833512
_cell_length_b 24.880663
_cell_length_c 17.710680
_cell_angle_alpha 17.415908
_cell_angle_beta 28.203926
_cell_angle_gamma 27.423284
_cell_volume 696.154364
_symmetry_space_group_name_H-M "P -1"
_symmetry_group_IT_number 2
_symmetry_cell_setting 'triclinic'
loop_
_space_group_symop_operation_xyz
x,y,z
-x,-y,-z
loop_
_atom_site_type_symbol
_atom_site_label
_atom_site_fract_x
_atom_site_fract_y
_atom_site_fract_z
Si Si1 0.957074 0.042725 0.881190
Si Si2 0.300587 0.820531 0.566458
Si Si3 0.202719 0.299310 0.633926
Si Si4 0.499293 0.966139 0.633515
Si Si5 0.734133 0.572174 0.104413
Si Si6 0.997034 0.009270 0.354771
Si Si7 0.473941 0.777203 0.302974
Si Si8 0.397360 0.219585 0.947811
O O1 0.209024 0.090308 0.652378
O O2 0.690675 0.204496 0.807172
O O3 0.923176 0.856643 0.109882
O O4 0.000000 0.000000 0.000000
O O5 0.582608 0.677131 0.582221
O O6 0.133190 0.843594 0.558315
O O7 0.124901 0.816611 0.746612
O O8 0.367472 0.019030 0.260353
O O9 0.355023 0.234616 0.708588
O O10 0.000000 0.500000 0.500000
O O11 0.738598 0.009920 0.468053
O O12 0.500000 0.000000 0.500000
O O13 0.550939 0.755281 0.921003
O O14 0.612889 0.406873 0.399515
O O15 0.756692 0.630073 0.101053
O O16 0.000000 0.500000 0.000000
O O17 0.213746 0.953806 0.236999
O O18 0.618706 0.774408 0.141955
#
# Coordination Sequence:
#
# PCOD9090864 Si02
#       8
#     2   2   2   2   2   2   2   2
#     4  11  22  40  65  93 133 173 213 269 320 392
#     4   9  19  37  66  86 122 165 213 269 314 383
#     4  10  22  39  61  94 130 171 215 265 334 386
#     4  12  23  38  61  91 124 166 213 260 320 391
#     4  12  23  42  62  92 135 168 214 271 333 389
#     4  10  19  39  60  92 122 164 217 260 321 380
#     4  11  23  39  65  93 126 169 216 276 327 384
#     4  11  22  40  64  96 125 168 223 272 323 389
#
# _framework density 22.983405999999999
#
# number of rings (size 3 to 8) (size 9 to 14) (size 15 to 20)
#    0.000    1.250    3.750    2.625    0.000    5.500 
#    0.000    0.000    0.000    0.000    0.000   17.500 
#    0.000    0.000    0.000    0.000    0.000    0.000 
#
# Total GULP energy -89171.391455 kJ/mol
# GULP energy per Si atom -5573.211966 kJ/mol
# Density = 2.293110 g / cm^3
# Si number density = 22.983406 Si / 1000 Ang^3
#
#
#
# Elastic Constant Matrix: (Units=GPa)
#
#
# Indices 1 2 3 4 5 6 
#
# 1 139.8607 37.7477 17.6380 15.1870 -23.5727 23.5671
# 2 37.7477 167.3599 15.5065 29.3242 -3.4022 13.8052
# 3 17.6380 15.5065 47.8092 6.6740 -2.6435 20.1871
# 4 15.1870 29.3242 6.6740 30.5122 12.0959 -4.2152
# 5 -23.5727 -3.4022 -2.6435 12.0959 31.2281 11.6045
# 6 23.5671 13.8052 20.1871 -4.2152 11.6045 53.7264
#
#
#
# Elastic Compliance Matrix: (Units=1/GPa)
#
#
# Indices 1 2 3 4 5 6 
#
# 1 0.017759 0.002833 0.007198 -0.029214 0.033337 -0.020715
# 2 0.002833 0.009124 0.002955 -0.017398 0.013454 -0.008968
# 3 0.007198 0.002955 0.033470 -0.028692 0.028994 -0.025006
# 4 -0.029214 -0.017398 -0.028692 0.114612 -0.091919 0.056912
# 5 0.033337 0.013454 0.028994 -0.091919 0.119771 -0.062056
# 6 -0.020715 -0.008968 -0.025006 0.056912 -0.062056 0.057268
#
#
# Mechanical properties :
#
#
# Convention : Reuss Voigt Hill
#
# Bulk Modulus (GPa) = 11.58431 55.20157 33.39294
# Shear Modulus (GPa) = 14.09208 42.03583 28.06396
#
# Velocity S-wave (km/s) = 2.47886 4.28128 3.49815
# Velocity P-wave (km/s) = 3.63926 6.96486 5.55668
#
# Compressibility (1/GPa) = 0.08632367
#
# Stress axis : x y z
#
# Youngs Moduli (GPa) = 56.30853 109.60049 29.87761
#
# Poissons Ratio (x) = -0.31046 -0.21505
# Poissons Ratio (y) = -0.15951 -0.08829
# Poissons Ratio (z) = -0.40529 -0.32386
#
# Static dielectric constant tensor:
#      x y z
#    x 1.620340 0.005270 0.018310 
#    y 0.005270 1.931960 0.011600 
#    z 0.018310 0.011600 1.889110 
# 
# From -- ./inp_files/571007.got.cif
#   From: 2010.05.17/outbox.cif.g08.bks.cpg/sg2_286_cif.got.tgz:571007.got - 2010.06.03 11:33:40.
