data_PCOD9090928
_publ_section_title
;
Structure prediction by ZEFSAII (Michael W. Deem and Ramdas Pophale) SiO2 
 PCOD9090928
Probable space group: P -1
;
_chemical_formula_sum "Si O2"
_cell_formula_units_Z 14
_cell_length_a 8.266755
_cell_length_b 7.014513
_cell_length_c 20.597796
_cell_angle_alpha 60.025167
_cell_angle_beta 40.615290
_cell_angle_gamma 88.325384
_cell_volume 528.063729
_symmetry_space_group_name_H-M "P -1"
_symmetry_group_IT_number 2
_symmetry_cell_setting 'triclinic'
loop_
_space_group_symop_operation_xyz
x,y,z
-x,-y,-z
loop_
_atom_site_type_symbol
_atom_site_label
_atom_site_fract_x
_atom_site_fract_y
_atom_site_fract_z
Si Si1 0.244693 0.853809 0.660623
Si Si2 0.728626 0.444068 0.544307
Si Si3 0.333942 0.248803 0.387536
Si Si4 0.920099 0.147190 0.728578
Si Si5 0.714931 0.619319 0.102340
Si Si6 0.540628 0.327309 0.961734
Si Si7 0.391446 0.936200 0.817131
O O1 0.435224 0.829362 0.662100
O O2 0.921860 0.533318 0.801386
O O3 0.500000 0.000000 0.500000
O O4 0.113794 0.024593 0.688831
O O5 0.687819 0.664002 0.548880
O O6 0.000000 0.500000 0.500000
O O7 0.829792 0.523074 0.424851
O O8 0.443020 0.138911 0.709118
O O9 0.484512 0.520836 0.250121
O O10 0.000000 0.000000 0.500000
O O11 0.679909 0.046132 0.758761
O O12 0.675861 0.989896 0.889690
O O13 0.609052 0.686136 0.058913
O O14 0.668931 0.336947 0.147182
O O15 0.084103 0.842733 0.966274
O O16 0.500000 0.500000 0.000000
#
# Coordination Sequence:
#
# PCOD9090928 Si02
#       7
#     2   2   2   2   2   2   2
#     4  11  20  35  60  96 128 162 209 262 318 367
#     4  10  22  42  64  88 132 169 206 257 331 383
#     4  12  24  38  64  99 125 163 219 272 306 376
#     4  10  19  39  61  94 120 173 210 244 319 386
#     4  11  22  38  66 101 120 163 227 264 306 373
#     4  10  20  37  63  93 128 163 212 265 311 377
#     4  10  21  39  67  92 129 167 211 260 314 389
#
# _framework density 26.511952999999998
#
# number of rings (size 3 to 8) (size 9 to 14) (size 15 to 20)
#    0.000    1.429    4.286    3.429    6.000    0.571 
#    0.000    0.714    3.143    4.286    0.000    0.000 
#    0.000    0.000    0.000    0.000    0.000    0.000 
#
# Total GULP energy -78273.679029 kJ/mol
# GULP energy per Si atom -5590.977074 kJ/mol
# Density = 2.645161 g / cm^3
# Si number density = 26.511953 Si / 1000 Ang^3
#
#
#
# Elastic Constant Matrix: (Units=GPa)
#
#
# Indices 1 2 3 4 5 6 
#
# 1 152.6142 23.1830 71.5634 3.2634 5.5168 -31.6458
# 2 23.1830 79.3413 18.2235 2.3283 -3.6006 -18.5381
# 3 71.5634 18.2235 223.6353 -1.4929 23.6638 -17.7219
# 4 3.2634 2.3283 -1.4929 42.9811 -6.6413 7.0737
# 5 5.5168 -3.6006 23.6638 -6.6413 69.5555 1.4943
# 6 -31.6458 -18.5381 -17.7219 7.0737 1.4943 34.2716
#
#
#
# Elastic Compliance Matrix: (Units=1/GPa)
#
#
# Indices 1 2 3 4 5 6 
#
# 1 0.009350 -0.000355 -0.002333 -0.002087 -0.000330 0.007679
# 2 -0.000355 0.014727 -0.000553 -0.001966 0.000625 0.007730
# 3 -0.002333 -0.000553 0.005480 0.000060 -0.001712 0.000442
# 4 -0.002087 -0.001966 0.000060 0.025306 0.002638 -0.008297
# 5 -0.000330 0.000625 -0.001712 0.002638 0.015314 -0.002064
# 6 0.007679 0.007730 0.000442 -0.008297 -0.002064 0.042482
#
#
# Mechanical properties :
#
#
# Convention : Reuss Voigt Hill
#
# Bulk Modulus (GPa) = 43.34097 75.72564 59.53331
# Shear Modulus (GPa) = 39.42184 52.20304 45.81244
#
# Velocity S-wave (km/s) = 3.86028 4.44220 4.16142
# Velocity P-wave (km/s) = 6.02098 7.41186 6.75233
#
# Compressibility (1/GPa) = 0.02307286
#
# Stress axis : x y z
#
# Youngs Moduli (GPa) = 106.95687 67.90310 182.48683
#
# Poissons Ratio (x) = 0.02413 0.42580
# Poissons Ratio (y) = 0.03801 0.10091
# Poissons Ratio (z) = 0.24956 0.03755
#
# Static dielectric constant tensor:
#      x y z
#    x 1.979940 0.039340 -0.000450 
#    y 0.039340 2.520630 -0.018160 
#    z -0.000450 -0.018160 2.228060 
# 
# From -- ./inp_files/406848.got.cif
#   From: 2010.05.17/outbox.cif.g08.bks.cpg/sg2_204_cif.got.tgz:406848.got - 2010.06.03 11:33:40.
