data_PCOD9090606
_publ_section_title
;
Structure prediction by ZEFSAII (Michael W. Deem and Ramdas Pophale) SiO2 
 PCOD9090606
Probable space group: P -1
;
_chemical_formula_sum "Si O2"
_cell_formula_units_Z 14
_cell_length_a 7.673803
_cell_length_b 9.349059
_cell_length_c 10.936452
_cell_angle_alpha 121.770935
_cell_angle_beta 125.064329
_cell_angle_gamma 56.997242
_cell_volume 511.845448
_symmetry_space_group_name_H-M "P -1"
_symmetry_group_IT_number 2
_symmetry_cell_setting 'triclinic'
loop_
_space_group_symop_operation_xyz
x,y,z
-x,-y,-z
loop_
_atom_site_type_symbol
_atom_site_label
_atom_site_fract_x
_atom_site_fract_y
_atom_site_fract_z
Si Si1 0.869315 0.202587 0.498113
Si Si2 0.879920 0.558523 0.264344
Si Si3 0.580916 0.160084 0.746090
Si Si4 0.780179 0.449006 0.919981
Si Si5 0.911537 0.803711 0.679779
Si Si6 0.530834 0.760388 0.790583
Si Si7 0.248409 0.974011 0.988298
O O1 0.601061 0.249592 0.391004
O O2 0.956200 0.337142 0.671375
O O3 0.961289 0.223308 0.409882
O O4 0.000000 0.000000 0.500000
O O5 0.670637 0.701420 0.316948
O O6 0.034631 0.391363 0.330169
O O7 0.762536 0.489512 0.076063
O O8 0.754188 0.255508 0.809502
O O9 0.663469 0.955049 0.641507
O O10 0.594664 0.138445 0.889754
O O11 0.587591 0.586768 0.819893
O O12 0.000000 0.500000 0.000000
O O13 0.034061 0.910084 0.864197
O O14 0.355613 0.918838 0.871913
O O15 0.746355 0.826265 0.896529
#
# Coordination Sequence:
#
# PCOD9090606 Si02
#       7
#     2   2   2   2   2   2   2
#     4  11  26  47  71 101 149 197 234 291 364 432
#     4  12  26  48  73 106 148 190 237 294 362 434
#     4  12  23  43  74 107 142 182 245 295 360 423
#     4  12  26  42  73 112 142 185 243 305 359 425
#     4  11  25  42  72 105 140 188 240 296 355 427
#     4  10  22  41  69 102 145 185 234 294 361 414
#     4  10  19  38  68 103 137 179 233 296 351 416
#
# _framework density 27.352008000000001
#
# number of rings (size 3 to 8) (size 9 to 14) (size 15 to 20)
#    0.000    0.857    2.857    4.714    8.000    0.571 
#    0.000    0.714    0.000    0.000    0.000    0.000 
#    0.000    0.000    0.000    0.000    0.000    0.000 
#
# Total GULP energy -78374.670589 kJ/mol
# GULP energy per Si atom -5598.190756 kJ/mol
# Density = 2.728975 g / cm^3
# Si number density = 27.352008 Si / 1000 Ang^3
#
#
#
# Elastic Constant Matrix: (Units=GPa)
#
#
# Indices 1 2 3 4 5 6 
#
# 1 86.5037 24.7596 10.1135 9.6918 12.0567 2.2472
# 2 24.7596 225.1658 42.8973 1.8315 20.1532 17.0669
# 3 10.1135 42.8973 93.3766 -3.5841 21.1619 -1.4439
# 4 9.6918 1.8315 -3.5841 33.7847 -4.4608 4.0484
# 5 12.0567 20.1532 21.1619 -4.4608 38.8880 6.3733
# 6 2.2472 17.0669 -1.4439 4.0484 6.3733 56.2653
#
#
#
# Elastic Compliance Matrix: (Units=1/GPa)
#
#
# Indices 1 2 3 4 5 6 
#
# 1 0.012888 -0.001037 -0.000182 -0.004246 -0.003936 0.000546
# 2 -0.001037 0.005148 -0.002052 -0.000159 -0.001011 -0.001447
# 3 -0.000182 -0.002052 0.013130 0.000538 -0.006231 0.001634
# 4 -0.004246 -0.000159 0.000538 0.031887 0.005198 -0.002651
# 5 -0.003936 -0.001011 -0.006231 0.005198 0.032053 -0.003701
# 6 0.000546 -0.001447 0.001634 -0.002651 -0.003701 0.018842
#
#
# Mechanical properties :
#
#
# Convention : Reuss Voigt Hill
#
# Bulk Modulus (GPa) = 40.61138 62.28743 51.44941
# Shear Modulus (GPa) = 38.85097 47.60599 43.22848
#
# Velocity S-wave (km/s) = 3.77292 4.17645 3.97980
# Velocity P-wave (km/s) = 5.81892 6.78815 6.32213
#
# Compressibility (1/GPa) = 0.02462364
#
# Stress axis : x y z
#
# Youngs Moduli (GPa) = 77.58922 194.26747 76.16301
#
# Poissons Ratio (x) = 0.20149 0.01386
# Poissons Ratio (y) = 0.08047 0.15628
# Poissons Ratio (z) = 0.01412 0.39861
#
# Static dielectric constant tensor:
#      x y z
#    x 2.253530 -0.055990 0.042040 
#    y -0.055990 2.077690 -0.016250 
#    z 0.042040 -0.016250 2.224720 
# 
# From -- ./inp_files/380025.got.cif
#   From: 2010.05.17/outbox.cif.g08.bks.cpg/sg2_191_cif.got.tgz:380025.got - 2010.06.03 11:33:40.
