data_PCOD9090534
_publ_section_title
;
Structure prediction by ZEFSAII (Michael W. Deem and Ramdas Pophale) SiO2 
 PCOD9090534
Probable space group: P -1
;
_chemical_formula_sum "Si O2"
_cell_formula_units_Z 16
_cell_length_a 18.260290
_cell_length_b 13.419124
_cell_length_c 8.882679
_cell_angle_alpha 111.256360
_cell_angle_beta 65.701932
_cell_angle_gamma 157.402891
_cell_volume 761.327807
_symmetry_space_group_name_H-M "P -1"
_symmetry_group_IT_number 2
_symmetry_cell_setting 'triclinic'
loop_
_space_group_symop_operation_xyz
x,y,z
-x,-y,-z
loop_
_atom_site_type_symbol
_atom_site_label
_atom_site_fract_x
_atom_site_fract_y
_atom_site_fract_z
Si Si1 0.903887 0.012339 0.733670
Si Si2 0.849051 0.764110 0.880417
Si Si3 0.433721 0.298394 0.975310
Si Si4 0.585440 0.044746 0.596324
Si Si5 0.659167 0.402724 0.231345
Si Si6 0.242604 0.956059 0.681824
Si Si7 0.821822 0.500613 0.840814
Si Si8 0.356195 0.226693 0.445849
O O1 0.856366 0.840973 0.761892
O O2 0.813328 0.929284 0.602353
O O3 0.774233 0.940231 0.900218
O O4 0.135077 0.304743 0.716253
O O5 0.633748 0.505346 0.995594
O O6 0.876634 0.672148 0.790744
O O7 0.000000 0.000000 0.000000
O O8 0.401473 0.184518 0.796351
O O9 0.500000 0.500000 0.000000
O O10 0.424168 0.786961 0.688368
O O11 0.500000 0.000000 0.500000
O O12 0.724729 0.120148 0.457855
O O13 0.691933 0.260067 0.728188
O O14 0.492239 0.293299 0.305029
O O15 0.717723 0.414608 0.033375
O O16 0.033035 0.705436 0.800238
O O17 0.269930 0.074617 0.589315
O O18 0.500000 0.500000 0.500000
#
# Coordination Sequence:
#
# PCOD9090534 Si02
#       8
#     2   2   2   2   2   2   2   2
#     4  11  23  41  70 107 139 185 236 282 353 426
#     4  11  21  36  68 105 138 178 222 288 349 406
#     4  10  19  38  66  99 138 177 230 281 337 418
#     4  11  27  47  71  98 137 186 234 294 360 417
#     4  11  25  48  72 101 139 185 241 289 350 421
#     4  11  24  45  68 101 142 184 233 296 356 413
#     4  12  23  45  72  98 136 186 237 290 349 418
#     4  11  26  43  67 103 153 186 224 293 360 424
#
# _framework density 21.015913999999999
#
# number of rings (size 3 to 8) (size 9 to 14) (size 15 to 20)
#    0.000    1.000    2.500    4.500    3.500    2.500 
#    0.000    0.625    0.000    0.000    0.000    0.000 
#    0.000    0.000    0.000    0.000    0.000    0.000 
#
# Total GULP energy -89255.456561 kJ/mol
# GULP energy per Si atom -5578.466035 kJ/mol
# Density = 2.096808 g / cm^3
# Si number density = 21.015914 Si / 1000 Ang^3
#
#
#
# Elastic Constant Matrix: (Units=GPa)
#
#
# Indices 1 2 3 4 5 6 
#
# 1 83.9209 28.2706 11.4301 -7.9567 -3.0382 -17.6118
# 2 28.2706 102.8842 26.1310 -4.5527 -10.0934 -2.5491
# 3 11.4301 26.1310 63.2242 -6.0928 -13.0705 -12.0268
# 4 -7.9567 -4.5527 -6.0928 35.6302 5.2415 -5.5100
# 5 -3.0382 -10.0934 -13.0705 5.2415 33.5494 -1.8314
# 6 -17.6118 -2.5491 -12.0268 -5.5100 -1.8314 37.8784
#
#
#
# Elastic Compliance Matrix: (Units=1/GPa)
#
#
# Indices 1 2 3 4 5 6 
#
# 1 0.015153 -0.003971 0.000813 0.004161 0.000262 0.007654
# 2 -0.003971 0.012000 -0.004480 -0.000723 0.001482 -0.002495
# 3 0.000813 -0.004480 0.020628 0.003307 0.006651 0.007429
# 4 0.004161 -0.000723 0.003307 0.031040 -0.003003 0.007306
# 5 0.000262 0.001482 0.006651 -0.003003 0.033529 0.003518
# 6 0.007654 -0.002495 0.007429 0.007306 0.003518 0.033383
#
#
# Mechanical properties :
#
#
# Convention : Reuss Voigt Hill
#
# Bulk Modulus (GPa) = 30.76328 42.41028 36.58678
# Shear Modulus (GPa) = 29.09619 33.69144 31.39381
#
# Velocity S-wave (km/s) = 3.72490 4.00827 3.86918
# Velocity P-wave (km/s) = 5.75932 6.45333 6.11618
#
# Compressibility (1/GPa) = 0.03250629
#
# Stress axis : x y z
#
# Youngs Moduli (GPa) = 65.99245 83.33241 48.47758
#
# Poissons Ratio (x) = 0.33090 -0.03941
# Poissons Ratio (y) = 0.26204 0.21716
# Poissons Ratio (z) = -0.05364 0.37330
#
# Static dielectric constant tensor:
#      x y z
#    x 1.726610 0.076800 0.032430 
#    y 0.076800 1.758720 -0.046800 
#    z 0.032430 -0.046800 1.753530 
# 
# From -- ./inp_files/347316.got.cif
#   From: 2010.05.17/outbox.cif.g08.bks.cpg/sg2_174_cif.got.tgz:347316.got - 2010.06.03 11:33:40.
