data_PCOD9090697
_publ_section_title
;
Structure prediction by ZEFSAII (Michael W. Deem and Ramdas Pophale) SiO2 
 PCOD9090697
Probable space group: P -1
;
_chemical_formula_sum "Si O2"
_cell_formula_units_Z 14
_cell_length_a 9.178952
_cell_length_b 15.773264
_cell_length_c 15.360689
_cell_angle_alpha 36.585317
_cell_angle_beta 142.006595
_cell_angle_gamma 148.684708
_cell_volume 650.448766
_symmetry_space_group_name_H-M "P -1"
_symmetry_group_IT_number 2
_symmetry_cell_setting 'triclinic'
loop_
_space_group_symop_operation_xyz
x,y,z
-x,-y,-z
loop_
_atom_site_type_symbol
_atom_site_label
_atom_site_fract_x
_atom_site_fract_y
_atom_site_fract_z
Si Si1 0.283491 0.749587 0.689869
Si Si2 0.231320 0.958855 0.623264
Si Si3 0.143331 0.384051 0.944888
Si Si4 0.234653 0.729041 0.488693
Si Si5 0.180192 0.167447 0.010978
Si Si6 0.348995 0.456256 0.717000
Si Si7 0.983783 0.662815 0.874036
O O1 0.133288 0.826070 0.604763
O O2 0.093088 0.534081 0.782440
O O3 0.349010 0.805045 0.575211
O O4 0.588358 0.831552 0.819308
O O5 0.240570 0.851324 0.796843
O O6 0.548131 0.137264 0.595109
O O7 0.000000 0.000000 0.500000
O O8 0.500000 0.500000 0.000000
O O9 0.011307 0.219067 0.952291
O O10 0.060420 0.322051 0.056922
O O11 0.235045 0.558271 0.624762
O O12 0.901923 0.665751 0.371247
O O13 0.357449 0.332973 0.891747
O O14 0.000000 0.000000 0.000000
O O15 0.687844 0.603793 0.731201
O O16 0.000000 0.500000 0.000000
#
# Coordination Sequence:
#
# PCOD9090697 Si02
#       7
#     2   2   2   2   2   2   2
#     4  11  21  43  68  97 129 191 235 277 342 431
#     4  12  25  39  65 102 142 176 227 286 354 411
#     4  10  19  38  70  97 128 176 245 274 335 416
#     4  11  24  41  69  98 140 181 228 280 352 422
#     4  11  21  37  70 101 130 171 250 290 324 399
#     4  11  21  41  66 101 135 180 229 282 345 416
#     4  12  22  43  73 101 136 187 232 289 352 412
#
# _framework density 21.523599999999998
#
# number of rings (size 3 to 8) (size 9 to 14) (size 15 to 20)
#    0.000    0.857    7.143    2.143    0.000    0.000 
#    0.000    0.714    6.286    4.286    0.000    0.000 
#    0.000    0.000    0.000    0.000    0.000    0.000 
#
# Total GULP energy -78135.833323 kJ/mol
# GULP energy per Si atom -5581.130952 kJ/mol
# Density = 2.147461 g / cm^3
# Si number density = 21.523600 Si / 1000 Ang^3
#
#
#
# Elastic Constant Matrix: (Units=GPa)
#
#
# Indices 1 2 3 4 5 6 
#
# 1 104.4776 45.5834 34.2850 -6.9616 -7.9106 -22.9775
# 2 45.5834 109.5668 42.4208 1.0798 -8.5744 -26.8203
# 3 34.2850 42.4208 81.4107 0.0719 -9.7668 -4.7195
# 4 -6.9616 1.0798 0.0719 38.6172 1.6383 4.5337
# 5 -7.9106 -8.5744 -9.7668 1.6383 49.0974 -10.4927
# 6 -22.9775 -26.8203 -4.7195 4.5337 -10.4927 36.8485
#
#
#
# Elastic Compliance Matrix: (Units=1/GPa)
#
#
# Indices 1 2 3 4 5 6 
#
# 1 0.013643 -0.002356 -0.003836 0.001633 0.002420 0.006790
# 2 -0.002356 0.015115 -0.005909 -0.002147 0.003288 0.009977
# 3 -0.003836 -0.005909 0.016822 -0.000085 0.000779 -0.004306
# 4 0.001633 -0.002147 -0.000085 0.026852 -0.001969 -0.004420
# 5 0.002420 0.003288 0.000779 -0.001969 0.023915 0.011055
# 6 0.006790 0.009977 -0.004306 -0.004420 0.011055 0.041774
#
#
# Mechanical properties :
#
#
# Convention : Reuss Voigt Hill
#
# Bulk Modulus (GPa) = 46.77448 60.00372 53.38910
# Shear Modulus (GPa) = 29.50733 36.45704 32.98218
#
# Velocity S-wave (km/s) = 3.70662 4.12007 3.91880
# Velocity P-wave (km/s) = 6.33227 7.11139 6.73311
#
# Compressibility (1/GPa) = 0.02137918
#
# Stress axis : x y z
#
# Youngs Moduli (GPa) = 73.29647 66.15767 59.44645
#
# Poissons Ratio (x) = 0.15584 0.22802
# Poissons Ratio (y) = 0.17265 0.35130
# Poissons Ratio (z) = 0.28114 0.39095
#
# Static dielectric constant tensor:
#      x y z
#    x 1.813120 0.008960 0.017010 
#    y 0.008960 1.874320 -0.016510 
#    z 0.017010 -0.016510 1.826490 
# 
# From -- ./inp_files/502735.got.cif
#   From: 2010.05.17/outbox.cif.g08.bks.cpg/sg2_252_cif.got.tgz:502735.got - 2010.06.03 11:33:40.
