data_PCOD9090582
_publ_section_title
;
Structure prediction by ZEFSAII (Michael W. Deem and Ramdas Pophale) SiO2 
 PCOD9090582
Probable space group: P -1
;
_chemical_formula_sum "Si O2"
_cell_formula_units_Z 16
_cell_length_a 11.010264
_cell_length_b 7.518301
_cell_length_c 14.980262
_cell_angle_alpha 70.725534
_cell_angle_beta 128.452666
_cell_angle_gamma 139.948749
_cell_volume 598.105059
_symmetry_space_group_name_H-M "P -1"
_symmetry_group_IT_number 2
_symmetry_cell_setting 'triclinic'
loop_
_space_group_symop_operation_xyz
x,y,z
-x,-y,-z
loop_
_atom_site_type_symbol
_atom_site_label
_atom_site_fract_x
_atom_site_fract_y
_atom_site_fract_z
Si Si1 0.822942 0.514467 0.498861
Si Si2 0.566402 0.821392 0.233065
Si Si3 0.459638 0.208083 0.238208
Si Si4 0.304165 0.535867 0.981977
Si Si5 0.141919 0.532516 0.739462
Si Si6 0.762281 0.967868 0.002089
Si Si7 0.771222 0.705038 0.749247
Si Si8 0.946782 0.963574 0.600211
O O1 0.605414 0.253398 0.379523
O O2 0.918129 0.416400 0.607296
O O3 0.787049 0.653021 0.530160
O O4 0.014257 0.806612 0.474970
O O5 0.441831 0.639725 0.297072
O O6 0.684379 0.129510 0.242808
O O7 0.789663 0.890828 0.301551
O O8 0.366183 0.643249 0.093456
O O9 0.688689 0.463708 0.234103
O O10 0.325627 0.249189 0.224076
O O11 0.270315 0.959016 0.119861
O O12 0.110669 0.450505 0.841820
O O13 0.260047 0.272816 0.996621
O O14 0.549256 0.813096 0.997534
O O15 0.000366 0.198043 0.128389
O O16 0.844658 0.886915 0.665432
#
# Coordination Sequence:
#
# PCOD9090582 Si02
#       8
#     2   2   2   2   2   2   2   2
#     4  10  21  44  66  91 130 169 219 260 313 382
#     4  11  21  43  66  99 129 166 214 266 324 380
#     4  11  22  41  62  99 126 168 213 263 317 377
#     4  10  19  38  67  95 130 167 211 259 326 380
#     4  10  24  39  66  92 136 176 204 259 326 385
#     4  10  21  37  68 101 125 160 218 271 316 375
#     4  12  23  39  72  98 127 161 219 275 315 374
#     4  10  22  41  70  98 118 169 222 269 314 366
#
# _framework density 26.751156000000002
#
# number of rings (size 3 to 8) (size 9 to 14) (size 15 to 20)
#    0.000    1.500    3.750    1.125    3.500    0.500 
#    0.000    5.625    0.000    0.000    0.000    0.000 
#    0.000    0.000    0.000    0.000    0.000    0.000 
#
# Total GULP energy -89361.670041 kJ/mol
# GULP energy per Si atom -5585.104378 kJ/mol
# Density = 2.669027 g / cm^3
# Si number density = 26.751156 Si / 1000 Ang^3
#
#
#
# Elastic Constant Matrix: (Units=GPa)
#
#
# Indices 1 2 3 4 5 6 
#
# 1 59.0101 26.2953 24.2044 -16.3401 -8.5458 9.9437
# 2 26.2953 73.3113 11.3336 -17.0185 3.1703 15.3140
# 3 24.2044 11.3336 190.2524 -26.8601 9.7291 8.5757
# 4 -16.3401 -17.0185 -26.8601 23.8749 -2.4720 -14.1830
# 5 -8.5458 3.1703 9.7291 -2.4720 37.7736 -9.6527
# 6 9.9437 15.3140 8.5757 -14.1830 -9.6527 39.8881
#
#
#
# Elastic Compliance Matrix: (Units=1/GPa)
#
#
# Indices 1 2 3 4 5 6 
#
# 1 0.024883 -0.006632 -0.001429 0.013654 0.008349 0.003526
# 2 -0.006632 0.018520 0.001125 0.007060 -0.003941 -0.004142
# 3 -0.001429 0.001125 0.006455 0.007450 -0.001375 0.000853
# 4 0.013654 0.007060 0.007450 0.079849 0.011817 0.023536
# 5 0.008349 -0.003941 -0.001375 0.011817 0.032856 0.011880
# 6 0.003526 -0.004142 0.000853 0.023536 0.011880 0.036842
#
#
# Mechanical properties :
#
#
# Convention : Reuss Voigt Hill
#
# Bulk Modulus (GPa) = 27.78778 49.58226 38.68502
# Shear Modulus (GPa) = 22.19540 37.69002 29.94271
#
# Velocity S-wave (km/s) = 2.88357 3.75762 3.34923
# Velocity P-wave (km/s) = 4.63646 6.11565 5.42669
#
# Compressibility (1/GPa) = 0.03598704
#
# Stress axis : x y z
#
# Youngs Moduli (GPa) = 40.18729 53.99616 154.92805
#
# Poissons Ratio (x) = 0.35811 0.22136
# Poissons Ratio (y) = 0.26653 -0.17436
# Poissons Ratio (z) = 0.05742 -0.06077
#
# Static dielectric constant tensor:
#      x y z
#    x 2.175120 -0.075900 -0.003610 
#    y -0.075900 2.100650 0.051290 
#    z -0.003610 0.051290 2.221350 
# 
# From -- ./inp_files/499752.got.cif
#   From: 2010.05.17/outbox.cif.g08.bks.cpg/sg2_250_cif.got.tgz:499752.got - 2010.06.03 11:33:40.
