data_PCOD9090512
_publ_section_title
;
Structure prediction by ZEFSAII (Michael W. Deem and Ramdas Pophale) SiO2 
 PCOD9090512
Probable space group: P -1
;
_chemical_formula_sum "Si O2"
_cell_formula_units_Z 14
_cell_length_a 8.710631
_cell_length_b 10.983935
_cell_length_c 19.586959
_cell_angle_alpha 145.929244
_cell_angle_beta 36.262824
_cell_angle_gamma 119.748023
_cell_volume 531.091002
_symmetry_space_group_name_H-M "P -1"
_symmetry_group_IT_number 2
_symmetry_cell_setting 'triclinic'
loop_
_space_group_symop_operation_xyz
x,y,z
-x,-y,-z
loop_
_atom_site_type_symbol
_atom_site_label
_atom_site_fract_x
_atom_site_fract_y
_atom_site_fract_z
Si Si1 0.672039 0.187268 0.112749
Si Si2 0.352232 0.452948 0.599182
Si Si3 0.766022 0.627305 0.818695
Si Si4 0.780521 0.418266 0.947738
Si Si5 0.735327 0.116809 0.704371
Si Si6 0.909439 0.731624 0.581794
Si Si7 0.092608 0.039172 0.762280
O O1 0.772035 0.312223 0.193784
O O2 0.317063 0.334959 0.331317
O O3 0.730912 0.901751 0.959422
O O4 0.846043 0.175044 0.974800
O O5 0.500000 0.500000 0.500000
O O6 0.593627 0.183834 0.421515
O O7 0.057818 0.458811 0.681437
O O8 0.482218 0.616841 0.941078
O O9 0.839391 0.504834 0.661133
O O10 0.594079 0.717177 0.136668
O O11 0.824854 0.285554 0.797661
O O12 0.063414 0.260325 0.824151
O O13 0.730436 0.930289 0.676083
O O14 0.000000 0.000000 0.500000
O O15 0.008416 0.876019 0.665468
#
# Coordination Sequence:
#
# PCOD9090512 Si02
#       7
#     2   2   2   2   2   2   2
#     4  12  23  40  63  89 131 169 209 250 310 379
#     4  12  26  40  59  90 134 174 207 249 315 378
#     4  12  23  41  61  94 126 166 208 255 312 377
#     4  10  23  39  65  97 119 162 214 260 314 364
#     4  10  19  38  66  96 122 153 209 273 311 361
#     4  11  23  38  67  98 123 159 216 262 314 360
#     4  11  25  41  62  95 131 168 207 261 310 374
#
# _framework density 26.36083
#
# number of rings (size 3 to 8) (size 9 to 14) (size 15 to 20)
#    0.000    0.857    7.143    0.857    2.000    1.143 
#    0.000    0.000    0.000    8.571    0.000    0.000 
#    0.000    0.000    0.000    0.000    0.000    0.000 
#
# Total GULP energy -78286.403107 kJ/mol
# GULP energy per Si atom -5591.885936 kJ/mol
# Density = 2.630083 g / cm^3
# Si number density = 26.360830 Si / 1000 Ang^3
#
#
#
# Elastic Constant Matrix: (Units=GPa)
#
#
# Indices 1 2 3 4 5 6 
#
# 1 61.6679 28.3151 33.4693 -10.9278 22.3079 -22.1996
# 2 28.3151 111.2763 34.4792 0.3405 12.2858 -41.0393
# 3 33.4693 34.4792 163.8955 -22.0663 42.5009 -20.5448
# 4 -10.9278 0.3405 -22.0663 48.4695 -9.7307 4.8120
# 5 22.3079 12.2858 42.5009 -9.7307 66.7343 5.0803
# 6 -22.1996 -41.0393 -20.5448 4.8120 5.0803 46.0929
#
#
#
# Elastic Compliance Matrix: (Units=1/GPa)
#
#
# Indices 1 2 3 4 5 6 
#
# 1 0.024468 -0.000956 -0.001058 0.002370 -0.007827 0.011077
# 2 -0.000956 0.014540 -0.000780 -0.002584 -0.003209 0.012761
# 3 -0.001058 -0.000780 0.008369 0.002355 -0.004702 0.002799
# 4 0.002370 -0.002584 0.002355 0.022869 0.001723 -0.002686
# 5 -0.007827 -0.003209 -0.004702 0.001723 0.022303 -0.011361
# 6 0.011077 0.012761 0.002799 -0.002686 -0.011361 0.041172
#
#
# Mechanical properties :
#
#
# Convention : Reuss Voigt Hill
#
# Bulk Modulus (GPa) = 23.92981 58.81855 41.37418
# Shear Modulus (GPa) = 32.62883 48.29774 40.46329
#
# Velocity S-wave (km/s) = 3.52202 4.28504 3.92213
# Velocity P-wave (km/s) = 5.06330 6.84422 6.01998
#
# Compressibility (1/GPa) = 0.04178888
#
# Stress axis : x y z
#
# Youngs Moduli (GPa) = 40.86964 68.77487 119.49079
#
# Poissons Ratio (x) = 0.06576 0.12645
# Poissons Ratio (y) = 0.03908 0.09316
# Poissons Ratio (z) = 0.04325 0.05362
#
# Static dielectric constant tensor:
#      x y z
#    x 2.110100 -0.076000 -0.057960 
#    y -0.076000 2.117580 0.141950 
#    z -0.057960 0.141950 2.163200 
# 
# From -- ./inp_files/560012.got.cif
#   From: 2010.05.17/outbox.cif.g08.bks.cpg/sg2_281_cif.got.tgz:560012.got - 2010.06.03 11:33:40.
