data_PCOD9090699
_publ_section_title
;
Structure prediction by ZEFSAII (Michael W. Deem and Ramdas Pophale) SiO2 
 PCOD9090699
Probable space group: P -1
;
_chemical_formula_sum "Si O2"
_cell_formula_units_Z 16
_cell_length_a 9.664546
_cell_length_b 11.427590
_cell_length_c 14.895052
_cell_angle_alpha 129.672418
_cell_angle_beta 138.161670
_cell_angle_gamma 43.976323
_cell_volume 743.119842
_symmetry_space_group_name_H-M "P -1"
_symmetry_group_IT_number 2
_symmetry_cell_setting 'triclinic'
loop_
_space_group_symop_operation_xyz
x,y,z
-x,-y,-z
loop_
_atom_site_type_symbol
_atom_site_label
_atom_site_fract_x
_atom_site_fract_y
_atom_site_fract_z
Si Si1 0.317260 0.035821 0.732676
Si Si2 0.227050 0.923104 0.007130
Si Si3 0.119937 0.230426 0.447196
Si Si4 0.472779 0.690952 0.347151
Si Si5 0.247909 0.589349 0.790800
Si Si6 0.039297 0.054243 0.783425
Si Si7 0.958047 0.607333 0.325919
Si Si8 0.545795 0.659379 0.578330
O O1 0.217659 0.050427 0.792244
O O2 0.126381 0.210604 0.675522
O O3 0.379895 0.844909 0.633450
O O4 0.561985 0.042026 0.843564
O O5 0.308642 0.721465 0.934702
O O6 0.156453 0.998140 0.909285
O O7 0.000000 0.000000 0.000000
O O8 0.383660 0.208276 0.568369
O O9 0.988905 0.359906 0.529567
O O10 0.006086 0.303693 0.330524
O O11 0.071935 0.070296 0.360081
O O12 0.591435 0.509671 0.264291
O O13 0.507037 0.687161 0.467551
O O14 0.197964 0.768563 0.233964
O O15 0.244267 0.447675 0.785825
O O16 0.176706 0.434466 0.308502
O O17 0.500000 0.500000 0.500000
#
# Coordination Sequence:
#
# PCOD9090699 Si02
#       8
#     2   2   2   2   2   2   2   2
#     4  12  28  46  67 103 144 186 224 284 347 407
#     4  11  27  48  73  94 130 187 242 285 331 406
#     4  10  19  38  70  98 140 175 221 286 348 399
#     4  11  21  39  68 106 132 178 225 282 352 403
#     4  10  21  42  69  98 136 177 230 288 338 391
#     4  11  25  44  66  99 139 181 228 283 348 407
#     4  11  21  41  67 104 140 174 225 279 346 412
#     4  12  24  40  70 102 147 178 223 275 350 425
#
# _framework density 21.530849
#
# number of rings (size 3 to 8) (size 9 to 14) (size 15 to 20)
#    0.000    1.000    2.500    4.500    7.000    2.000 
#    2.250    0.625    0.000    0.000    0.000    0.000 
#    0.000    0.000    0.000    0.000    0.000    0.000 
#
# Total GULP energy -89277.478922 kJ/mol
# GULP energy per Si atom -5579.842433 kJ/mol
# Density = 2.148184 g / cm^3
# Si number density = 21.530849 Si / 1000 Ang^3
#
#
#
# Elastic Constant Matrix: (Units=GPa)
#
#
# Indices 1 2 3 4 5 6 
#
# 1 88.4798 16.5275 2.5182 3.7123 0.7810 11.5816
# 2 16.5275 93.8943 9.8490 8.7644 -2.3791 8.0451
# 3 2.5182 9.8490 36.6669 12.1650 7.6197 8.8094
# 4 3.7123 8.7644 12.1650 26.7029 -0.3073 1.2341
# 5 0.7810 -2.3791 7.6197 -0.3073 23.2674 -2.2964
# 6 11.5816 8.0451 8.8094 1.2341 -2.2964 32.4076
#
#
#
# Elastic Compliance Matrix: (Units=1/GPa)
#
#
# Indices 1 2 3 4 5 6 
#
# 1 0.012258 -0.001833 0.001578 -0.001636 -0.001572 -0.004404
# 2 -0.001833 0.011600 -0.002211 -0.002460 0.001801 -0.001402
# 3 0.001578 -0.002211 0.038993 -0.016915 -0.014357 -0.010988
# 4 -0.001636 -0.002460 -0.016915 0.046056 0.006394 0.004493
# 5 -0.001572 0.001801 -0.014357 0.006394 0.048715 0.007226
# 6 -0.004404 -0.001402 -0.010988 0.004493 0.007226 0.036107
#
#
# Mechanical properties :
#
#
# Convention : Reuss Voigt Hill
#
# Bulk Modulus (GPa) = 17.26545 30.75894 24.01219
# Shear Modulus (GPa) = 22.93909 29.15200 26.04555
#
# Velocity S-wave (km/s) = 3.26760 3.68362 3.48183
# Velocity P-wave (km/s) = 4.71938 5.69289 5.22884
#
# Compressibility (1/GPa) = 0.05791915
#
# Stress axis : x y z
#
# Youngs Moduli (GPa) = 81.57623 86.20488 25.64539
#
# Poissons Ratio (x) = 0.15802 -0.04047
# Poissons Ratio (y) = 0.14954 0.05671
# Poissons Ratio (z) = -0.12872 0.19063
#
# Static dielectric constant tensor:
#      x y z
#    x 1.866990 -0.014980 0.058820 
#    y -0.014980 1.873700 -0.008140 
#    z 0.058820 -0.008140 1.772610 
# 
# From -- ./inp_files/401839.got.cif
#   From: 2010.05.17/outbox.cif.g08.bks.cpg/sg2_201_cif.got.tgz:401839.got - 2010.06.03 11:33:40.
