data_PCOD9090769
_publ_section_title
;
Structure prediction by ZEFSAII (Michael W. Deem and Ramdas Pophale) SiO2 
 PCOD9090769
Probable space group: P -1
;
_chemical_formula_sum "Si O2"
_cell_formula_units_Z 16
_cell_length_a 15.788159
_cell_length_b 12.349330
_cell_length_c 14.672460
_cell_angle_alpha 142.553713
_cell_angle_beta 48.076690
_cell_angle_gamma 154.720359
_cell_volume 729.011065
_symmetry_space_group_name_H-M "P -1"
_symmetry_group_IT_number 2
_symmetry_cell_setting 'triclinic'
loop_
_space_group_symop_operation_xyz
x,y,z
-x,-y,-z
loop_
_atom_site_type_symbol
_atom_site_label
_atom_site_fract_x
_atom_site_fract_y
_atom_site_fract_z
Si Si1 0.810870 0.388676 0.561048
Si Si2 0.459987 0.029377 0.696713
Si Si3 0.209948 0.243633 0.248255
Si Si4 0.795807 0.582336 0.089232
Si Si5 0.753896 0.171110 0.947948
Si Si6 0.353023 0.530207 0.532589
Si Si7 0.547958 0.744732 0.988783
Si Si8 0.602253 0.522861 0.343338
O O1 0.662870 0.125782 0.412575
O O2 0.848574 0.641655 0.673041
O O3 0.000000 0.500000 0.500000
O O4 0.682996 0.251300 0.653940
O O5 0.384262 0.773983 0.646994
O O6 0.416010 0.152918 0.865567
O O7 0.233844 0.297475 0.375692
O O8 0.405745 0.399106 0.168769
O O9 0.032536 0.879230 0.107222
O O10 0.741735 0.672112 0.256460
O O11 0.711795 0.302907 0.015843
O O12 0.680265 0.482884 0.015110
O O13 0.616196 0.854880 0.774409
O O14 0.000000 0.500000 0.000000
O O15 0.667908 0.016867 0.007483
O O16 0.555572 0.670714 0.485670
O O17 0.284971 0.413574 0.607445
#
# Coordination Sequence:
#
# PCOD9090769 Si02
#       8
#     2   2   2   2   2   2   2   2
#     4  10  25  46  68  91 120 158 215 267 329 375
#     4  10  23  43  68  88 125 166 200 269 321 369
#     4  11  23  40  65  94 122 167 213 265 309 373
#     4  11  21  35  61  90 131 172 202 258 306 360
#     4  11  19  36  57  91 137 171 207 253 300 367
#     4  10  19  39  58  91 126 163 213 250 307 370
#     4  11  22  41  63  95 127 166 214 249 318 375
#     4  10  20  33  60  90 126 171 209 245 304 375
#
# _framework density 21.947541999999999
#
# number of rings (size 3 to 8) (size 9 to 14) (size 15 to 20)
#    0.000    1.500    3.750    3.000    1.750    3.000 
#    2.250    2.500    0.000    0.000    0.000    0.000 
#    0.000    0.000    0.000    0.000    0.000    0.000 
#
# Total GULP energy -89104.153350 kJ/mol
# GULP energy per Si atom -5569.009584 kJ/mol
# Density = 2.189759 g / cm^3
# Si number density = 21.947542 Si / 1000 Ang^3
#
#
#
# Elastic Constant Matrix: (Units=GPa)
#
#
# Indices 1 2 3 4 5 6 
#
# 1 95.5354 26.3066 26.6594 -0.3220 -10.3245 13.3627
# 2 26.3066 33.5362 14.8754 2.2048 2.6291 16.8743
# 3 26.6594 14.8754 87.9919 -12.2326 6.3173 -1.3811
# 4 -0.3220 2.2048 -12.2326 20.4496 -3.3424 0.6291
# 5 -10.3245 2.6291 6.3173 -3.3424 33.5641 -5.8126
# 6 13.3627 16.8743 -1.3811 0.6291 -5.8126 25.8362
#
#
#
# Elastic Compliance Matrix: (Units=1/GPa)
#
#
# Indices 1 2 3 4 5 6 
#
# 1 0.015001 -0.011516 -0.002935 0.000723 0.006316 0.001009
# 2 -0.011516 0.065171 -0.008986 -0.013847 -0.015295 -0.040193
# 3 -0.002935 -0.008986 0.015300 0.009711 -0.000761 0.007797
# 4 0.000723 -0.013847 0.009711 0.057034 0.006774 0.009324
# 5 0.006316 -0.015295 -0.000761 0.006774 0.036295 0.014683
# 6 0.001009 -0.040193 0.007797 0.009324 0.014683 0.067928
#
#
# Mechanical properties :
#
#
# Convention : Reuss Voigt Hill
#
# Bulk Modulus (GPa) = 20.57688 39.19402 29.88545
# Shear Modulus (GPa) = 15.63462 25.91811 20.77637
#
# Velocity S-wave (km/s) = 2.67191 3.44017 3.08009
# Velocity P-wave (km/s) = 4.34910 5.80314 5.12792
#
# Compressibility (1/GPa) = 0.04859823
#
# Stress axis : x y z
#
# Youngs Moduli (GPa) = 66.66128 15.34427 65.35869
#
# Poissons Ratio (x) = 0.17670 0.19185
# Poissons Ratio (y) = 0.76764 0.58733
# Poissons Ratio (z) = 0.19567 0.13789
#
# Static dielectric constant tensor:
#      x y z
#    x 1.842390 0.021670 -0.013780 
#    y 0.021670 1.868140 0.011440 
#    z -0.013780 0.011440 1.874570 
# 
# From -- ./inp_files/532044.got.cif
#   From: 2010.05.17/outbox.cif.g08.bks.cpg/sg2_267_cif.got.tgz:532044.got - 2010.06.03 11:33:40.
