data_PCOD9090263
_publ_section_title
;
Structure prediction by ZEFSAII (Michael W. Deem and Ramdas Pophale) SiO2 
 PCOD9090263
Probable space group: P -1
;
_chemical_formula_sum "Si O2"
_cell_formula_units_Z 16
_cell_length_a 8.067477
_cell_length_b 11.459754
_cell_length_c 12.111393
_cell_angle_alpha 72.049033
_cell_angle_beta 46.790243
_cell_angle_gamma 58.004776
_cell_volume 689.430759
_symmetry_space_group_name_H-M "P -1"
_symmetry_group_IT_number 2
_symmetry_cell_setting 'triclinic'
loop_
_space_group_symop_operation_xyz
x,y,z
-x,-y,-z
loop_
_atom_site_type_symbol
_atom_site_label
_atom_site_fract_x
_atom_site_fract_y
_atom_site_fract_z
Si Si1 0.153981 0.837120 0.780188
Si Si2 0.018444 0.497243 0.162181
Si Si3 0.663198 0.824184 0.949428
Si Si4 0.470464 0.102390 0.263446
Si Si5 0.902252 0.594187 0.625037
Si Si6 0.263568 0.896252 0.467686
Si Si7 0.566716 0.445656 0.150583
Si Si8 0.490921 0.695802 0.237179
O O1 0.277693 0.895569 0.799716
O O2 0.229813 0.871143 0.617179
O O3 0.292795 0.672898 0.788348
O O4 0.853188 0.879379 0.896850
O O5 0.161118 0.338432 0.106957
O O6 0.913579 0.486225 0.334417
O O7 0.782914 0.593635 0.165468
O O8 0.223292 0.555609 0.029298
O O9 0.550116 0.884785 0.863727
O O10 0.473322 0.819097 0.130694
O O11 0.213896 0.240398 0.384170
O O12 0.451310 0.965971 0.348112
O O13 0.644682 0.591930 0.789756
O O14 0.000000 0.500000 0.500000
O O15 0.355181 0.758012 0.394888
O O16 0.000000 0.000000 0.500000
O O17 0.414289 0.595873 0.232019
#
# Coordination Sequence:
#
# PCOD9090263 Si02
#       8
#     2   2   2   2   2   2   2   2
#     4  11  21  42  70  88 127 167 211 259 324 369
#     4  10  19  38  64  95 131 155 203 262 326 373
#     4  10  19  43  68  95 126 162 207 269 317 371
#     4  10  24  43  63  90 131 169 210 261 314 371
#     4  10  23  36  64  96 128 162 206 263 313 380
#     4  12  27  43  62  88 129 179 207 262 316 376
#     4  10  20  39  64  96 124 161 204 265 320 367
#     4  11  23  38  68  94 124 164 216 255 319 388
#
# _framework density 23.207553000000001
#
# number of rings (size 3 to 8) (size 9 to 14) (size 15 to 20)
#    0.000    1.500    3.750    1.500    5.250    2.000 
#    0.000    0.625    0.000    0.000    0.000    0.000 
#    0.000    0.000    0.000    0.000    0.000    0.000 
#
# Total GULP energy -89343.181372 kJ/mol
# GULP energy per Si atom -5583.948836 kJ/mol
# Density = 2.315473 g / cm^3
# Si number density = 23.207553 Si / 1000 Ang^3
#
#
#
# Elastic Constant Matrix: (Units=GPa)
#
#
# Indices 1 2 3 4 5 6 
#
# 1 95.1403 0.8171 28.6996 -13.9110 12.8029 8.2840
# 2 0.8171 69.6429 23.4469 -3.2315 15.1871 0.8275
# 3 28.6996 23.4469 50.7317 -17.2882 20.3290 -10.5095
# 4 -13.9110 -3.2315 -17.2882 41.1404 -2.1740 3.5620
# 5 12.8029 15.1871 20.3290 -2.1740 36.7521 -20.2911
# 6 8.2840 0.8275 -10.5095 3.5620 -20.2911 27.4414
#
#
#
# Elastic Compliance Matrix: (Units=1/GPa)
#
#
# Indices 1 2 3 4 5 6 
#
# 1 0.017952 0.007000 -0.010852 0.003104 -0.014508 -0.020917
# 2 0.007000 0.021760 -0.011829 -0.000096 -0.015067 -0.018428
# 3 -0.010852 -0.011829 0.039887 0.010704 -0.005220 0.013660
# 4 0.003104 -0.000096 0.010704 0.030016 -0.009448 -0.007717
# 5 -0.014508 -0.015067 -0.005220 -0.009448 0.072767 0.057868
# 6 -0.020917 -0.018428 0.013660 -0.007717 0.057868 0.092334
#
#
# Mechanical properties :
#
#
# Convention : Reuss Voigt Hill
#
# Bulk Modulus (GPa) = 20.73196 35.71578 28.22387
# Shear Modulus (GPa) = 15.52033 31.90353 23.71193
#
# Velocity S-wave (km/s) = 2.58885 3.71172 3.19992
# Velocity P-wave (km/s) = 4.22952 5.81312 5.08336
#
# Compressibility (1/GPa) = 0.04823471
#
# Stress axis : x y z
#
# Youngs Moduli (GPa) = 55.70440 45.95687 25.07080
#
# Poissons Ratio (x) = -0.32168 0.27208
# Poissons Ratio (y) = -0.38990 0.29656
# Poissons Ratio (z) = 0.60453 0.54362
#
# Static dielectric constant tensor:
#      x y z
#    x 1.934800 0.007930 -0.010460 
#    y 0.007930 1.889910 0.000060 
#    z -0.010460 0.000060 1.904340 
# 
# From -- ./inp_files/187659.got.cif
#   From: 2010.05.17/outbox.cif.g08.bks.cpg/sg2_94_cif.got.tgz:187659.got - 2010.06.03 11:33:40.
