data_PCOD9090220
_publ_section_title
;
Structure prediction by ZEFSAII (Michael W. Deem and Ramdas Pophale) SiO2 
 PCOD9090220
Probable space group: P -1
;
_chemical_formula_sum "Si O2"
_cell_formula_units_Z 14
_cell_length_a 18.374483
_cell_length_b 8.549312
_cell_length_c 12.282922
_cell_angle_alpha 105.275088
_cell_angle_beta 46.083912
_cell_angle_gamma 140.522979
_cell_volume 711.052511
_symmetry_space_group_name_H-M "P -1"
_symmetry_group_IT_number 2
_symmetry_cell_setting 'triclinic'
loop_
_space_group_symop_operation_xyz
x,y,z
-x,-y,-z
loop_
_atom_site_type_symbol
_atom_site_label
_atom_site_fract_x
_atom_site_fract_y
_atom_site_fract_z
Si Si1 0.501786 0.149075 0.673997
Si Si2 0.114870 0.673768 0.633519
Si Si3 0.491689 0.228370 0.456245
Si Si4 0.233575 0.563764 0.105884
Si Si5 0.822185 0.799653 0.072003
Si Si6 0.100713 0.750532 0.030776
Si Si7 0.662545 0.264860 0.730787
O O1 0.533659 0.284555 0.551711
O O2 0.650069 0.367273 0.658570
O O3 0.489390 0.938471 0.624507
O O4 0.298663 0.934019 0.886033
O O5 0.220321 0.731763 0.433798
O O6 0.941519 0.552472 0.756663
O O7 0.029090 0.423412 0.759516
O O8 0.278225 0.981923 0.594055
O O9 0.637258 0.530872 0.290809
O O10 0.247181 0.548209 0.217757
O O11 0.199636 0.361368 0.030147
O O12 0.442561 0.917767 0.921268
O O13 0.857325 0.020381 0.022699
O O14 0.000000 0.000000 0.000000
O O15 0.000000 0.500000 0.000000
#
# Coordination Sequence:
#
# PCOD9090220 Si02
#       7
#     2   2   2   2   2   2   2
#     4  10  19  38  64  92 127 170 208 260 322 382
#     4  11  20  40  70  97 127 172 219 258 327 387
#     4  10  21  38  66  96 131 161 219 266 322 388
#     4  11  22  44  65  99 129 172 215 272 315 381
#     4  12  26  41  62  99 135 165 216 275 325 379
#     4  12  23  39  63  94 131 171 212 268 332 381
#     4  10  22  39  73  92 132 172 221 254 319 395
#
# _framework density 19.689124
#
# number of rings (size 3 to 8) (size 9 to 14) (size 15 to 20)
#    0.000    1.143    5.714    2.143    4.000    0.571 
#    0.000    1.429    0.000    0.000    0.000    0.000 
#    0.000    0.000    0.000    0.000    0.000    0.000 
#
# Total GULP energy -78192.091467 kJ/mol
# GULP energy per Si atom -5585.149390 kJ/mol
# Density = 1.964431 g / cm^3
# Si number density = 19.689124 Si / 1000 Ang^3
#
#
#
# Elastic Constant Matrix: (Units=GPa)
#
#
# Indices 1 2 3 4 5 6 
#
# 1 124.2790 63.9227 60.6031 -5.7623 3.8502 30.9830
# 2 63.9227 89.0912 35.1471 0.2629 9.6763 23.3508
# 3 60.6031 35.1471 123.7756 -5.3753 -0.2428 15.4109
# 4 -5.7623 0.2629 -5.3753 28.4471 5.4430 11.0242
# 5 3.8502 9.6763 -0.2428 5.4430 40.2321 9.3313
# 6 30.9830 23.3508 15.4109 11.0242 9.3313 26.8635
#
#
#
# Elastic Compliance Matrix: (Units=1/GPa)
#
#
# Indices 1 2 3 4 5 6 
#
# 1 0.018709 -0.007460 -0.004494 0.009162 0.002732 -0.017224
# 2 -0.007460 0.019047 -0.000795 0.001430 -0.002383 -0.007255
# 3 -0.004494 -0.000795 0.010705 0.001404 0.000752 -0.001104
# 4 0.009162 0.001430 0.001404 0.050142 -0.000324 -0.033080
# 5 0.002732 -0.002383 0.000752 -0.000324 0.027773 -0.011026
# 6 -0.017224 -0.007255 -0.001104 -0.033080 -0.011026 0.081436
#
#
# Mechanical properties :
#
#
# Convention : Reuss Voigt Hill
#
# Bulk Modulus (GPa) = 43.54940 72.94354 58.24647
# Shear Modulus (GPa) = 20.74977 30.94006 25.84492
#
# Velocity S-wave (km/s) = 3.24986 3.96843 3.62698
# Velocity P-wave (km/s) = 6.02068 7.62404 6.86930
#
# Compressibility (1/GPa) = 0.02296243
#
# Stress axis : x y z
#
# Youngs Moduli (GPa) = 53.44936 52.50180 93.41143
#
# Poissons Ratio (x) = 0.39167 0.41982
# Poissons Ratio (y) = 0.39874 0.07427
# Poissons Ratio (z) = 0.24022 0.04175
#
# Static dielectric constant tensor:
#      x y z
#    x 1.683530 0.035180 -0.015590 
#    y 0.035180 1.652110 0.027000 
#    z -0.015590 0.027000 1.724040 
# 
# From -- ./inp_files/215472.got.cif
#   From: 2010.05.17/outbox.cif.g08.bks.cpg/sg2_108_cif.got.tgz:215472.got - 2010.06.03 11:33:40.
