data_PCOD9090339
_publ_section_title
;
Structure prediction by ZEFSAII (Michael W. Deem and Ramdas Pophale) SiO2 
 PCOD9090339
Probable space group: P -1
;
_chemical_formula_sum "Si O2"
_cell_formula_units_Z 16
_cell_length_a 23.328303
_cell_length_b 5.170000
_cell_length_c 7.693149
_cell_angle_alpha 78.139579
_cell_angle_beta 58.867154
_cell_angle_gamma 55.263285
_cell_volume 647.413212
_symmetry_space_group_name_H-M "P -1"
_symmetry_group_IT_number 2
_symmetry_cell_setting 'triclinic'
loop_
_space_group_symop_operation_xyz
x,y,z
-x,-y,-z
loop_
_atom_site_type_symbol
_atom_site_label
_atom_site_fract_x
_atom_site_fract_y
_atom_site_fract_z
Si Si1 0.442996 0.491556 0.449005
Si Si2 0.164181 0.154782 0.797729
Si Si3 0.082931 0.653552 0.109372
Si Si4 0.242866 0.183766 0.119280
Si Si5 0.433678 0.080748 0.237987
Si Si6 0.290313 0.615966 0.869002
Si Si7 0.253784 0.374731 0.440627
Si Si8 0.907282 0.016633 0.309261
O O1 0.500000 0.500000 0.500000
O O2 0.462100 0.192753 0.343680
O O3 0.367635 0.568751 0.669077
O O4 0.429239 0.773418 0.307440
O O5 0.228986 0.248912 0.662478
O O6 0.221399 0.789450 0.807242
O O7 0.112594 0.232714 0.694802
O O8 0.101825 0.337220 0.024244
O O9 0.154514 0.490772 0.160022
O O10 0.085824 0.841320 0.908092
O O11 0.992179 0.860491 0.290545
O O12 0.256318 0.165868 0.305139
O O13 0.301724 0.288615 0.946183
O O14 0.261667 0.868481 0.037001
O O15 0.337768 0.347955 0.323889
O O16 0.500000 0.000000 0.000000
O O17 0.172559 0.724206 0.500367
#
# Coordination Sequence:
#
# PCOD9090339 Si02
#       8
#     2   2   2   2   2   2   2   2
#     4  12  27  47  76 104 134 179 230 285 338 406
#     4  10  19  39  64  92 124 180 219 277 329 403
#     4   9  20  36  61  97 125 171 232 276 329 392
#     4  11  25  41  65 100 133 182 218 285 328 401
#     4  12  28  48  71 105 143 179 222 281 348 413
#     4  11  23  43  69  91 136 171 235 270 331 401
#     4  11  26  40  66  94 136 177 222 270 352 400
#     4  10  19  38  65  90 130 174 225 278 334 398
#
# _framework density 24.713736000000001
#
# number of rings (size 3 to 8) (size 9 to 14) (size 15 to 20)
#    0.000    1.250    2.500    2.625    7.000    0.500 
#    0.000    0.625    0.000    0.000    0.000    0.000 
#    0.000    0.000    0.000    0.000    0.000    0.000 
#
# Total GULP energy -89284.789130 kJ/mol
# GULP energy per Si atom -5580.299321 kJ/mol
# Density = 2.465749 g / cm^3
# Si number density = 24.713736 Si / 1000 Ang^3
#
#
#
# Elastic Constant Matrix: (Units=GPa)
#
#
# Indices 1 2 3 4 5 6 
#
# 1 99.5909 0.4205 28.6778 19.8238 4.9107 12.8849
# 2 0.4205 31.3599 12.8337 0.1922 -1.0820 13.9252
# 3 28.6778 12.8337 97.5558 19.7039 -19.1351 -4.0618
# 4 19.8238 0.1922 19.7039 30.0537 1.2711 -2.8276
# 5 4.9107 -1.0820 -19.1351 1.2711 33.7333 6.3124
# 6 12.8849 13.9252 -4.0618 -2.8276 6.3124 32.9762
#
#
#
# Elastic Compliance Matrix: (Units=1/GPa)
#
#
# Indices 1 2 3 4 5 6 
#
# 1 0.013793 0.005094 -0.004091 -0.007120 -0.002362 -0.008203
# 2 0.005094 0.044996 -0.008235 -0.000332 0.000173 -0.022067
# 3 -0.004091 -0.008235 0.016014 -0.007679 0.008825 0.004701
# 4 -0.007120 -0.000332 -0.007679 0.043926 -0.006285 0.006946
# 5 -0.002362 0.000173 0.008825 -0.006285 0.036274 -0.005545
# 6 -0.008203 -0.022067 0.004701 0.006946 -0.005545 0.045085
#
#
# Mechanical properties :
#
#
# Convention : Reuss Voigt Hill
#
# Bulk Modulus (GPa) = 16.57304 34.70784 25.64044
# Shear Modulus (GPa) = 21.30690 31.79094 26.54892
#
# Velocity S-wave (km/s) = 2.93942 3.59049 3.28114
# Velocity P-wave (km/s) = 4.27093 5.59135 4.97514
#
# Compressibility (1/GPa) = 0.06033894
#
# Stress axis : x y z
#
# Youngs Moduli (GPa) = 72.50236 22.22402 62.44428
#
# Poissons Ratio (x) = -0.11321 0.25549
# Poissons Ratio (y) = -0.36932 0.51421
# Poissons Ratio (z) = 0.29664 0.18301
#
# Static dielectric constant tensor:
#      x y z
#    x 2.144760 0.086880 -0.034440 
#    y 0.086880 2.161690 -0.086970 
#    z -0.034440 -0.086970 1.970990 
# 
# From -- ./inp_files/56054.got.cif
#   From: 2010.05.17/outbox.cif.g08.bks.cpg/sg2_29_cif.got.tgz:56054.got - 2010.06.03 11:33:40.
