data_PCOD9090739
_publ_section_title
;
Structure prediction by ZEFSAII (Michael W. Deem and Ramdas Pophale) SiO2 
 PCOD9090739
Probable space group: P -1
;
_chemical_formula_sum "Si O2"
_cell_formula_units_Z 16
_cell_length_a 11.104031
_cell_length_b 8.484605
_cell_length_c 15.639651
_cell_angle_alpha 142.054288
_cell_angle_beta 99.912026
_cell_angle_gamma 84.440680
_cell_volume 890.690199
_symmetry_space_group_name_H-M "P -1"
_symmetry_group_IT_number 2
_symmetry_cell_setting 'triclinic'
loop_
_space_group_symop_operation_xyz
x,y,z
-x,-y,-z
loop_
_atom_site_type_symbol
_atom_site_label
_atom_site_fract_x
_atom_site_fract_y
_atom_site_fract_z
Si Si1 0.545412 0.120769 0.351900
Si Si2 0.267464 0.769515 0.714930
Si Si3 0.013647 0.364425 0.076073
Si Si4 0.635825 0.106696 0.037400
Si Si5 0.300283 0.377635 0.419856
Si Si6 0.392490 0.421418 0.887892
Si Si7 0.835485 0.851811 0.850372
Si Si8 0.861983 0.754541 0.137920
O O1 0.600514 0.125692 0.264088
O O2 0.404167 0.177390 0.361417
O O3 0.625016 0.369391 0.504485
O O4 0.576917 0.843121 0.268673
O O5 0.282326 0.809774 0.834052
O O6 0.252604 0.488101 0.550815
O O7 0.163842 0.944721 0.739534
O O8 0.096507 0.317652 0.982916
O O9 0.910126 0.127425 0.965483
O O10 0.954846 0.634105 0.164570
O O11 0.088351 0.329853 0.157429
O O12 0.623437 0.355139 0.084769
O O13 0.500000 0.000000 0.000000
O O14 0.709914 0.904886 0.906572
O O15 0.197632 0.267720 0.296498
O O16 0.269221 0.376146 0.908191
O O17 0.500000 0.500000 0.000000
#
# Coordination Sequence:
#
# PCOD9090739 Si02
#       8
#     2   2   2   2   2   2   2   2
#     4   8  18  35  58  79 118 154 181 225 297 351
#     4   9  18  35  58  79 111 151 181 232 289 341
#     4  10  22  36  60  82 117 150 200 246 275 330
#     4  12  22  34  60  91 115 143 194 248 287 341
#     4   9  18  36  60  80 120 155 183 227 300 352
#     4  11  21  34  59  91 114 151 189 242 297 341
#     4  11  21  37  59  89 111 155 197 233 291 341
#     4  10  19  39  57  83 116 147 191 248 288 329
#
# _framework density 17.963598000000001
#
# number of rings (size 3 to 8) (size 9 to 14) (size 15 to 20)
#    0.750    1.250    2.500    3.000    0.000    0.000 
#    0.000    1.875    5.500    0.000    0.000    0.000 
#    0.000    0.000    0.000    0.000    0.000    0.000 
#
# Total GULP energy -89076.917890 kJ/mol
# GULP energy per Si atom -5567.307368 kJ/mol
# Density = 1.792271 g / cm^3
# Si number density = 17.963598 Si / 1000 Ang^3
#
#
#
# Elastic Constant Matrix: (Units=GPa)
#
#
# Indices 1 2 3 4 5 6 
#
# 1 76.9085 20.8575 13.8223 11.1601 -10.2990 -9.1921
# 2 20.8575 76.6527 11.2324 -2.8635 -3.0378 -18.0033
# 3 13.8223 11.2324 41.1258 -11.9026 -2.6310 -10.1898
# 4 11.1601 -2.8635 -11.9026 11.9855 -1.2019 -2.9184
# 5 -10.2990 -3.0378 -2.6310 -1.2019 23.3891 3.7306
# 6 -9.1921 -18.0033 -10.1898 -2.9184 3.7306 31.0461
#
#
#
# Elastic Compliance Matrix: (Units=1/GPa)
#
#
# Indices 1 2 3 4 5 6 
#
# 1 0.026892 -0.007899 -0.024332 -0.052925 0.007021 -0.010423
# 2 -0.007899 0.017854 0.007016 0.021503 -0.001257 0.012490
# 3 -0.024332 0.007016 0.064717 0.095045 -0.001990 0.027279
# 4 -0.052925 0.021503 0.095045 0.244257 -0.005501 0.051616
# 5 0.007021 -0.001257 -0.001990 -0.005501 0.046030 -0.005351
# 6 -0.010423 0.012490 0.027279 0.051616 -0.005351 0.050815
#
#
# Mechanical properties :
#
#
# Convention : Reuss Voigt Hill
#
# Bulk Modulus (GPa) = 16.93948 31.83459 24.38704
# Shear Modulus (GPa) = 9.60297 23.20245 16.40271
#
# Velocity S-wave (km/s) = 2.31461 3.59783 3.02505
# Velocity P-wave (km/s) = 4.07352 5.91772 5.08001
#
# Compressibility (1/GPa) = 0.05903369
#
# Stress axis : x y z
#
# Youngs Moduli (GPa) = 37.18590 56.00999 15.45192
#
# Poissons Ratio (x) = 0.44241 0.37597
# Poissons Ratio (y) = 0.29372 -0.10841
# Poissons Ratio (z) = 0.90480 -0.39297
#
# Static dielectric constant tensor:
#      x y z
#    x 1.641090 -0.007030 -0.008360 
#    y -0.007030 1.618130 0.018990 
#    z -0.008360 0.018990 1.614630 
# 
# From -- ./inp_files/244506.got.cif
#   From: 2010.05.17/outbox.cif.g08.bks.cpg/sg2_123_cif.got.tgz:244506.got - 2010.06.03 11:33:40.
