data_PCOD9090729
_publ_section_title
;
Structure prediction by ZEFSAII (Michael W. Deem and Ramdas Pophale) SiO2 
 PCOD9090729
Probable space group: P -1
;
_chemical_formula_sum "Si O2"
_cell_formula_units_Z 14
_cell_length_a 9.175600
_cell_length_b 8.174492
_cell_length_c 15.957253
_cell_angle_alpha 147.033134
_cell_angle_beta 83.474226
_cell_angle_gamma 94.834538
_cell_volume 646.935575
_symmetry_space_group_name_H-M "P -1"
_symmetry_group_IT_number 2
_symmetry_cell_setting 'triclinic'
loop_
_space_group_symop_operation_xyz
x,y,z
-x,-y,-z
loop_
_atom_site_type_symbol
_atom_site_label
_atom_site_fract_x
_atom_site_fract_y
_atom_site_fract_z
Si Si1 0.085748 0.958212 0.100041
Si Si2 0.681873 0.517343 0.685572
Si Si3 0.292784 0.537957 0.981745
Si Si4 0.800742 0.210599 0.156849
Si Si5 0.347960 0.891186 0.625123
Si Si6 0.411778 0.344511 0.067140
Si Si7 0.395139 0.445048 0.580112
O O1 0.188752 0.247754 0.222954
O O2 0.142504 0.725988 0.065855
O O3 0.119738 0.786124 0.936068
O O4 0.919775 0.074960 0.156004
O O5 0.725624 0.213436 0.501620
O O6 0.622391 0.493015 0.773115
O O7 0.539262 0.609688 0.678680
O O8 0.416566 0.694731 0.982950
O O9 0.293306 0.203826 0.799715
O O10 0.346500 0.513828 0.062981
O O11 0.728467 0.521207 0.327048
O O12 0.672298 0.968773 0.055392
O O13 0.334720 0.632933 0.585948
O O14 0.525053 0.868418 0.584823
#
# Coordination Sequence:
#
# PCOD9090729 Si02
#       7
#     2   2   2   2   2   2   2
#     4  10  22  34  62  81 112 144 197 224 272 327
#     4   9  19  38  58  82 107 153 185 227 268 343
#     4  11  21  35  56  91 110 141 181 246 277 322
#     4  10  19  39  56  84 107 154 188 226 265 341
#     4   9  20  34  59  82 119 137 186 228 289 319
#     4  10  21  33  59  81 115 140 191 228 277 320
#     4   9  17  35  60  77 111 150 181 227 270 335
#
# _framework density 21.640484000000001
#
# number of rings (size 3 to 8) (size 9 to 14) (size 15 to 20)
#    0.857    1.429    1.429    1.714    2.000    3.429 
#    0.000    0.714    3.143    2.571    0.000    0.000 
#    0.000    0.000    0.000    0.000    0.000    0.000 
#
# Total GULP energy -78023.476611 kJ/mol
# GULP energy per Si atom -5573.105472 kJ/mol
# Density = 2.159123 g / cm^3
# Si number density = 21.640484 Si / 1000 Ang^3
#
#
#
# Elastic Constant Matrix: (Units=GPa)
#
#
# Indices 1 2 3 4 5 6 
#
# 1 26.9776 -0.2575 12.0839 -6.3903 -4.0359 -5.0360
# 2 -0.2575 56.5189 36.1616 -17.7759 8.2623 -1.9000
# 3 12.0839 36.1616 85.8093 -22.9634 -0.1652 -4.5501
# 4 -6.3903 -17.7759 -22.9634 34.3774 -1.6910 -0.7675
# 5 -4.0359 8.2623 -0.1652 -1.6910 15.3272 -1.4590
# 6 -5.0360 -1.9000 -4.5501 -0.7675 -1.4590 27.8667
#
#
#
# Elastic Compliance Matrix: (Units=1/GPa)
#
#
# Indices 1 2 3 4 5 6 
#
# 1 0.044729 0.005176 -0.005959 0.007713 0.010558 0.008228
# 2 0.005176 0.029234 -0.010850 0.008180 -0.013547 0.000673
# 3 -0.005959 -0.010850 0.018811 0.006147 0.005323 0.001703
# 4 0.007713 0.008180 0.006147 0.039069 0.002394 0.004157
# 5 0.010558 -0.013547 0.005323 0.002394 0.076210 0.005909
# 6 0.008228 0.000673 0.001703 0.004157 0.005909 0.038120
#
#
# Mechanical properties :
#
#
# Convention : Reuss Voigt Hill
#
# Bulk Modulus (GPa) = 14.38709 29.47575 21.93142
# Shear Modulus (GPa) = 17.08759 23.60210 20.34485
#
# Velocity S-wave (km/s) = 2.81305 3.30608 3.06948
# Velocity P-wave (km/s) = 4.14894 5.31260 4.76641
#
# Compressibility (1/GPa) = 0.06950675
#
# Stress axis : x y z
#
# Youngs Moduli (GPa) = 22.35685 34.20625 53.16056
#
# Poissons Ratio (x) = -0.17704 0.31679
# Poissons Ratio (y) = -0.11571 0.57680
# Poissons Ratio (z) = 0.13323 0.37115
#
# Static dielectric constant tensor:
#      x y z
#    x 1.809090 0.006040 -0.022680 
#    y 0.006040 1.829150 -0.009020 
#    z -0.022680 -0.009020 1.840380 
# 
# From -- ./inp_files/295644.got.cif
#   From: 2010.05.17/outbox.cif.g08.bks.cpg/sg2_148_cif.got.tgz:295644.got - 2010.06.03 11:33:40.
