data_PCOD9090810
_publ_section_title
;
Structure prediction by ZEFSAII (Michael W. Deem and Ramdas Pophale) SiO2 
 PCOD9090810
Probable space group: P -1
;
_chemical_formula_sum "Si O2"
_cell_formula_units_Z 16
_cell_length_a 8.672837
_cell_length_b 12.099991
_cell_length_c 11.902082
_cell_angle_alpha 119.246273
_cell_angle_beta 124.371924
_cell_angle_gamma 53.412227
_cell_volume 805.697072
_symmetry_space_group_name_H-M "P -1"
_symmetry_group_IT_number 2
_symmetry_cell_setting 'triclinic'
loop_
_space_group_symop_operation_xyz
x,y,z
-x,-y,-z
loop_
_atom_site_type_symbol
_atom_site_label
_atom_site_fract_x
_atom_site_fract_y
_atom_site_fract_z
Si Si1 0.829024 0.486305 0.575992
Si Si2 0.989686 0.697972 0.833607
Si Si3 0.866435 0.238615 0.605199
Si Si4 0.557382 0.502142 0.152330
Si Si5 0.290629 0.334960 0.590360
Si Si6 0.114213 0.601506 0.088464
Si Si7 0.254295 0.999379 0.513822
Si Si8 0.700384 0.926938 0.669432
O O1 0.857010 0.607564 0.718035
O O2 0.761150 0.383099 0.562781
O O3 0.702641 0.557508 0.448145
O O4 0.063858 0.392040 0.580583
O O5 0.853731 0.851508 0.798165
O O6 0.201925 0.618640 0.806283
O O7 0.050878 0.683116 0.982517
O O8 0.930765 0.289144 0.772809
O O9 0.731370 0.152893 0.523781
O O10 0.062711 0.124576 0.559513
O O11 0.557087 0.653513 0.250090
O O12 0.364961 0.502417 0.141634
O O13 0.500000 0.500000 0.000000
O O14 0.322414 0.197712 0.470641
O O15 0.000000 0.500000 0.000000
O O16 0.458345 0.018142 0.644338
O O17 0.224810 0.008163 0.370163
#
# Coordination Sequence:
#
# PCOD9090810 Si02
#       8
#     2   2   2   2   2   2   2   2
#     4   9  16  30  56  84 111 140 177 237 293 325
#     4   9  19  37  60  84 111 141 190 242 275 330
#     4  11  21  38  54  84 123 149 181 230 286 347
#     4   9  19  32  53  83 113 143 183 222 290 341
#     4   9  16  30  56  83 108 140 185 241 277 322
#     4  11  21  37  56  85 120 147 176 230 300 343
#     4  10  23  36  58  82 113 159 189 229 273 327
#     4  10  19  39  60  82 106 150 206 231 263 330
#
# _framework density 19.85858
#
# number of rings (size 3 to 8) (size 9 to 14) (size 15 to 20)
#    0.000    2.250    2.500    1.500    0.000    0.000 
#    2.250    3.125    0.000    0.000    0.000    0.000 
#    0.000    0.000    0.000    0.000    0.000    0.000 
#
# Total GULP energy -89072.221799 kJ/mol
# GULP energy per Si atom -5567.013862 kJ/mol
# Density = 1.981338 g / cm^3
# Si number density = 19.858580 Si / 1000 Ang^3
#
#
#
# Elastic Constant Matrix: (Units=GPa)
#
#
# Indices 1 2 3 4 5 6 
#
# 1 81.1488 25.3858 3.6573 -4.9359 0.1921 13.6346
# 2 25.3858 55.2179 9.9775 -15.6967 -6.5673 24.1720
# 3 3.6573 9.9775 66.9853 -1.2540 -8.1355 10.0515
# 4 -4.9359 -15.6967 -1.2540 31.1917 2.7341 -2.3874
# 5 0.1921 -6.5673 -8.1355 2.7341 26.2028 -4.1333
# 6 13.6346 24.1720 10.0515 -2.3874 -4.1333 27.3481
#
#
#
# Elastic Compliance Matrix: (Units=1/GPa)
#
#
# Indices 1 2 3 4 5 6 
#
# 1 0.014589 -0.006247 0.000220 -0.000830 -0.001863 -0.002187
# 2 -0.006247 0.038706 -0.000353 0.015954 0.003388 -0.029062
# 3 0.000220 -0.000353 0.016245 -0.000250 0.004166 -0.005161
# 4 -0.000830 0.015954 -0.000250 0.039308 -0.001821 -0.010439
# 5 -0.001863 0.003388 0.004166 -0.001821 0.040893 0.002424
# 6 -0.002187 -0.029062 -0.005161 -0.010439 0.002424 0.064694
#
#
# Mechanical properties :
#
#
# Convention : Reuss Voigt Hill
#
# Bulk Modulus (GPa) = 17.61194 31.26589 24.43891
# Shear Modulus (GPa) = 20.31524 27.90394 24.10959
#
# Velocity S-wave (km/s) = 3.20190 3.75258 3.48812
# Velocity P-wave (km/s) = 4.74947 5.87828 5.34377
#
# Compressibility (1/GPa) = 0.05677967
#
# Stress axis : x y z
#
# Youngs Moduli (GPa) = 68.54612 25.83568 61.55802
#
# Poissons Ratio (x) = 0.16140 -0.01356
# Poissons Ratio (y) = 0.42822 0.02174
# Poissons Ratio (z) = -0.01510 0.00912
#
# Static dielectric constant tensor:
#      x y z
#    x 1.768260 -0.015500 -0.013190 
#    y -0.015500 1.782280 -0.008480 
#    z -0.013190 -0.008480 1.722570 
# 
# From -- ./inp_files/390803.got.cif
#   From: 2010.05.17/outbox.cif.g08.bks.cpg/sg2_196_cif.got.tgz:390803.got - 2010.06.03 11:33:40.
