data_PCOD9090095
_publ_section_title
;
Structure prediction by ZEFSAII (Michael W. Deem and Ramdas Pophale) SiO2 
 PCOD9090095
Probable space group: P -1
;
_chemical_formula_sum "Si O2"
_cell_formula_units_Z 16
_cell_length_a 11.856601
_cell_length_b 13.119246
_cell_length_c 9.479721
_cell_angle_alpha 76.243779
_cell_angle_beta 99.173285
_cell_angle_gamma 34.282685
_cell_volume 612.743775
_symmetry_space_group_name_H-M "P -1"
_symmetry_group_IT_number 2
_symmetry_cell_setting 'triclinic'
loop_
_space_group_symop_operation_xyz
x,y,z
-x,-y,-z
loop_
_atom_site_type_symbol
_atom_site_label
_atom_site_fract_x
_atom_site_fract_y
_atom_site_fract_z
Si Si1 0.912397 0.375489 0.386995
Si Si2 0.765049 0.267832 0.310946
Si Si3 0.523630 0.079729 0.270514
Si Si4 0.290169 0.267415 0.871188
Si Si5 0.761192 0.331291 0.764481
Si Si6 0.900839 0.002394 0.799664
Si Si7 0.841878 0.489068 0.762427
Si Si8 0.206701 0.134572 0.226954
O O1 0.788810 0.364036 0.350013
O O2 0.705198 0.641812 0.268461
O O3 0.049306 0.283933 0.291277
O O4 0.165696 0.168903 0.605246
O O5 0.489420 0.454173 0.252078
O O6 0.838043 0.211086 0.178046
O O7 0.000000 0.000000 0.500000
O O8 0.423448 0.238749 0.321836
O O9 0.432086 0.036318 0.296221
O O10 0.362916 0.250275 0.045787
O O11 0.011189 0.440957 0.742659
O O12 0.500000 0.000000 0.000000
O O13 0.801981 0.415590 0.691543
O O14 0.756831 0.234449 0.691947
O O15 0.010350 0.097094 0.991037
O O16 0.738941 0.034902 0.707809
O O17 0.020319 0.310949 0.994928
#
# Coordination Sequence:
#
# PCOD9090095 Si02
#       8
#     2   2   2   2   2   2   2   2
#     4  11  22  39  65  95 125 168 213 261 323 381
#     4  11  24  42  61  95 134 170 219 267 324 383
#     4  11  20  38  67  91 124 163 211 262 317 387
#     4  11  24  41  61  96 133 164 204 263 327 383
#     4  10  21  41  65  93 126 168 220 267 319 385
#     4   9  21  39  65  94 121 170 221 265 324 381
#     4  10  19  38  63  94 121 163 214 256 320 386
#     4   9  17  35  63  92 123 158 209 267 317 379
#
# _framework density 26.112055000000002
#
# number of rings (size 3 to 8) (size 9 to 14) (size 15 to 20)
#    0.000    1.750    2.500    2.250    0.000    5.000 
#    6.750    0.000    0.000    0.000    0.000    0.000 
#    0.000    0.000    0.000    0.000    0.000    0.000 
#
# Total GULP energy -89531.906917 kJ/mol
# GULP energy per Si atom -5595.744182 kJ/mol
# Density = 2.605262 g / cm^3
# Si number density = 26.112055 Si / 1000 Ang^3
#
#
#
# Elastic Constant Matrix: (Units=GPa)
#
#
# Indices 1 2 3 4 5 6 
#
# 1 113.0820 46.8139 20.8646 -15.6190 -5.7666 24.5623
# 2 46.8139 121.4110 18.2182 -15.4713 0.1102 29.5175
# 3 20.8646 18.2182 79.2721 -18.7015 -6.9823 16.6366
# 4 -15.6190 -15.4713 -18.7015 35.1518 6.1133 -8.9758
# 5 -5.7666 0.1102 -6.9823 6.1133 20.3085 -8.6387
# 6 24.5623 29.5175 16.6366 -8.9758 -8.6387 60.0549
#
#
#
# Elastic Compliance Matrix: (Units=1/GPa)
#
#
# Indices 1 2 3 4 5 6 
#
# 1 0.011279 -0.003389 -0.001121 0.002157 0.001280 -0.002130
# 2 -0.003389 0.010927 -0.000477 0.002673 -0.003685 -0.003983
# 3 -0.001121 -0.000477 0.015192 0.006448 0.002004 -0.002264
# 4 0.002157 0.002673 0.006448 0.035413 -0.007763 0.000194
# 5 0.001280 -0.003685 0.002004 -0.007763 0.055887 0.007611
# 6 -0.002130 -0.003983 -0.002264 0.000194 0.007611 0.021231
#
#
# Mechanical properties :
#
#
# Convention : Reuss Voigt Hill
#
# Bulk Modulus (GPa) = 36.46514 53.95096 45.20805
# Shear Modulus (GPa) = 29.57774 38.29426 33.93600
#
# Velocity S-wave (km/s) = 3.36925 3.83369 3.60895
# Velocity P-wave (km/s) = 5.39731 6.34842 5.89209
#
# Compressibility (1/GPa) = 0.02742345
#
# Stress axis : x y z
#
# Youngs Moduli (GPa) = 88.66087 91.51437 65.82318
#
# Poissons Ratio (x) = 0.31016 0.07379
# Poissons Ratio (y) = 0.30049 0.03141
# Poissons Ratio (z) = 0.09940 0.04367
#
# Static dielectric constant tensor:
#      x y z
#    x 2.007490 0.006480 -0.062620 
#    y 0.006480 2.143990 0.024600 
#    z -0.062620 0.024600 2.063650 
# 
# From -- ./inp_files/337769.got.cif
#   From: 2010.05.17/outbox.cif.g08.bks.cpg/sg2_169_cif.got.tgz:337769.got - 2010.06.03 11:33:40.
