data_PCOD9090911
_publ_section_title
;
Structure prediction by ZEFSAII (Michael W. Deem and Ramdas Pophale) SiO2 
 PCOD9090911
Probable space group: P -1
;
_chemical_formula_sum "Si O2"
_cell_formula_units_Z 16
_cell_length_a 8.904343
_cell_length_b 9.177694
_cell_length_c 12.178234
_cell_angle_alpha 52.119463
_cell_angle_beta 125.732512
_cell_angle_gamma 102.999694
_cell_volume 623.623234
_symmetry_space_group_name_H-M "P -1"
_symmetry_group_IT_number 2
_symmetry_cell_setting 'triclinic'
loop_
_space_group_symop_operation_xyz
x,y,z
-x,-y,-z
loop_
_atom_site_type_symbol
_atom_site_label
_atom_site_fract_x
_atom_site_fract_y
_atom_site_fract_z
Si Si1 0.859215 0.460262 0.122054
Si Si2 0.938157 0.280163 0.011860
Si Si3 0.644713 0.919455 0.699514
Si Si4 0.451104 0.685762 0.467944
Si Si5 0.432666 0.808359 0.047158
Si Si6 0.204321 0.189931 0.472050
Si Si7 0.377821 0.758873 0.789399
Si Si8 0.212743 0.444979 0.573709
O O1 0.850168 0.429976 0.000763
O O2 0.698213 0.435865 0.151508
O O3 0.997533 0.263048 0.306640
O O4 0.982863 0.621987 0.104952
O O5 0.755621 0.189744 0.961025
O O6 0.132315 0.141538 0.199685
O O7 0.615372 0.094157 0.693749
O O8 0.500000 0.000000 0.500000
O O9 0.571005 0.749818 0.807529
O O10 0.500000 0.500000 0.500000
O O11 0.658723 0.702832 0.591558
O O12 0.277738 0.640222 0.482465
O O13 0.610198 0.650386 0.232561
O O14 0.390651 0.790978 0.909327
O O15 0.500000 0.000000 0.000000
O O16 0.216015 0.290313 0.548820
O O17 0.261078 0.963503 0.601528
O O18 0.000000 0.500000 0.500000
#
# Coordination Sequence:
#
# PCOD9090911 Si02
#       8
#     2   2   2   2   2   2   2   2
#     4  10  21  39  65  93 133 178 231 277 352 419
#     4  10  23  41  66  97 135 187 224 280 351 411
#     4  11  24  42  69 106 139 174 235 296 344 411
#     4   9  21  40  62  89 133 176 219 271 341 410
#     4  11  23  43  65  91 140 184 227 278 345 420
#     4  10  19  39  61  90 127 175 222 274 340 410
#     4  10  22  39  65  97 133 178 223 286 349 405
#     4  11  24  38  64  94 126 173 229 284 334 401
#
# _framework density 25.656517000000001
#
# number of rings (size 3 to 8) (size 9 to 14) (size 15 to 20)
#    0.000    1.750    1.250    2.625    1.750    5.500 
#    0.000    0.625    0.000    0.000    0.000    0.000 
#    0.000    0.000    0.000    0.000    0.000    0.000 
#
# Total GULP energy -89121.222710 kJ/mol
# GULP energy per Si atom -5570.076419 kJ/mol
# Density = 2.559812 g / cm^3
# Si number density = 25.656517 Si / 1000 Ang^3
#
#
#
# Elastic Constant Matrix: (Units=GPa)
#
#
# Indices 1 2 3 4 5 6 
#
# 1 195.3797 63.4118 47.2399 -10.0291 11.3060 62.1532
# 2 63.4118 92.4757 23.9590 -21.8506 -2.7027 23.5451
# 3 47.2399 23.9590 88.7052 -2.4543 5.2764 12.8550
# 4 -10.0291 -21.8506 -2.4543 33.1454 3.3576 -5.9463
# 5 11.3060 -2.7027 5.2764 3.3576 50.3793 -7.6110
# 6 62.1532 23.5451 12.8550 -5.9463 -7.6110 67.5114
#
#
#
# Elastic Compliance Matrix: (Units=1/GPa)
#
#
# Indices 1 2 3 4 5 6 
#
# 1 0.009654 -0.004431 -0.002736 -0.001190 -0.003138 -0.007281
# 2 -0.004431 0.016690 -0.001917 0.009306 0.001410 -0.000398
# 3 -0.002736 -0.001917 0.013191 -0.000949 -0.000730 0.000510
# 4 -0.001190 0.009306 -0.000949 0.036206 -0.001386 0.001064
# 5 -0.003138 0.001410 -0.000730 -0.001386 0.021530 0.004842
# 6 -0.007281 -0.000398 0.000510 0.001064 0.004842 0.022196
#
#
# Mechanical properties :
#
#
# Convention : Reuss Voigt Hill
#
# Bulk Modulus (GPa) = 46.79797 71.75355 59.27576
# Shear Modulus (GPa) = 34.54072 46.33721 40.43896
#
# Velocity S-wave (km/s) = 3.67314 4.25439 3.97440
# Velocity P-wave (km/s) = 6.02238 7.22224 6.64943
#
# Compressibility (1/GPa) = 0.02136845
#
# Stress axis : x y z
#
# Youngs Moduli (GPa) = 103.58157 59.91691 75.80702
#
# Poissons Ratio (x) = 0.26546 0.20740
# Poissons Ratio (y) = 0.45892 0.14533
# Poissons Ratio (z) = 0.28339 0.11487
#
# Static dielectric constant tensor:
#      x y z
#    x 2.122470 0.129830 -0.309610 
#    y 0.129830 2.168390 0.186070 
#    z -0.309610 0.186070 1.029110 
# 
# From -- ./inp_files/499936.got.cif
#   From: 2010.05.17/outbox.cif.g08.bks.cpg/sg2_250_cif.got.tgz:499936.got - 2010.06.03 11:33:40.
