data_PCOD9090418
_publ_section_title
;
Structure prediction by ZEFSAII (Michael W. Deem and Ramdas Pophale) SiO2 
 PCOD9090418
Probable space group: P -1
;
_chemical_formula_sum "Si O2"
_cell_formula_units_Z 15
_cell_length_a 18.069077
_cell_length_b 8.905959
_cell_length_c 11.688163
_cell_angle_alpha 84.333583
_cell_angle_beta 138.360128
_cell_angle_gamma 126.919308
_cell_volume 751.322485
_symmetry_space_group_name_H-M "P -1"
_symmetry_group_IT_number 2
_symmetry_cell_setting 'triclinic'
loop_
_space_group_symop_operation_xyz
x,y,z
-x,-y,-z
loop_
_atom_site_type_symbol
_atom_site_label
_atom_site_fract_x
_atom_site_fract_y
_atom_site_fract_z
Si Si1 0.240217 0.100177 0.753959
Si Si2 0.000000 0.500000 0.000000
Si Si3 0.665405 0.445779 0.896316
Si Si4 0.583608 0.334770 0.266422
Si Si5 0.330022 0.253686 0.590650
Si Si6 0.184294 0.401451 0.695387
Si Si7 0.412673 0.921582 0.530410
Si Si8 0.997720 0.835939 0.073065
O O1 0.302354 0.146609 0.690596
O O2 0.227659 0.267593 0.747137
O O3 0.393197 0.191842 0.004328
O O4 0.034523 0.815974 0.554867
O O5 0.196382 0.712572 0.279160
O O6 0.980853 0.667520 0.989249
O O7 0.537704 0.452130 0.773422
O O8 0.522107 0.172596 0.700272
O O9 0.750756 0.482168 0.112245
O O10 0.826943 0.649524 0.978316
O O11 0.696071 0.597551 0.427749
O O12 0.702233 0.401046 0.291309
O O13 0.552654 0.185101 0.342355
O O14 0.182885 0.034123 0.348091
O O15 0.500000 0.000000 0.500000
O O16 0.000000 0.000000 0.000000
#
# Coordination Sequence:
#
# PCOD9090418 Si02
#       8
#     2   1   2   2   2   2   2   2
#     4  10  19  38  66 103 137 172 223 291 348 411
#     4  12  26  52  68  96 148 178 234 304 338 402
#     4  12  23  44  68  97 137 176 227 288 345 413
#     4  11  23  41  68 102 133 181 234 277 354 425
#     4  11  21  40  71  98 136 176 228 292 343 413
#     4  10  20  38  66 102 137 175 223 289 349 410
#     4  12  28  46  66  93 140 185 228 289 354 409
#     4  12  27  45  72 103 135 190 240 283 351 423
#
# _framework density 19.964797000000001
#
# number of rings (size 3 to 8) (size 9 to 14) (size 15 to 20)
#    0.000    0.800    6.667    1.600    0.000    3.200 
#    0.000    0.667    0.000    0.000    0.000    0.000 
#    0.000    0.000    0.000    0.000    0.000    0.000 
#
# Total GULP energy -83532.209890 kJ/mol
# GULP energy per Si atom -5568.813993 kJ/mol
# Density = 1.991936 g / cm^3
# Si number density = 19.964797 Si / 1000 Ang^3
#
#
#
# Elastic Constant Matrix: (Units=GPa)
#
#
# Indices 1 2 3 4 5 6 
#
# 1 79.8214 51.0730 28.3733 -0.4253 -17.4225 -2.5579
# 2 51.0730 104.4284 38.9345 -12.5603 -8.7210 17.2430
# 3 28.3733 38.9345 124.5452 12.0685 -12.9102 6.2712
# 4 -0.4253 -12.5603 12.0685 24.6751 -5.7272 -5.2142
# 5 -17.4225 -8.7210 -12.9102 -5.7272 40.8518 5.6261
# 6 -2.5579 17.2430 6.2712 -5.2142 5.6261 20.3669
#
#
#
# Elastic Compliance Matrix: (Units=1/GPa)
#
#
# Indices 1 2 3 4 5 6 
#
# 1 0.022054 -0.012079 -0.001198 -0.001646 0.004610 0.011670
# 2 -0.012079 0.020716 -0.003630 0.009093 0.001610 -0.016055
# 3 -0.001198 -0.003630 0.010395 -0.007167 0.001336 -0.002482
# 4 -0.001646 0.009093 -0.007167 0.051119 0.005326 0.005917
# 5 0.004610 0.001610 0.001336 0.005326 0.029039 -0.007853
# 6 0.011670 -0.016055 -0.002482 0.005917 -0.007853 0.068605
#
#
# Mechanical properties :
#
#
# Convention : Reuss Voigt Hill
#
# Bulk Modulus (GPa) = 51.68069 60.61741 56.14905
# Shear Modulus (GPa) = 20.64455 29.87304 25.25879
#
# Velocity S-wave (km/s) = 3.21915 3.87238 3.56078
# Velocity P-wave (km/s) = 6.30550 7.10083 6.71495
#
# Compressibility (1/GPa) = 0.01934959
#
# Stress axis : x y z
#
# Youngs Moduli (GPa) = 45.34260 48.27155 96.19997
#
# Poissons Ratio (x) = 0.58309 0.11528
# Poissons Ratio (y) = 0.54771 0.34923
# Poissons Ratio (z) = 0.05434 0.17524
#
# Static dielectric constant tensor:
#      x y z
#    x 1.761250 -0.013990 0.011190 
#    y -0.013990 1.696200 0.003340 
#    z 0.011190 0.003340 1.681210 
# 
# From -- ./inp_files/253807.got.cif
#   From: 2010.05.17/outbox.cif.g08.bks.cpg/sg2_127_cif.got.tgz:253807.got - 2010.06.03 11:33:40.
