data_PCOD9090761
_publ_section_title
;
Structure prediction by ZEFSAII (Michael W. Deem and Ramdas Pophale) SiO2 
 PCOD9090761
Probable space group: P -1
;
_chemical_formula_sum "Si O2"
_cell_formula_units_Z 16
_cell_length_a 8.635562
_cell_length_b 7.181459
_cell_length_c 12.952129
_cell_angle_alpha 132.810054
_cell_angle_beta 92.895447
_cell_angle_gamma 100.436722
_cell_volume 562.485403
_symmetry_space_group_name_H-M "P -1"
_symmetry_group_IT_number 2
_symmetry_cell_setting 'triclinic'
loop_
_space_group_symop_operation_xyz
x,y,z
-x,-y,-z
loop_
_atom_site_type_symbol
_atom_site_label
_atom_site_fract_x
_atom_site_fract_y
_atom_site_fract_z
Si Si1 0.387091 0.832034 0.264820
Si Si2 0.513985 0.911653 0.847225
Si Si3 0.899741 0.127183 0.240922
Si Si4 0.949271 0.271287 0.560561
Si Si5 0.394387 0.683377 0.421332
Si Si6 0.160050 0.911647 0.991757
Si Si7 0.266407 0.511477 0.553805
Si Si8 0.996805 0.305396 0.800770
O O1 0.424207 0.643550 0.285719
O O2 0.193511 0.731393 0.205665
O O3 0.471729 0.883136 0.173579
O O4 0.456951 0.110798 0.434562
O O5 0.703553 0.915640 0.865253
O O6 0.395695 0.630188 0.693324
O O7 0.500000 0.000000 0.000000
O O8 0.810287 0.238005 0.370226
O O9 0.026260 0.402693 0.312496
O O10 0.948290 0.875751 0.183402
O O11 0.779042 0.062943 0.115867
O O12 0.755508 0.179823 0.537695
O O13 0.025445 0.214681 0.651458
O O14 0.102760 0.288592 0.495051
O O15 0.336376 0.471461 0.432157
O O16 0.103328 0.611907 0.919305
O O17 0.000000 0.000000 0.000000
#
# Coordination Sequence:
#
# PCOD9090761 Si02
#       8
#     2   2   2   2   2   2   2   2
#     4   9  20  31  57  87 116 159 201 247 301 351
#     4  11  19  37  60  85 124 159 197 255 302 355
#     4   9  19  34  56  89 115 161 197 246 299 359
#     4   8  17  33  59  85 114 160 199 245 300 354
#     4   9  16  34  58  85 118 160 201 253 298 355
#     4  11  23  38  63  88 118 163 203 247 305 362
#     4   9  18  34  61  84 122 161 199 249 307 352
#     4  10  19  39  58  85 126 155 206 248 299 364
#
# _framework density 28.445183
#
# number of rings (size 3 to 8) (size 9 to 14) (size 15 to 20)
#    0.750    1.750    1.250    1.125    0.000    2.000 
#    0.000    3.750   11.000    4.500    0.000    0.000 
#    0.000    0.000    0.000    0.000    0.000    0.000 
#
# Total GULP energy -89154.316721 kJ/mol
# GULP energy per Si atom -5572.144795 kJ/mol
# Density = 2.838044 g / cm^3
# Si number density = 28.445183 Si / 1000 Ang^3
#
#
#
# Elastic Constant Matrix: (Units=GPa)
#
#
# Indices 1 2 3 4 5 6 
#
# 1 55.7243 36.6101 48.5313 -15.0821 10.6476 13.2082
# 2 36.6101 200.8703 78.5749 -35.4651 12.6815 12.7392
# 3 48.5313 78.5749 173.8194 -18.3716 -7.3533 26.4684
# 4 -15.0821 -35.4651 -18.3716 56.3405 12.9767 -3.6682
# 5 10.6476 12.6815 -7.3533 12.9767 67.3596 -13.1156
# 6 13.2082 12.7392 26.4684 -3.6682 -13.1156 36.6729
#
#
#
# Elastic Compliance Matrix: (Units=1/GPa)
#
#
# Indices 1 2 3 4 5 6 
#
# 1 0.028992 -0.000679 -0.006222 0.006621 -0.007947 -0.007895
# 2 -0.000679 0.006981 -0.002532 0.003885 -0.002392 -0.000820
# 3 -0.006222 -0.002532 0.009040 -0.000975 0.002099 -0.002750
# 4 0.006621 0.003885 -0.000975 0.023041 -0.006948 -0.003211
# 5 -0.007947 -0.002392 0.002099 -0.006948 0.019786 0.008559
# 6 -0.007895 -0.000820 -0.002750 -0.003211 0.008559 0.035122
#
#
# Mechanical properties :
#
#
# Convention : Reuss Voigt Hill
#
# Bulk Modulus (GPa) = 38.24454 84.20518 61.22486
# Shear Modulus (GPa) = 33.21290 49.85445 41.53367
#
# Velocity S-wave (km/s) = 3.42074 4.19101 3.82531
# Velocity P-wave (km/s) = 5.39223 7.28603 6.40946
#
# Compressibility (1/GPa) = 0.02614752
#
# Stress axis : x y z
#
# Youngs Moduli (GPa) = 34.49180 143.23773 110.62366
#
# Poissons Ratio (x) = 0.09721 0.68832
# Poissons Ratio (y) = 0.02341 0.28012
# Poissons Ratio (z) = 0.21461 0.36271
#
# Static dielectric constant tensor:
#      x y z
#    x 3.024000 -0.171020 -0.147610 
#    y -0.171020 2.333650 -0.149130 
#    z -0.147610 -0.149130 2.468260 
# 
# From -- ./inp_files/415241.got.cif
#   From: 2010.05.17/outbox.cif.g08.bks.cpg/sg2_208_cif.got.tgz:415241.got - 2010.06.03 11:33:40.
