data_PCOD9090837
_publ_section_title
;
Structure prediction by ZEFSAII (Michael W. Deem and Ramdas Pophale) SiO2 
 PCOD9090837
Probable space group: P -1
;
_chemical_formula_sum "Si O2"
_cell_formula_units_Z 14
_cell_length_a 15.029836
_cell_length_b 11.800071
_cell_length_c 14.935346
_cell_angle_alpha 57.885558
_cell_angle_beta 38.141615
_cell_angle_gamma 29.096438
_cell_volume 680.395658
_symmetry_space_group_name_H-M "P -1"
_symmetry_group_IT_number 2
_symmetry_cell_setting 'triclinic'
loop_
_space_group_symop_operation_xyz
x,y,z
-x,-y,-z
loop_
_atom_site_type_symbol
_atom_site_label
_atom_site_fract_x
_atom_site_fract_y
_atom_site_fract_z
Si Si1 0.191890 0.406223 0.809413
Si Si2 0.206095 0.253043 0.681154
Si Si3 0.696260 0.972418 0.874156
Si Si4 0.146110 0.600045 0.540784
Si Si5 0.690603 0.506423 0.929973
Si Si6 0.394446 0.728993 0.524098
Si Si7 0.244044 0.638517 0.251591
O O1 0.241489 0.255335 0.756937
O O2 0.492710 0.245062 0.644066
O O3 0.974813 0.696083 0.823839
O O4 0.000000 0.500000 0.000000
O O5 0.072546 0.500467 0.644346
O O6 0.008276 0.283763 0.810658
O O7 0.500000 0.000000 0.500000
O O8 0.856563 0.900732 0.689095
O O9 0.500000 0.000000 0.000000
O O10 0.513881 0.221423 0.972678
O O11 0.430936 0.389316 0.469662
O O12 0.205746 0.602694 0.393417
O O13 0.721906 0.490238 0.804703
O O14 0.538340 0.489361 0.079289
O O15 0.500000 0.500000 0.500000
O O16 0.044280 0.035845 0.678298
#
# Coordination Sequence:
#
# PCOD9090837 Si02
#       7
#     2   2   2   2   2   2   2
#     4  10  22  35  59  91 116 154 207 255 306 361
#     4  10  21  41  61  86 127 164 202 262 311 361
#     4  10  19  39  60  87 122 155 206 259 304 359
#     4  10  23  41  64  94 122 166 215 253 310 376
#     4  11  22  41  62  90 127 162 207 261 307 376
#     4  10  22  42  60  90 131 160 206 259 308 374
#     4  11  25  40  64  95 126 168 209 251 322 376
#
# _framework density 20.576263000000001
#
# number of rings (size 3 to 8) (size 9 to 14) (size 15 to 20)
#    0.000    2.000    2.857    3.429    2.000    5.143 
#    0.000    6.429    0.000    0.000    0.000    0.000 
#    0.000    0.000    0.000    0.000    0.000    0.000 
#
# Total GULP energy -78012.371825 kJ/mol
# GULP energy per Si atom -5572.312273 kJ/mol
# Density = 2.052943 g / cm^3
# Si number density = 20.576263 Si / 1000 Ang^3
#
#
#
# Elastic Constant Matrix: (Units=GPa)
#
#
# Indices 1 2 3 4 5 6 
#
# 1 96.2988 17.9410 62.7539 -12.4520 12.0624 15.7138
# 2 17.9410 22.0781 20.9222 3.6607 14.9699 -3.1847
# 3 62.7539 20.9222 162.8909 0.9327 22.6835 -4.7620
# 4 -12.4520 3.6607 0.9327 38.0703 -2.3890 7.7957
# 5 12.0624 14.9699 22.6835 -2.3890 57.4556 3.5758
# 6 15.7138 -3.1847 -4.7620 7.7957 3.5758 25.6679
#
#
#
# Elastic Compliance Matrix: (Units=1/GPa)
#
#
# Indices 1 2 3 4 5 6 
#
# 1 0.026571 -0.024469 -0.008922 0.017240 0.006725 -0.027131
# 2 -0.024469 0.087240 0.002506 -0.025416 -0.021945 0.037045
# 3 -0.008922 0.002506 0.010077 -0.005652 -0.003607 0.009862
# 4 0.017240 -0.025416 -0.005652 0.040844 0.008698 -0.028373
# 5 0.006725 -0.021945 -0.003607 0.008698 0.024339 -0.013541
# 6 -0.027131 0.037045 0.009862 -0.028373 -0.013541 0.072498
#
#
# Mechanical properties :
#
#
# Convention : Reuss Voigt Hill
#
# Bulk Modulus (GPa) = 16.09825 53.83353 34.96589
# Shear Modulus (GPa) = 14.53291 36.21548 25.37419
#
# Velocity S-wave (km/s) = 2.66050 4.19986 3.51547
# Velocity P-wave (km/s) = 4.15673 7.05253 5.78863
#
# Compressibility (1/GPa) = 0.06211856
#
# Stress axis : x y z
#
# Youngs Moduli (GPa) = 37.63477 11.46260 99.23175
#
# Poissons Ratio (x) = 0.28048 0.88535
# Poissons Ratio (y) = 0.92088 -0.24865
# Poissons Ratio (z) = 0.33578 -0.02872
#
# Static dielectric constant tensor:
#      x y z
#    x 1.795650 -0.021940 -0.008720 
#    y -0.021940 1.765950 0.015020 
#    z -0.008720 0.015020 1.918820 
# 
# From -- ./inp_files/298864.got.cif
#   From: 2010.05.17/outbox.cif.g08.bks.cpg/sg2_150_cif.got.tgz:298864.got - 2010.06.03 11:33:40.
