data_PCOD9090755
_publ_section_title
;
Structure prediction by ZEFSAII (Michael W. Deem and Ramdas Pophale) SiO2 
 PCOD9090755
Probable space group: P -1
;
_chemical_formula_sum "Si O2"
_cell_formula_units_Z 14
_cell_length_a 9.400364
_cell_length_b 8.075747
_cell_length_c 17.052242
_cell_angle_alpha 142.439227
_cell_angle_beta 42.970828
_cell_angle_gamma 116.212649
_cell_volume 507.222464
_symmetry_space_group_name_H-M "P -1"
_symmetry_group_IT_number 2
_symmetry_cell_setting 'triclinic'
loop_
_space_group_symop_operation_xyz
x,y,z
-x,-y,-z
loop_
_atom_site_type_symbol
_atom_site_label
_atom_site_fract_x
_atom_site_fract_y
_atom_site_fract_z
Si Si1 0.389810 0.921731 0.708277
Si Si2 0.336404 0.717435 0.890093
Si Si3 0.727849 0.845090 0.304882
Si Si4 0.127897 0.352247 0.238158
Si Si5 0.999456 0.615884 0.875317
Si Si6 0.700354 0.703660 0.627310
Si Si7 0.741687 0.152884 0.676947
O O1 0.247969 0.945373 0.695091
O O2 0.598869 0.012612 0.629059
O O3 0.529394 0.668926 0.615046
O O4 0.235399 0.181155 0.921936
O O5 0.287076 0.442988 0.840875
O O6 0.175880 0.750761 0.890762
O O7 0.584205 0.655243 0.734789
O O8 0.251432 0.019512 0.080469
O O9 0.921372 0.702085 0.236046
O O10 0.500000 0.000000 0.500000
O O11 0.297464 0.520447 0.208133
O O12 0.995937 0.385814 0.220603
O O13 0.948676 0.510930 0.435028
O O14 0.694248 0.033707 0.736229
O O15 0.000000 0.000000 0.500000
#
# Coordination Sequence:
#
# PCOD9090755 Si02
#       7
#     2   2   2   2   2   2   2
#     4  10  19  39  58  83 116 148 192 229 278 342
#     4  10  23  35  54  89 117 142 193 234 281 338
#     4  10  23  39  54  81 118 157 182 227 291 345
#     4  11  18  37  57  89 112 148 190 239 276 327
#     4  10  22  34  57  86 117 146 188 233 282 343
#     4   9  20  35  60  84 111 147 188 236 278 324
#     4   8  19  33  61  84 110 147 193 231 277 329
#
# _framework density 27.601303000000001
#
# number of rings (size 3 to 8) (size 9 to 14) (size 15 to 20)
#    1.714    0.571    1.429    1.714    0.000    4.000 
#    0.000    0.714    0.000    3.429    0.000    0.000 
#    0.000    0.000    0.000    0.000    0.000    0.000 
#
# Total GULP energy -78100.368392 kJ/mol
# GULP energy per Si atom -5578.597742 kJ/mol
# Density = 2.753848 g / cm^3
# Si number density = 27.601303 Si / 1000 Ang^3
#
#
#
# Elastic Constant Matrix: (Units=GPa)
#
#
# Indices 1 2 3 4 5 6 
#
# 1 69.8971 9.3063 11.4760 -5.2357 -4.9597 -13.2496
# 2 9.3063 119.8892 39.5254 11.7855 -3.0477 -7.2770
# 3 11.4760 39.5254 126.3261 -10.9899 -17.0249 -18.9424
# 4 -5.2357 11.7855 -10.9899 57.5592 0.2093 -9.0028
# 5 -4.9597 -3.0477 -17.0249 0.2093 34.7509 1.1005
# 6 -13.2496 -7.2770 -18.9424 -9.0028 1.1005 50.0990
#
#
#
# Elastic Compliance Matrix: (Units=1/GPa)
#
#
# Indices 1 2 3 4 5 6 
#
# 1 0.015592 -0.001148 0.000071 0.002342 0.002007 0.004360
# 2 -0.001148 0.009779 -0.003434 -0.002864 -0.000950 -0.000675
# 3 0.000071 -0.003434 0.010505 0.003322 0.004709 0.003985
# 4 0.002342 -0.002864 0.003322 0.019575 0.001436 0.004945
# 5 0.002007 -0.000950 0.004709 0.001436 0.031223 0.001746
# 6 0.004360 -0.000675 0.003985 0.004945 0.001746 0.023373
#
#
# Mechanical properties :
#
#
# Convention : Reuss Voigt Hill
#
# Bulk Modulus (GPa) = 37.23847 48.52530 42.88189
# Shear Modulus (GPa) = 39.05622 45.53548 42.29585
#
# Velocity S-wave (km/s) = 3.76575 4.06613 3.91882
# Velocity P-wave (km/s) = 5.69462 6.29790 6.00384
#
# Compressibility (1/GPa) = 0.02685395
#
# Stress axis : x y z
#
# Youngs Moduli (GPa) = 64.13392 102.26351 95.19090
#
# Poissons Ratio (x) = 0.11742 -0.00674
# Poissons Ratio (y) = 0.07364 0.32686
# Poissons Ratio (z) = -0.00454 0.35115
#
# Static dielectric constant tensor:
#      x y z
#    x 2.332280 0.021720 0.011780 
#    y 0.021720 2.201880 0.064570 
#    z 0.011780 0.064570 2.106900 
# 
# From -- ./inp_files/610223.got.cif
#   From: 2010.05.17/outbox.cif.g08.bks.cpg/sg2_306_cif.got.tgz:610223.got - 2010.06.03 11:33:40.
