data_PCOD9090706
_publ_section_title
;
Structure prediction by ZEFSAII (Michael W. Deem and Ramdas Pophale) SiO2 
 PCOD9090706
Probable space group: P -1
;
_chemical_formula_sum "Si O2"
_cell_formula_units_Z 12
_cell_length_a 9.666116
_cell_length_b 10.213321
_cell_length_c 13.919915
_cell_angle_alpha 137.845167
_cell_angle_beta 143.788861
_cell_angle_gamma 43.405901
_cell_volume 515.508207
_symmetry_space_group_name_H-M "P -1"
_symmetry_group_IT_number 2
_symmetry_cell_setting 'triclinic'
loop_
_space_group_symop_operation_xyz
x,y,z
-x,-y,-z
loop_
_atom_site_type_symbol
_atom_site_label
_atom_site_fract_x
_atom_site_fract_y
_atom_site_fract_z
Si Si1 0.596105 0.960514 0.389739
Si Si2 0.032043 0.060686 0.160004
Si Si3 0.387280 0.820217 0.673944
Si Si4 0.041824 0.110825 0.787148
Si Si5 0.756468 0.495891 0.188309
Si Si6 0.882998 0.449305 0.738775
O O1 0.784946 0.067866 0.595010
O O2 0.710234 0.715454 0.331565
O O3 0.321033 0.037254 0.319895
O O4 0.574045 0.019900 0.296179
O O5 0.945034 0.918743 0.108024
O O6 0.866858 0.298203 0.209691
O O7 0.000000 0.000000 0.000000
O O8 0.637327 0.632973 0.728090
O O9 0.200786 0.716074 0.462221
O O10 0.262268 0.938794 0.763136
O O11 0.019568 0.325186 0.840426
O O12 0.946014 0.475026 0.195371
O O13 0.500000 0.500000 0.000000
#
# Coordination Sequence:
#
# PCOD9090706 Si02
#       6
#     2   2   2   2   2   2
#     4  11  21  42  69  98 131 170 216 268 328 386
#     4  12  27  44  61  95 139 177 214 265 332 388
#     4  10  19  38  71  99 130 164 215 278 320 378
#     4  11  23  41  70 101 126 167 225 275 314 384
#     4  12  23  41  68  90 134 180 207 259 335 391
#     4  10  20  39  68 100 129 168 216 266 330 382
#
# _framework density 23.277998
#
# number of rings (size 3 to 8) (size 9 to 14) (size 15 to 20)
#    0.000    1.000    6.667    1.500    0.000    2.000 
#    0.000    4.167    0.000    0.000    0.000    0.000 
#    0.000    0.000    0.000    0.000    0.000    0.000 
#
# Total GULP energy -67225.577633 kJ/mol
# GULP energy per Si atom -5602.131469 kJ/mol
# Density = 2.322502 g / cm^3
# Si number density = 23.277998 Si / 1000 Ang^3
#
#
#
# Elastic Constant Matrix: (Units=GPa)
#
#
# Indices 1 2 3 4 5 6 
#
# 1 104.0651 6.1289 2.6220 -23.9851 -2.4864 7.3316
# 2 6.1289 95.8214 -11.7407 -9.6843 -13.6006 -3.8451
# 3 2.6220 -11.7407 38.3055 3.0203 -0.8619 -4.1976
# 4 -23.9851 -9.6843 3.0203 21.1834 -1.1083 4.4552
# 5 -2.4864 -13.6006 -0.8619 -1.1083 33.5624 -4.9605
# 6 7.3316 -3.8451 -4.1976 4.4552 -4.9605 45.5393
#
#
#
# Elastic Compliance Matrix: (Units=1/GPa)
#
#
# Indices 1 2 3 4 5 6 
#
# 1 0.013939 0.000549 -0.002562 0.017301 0.001169 -0.003999
# 2 0.000549 0.012242 0.003529 0.005726 0.005474 0.001307
# 3 -0.002562 0.003529 0.028354 -0.006084 0.002385 0.004179
# 4 0.017301 0.005726 -0.006084 0.072505 0.004440 -0.009472
# 5 0.001169 0.005474 0.002385 0.004440 0.032846 0.003637
# 6 -0.003999 0.001307 0.004179 -0.009472 0.003637 0.024421
#
#
# Mechanical properties :
#
#
# Convention : Reuss Voigt Hill
#
# Bulk Modulus (GPa) = 17.37117 25.80139 21.58628
# Shear Modulus (GPa) = 24.94218 36.13580 30.53899
#
# Velocity S-wave (km/s) = 3.27692 3.94427 3.62598
# Velocity P-wave (km/s) = 4.66865 5.64368 5.17916
#
# Compressibility (1/GPa) = 0.05756663
#
# Stress axis : x y z
#
# Youngs Moduli (GPa) = 71.74241 81.68898 35.26793
#
# Poissons Ratio (x) = -0.04481 0.09036
# Poissons Ratio (y) = -0.03935 -0.12447
# Poissons Ratio (z) = 0.18380 -0.28831
#
# Static dielectric constant tensor:
#      x y z
#    x 1.848700 0.021570 -0.034750 
#    y 0.021570 1.898610 -0.008390 
#    z -0.034750 -0.008390 1.909120 
# 
# From -- ./inp_files/144997.got.cif
#   From: 2010.05.17/outbox.cif.g08.bks.cpg/sg2_73_cif.got.tgz:144997.got - 2010.06.03 11:33:40.
