data_PCOD9090557
_publ_section_title
;
Structure prediction by ZEFSAII (Michael W. Deem and Ramdas Pophale) SiO2 
 PCOD9090557
Probable space group: P -1
;
_chemical_formula_sum "Si O2"
_cell_formula_units_Z 16
_cell_length_a 14.179119
_cell_length_b 11.862266
_cell_length_c 9.822839
_cell_angle_alpha 100.451316
_cell_angle_beta 69.894684
_cell_angle_gamma 149.465728
_cell_volume 765.129448
_symmetry_space_group_name_H-M "P -1"
_symmetry_group_IT_number 2
_symmetry_cell_setting 'triclinic'
loop_
_space_group_symop_operation_xyz
x,y,z
-x,-y,-z
loop_
_atom_site_type_symbol
_atom_site_label
_atom_site_fract_x
_atom_site_fract_y
_atom_site_fract_z
Si Si1 0.468235 0.367220 0.597643
Si Si2 0.188471 0.172861 0.343602
Si Si3 0.060255 0.440326 0.526506
Si Si4 0.020483 0.951237 0.840613
Si Si5 0.963255 0.426715 0.846653
Si Si6 0.211017 0.513414 0.195295
Si Si7 0.644165 0.894243 0.635402
Si Si8 0.554402 0.920777 0.940236
O O1 0.500000 0.500000 0.500000
O O2 0.651214 0.568334 0.652227
O O3 0.252617 0.168523 0.730414
O O4 0.459223 0.244357 0.483859
O O5 0.299843 0.165042 0.321235
O O6 0.000000 0.000000 0.500000
O O7 0.096819 0.091113 0.223255
O O8 0.209356 0.531719 0.362780
O O9 0.000000 0.500000 0.500000
O O10 0.110153 0.517905 0.677170
O O11 0.856609 0.164412 0.562275
O O12 0.917797 0.724309 0.835675
O O13 0.000000 0.000000 0.000000
O O14 0.883996 0.465643 0.822265
O O15 0.793016 0.160334 0.886275
O O16 0.000000 0.500000 0.000000
O O17 0.432219 0.727645 0.067669
O O18 0.510204 0.837112 0.790376
O O19 0.500000 0.000000 0.000000
#
# Coordination Sequence:
#
# PCOD9090557 Si02
#       8
#     2   2   2   2   2   2   2   2
#     4  10  21  41  66  88 126 167 221 254 315 387
#     4  11  22  41  66  93 125 166 224 258 304 398
#     4   9  17  34  61  85 115 156 197 252 316 365
#     4  12  26  41  60  96 135 166 207 273 323 367
#     4   9  19  37  62  88 116 157 212 254 304 386
#     4  10  20  39  58  85 126 157 201 258 322 360
#     4  10  19  38  67  88 120 172 212 255 319 377
#     4   9  20  37  60  88 120 161 205 247 312 384
#
# _framework density 20.911493
#
# number of rings (size 3 to 8) (size 9 to 14) (size 15 to 20)
#    0.000    2.000    3.750    0.750    3.500    2.500 
#    2.250    5.625    0.000    0.000    0.000    0.000 
#    0.000    0.000    0.000    0.000    0.000    0.000 
#
# Total GULP energy -89185.319108 kJ/mol
# GULP energy per Si atom -5574.082444 kJ/mol
# Density = 2.086390 g / cm^3
# Si number density = 20.911493 Si / 1000 Ang^3
#
#
#
# Elastic Constant Matrix: (Units=GPa)
#
#
# Indices 1 2 3 4 5 6 
#
# 1 52.0821 18.2876 21.9425 6.0066 2.1189 -9.0105
# 2 18.2876 115.5216 74.4624 5.0744 1.4835 -8.9610
# 3 21.9425 74.4624 210.9944 22.1371 -6.5583 3.1787
# 4 6.0066 5.0744 22.1371 49.9323 -0.3910 6.3196
# 5 2.1189 1.4835 -6.5583 -0.3910 29.2028 5.8516
# 6 -9.0105 -8.9610 3.1787 6.3196 5.8516 28.8012
#
#
#
# Elastic Compliance Matrix: (Units=1/GPa)
#
#
# Indices 1 2 3 4 5 6 
#
# 1 0.022343 -0.001672 -0.001669 -0.002818 -0.003550 0.007993
# 2 -0.001672 0.011966 -0.004213 0.000323 -0.002240 0.004049
# 3 -0.001669 -0.004213 0.006722 -0.002002 0.002341 -0.002611
# 4 -0.002818 0.000323 -0.002002 0.021940 0.001156 -0.005609
# 5 -0.003550 -0.002240 0.002341 0.001156 0.037132 -0.009864
# 6 0.007993 0.004049 -0.002611 -0.005609 -0.009864 0.042004
#
#
# Mechanical properties :
#
#
# Convention : Reuss Voigt Hill
#
# Bulk Modulus (GPa) = 38.57662 67.55366 53.06514
# Shear Modulus (GPa) = 30.14660 39.18097 34.66378
#
# Velocity S-wave (km/s) = 3.80100 4.33327 4.07583
# Velocity P-wave (km/s) = 6.14419 7.57701 6.89790
#
# Compressibility (1/GPa) = 0.02592244
#
# Stress axis : x y z
#
# Youngs Moduli (GPa) = 44.75707 83.57291 148.76140
#
# Poissons Ratio (x) = 0.13973 0.24823
# Poissons Ratio (y) = 0.07483 0.62680
# Poissons Ratio (z) = 0.07468 0.35213
#
# Static dielectric constant tensor:
#      x y z
#    x 1.780960 -0.006000 -0.023190 
#    y -0.006000 1.751140 -0.010450 
#    z -0.023190 -0.010450 1.780190 
# 
# From -- ./inp_files/307701.got.cif
#   From: 2010.05.17/outbox.cif.g08.bks.cpg/sg2_154_cif.got.tgz:307701.got - 2010.06.03 11:33:40.
