data_PCOD9090216
_publ_section_title
;
Structure prediction by ZEFSAII (Michael W. Deem and Ramdas Pophale) SiO2 
 PCOD9090216
Probable space group: P -1
;
_chemical_formula_sum "Si O2"
_cell_formula_units_Z 16
_cell_length_a 11.846640
_cell_length_b 10.042099
_cell_length_c 19.542999
_cell_angle_alpha 137.671348
_cell_angle_beta 43.037935
_cell_angle_gamma 103.766885
_cell_volume 804.617774
_symmetry_space_group_name_H-M "P -1"
_symmetry_group_IT_number 2
_symmetry_cell_setting 'triclinic'
loop_
_space_group_symop_operation_xyz
x,y,z
-x,-y,-z
loop_
_atom_site_type_symbol
_atom_site_label
_atom_site_fract_x
_atom_site_fract_y
_atom_site_fract_z
Si Si1 0.232067 0.752721 0.984155
Si Si2 0.838020 0.198488 0.706702
Si Si3 0.583313 0.740392 0.592429
Si Si4 0.382549 0.299361 0.650526
Si Si5 0.639490 0.974835 0.061667
Si Si6 0.723901 0.190847 0.350816
Si Si7 0.057427 0.419176 0.726367
Si Si8 0.421281 0.757158 0.043442
O O1 0.324481 0.473210 0.808545
O O2 0.315285 0.746851 0.019578
O O3 0.310111 0.866530 0.941786
O O4 0.968950 0.952359 0.173779
O O5 0.624415 0.461378 0.865288
O O6 0.954962 0.283542 0.729126
O O7 0.751756 0.108773 0.766076
O O8 0.000000 0.000000 0.500000
O O9 0.700961 0.434454 0.428865
O O10 0.362708 0.878627 0.698747
O O11 0.747804 0.747311 0.479408
O O12 0.517390 0.860497 0.741896
O O13 0.550258 0.292674 0.526983
O O14 0.168206 0.423187 0.746253
O O15 0.500000 0.000000 0.500000
O O16 0.521112 0.896224 0.040763
O O17 0.865013 0.707266 0.890514
#
# Coordination Sequence:
#
# PCOD9090216 Si02
#       8
#     2   2   2   2   2   2   2   2
#     4  12  24  41  65  91 136 163 199 270 317 366
#     4  10  22  44  67  86 124 170 213 255 307 369
#     4  10  19  38  64  92 126 156 215 256 299 379
#     4  11  26  42  60  95 130 168 209 252 317 382
#     4  11  21  41  66  92 124 167 209 261 317 357
#     4  10  22  38  62  94 123 166 206 253 316 372
#     4  10  22  39  65  94 121 163 215 255 307 379
#     4  10  25  41  62  97 123 163 218 256 309 378
#
# _framework density 19.88522
#
# number of rings (size 3 to 8) (size 9 to 14) (size 15 to 20)
#    0.000    1.500    2.500    1.875    3.500    1.500 
#    4.500    0.625    0.000    0.000    0.000    0.000 
#    0.000    0.000    0.000    0.000    0.000    0.000 
#
# Total GULP energy -89407.371064 kJ/mol
# GULP energy per Si atom -5587.960692 kJ/mol
# Density = 1.983996 g / cm^3
# Si number density = 19.885220 Si / 1000 Ang^3
#
#
#
# Elastic Constant Matrix: (Units=GPa)
#
#
# Indices 1 2 3 4 5 6 
#
# 1 102.3621 29.8451 50.3318 11.7579 -3.6845 -2.7768
# 2 29.8451 38.4281 12.8435 1.6706 -13.5520 11.1952
# 3 50.3318 12.8435 78.0262 2.6555 1.0806 1.1176
# 4 11.7579 1.6706 2.6555 16.0587 1.0045 4.3456
# 5 -3.6845 -13.5520 1.0806 1.0045 28.6120 -8.7373
# 6 -2.7768 11.1952 1.1176 4.3456 -8.7373 20.3126
#
#
#
# Elastic Compliance Matrix: (Units=1/GPa)
#
#
# Indices 1 2 3 4 5 6 
#
# 1 0.023756 -0.018757 -0.011884 -0.018579 0.000965 0.018629
# 2 -0.018757 0.051724 0.003321 0.014873 0.012572 -0.029029
# 3 -0.011884 0.003321 0.019840 0.007312 -0.003257 -0.007512
# 4 -0.018579 0.014873 0.007312 0.082408 -0.008407 -0.032385
# 5 0.000965 0.012572 -0.003257 -0.008407 0.046021 0.014976
# 6 0.018629 -0.029029 -0.007512 -0.032385 0.014976 0.081560
#
#
# Mechanical properties :
#
#
# Convention : Reuss Voigt Hill
#
# Bulk Modulus (GPa) = 24.58303 44.98414 34.78359
# Shear Modulus (GPa) = 13.38660 21.38306 17.38483
#
# Velocity S-wave (km/s) = 2.59741 3.28277 2.95999
# Velocity P-wave (km/s) = 4.62436 6.08603 5.40484
#
# Compressibility (1/GPa) = 0.04067846
#
# Stress axis : x y z
#
# Youngs Moduli (GPa) = 42.09491 19.33337 50.40424
#
# Poissons Ratio (x) = 0.36264 0.59902
# Poissons Ratio (y) = 0.78958 -0.16739
# Poissons Ratio (z) = 0.50027 -0.06421
#
# Static dielectric constant tensor:
#      x y z
#    x 1.682470 0.014170 0.001310 
#    y 0.014170 1.695830 -0.008400 
#    z 0.001310 -0.008400 1.679140 
# 
# From -- ./inp_files/95341.got.cif
#   From: 2010.05.17/outbox.cif.g08.bks.cpg/sg2_48_cif.got.tgz:95341.got - 2010.06.03 11:33:40.
