data_PCOD9090782
_publ_section_title
;
Structure prediction by ZEFSAII (Michael W. Deem and Ramdas Pophale) SiO2 
 PCOD9090782
Probable space group: P -1
;
_chemical_formula_sum "Si O2"
_cell_formula_units_Z 16
_cell_length_a 11.412696
_cell_length_b 19.671791
_cell_length_c 14.684464
_cell_angle_alpha 151.264697
_cell_angle_beta 152.273635
_cell_angle_gamma 45.513104
_cell_volume 694.219767
_symmetry_space_group_name_H-M "P -1"
_symmetry_group_IT_number 2
_symmetry_cell_setting 'triclinic'
loop_
_space_group_symop_operation_xyz
x,y,z
-x,-y,-z
loop_
_atom_site_type_symbol
_atom_site_label
_atom_site_fract_x
_atom_site_fract_y
_atom_site_fract_z
Si Si1 0.060277 0.878672 0.275339
Si Si2 0.432866 0.199155 0.847018
Si Si3 0.585190 0.719044 0.866798
Si Si4 0.203047 0.973704 0.179735
Si Si5 0.873086 0.472673 0.779723
Si Si6 0.442505 0.697048 0.134320
Si Si7 0.892971 0.722711 0.796952
Si Si8 0.383827 0.655443 0.248098
O O1 0.298999 0.808234 0.378134
O O2 0.183291 0.046044 0.515820
O O3 0.836921 0.862984 0.179983
O O4 0.889942 0.756316 0.940165
O O5 0.666958 0.136665 0.907156
O O6 0.428819 0.302555 0.877009
O O7 0.498199 0.277047 0.081178
O O8 0.714489 0.588853 0.801084
O O9 0.338316 0.683216 0.584457
O O10 0.429512 0.123907 0.544826
O O11 0.024942 0.887426 0.038394
O O12 0.000000 0.000000 0.000000
O O13 0.000000 0.500000 0.000000
O O14 0.113902 0.525262 0.935737
O O15 0.483661 0.637790 0.193729
O O16 0.119264 0.646532 0.845430
O O17 0.612104 0.655333 0.475935
#
# Coordination Sequence:
#
# PCOD9090782 Si02
#       8
#     2   2   2   2   2   2   2   2
#     4  10  18  33  54  86 119 146 181 221 287 346
#     4  11  19  35  55  89 127 147 177 224 288 349
#     4  10  23  39  61  82 111 152 191 245 279 329
#     4  11  17  31  54  83 125 156 175 211 274 351
#     4  10  22  45  62  77 104 150 208 243 285 318
#     4  10  19  32  52  88 119 150 179 213 281 349
#     4  10  16  28  52  80 111 151 180 215 266 331
#     4  10  19  32  59  84 107 149 195 231 270 338
#
# _framework density 23.047454999999999
#
# number of rings (size 3 to 8) (size 9 to 14) (size 15 to 20)
#    0.000    1.750    5.000    1.875    0.000    1.000 
#    2.250    0.625    0.000    9.000    0.000    0.000 
#    0.000    0.000    0.000    0.000    0.000    0.000 
#
# Total GULP energy -89196.817671 kJ/mol
# GULP energy per Si atom -5574.801104 kJ/mol
# Density = 2.299500 g / cm^3
# Si number density = 23.047455 Si / 1000 Ang^3
#
#
#
# Elastic Constant Matrix: (Units=GPa)
#
#
# Indices 1 2 3 4 5 6 
#
# 1 125.0272 5.9325 34.2455 -0.5764 -12.8755 11.5496
# 2 5.9325 31.6962 30.7542 -21.4407 -10.0657 3.1122
# 3 34.2455 30.7542 118.9703 -25.4049 -5.5547 -6.6540
# 4 -0.5764 -21.4407 -25.4049 32.6257 9.3950 -5.3855
# 5 -12.8755 -10.0657 -5.5547 9.3950 30.2872 -6.7507
# 6 11.5496 3.1122 -6.6540 -5.3855 -6.7507 24.7867
#
#
#
# Elastic Compliance Matrix: (Units=1/GPa)
#
#
# Indices 1 2 3 4 5 6 
#
# 1 0.010051 0.000970 -0.004275 -0.004618 0.003932 -0.005885
# 2 0.000970 0.066827 -0.010166 0.032803 0.010211 -0.001663
# 3 -0.004275 -0.010166 0.013854 0.006101 -0.002869 0.007532
# 4 -0.004618 0.032803 0.006101 0.060508 -0.006233 0.011120
# 5 0.003932 0.010211 -0.002869 -0.006233 0.040799 0.005873
# 6 -0.005885 -0.001663 0.007532 0.011120 0.005873 0.049333
#
#
# Mechanical properties :
#
#
# Convention : Reuss Voigt Hill
#
# Bulk Modulus (GPa) = 15.67660 46.39534 31.03597
# Shear Modulus (GPa) = 17.26659 31.19069 24.22864
#
# Velocity S-wave (km/s) = 2.74008 3.68275 3.24582
# Velocity P-wave (km/s) = 4.10211 6.18527 5.24809
#
# Compressibility (1/GPa) = 0.06378934
#
# Stress axis : x y z
#
# Youngs Moduli (GPa) = 99.49706 14.96402 72.18044
#
# Poissons Ratio (x) = -0.01451 0.30860
# Poissons Ratio (y) = -0.09650 0.73376
# Poissons Ratio (z) = 0.42540 0.15212
#
# Static dielectric constant tensor:
#      x y z
#    x 1.948510 0.048290 -0.056870 
#    y 0.048290 1.929200 -0.007700 
#    z -0.056870 -0.007700 1.926780 
# 
# From -- ./inp_files/524319.got.cif
#   From: 2010.05.17/outbox.cif.g08.bks.cpg/sg2_263_cif.got.tgz:524319.got - 2010.06.03 11:33:40.
