data_PCOD9090416
_publ_section_title
;
Structure prediction by ZEFSAII (Michael W. Deem and Ramdas Pophale) SiO2 
 PCOD9090416
Probable space group: P -1
;
_chemical_formula_sum "Si O2"
_cell_formula_units_Z 13
_cell_length_a 8.481540
_cell_length_b 7.792965
_cell_length_c 7.898915
_cell_angle_alpha 72.497509
_cell_angle_beta 78.075015
_cell_angle_gamma 90.531688
_cell_volume 485.743893
_symmetry_space_group_name_H-M "P -1"
_symmetry_group_IT_number 2
_symmetry_cell_setting 'triclinic'
loop_
_space_group_symop_operation_xyz
x,y,z
-x,-y,-z
loop_
_atom_site_type_symbol
_atom_site_label
_atom_site_fract_x
_atom_site_fract_y
_atom_site_fract_z
Si Si1 0.104159 0.381589 0.635789
Si Si2 0.902800 0.314882 0.019060
Si Si3 0.351717 0.215917 0.389085
Si Si4 0.656799 0.901554 0.935985
Si Si5 0.398042 0.625514 0.141146
Si Si6 0.374419 0.655235 0.506967
Si Si7 0.000000 0.000000 0.000000
O O1 0.211554 0.250454 0.544968
O O2 0.218967 0.542702 0.650864
O O3 0.000000 0.500000 0.500000
O O4 0.998314 0.266500 0.832021
O O5 0.720220 0.333828 0.998206
O O6 0.939357 0.128780 0.148428
O O7 0.000000 0.500000 0.000000
O O8 0.314468 0.090768 0.273950
O O9 0.376906 0.414248 0.239244
O O10 0.523068 0.198095 0.449957
O O11 0.809934 0.961091 0.993632
O O12 0.582852 0.699092 0.060309
O O13 0.500000 0.000000 0.000000
O O14 0.334765 0.706010 0.308470
O O15 0.500000 0.500000 0.500000
#
# Coordination Sequence:
#
# PCOD9090416 Si02
#       7
#     2   2   2   2   2   2   1
#     4  10  19  38  66 102 141 171 232 294 339 424
#     4  12  25  43  73 105 141 193 237 289 362 419
#     4  10  22  41  70 103 127 186 237 278 366 422
#     4  12  26  47  66  95 147 178 234 296 345 420
#     4  10  20  43  67 101 135 183 228 294 352 417
#     4   8  18  34  62  99 128 168 229 275 350 410
#     4  12  30  44  70 108 144 186 246 288 358 422
#
# _framework density 26.763075000000001
#
# number of rings (size 3 to 8) (size 9 to 14) (size 15 to 20)
#    0.000    1.846    4.615    1.385    8.615    0.000 
#    0.000    1.538    6.769    0.000    0.000    0.000 
#    0.000    0.000    0.000    0.000    0.000    0.000 
#
# Total GULP energy -72445.305298 kJ/mol
# GULP energy per Si atom -5572.715792 kJ/mol
# Density = 2.670216 g / cm^3
# Si number density = 26.763075 Si / 1000 Ang^3
#
#
#
# Elastic Constant Matrix: (Units=GPa)
#
#
# Indices 1 2 3 4 5 6 
#
# 1 183.5859 40.0250 26.5835 8.8214 11.8255 33.5810
# 2 40.0250 142.0929 8.6357 22.4320 1.4942 15.3848
# 3 26.5835 8.6357 93.7540 11.0219 -17.3623 12.9510
# 4 8.8214 22.4320 11.0219 41.5117 7.0780 1.4178
# 5 11.8255 1.4942 -17.3623 7.0780 46.1603 -9.6161
# 6 33.5810 15.3848 12.9510 1.4178 -9.6161 42.1376
#
#
#
# Elastic Compliance Matrix: (Units=1/GPa)
#
#
# Indices 1 2 3 4 5 6 
#
# 1 0.007263 -0.001371 -0.001928 0.000546 -0.003787 -0.005578
# 2 -0.001371 0.008269 0.000490 -0.004340 0.000558 -0.001804
# 3 -0.001928 0.000490 0.012883 -0.004213 0.005730 -0.001153
# 4 0.000546 -0.004340 -0.004213 0.028442 -0.005917 0.000138
# 5 -0.003787 0.000558 0.005730 -0.005917 0.027234 0.007467
# 6 -0.005578 -0.001804 -0.001153 0.000138 0.007467 0.030889
#
#
# Mechanical properties :
#
#
# Convention : Reuss Voigt Hill
#
# Bulk Modulus (GPa) = 43.86646 63.32459 53.59553
# Shear Modulus (GPa) = 39.00224 48.90783 43.95503
#
# Velocity S-wave (km/s) = 3.82162 4.27949 4.05702
# Velocity P-wave (km/s) = 5.99160 6.93767 6.48192
#
# Compressibility (1/GPa) = 0.02279646
#
# Stress axis : x y z
#
# Youngs Moduli (GPa) = 137.68151 120.93769 77.61882
#
# Poissons Ratio (x) = 0.16582 0.14966
# Poissons Ratio (y) = 0.18878 -0.03802
# Poissons Ratio (z) = 0.26547 -0.05924
#
# Static dielectric constant tensor:
#      x y z
#    x 2.077730 0.104040 -0.033980 
#    y 0.104040 1.599880 0.249190 
#    z -0.033980 0.249190 2.191790 
# 
# From -- ./inp_files/154703.got.cif
#   From: 2010.05.17/outbox.cif.g08.bks.cpg/sg2_78_cif.got.tgz:154703.got - 2010.06.03 11:33:40.
