data_PCOD9090406
_publ_section_title
;
Structure prediction by ZEFSAII (Michael W. Deem and Ramdas Pophale) SiO2 
 PCOD9090406
Probable space group: P -1
;
_chemical_formula_sum "Si O2"
_cell_formula_units_Z 14
_cell_length_a 9.441329
_cell_length_b 25.553945
_cell_length_c 18.820910
_cell_angle_alpha 17.767999
_cell_angle_beta 149.812220
_cell_angle_gamma 150.609693
_cell_volume 661.585588
_symmetry_space_group_name_H-M "P -1"
_symmetry_group_IT_number 2
_symmetry_cell_setting 'triclinic'
loop_
_space_group_symop_operation_xyz
x,y,z
-x,-y,-z
loop_
_atom_site_type_symbol
_atom_site_label
_atom_site_fract_x
_atom_site_fract_y
_atom_site_fract_z
Si Si1 0.190721 0.088122 0.187085
Si Si2 0.174183 0.727632 0.716307
Si Si3 0.466788 0.116259 0.116010
Si Si4 0.348719 0.747336 0.464380
Si Si5 0.765130 0.311093 0.669217
Si Si6 0.929980 0.662823 0.854850
Si Si7 0.679107 0.540476 0.452705
O O1 0.469353 0.211988 0.193717
O O2 0.326657 0.068652 0.194509
O O3 0.093799 0.892743 0.433229
O O4 0.939557 0.182310 0.943583
O O5 0.029640 0.693241 0.776149
O O6 0.080951 0.543016 0.870099
O O7 0.821845 0.193799 0.177409
O O8 0.359851 0.942452 0.245411
O O9 0.370225 0.283861 0.830714
O O10 0.390768 0.762533 0.377429
O O11 0.613217 0.690264 0.687333
O O12 0.035497 0.600133 0.538632
O O13 0.587974 0.373829 0.573332
O O14 0.000000 0.500000 0.500000
O O15 0.500000 0.500000 0.500000
#
# Coordination Sequence:
#
# PCOD9090406 Si02
#       7
#     2   2   2   2   2   2   2
#     4  10  19  38  65  99 131 174 223 269 331 393
#     4   9  20  36  65  98 130 171 223 275 323 396
#     4  11  23  42  64  95 136 176 219 274 327 391
#     4  11  23  43  68  95 132 177 218 273 334 387
#     4  10  20  39  69  94 129 169 220 267 331 392
#     4  10  22  40  65  94 135 174 224 267 334 384
#     4  11  25  43  67  99 133 169 218 274 338 395
#
# _framework density 21.161283000000001
#
# number of rings (size 3 to 8) (size 9 to 14) (size 15 to 20)
#    0.000    1.714    2.857    2.571    4.000    2.286 
#    0.000    7.143    0.000    0.000    0.000    0.000 
#    0.000    0.000    0.000    0.000    0.000    0.000 
#
# Total GULP energy -78261.950561 kJ/mol
# GULP energy per Si atom -5590.139326 kJ/mol
# Density = 2.111312 g / cm^3
# Si number density = 21.161283 Si / 1000 Ang^3
#
#
#
# Elastic Constant Matrix: (Units=GPa)
#
#
# Indices 1 2 3 4 5 6 
#
# 1 87.6147 30.4925 10.2293 -13.8791 7.2841 -7.4637
# 2 30.4925 72.1287 6.3879 -10.1785 12.1537 -6.4527
# 3 10.2293 6.3879 93.3537 -9.4815 0.7948 5.7081
# 4 -13.8791 -10.1785 -9.4815 31.1755 3.0096 16.2248
# 5 7.2841 12.1537 0.7948 3.0096 33.2378 -4.6611
# 6 -7.4637 -6.4527 5.7081 16.2248 -4.6611 34.9219
#
#
#
# Elastic Compliance Matrix: (Units=1/GPa)
#
#
# Indices 1 2 3 4 5 6 
#
# 1 0.014093 -0.004960 -0.000698 0.004718 -0.001715 -0.000211
# 2 -0.004960 0.017506 -0.000129 0.004334 -0.005786 -0.000590
# 3 -0.000698 -0.000129 0.011722 0.005961 -0.001326 -0.005035
# 4 0.004718 0.004334 0.005961 0.051126 -0.010807 -0.024361
# 5 -0.001715 -0.005786 -0.001326 -0.010807 0.034772 0.008443
# 6 -0.000211 -0.000590 -0.005035 -0.024361 0.008443 0.041749
#
#
# Mechanical properties :
#
#
# Convention : Reuss Voigt Hill
#
# Bulk Modulus (GPa) = 31.49924 38.59073 35.04498
# Shear Modulus (GPa) = 25.88982 33.59953 29.74467
#
# Velocity S-wave (km/s) = 3.50158 3.98902 3.75322
# Velocity P-wave (km/s) = 5.59158 6.28430 5.94803
#
# Compressibility (1/GPa) = 0.03174679
#
# Stress axis : x y z
#
# Youngs Moduli (GPa) = 70.95513 57.12230 85.31086
#
# Poissons Ratio (x) = 0.28335 0.05956
# Poissons Ratio (y) = 0.35196 0.01099
# Poissons Ratio (z) = 0.04954 0.00736
#
# Static dielectric constant tensor:
#      x y z
#    x 1.784600 0.032500 -0.000370 
#    y 0.032500 1.824480 0.018080 
#    z -0.000370 0.018080 1.732680 
# 
# From -- ./inp_files/189432.got.cif
#   From: 2010.05.17/outbox.cif.g08.bks.cpg/sg2_95_cif.got.tgz:189432.got - 2010.06.03 11:33:40.
