data_PCOD9090632
_publ_section_title
;
Structure prediction by ZEFSAII (Michael W. Deem and Ramdas Pophale) SiO2 
 PCOD9090632
Probable space group: P -1
;
_chemical_formula_sum "Si O2"
_cell_formula_units_Z 16
_cell_length_a 14.442351
_cell_length_b 9.464625
_cell_length_c 10.201194
_cell_angle_alpha 58.671521
_cell_angle_beta 82.976407
_cell_angle_gamma 123.639813
_cell_volume 809.942342
_symmetry_space_group_name_H-M "P -1"
_symmetry_group_IT_number 2
_symmetry_cell_setting 'triclinic'
loop_
_space_group_symop_operation_xyz
x,y,z
-x,-y,-z
loop_
_atom_site_type_symbol
_atom_site_label
_atom_site_fract_x
_atom_site_fract_y
_atom_site_fract_z
Si Si1 0.603391 0.547369 0.861704
Si Si2 0.404894 0.029000 0.739701
Si Si3 0.695960 0.274007 0.555902
Si Si4 0.022509 0.498128 0.151531
Si Si5 0.065016 0.267772 0.874117
Si Si6 0.398533 0.019951 0.033559
Si Si7 0.281543 0.988561 0.519265
Si Si8 0.778333 0.505848 0.983631
O O1 0.724256 0.603948 0.884168
O O2 0.669596 0.774367 0.654846
O O3 0.500000 0.500000 0.000000
O O4 0.501688 0.293881 0.927904
O O5 0.568050 0.233566 0.609009
O O6 0.334371 0.040688 0.632738
O O7 0.348345 0.002032 0.905986
O O8 0.355691 0.779087 0.837681
O O9 0.828024 0.544329 0.350731
O O10 0.663961 0.093907 0.537945
O O11 0.701296 0.176399 0.739571
O O12 0.131466 0.489876 0.133622
O O13 0.034813 0.698914 0.114778
O O14 0.880284 0.242519 0.351050
O O15 0.000000 0.500000 0.000000
O O16 0.146526 0.375189 0.947650
O O17 0.000000 0.000000 0.000000
O O18 0.500000 0.000000 0.000000
#
# Coordination Sequence:
#
# PCOD9090632 Si02
#       8
#     2   2   2   2   2   2   2   2
#     4  12  24  40  64  99 138 163 221 283 323 384
#     4  11  20  38  68  98 122 177 215 261 344 391
#     4  10  19  38  68  94 133 172 208 271 341 388
#     4   9  19  41  63  90 125 177 214 262 319 394
#     4  10  22  41  68 102 129 166 228 275 311 390
#     4  10  21  40  59  97 137 161 207 272 341 387
#     4  11  21  37  67  95 126 175 225 262 323 396
#     4  11  21  42  67  89 134 180 210 266 334 387
#
# _framework density 19.754493
#
# number of rings (size 3 to 8) (size 9 to 14) (size 15 to 20)
#    0.000    1.500    7.500    0.375    1.750    1.000 
#   11.250    1.250    0.000    3.000    0.000    0.000 
#    0.000    0.000    0.000    0.000    0.000    0.000 
#
# Total GULP energy -89130.274000 kJ/mol
# GULP energy per Si atom -5570.642125 kJ/mol
# Density = 1.970953 g / cm^3
# Si number density = 19.754493 Si / 1000 Ang^3
#
#
#
# Elastic Constant Matrix: (Units=GPa)
#
#
# Indices 1 2 3 4 5 6 
#
# 1 104.4163 26.4799 51.7429 1.8881 -2.1026 -7.6029
# 2 26.4799 102.5634 58.2426 -4.1556 1.1443 -22.4073
# 3 51.7429 58.2426 149.6337 -9.0821 10.7974 -8.1545
# 4 1.8881 -4.1556 -9.0821 38.3001 0.1464 10.5245
# 5 -2.1026 1.1443 10.7974 0.1464 40.4836 0.4941
# 6 -7.6029 -22.4073 -8.1545 10.5245 0.4941 20.6948
#
#
#
# Elastic Compliance Matrix: (Units=1/GPa)
#
#
# Indices 1 2 3 4 5 6 
#
# 1 0.012060 0.000104 -0.004273 -0.002764 0.001721 0.004225
# 2 0.000104 0.016923 -0.005970 -0.004628 0.000912 0.018341
# 3 -0.004273 -0.005970 0.010602 0.003637 -0.002825 -0.005639
# 4 -0.002764 -0.004628 0.003637 0.032393 -0.000843 -0.021047
# 5 0.001721 0.000912 -0.002825 -0.000843 0.025518 0.000327
# 6 0.004225 0.018341 -0.005639 -0.021047 0.000327 0.078206
#
#
# Mechanical properties :
#
#
# Convention : Reuss Voigt Hill
#
# Bulk Modulus (GPa) = 51.79370 69.94937 60.87153
# Shear Modulus (GPa) = 24.70189 34.57222 29.63705
#
# Velocity S-wave (km/s) = 3.54000 4.18795 3.87753
# Velocity P-wave (km/s) = 6.55625 7.67277 7.13638
#
# Compressibility (1/GPa) = 0.01930737
#
# Stress axis : x y z
#
# Youngs Moduli (GPa) = 82.91758 59.09227 94.32500
#
# Poissons Ratio (x) = -0.00617 0.40303
# Poissons Ratio (y) = -0.00866 0.56314
# Poissons Ratio (z) = 0.35429 0.35280
#
# Static dielectric constant tensor:
#      x y z
#    x 1.735720 -0.004190 0.025410 
#    y -0.004190 1.676150 0.031110 
#    z 0.025410 0.031110 1.749400 
# 
# From -- ./inp_files/297640.got.cif
#   From: 2010.05.17/outbox.cif.g08.bks.cpg/sg2_149_cif.got.tgz:297640.got - 2010.06.03 11:33:40.
