data_PCOD9090783
_publ_section_title
;
Structure prediction by ZEFSAII (Michael W. Deem and Ramdas Pophale) SiO2 
 PCOD9090783
Probable space group: P -1
;
_chemical_formula_sum "Si O2"
_cell_formula_units_Z 10
_cell_length_a 7.346894
_cell_length_b 8.867508
_cell_length_c 11.395777
_cell_angle_alpha 39.531482
_cell_angle_beta 122.051271
_cell_angle_gamma 104.961632
_cell_volume 384.485812
_symmetry_space_group_name_H-M "P -1"
_symmetry_group_IT_number 2
_symmetry_cell_setting 'triclinic'
loop_
_space_group_symop_operation_xyz
x,y,z
-x,-y,-z
loop_
_atom_site_type_symbol
_atom_site_label
_atom_site_fract_x
_atom_site_fract_y
_atom_site_fract_z
Si Si1 0.705455 0.753960 0.689654
Si Si2 0.655954 0.075380 0.861748
Si Si3 0.947152 0.021044 0.770305
Si Si4 0.450830 0.656280 0.006253
Si Si5 0.821884 0.808075 0.434215
O O1 0.877869 0.796621 0.820067
O O2 0.606625 0.526742 0.811824
O O3 0.500000 0.000000 0.500000
O O4 0.814883 0.729751 0.612605
O O5 0.637441 0.793681 0.018114
O O6 0.602240 0.763663 0.322909
O O7 0.771859 0.124796 0.752108
O O8 0.815514 0.077284 0.023385
O O9 0.967704 0.228368 0.557769
O O10 0.500000 0.500000 0.000000
O O11 0.246595 0.893078 0.761954
#
# Coordination Sequence:
#
# PCOD9090783 Si02
#       5
#     2   2   2   2   2
#     4  12  20  38  61  84 118 152 190 234 284 337
#     4   9  21  39  61  83 118 149 189 239 284 337
#     4  11  20  37  64  87 109 158 191 228 296 332
#     4  10  19  39  59  83 118 150 187 237 286 328
#     4  10  22  38  64  81 118 151 191 236 281 343
#
# _framework density 26.008762999999998
#
# number of rings (size 3 to 8) (size 9 to 14) (size 15 to 20)
#    1.200    0.400    6.000    1.200    0.000    0.800 
#    0.000    2.000    4.400    0.000    0.000    0.000 
#    0.000    0.000    0.000    0.000    0.000    0.000 
#
# Total GULP energy -55906.722441 kJ/mol
# GULP energy per Si atom -5590.672244 kJ/mol
# Density = 2.594957 g / cm^3
# Si number density = 26.008763 Si / 1000 Ang^3
#
#
#
# Elastic Constant Matrix: (Units=GPa)
#
#
# Indices 1 2 3 4 5 6 
#
# 1 119.3064 48.6664 57.3406 2.5376 -46.5885 22.7078
# 2 48.6664 118.7892 54.7379 16.9426 -0.1466 28.9822
# 3 57.3406 54.7379 133.9101 5.2542 -59.6700 8.1736
# 4 2.5376 16.9426 5.2542 48.3446 -0.1771 5.5107
# 5 -46.5885 -0.1466 -59.6700 -0.1771 63.8599 8.2164
# 6 22.7078 28.9822 8.1736 5.5107 8.2164 37.2947
#
#
#
# Elastic Compliance Matrix: (Units=1/GPa)
#
#
# Indices 1 2 3 4 5 6 
#
# 1 0.018831 -0.006972 0.003681 0.002413 0.018624 -0.011314
# 2 -0.006972 0.017204 -0.009842 -0.004269 -0.013832 -0.003290
# 3 0.003681 -0.009842 0.019707 0.001639 0.021584 -0.003909
# 4 0.002413 -0.004269 0.001639 0.022186 0.003678 -0.002599
# 5 0.018624 -0.013832 0.021584 0.003678 0.051611 -0.017235
# 6 -0.011314 -0.003290 -0.003909 -0.002599 -0.017235 0.041297
#
#
# Mechanical properties :
#
#
# Convention : Reuss Voigt Hill
#
# Bulk Modulus (GPa) = 33.92562 77.05505 55.49033
# Shear Modulus (GPa) = 24.16305 43.98388 34.07347
#
# Velocity S-wave (km/s) = 3.05131 4.11678 3.62342
# Velocity P-wave (km/s) = 5.04839 7.23105 6.23596
#
# Compressibility (1/GPa) = 0.02947625
#
# Stress axis : x y z
#
# Youngs Moduli (GPa) = 53.10313 58.12476 50.74358
#
# Poissons Ratio (x) = 0.40524 -0.18679
# Poissons Ratio (y) = 0.37023 0.49944
# Poissons Ratio (z) = -0.19548 0.57209
#
# Static dielectric constant tensor:
#      x y z
#    x 2.271870 -0.010000 -0.018370 
#    y -0.010000 1.960500 0.022930 
#    z -0.018370 0.022930 2.082380 
# 
# From -- ./inp_files/26278.got.cif
#   From: 2010.05.17/outbox.cif.g08.bks.cpg/sg2_14_cif.got.tgz:26278.got - 2010.06.03 11:33:40.
