data_PCOD9090405
_publ_section_title
;
Structure prediction by ZEFSAII (Michael W. Deem and Ramdas Pophale) SiO2 
 PCOD9090405
Probable space group: P -1
;
_chemical_formula_sum "Si O2"
_cell_formula_units_Z 16
_cell_length_a 10.925636
_cell_length_b 16.897753
_cell_length_c 17.094389
_cell_angle_alpha 155.043695
_cell_angle_beta 30.279077
_cell_angle_gamma 146.995639
_cell_volume 647.992607
_symmetry_space_group_name_H-M "P -1"
_symmetry_group_IT_number 2
_symmetry_cell_setting 'triclinic'
loop_
_space_group_symop_operation_xyz
x,y,z
-x,-y,-z
loop_
_atom_site_type_symbol
_atom_site_label
_atom_site_fract_x
_atom_site_fract_y
_atom_site_fract_z
Si Si1 0.199419 0.415033 0.500692
Si Si2 0.976913 0.155065 0.538533
Si Si3 0.218622 0.881306 0.075799
Si Si4 0.478539 0.923656 0.531903
Si Si5 0.580038 0.467391 0.719215
Si Si6 0.726829 0.520110 0.247142
Si Si7 0.061539 0.029550 0.139253
Si Si8 0.951639 0.295115 0.252106
O O1 0.086477 0.306080 0.543019
O O2 0.485320 0.543167 0.453028
O O3 0.020906 0.545103 0.688571
O O4 0.203075 0.244007 0.282831
O O5 0.053715 0.284208 0.688041
O O6 0.126323 0.992636 0.297320
O O7 0.688061 0.055708 0.590543
O O8 0.053190 0.902787 0.109868
O O9 0.210447 0.666824 0.916556
O O10 0.500000 0.000000 0.000000
O O11 0.512113 0.705191 0.322137
O O12 0.500000 0.000000 0.500000
O O13 0.201316 0.942432 0.721242
O O14 0.366123 0.500821 0.809983
O O15 0.773905 0.657373 0.817551
O O16 0.755795 0.363969 0.476972
O O17 0.154600 0.912552 0.914853
#
# Coordination Sequence:
#
# PCOD9090405 Si02
#       8
#     2   2   2   2   2   2   2   2
#     4  10  19  38  65  99 131 159 219 282 317 372
#     4  11  23  40  67  91 138 181 209 268 322 398
#     4  11  22  37  66 107 129 163 222 272 325 382
#     4  12  23  48  67  93 135 175 224 272 326 390
#     4  10  24  42  65  95 139 173 211 285 322 389
#     4  11  23  40  62  96 136 170 219 262 335 386
#     4  11  22  39  72  99 124 171 217 274 324 383
#     4  10  21  41  65 101 127 166 222 273 338 366
#
# _framework density 24.691638999999999
#
# number of rings (size 3 to 8) (size 9 to 14) (size 15 to 20)
#    0.000    1.250    6.250    1.125    3.500    1.000 
#    4.500    2.500    0.000    0.000    0.000    0.000 
#    0.000    0.000    0.000    0.000    0.000    0.000 
#
# Total GULP energy -89461.382093 kJ/mol
# GULP energy per Si atom -5591.336381 kJ/mol
# Density = 2.463544 g / cm^3
# Si number density = 24.691639 Si / 1000 Ang^3
#
#
#
# Elastic Constant Matrix: (Units=GPa)
#
#
# Indices 1 2 3 4 5 6 
#
# 1 108.6615 31.8747 46.0160 25.4868 -27.9571 14.7026
# 2 31.8747 72.5809 12.5628 11.7219 -0.2410 24.6232
# 3 46.0160 12.5628 88.0265 24.7723 -3.8570 14.0201
# 4 25.4868 11.7219 24.7723 29.5661 3.9880 2.2003
# 5 -27.9571 -0.2410 -3.8570 3.9880 37.4851 5.5765
# 6 14.7026 24.6232 14.0201 2.2003 5.5765 50.9635
#
#
#
# Elastic Compliance Matrix: (Units=1/GPa)
#
#
# Indices 1 2 3 4 5 6 
#
# 1 0.020843 -0.004762 -0.004973 -0.013940 0.017022 -0.003605
# 2 -0.004762 0.018922 0.002265 -0.004492 -0.001524 -0.008031
# 3 -0.004973 0.002265 0.017288 -0.010779 -0.000184 -0.003930
# 4 -0.013940 -0.004492 -0.010779 0.058574 -0.019063 0.008714
# 5 0.017022 -0.001524 -0.000184 -0.019063 0.042556 -0.007957
# 6 -0.003605 -0.008031 -0.003930 0.008714 -0.007957 0.026118
#
#
# Mechanical properties :
#
#
# Convention : Reuss Voigt Hill
#
# Bulk Modulus (GPa) = 23.74562 50.01955 36.88259
# Shear Modulus (GPa) = 23.44382 35.52396 29.48389
#
# Velocity S-wave (km/s) = 3.08468 3.79714 3.45930
# Velocity P-wave (km/s) = 4.72491 6.28697 5.56106
#
# Compressibility (1/GPa) = 0.04211303
#
# Stress axis : x y z
#
# Youngs Moduli (GPa) = 47.97870 52.84967 57.84432
#
# Poissons Ratio (x) = 0.25165 0.28765
# Poissons Ratio (y) = 0.22846 -0.13102
# Poissons Ratio (z) = 0.23859 -0.11971
#
# Static dielectric constant tensor:
#      x y z
#    x 2.056420 -0.049800 0.030720 
#    y -0.049800 2.019700 -0.017370 
#    z 0.030720 -0.017370 1.937230 
# 
# From -- ./inp_files/596260.got.cif
#   From: 2010.05.17/outbox.cif.g08.bks.cpg/sg2_299_cif.got.tgz:596260.got - 2010.06.03 11:33:40.
