data_PCOD9090328
_publ_section_title
;
Structure prediction by ZEFSAII (Michael W. Deem and Ramdas Pophale) SiO2 
 PCOD9090328
Probable space group: P -1
;
_chemical_formula_sum "Si O2"
_cell_formula_units_Z 16
_cell_length_a 18.973990
_cell_length_b 17.565779
_cell_length_c 8.019025
_cell_angle_alpha 140.185128
_cell_angle_beta 41.140768
_cell_angle_gamma 159.909590
_cell_volume 581.706986
_symmetry_space_group_name_H-M "P -1"
_symmetry_group_IT_number 2
_symmetry_cell_setting 'triclinic'
loop_
_space_group_symop_operation_xyz
x,y,z
-x,-y,-z
loop_
_atom_site_type_symbol
_atom_site_label
_atom_site_fract_x
_atom_site_fract_y
_atom_site_fract_z
Si Si1 0.409262 0.326419 0.226266
Si Si2 0.221404 0.781346 0.771987
Si Si3 0.715264 0.543755 0.782979
Si Si4 0.975979 0.633524 0.683325
Si Si5 0.341663 0.601620 0.889910
Si Si6 0.480217 0.075987 0.320038
Si Si7 0.262213 0.998706 0.343638
Si Si8 0.080805 0.164353 0.418092
O O1 0.500000 0.500000 0.500000
O O2 0.481515 0.271186 0.080429
O O3 0.171508 0.128299 0.272325
O O4 0.544491 0.458800 0.040437
O O5 0.069225 0.523874 0.612318
O O6 0.446266 0.942280 0.692600
O O7 0.185316 0.816135 0.721644
O O8 0.159924 0.808463 0.079925
O O9 0.898744 0.680679 0.813756
O O10 0.622436 0.327716 0.529825
O O11 0.803926 0.698883 0.730718
O O12 0.803745 0.452460 0.835485
O O13 0.180420 0.350692 0.686596
O O14 0.494341 0.768270 0.744099
O O15 0.266608 0.943648 0.427277
O O16 0.500000 0.000000 0.000000
O O17 0.152308 0.018816 0.525476
#
# Coordination Sequence:
#
# PCOD9090328 Si02
#       8
#     2   2   2   2   2   2   2   2
#     4   9  21  39  66  89 117 162 204 250 311 358
#     4   9  18  35  58  84 123 157 207 245 297 366
#     4  10  19  38  65  89 125 158 202 253 301 363
#     4   9  18  36  59  89 117 162 205 249 302 358
#     4  10  20  38  61  85 123 158 200 254 302 357
#     4   9  19  36  58  89 126 158 196 249 296 360
#     4  11  21  36  60  90 123 160 204 245 306 363
#     4  11  21  38  63  89 120 161 200 251 304 362
#
# _framework density 27.505258999999999
#
# number of rings (size 3 to 8) (size 9 to 14) (size 15 to 20)
#    0.000    2.250    2.500    0.375    0.000    1.000 
#    0.000   21.875    0.000    0.000    0.000    0.000 
#    0.000    0.000    0.000    0.000    0.000    0.000 
#
# Total GULP energy -89201.346726 kJ/mol
# GULP energy per Si atom -5575.084170 kJ/mol
# Density = 2.744266 g / cm^3
# Si number density = 27.505259 Si / 1000 Ang^3
#
#
#
# Elastic Constant Matrix: (Units=GPa)
#
#
# Indices 1 2 3 4 5 6 
#
# 1 196.5254 28.8759 18.7816 -8.1453 -5.2596 77.9893
# 2 28.8759 84.8698 51.2649 1.1005 -8.1990 20.8762
# 3 18.7816 51.2649 77.7699 0.1622 -0.0470 18.3865
# 4 -8.1453 1.1005 0.1622 44.3784 20.8067 -2.5226
# 5 -5.2596 -8.1990 -0.0470 20.8067 40.2593 -14.5518
# 6 77.9893 20.8762 18.3865 -2.5226 -14.5518 54.7433
#
#
#
# Elastic Compliance Matrix: (Units=1/GPa)
#
#
# Indices 1 2 3 4 5 6 
#
# 1 0.014114 -0.002368 0.003514 0.006017 -0.009970 -0.022758
# 2 -0.002368 0.021214 -0.013744 -0.003890 0.006532 0.001458
# 3 0.003514 -0.013744 0.023299 0.004030 -0.007824 -0.009485
# 4 0.006017 -0.003890 0.004030 0.033193 -0.021744 -0.012693
# 5 -0.009970 0.006532 -0.007824 -0.021744 0.045265 0.025371
# 6 -0.022758 0.001458 -0.009485 -0.012693 0.025371 0.059478
#
#
# Mechanical properties :
#
#
# Convention : Reuss Voigt Hill
#
# Bulk Modulus (GPa) = 29.91269 61.88998 45.90133
# Shear Modulus (GPa) = 21.46816 45.22572 33.34694
#
# Velocity S-wave (km/s) = 2.79679 4.05934 3.48571
# Velocity P-wave (km/s) = 4.61825 6.67241 5.73800
#
# Compressibility (1/GPa) = 0.03343063
#
# Stress axis : x y z
#
# Youngs Moduli (GPa) = 70.84979 47.13936 42.92014
#
# Poissons Ratio (x) = 0.11164 -0.15084
# Poissons Ratio (y) = 0.16779 0.58991
# Poissons Ratio (z) = -0.24899 0.64790
#
# Static dielectric constant tensor:
#      x y z
#    x 2.296990 -0.076730 0.046480 
#    y -0.076730 2.261160 -0.101130 
#    z 0.046480 -0.101130 2.180780 
# 
# From -- ./inp_files/349712.got.cif
#   From: 2010.05.17/outbox.cif.g08.bks.cpg/sg2_175_cif.got.tgz:349712.got - 2010.06.03 11:33:40.
