data_PCOD9090813
_publ_section_title
;
Structure prediction by ZEFSAII (Michael W. Deem and Ramdas Pophale) SiO2 
 PCOD9090813
Probable space group: P -1
;
_chemical_formula_sum "Si O2"
_cell_formula_units_Z 16
_cell_length_a 7.733569
_cell_length_b 11.585226
_cell_length_c 15.757216
_cell_angle_alpha 37.284357
_cell_angle_beta 61.369824
_cell_angle_gamma 84.159232
_cell_volume 638.591381
_symmetry_space_group_name_H-M "P -1"
_symmetry_group_IT_number 2
_symmetry_cell_setting 'triclinic'
loop_
_space_group_symop_operation_xyz
x,y,z
-x,-y,-z
loop_
_atom_site_type_symbol
_atom_site_label
_atom_site_fract_x
_atom_site_fract_y
_atom_site_fract_z
Si Si1 0.567357 0.361898 0.125260
Si Si2 0.489454 0.934380 0.443706
Si Si3 0.871641 0.206584 0.092203
Si Si4 0.052258 0.752212 0.412218
Si Si5 0.596136 0.085048 0.062280
Si Si6 0.650169 0.539042 0.730772
Si Si7 0.302359 0.430021 0.748186
Si Si8 0.988101 0.721735 0.261781
O O1 0.818258 0.401558 0.017431
O O2 0.512289 0.409329 0.204385
O O3 0.422352 0.090442 0.314894
O O4 0.500000 0.500000 0.000000
O O5 0.346980 0.679752 0.598051
O O6 0.500000 0.000000 0.500000
O O7 0.759754 0.041997 0.293024
O O8 0.711524 0.071917 0.128606
O O9 0.118184 0.292800 0.945636
O O10 0.017860 0.508481 0.582832
O O11 0.902845 0.752803 0.526548
O O12 0.949499 0.778109 0.331944
O O13 0.324715 0.916890 0.234612
O O14 0.649198 0.337609 0.896207
O O15 0.757357 0.090329 0.944278
O O16 0.534197 0.450925 0.716547
O O17 0.196094 0.329670 0.739771
#
# Coordination Sequence:
#
# PCOD9090813 Si02
#       8
#     2   2   2   2   2   2   2   2
#     4  10  20  40  57  85 124 156 202 245 285 359
#     4  10  20  35  57  84 119 156 200 231 295 359
#     4   9  21  36  58  82 116 156 198 239 290 351
#     4  10  21  39  60  88 113 153 199 252 292 353
#     4  10  19  39  60  83 115 156 197 243 297 354
#     4  11  22  36  57  87 123 151 197 244 301 348
#     4  11  21  39  59  87 121 158 194 247 296 360
#     4   9  21  38  64  85 113 152 201 245 302 352
#
# _framework density 25.055146000000001
#
# number of rings (size 3 to 8) (size 9 to 14) (size 15 to 20)
#    0.750    1.250    2.500    1.125    0.000    3.500 
#    2.250    1.875    0.000    0.000    0.000    0.000 
#    0.000    0.000    0.000    0.000    0.000    0.000 
#
# Total GULP energy -89189.812890 kJ/mol
# GULP energy per Si atom -5574.363306 kJ/mol
# Density = 2.499812 g / cm^3
# Si number density = 25.055146 Si / 1000 Ang^3
#
#
#
# Elastic Constant Matrix: (Units=GPa)
#
#
# Indices 1 2 3 4 5 6 
#
# 1 59.2661 17.2212 26.0572 -1.5971 7.1582 12.8199
# 2 17.2212 57.6952 34.0069 8.7939 6.1387 0.5693
# 3 26.0572 34.0069 162.4068 17.4570 0.8410 18.6727
# 4 -1.5971 8.7939 17.4570 37.2620 -2.9340 5.3250
# 5 7.1582 6.1387 0.8410 -2.9340 30.1917 -11.0243
# 6 12.8199 0.5693 18.6727 5.3250 -11.0243 32.1907
#
#
#
# Elastic Compliance Matrix: (Units=1/GPa)
#
#
# Indices 1 2 3 4 5 6 
#
# 1 0.022712 -0.005502 -0.001565 0.004010 -0.008013 -0.011447
# 2 -0.005502 0.022007 -0.003696 -0.004427 -0.002045 0.003978
# 3 -0.001565 -0.003696 0.007872 -0.002406 -0.000687 -0.003715
# 4 0.004010 -0.004427 -0.002406 0.029943 0.001226 -0.004657
# 5 -0.008013 -0.002045 -0.000687 0.001226 0.042088 0.017837
# 6 -0.011447 0.003978 -0.003715 -0.004657 0.017837 0.044587
#
#
# Mechanical properties :
#
#
# Convention : Reuss Voigt Hill
#
# Bulk Modulus (GPa) = 32.19291 48.21542 40.20416
# Shear Modulus (GPa) = 24.86447 33.40109 29.13278
#
# Velocity S-wave (km/s) = 3.15364 3.65513 3.41361
# Velocity P-wave (km/s) = 5.11247 6.09088 5.62299
#
# Compressibility (1/GPa) = 0.03106274
#
# Stress axis : x y z
#
# Youngs Moduli (GPa) = 44.02939 45.44103 127.03722
#
# Poissons Ratio (x) = 0.25003 0.19885
# Poissons Ratio (y) = 0.24227 0.46954
# Poissons Ratio (z) = 0.06892 0.16796
#
# Static dielectric constant tensor:
#      x y z
#    x 2.062670 0.001900 0.011220 
#    y 0.001900 2.092980 0.033130 
#    z 0.011220 0.033130 2.033100 
# 
# From -- ./inp_files/561142.got.cif
#   From: 2010.05.17/outbox.cif.g08.bks.cpg/sg2_281_cif.got.tgz:561142.got - 2010.06.03 11:33:40.
