data_PCOD9090888
_publ_section_title
;
Structure prediction by ZEFSAII (Michael W. Deem and Ramdas Pophale) SiO2 
 PCOD9090888
Probable space group: P -1
;
_chemical_formula_sum "Si O2"
_cell_formula_units_Z 16
_cell_length_a 8.871172
_cell_length_b 8.937152
_cell_length_c 16.482722
_cell_angle_alpha 79.249430
_cell_angle_beta 56.977610
_cell_angle_gamma 51.434738
_cell_volume 833.002703
_symmetry_space_group_name_H-M "P -1"
_symmetry_group_IT_number 2
_symmetry_cell_setting 'triclinic'
loop_
_space_group_symop_operation_xyz
x,y,z
-x,-y,-z
loop_
_atom_site_type_symbol
_atom_site_label
_atom_site_fract_x
_atom_site_fract_y
_atom_site_fract_z
Si Si1 0.349257 0.725221 0.050595
Si Si2 0.842857 0.857888 0.206691
Si Si3 0.810316 0.968455 0.557976
Si Si4 0.498888 0.777013 0.843242
Si Si5 0.326375 0.373571 0.718251
Si Si6 0.007771 0.394056 0.341255
Si Si7 0.085032 0.217645 0.622477
Si Si8 0.560983 0.408648 0.791333
O O1 0.601401 0.174117 0.041314
O O2 0.419746 0.714202 0.124462
O O3 0.083967 0.811289 0.120675
O O4 0.500000 0.500000 0.000000
O O5 0.842230 0.678090 0.206853
O O6 0.809070 0.886662 0.311004
O O7 0.644604 0.039435 0.193071
O O8 0.786111 0.914854 0.479969
O O9 0.911587 0.781418 0.604734
O O10 0.565999 0.166265 0.639871
O O11 0.000000 0.000000 0.500000
O O12 0.486028 0.613250 0.826881
O O13 0.766204 0.682621 0.770169
O O14 0.202376 0.530702 0.665799
O O15 0.390545 0.439868 0.769674
O O16 0.934886 0.588094 0.389824
O O17 0.821061 0.294066 0.691942
#
# Coordination Sequence:
#
# PCOD9090888 Si02
#       8
#     2   2   2   2   2   2   2   2
#     4   9  18  36  62  85 115 154 193 233 286 349
#     4  10  20  36  62  88 116 151 196 237 284 345
#     4  12  23  39  61  85 118 153 197 243 291 343
#     4  10  19  39  61  86 114 156 196 236 281 351
#     4  11  22  40  58  86 122 155 187 244 297 334
#     4  10  23  40  59  84 119 155 195 239 286 344
#     4   9  20  39  58  83 116 156 194 238 288 341
#     4   9  19  37  57  83 120 152 189 241 292 336
#
# _framework density 19.207621
#
# number of rings (size 3 to 8) (size 9 to 14) (size 15 to 20)
#    0.000    2.000    2.500    3.000    0.000    3.500 
#    4.500    6.250    0.000    0.000    0.000    0.000 
#    0.000    0.000    0.000    0.000    0.000    0.000 
#
# Total GULP energy -89293.133769 kJ/mol
# GULP energy per Si atom -5580.820861 kJ/mol
# Density = 1.916390 g / cm^3
# Si number density = 19.207621 Si / 1000 Ang^3
#
#
#
# Elastic Constant Matrix: (Units=GPa)
#
#
# Indices 1 2 3 4 5 6 
#
# 1 81.9149 13.8429 39.2778 -13.7517 17.8504 -8.8750
# 2 13.8429 75.2922 37.4557 -21.3290 5.0324 -23.5472
# 3 39.2778 37.4557 83.4353 -13.5692 8.7087 7.5120
# 4 -13.7517 -21.3290 -13.5692 28.7160 -3.9689 0.3329
# 5 17.8504 5.0324 8.7087 -3.9689 25.1623 -7.8912
# 6 -8.8750 -23.5472 7.5120 0.3329 -7.8912 22.4013
#
#
#
# Elastic Compliance Matrix: (Units=1/GPa)
#
#
# Indices 1 2 3 4 5 6 
#
# 1 0.038531 0.053969 -0.045728 0.037558 0.012181 0.091062
# 2 0.053969 0.152713 -0.105766 0.094392 0.056656 0.235930
# 3 -0.045728 -0.105766 0.091070 -0.061225 -0.042071 -0.173743
# 4 0.037558 0.094392 -0.061225 0.097391 0.036871 0.146172
# 5 0.012181 0.056656 -0.042071 0.036871 0.072611 0.103519
# 6 0.091062 0.235930 -0.173743 0.146172 0.103519 0.421273
#
#
# Mechanical properties :
#
#
# Convention : Reuss Voigt Hill
#
# Bulk Modulus (GPa) = 11.45971 46.86611 29.16291
# Shear Modulus (GPa) = 4.55486 25.26032 14.90759
#
# Velocity S-wave (km/s) = 1.54160 3.63039 2.78893
# Velocity P-wave (km/s) = 3.02455 6.48272 5.05834
#
# Compressibility (1/GPa) = 0.08726224
#
# Stress axis : x y z
#
# Youngs Moduli (GPa) = 25.95326 6.54822 10.98061
#
# Poissons Ratio (x) = -0.35340 0.50213
# Poissons Ratio (y) = -1.40067 1.16138
# Poissons Ratio (z) = 1.18680 0.69258
#
# Static dielectric constant tensor:
#      x y z
#    x 1.679740 -0.007610 -0.017090 
#    y -0.007610 1.663680 -0.016560 
#    z -0.017090 -0.016560 1.698240 
# 
# From -- ./inp_files/347216.got.cif
#   From: 2010.05.17/outbox.cif.g08.bks.cpg/sg2_174_cif.got.tgz:347216.got - 2010.06.03 11:33:40.
