data_PCOD9090609
_publ_section_title
;
Structure prediction by ZEFSAII (Michael W. Deem and Ramdas Pophale) SiO2 
 PCOD9090609
Probable space group: P -1
;
_chemical_formula_sum "Si O2"
_cell_formula_units_Z 14
_cell_length_a 14.095814
_cell_length_b 13.464517
_cell_length_c 8.423764
_cell_angle_alpha 145.180555
_cell_angle_beta 127.179119
_cell_angle_gamma 36.758749
_cell_volume 539.600178
_symmetry_space_group_name_H-M "P -1"
_symmetry_group_IT_number 2
_symmetry_cell_setting 'triclinic'
loop_
_space_group_symop_operation_xyz
x,y,z
-x,-y,-z
loop_
_atom_site_type_symbol
_atom_site_label
_atom_site_fract_x
_atom_site_fract_y
_atom_site_fract_z
Si Si1 0.064377 0.870351 0.062701
Si Si2 0.562956 0.016404 0.845532
Si Si3 0.145609 0.702742 0.408374
Si Si4 0.329910 0.825462 0.575622
Si Si5 0.129972 0.240683 0.358822
Si Si6 0.653027 0.540556 0.386963
Si Si7 0.201709 0.259792 0.800606
O O1 0.239487 0.624362 0.872676
O O2 0.929328 0.859071 0.940249
O O3 0.000000 0.000000 0.000000
O O4 0.024689 0.043172 0.385980
O O5 0.683329 0.922448 0.699167
O O6 0.629609 0.771815 0.668348
O O7 0.583536 0.162174 0.171333
O O8 0.380521 0.156706 0.804035
O O9 0.242709 0.735584 0.430984
O O10 0.247161 0.601337 0.541013
O O11 0.119468 0.526412 0.104510
O O12 0.474990 0.637265 0.352755
O O13 0.238125 0.081348 0.738740
O O14 0.000000 0.500000 0.500000
O O15 0.119081 0.253314 0.554584
#
# Coordination Sequence:
#
# PCOD9090609 Si02
#       7
#     2   2   2   2   2   2   2
#     4  10  23  41  68  98 142 190 228 285 361 421
#     4  11  20  42  75 104 142 186 234 297 354 420
#     4  11  21  41  72 108 139 186 236 293 351 426
#     4  11  21  40  76 105 142 184 234 299 355 414
#     4  12  25  47  71 100 145 195 233 289 367 425
#     4  10  19  38  68 105 138 186 229 284 356 426
#     4  11  25  43  71 114 138 178 249 299 343 425
#
# _framework density 25.945138
#
# number of rings (size 3 to 8) (size 9 to 14) (size 15 to 20)
#    0.000    1.143    5.714    1.714    0.000    0.000 
#    2.571    7.143    0.000    9.429    3.714    0.000 
#    0.000    0.000    0.000    0.000    0.000    0.000 
#
# Total GULP energy -78213.168092 kJ/mol
# GULP energy per Si atom -5586.654864 kJ/mol
# Density = 2.588609 g / cm^3
# Si number density = 25.945138 Si / 1000 Ang^3
#
#
#
# Elastic Constant Matrix: (Units=GPa)
#
#
# Indices 1 2 3 4 5 6 
#
# 1 88.8213 9.7568 41.5255 -6.7002 -6.7537 -22.7392
# 2 9.7568 84.5313 49.0385 -2.7303 -9.8315 2.4668
# 3 41.5255 49.0385 121.9956 3.1999 2.6425 -19.3240
# 4 -6.7002 -2.7303 3.1999 42.8540 -14.4588 -1.8844
# 5 -6.7537 -9.8315 2.6425 -14.4588 33.0545 1.3401
# 6 -22.7392 2.4668 -19.3240 -1.8844 1.3401 38.0111
#
#
#
# Elastic Compliance Matrix: (Units=1/GPa)
#
#
# Indices 1 2 3 4 5 6 
#
# 1 0.016327 0.002131 -0.005626 0.005638 0.006610 0.006816
# 2 0.002131 0.018192 -0.009090 0.004985 0.008940 -0.004595
# 3 -0.005626 -0.009090 0.014808 -0.004833 -0.007344 0.004772
# 4 0.005638 0.004985 -0.004833 0.030455 0.016281 0.001529
# 5 0.006610 0.008940 -0.007344 0.016281 0.042013 -0.001034
# 6 0.006816 -0.004595 0.004772 0.001529 -0.001034 0.033222
#
#
# Mechanical properties :
#
#
# Convention : Reuss Voigt Hill
#
# Bulk Modulus (GPa) = 41.39544 55.10997 48.25271
# Shear Modulus (GPa) = 26.56174 35.78576 31.17375
#
# Velocity S-wave (km/s) = 3.20310 3.71790 3.47006
# Velocity P-wave (km/s) = 5.44697 6.30218 5.89012
#
# Compressibility (1/GPa) = 0.02415725
#
# Stress axis : x y z
#
# Youngs Moduli (GPa) = 61.24693 54.96772 67.53248
#
# Poissons Ratio (x) = -0.11714 0.37991
# Poissons Ratio (y) = -0.13052 0.61390
# Poissons Ratio (z) = 0.34455 0.49968
#
# Static dielectric constant tensor:
#      x y z
#    x 2.072460 -0.003740 -0.036560 
#    y -0.003740 1.975180 0.078580 
#    z -0.036560 0.078580 1.936440 
# 
# From -- ./inp_files/535266.got.cif
#   From: 2010.05.17/outbox.cif.g08.bks.cpg/sg2_268_cif.got.tgz:535266.got - 2010.06.03 11:33:40.
