data_PCOD9090058
_publ_section_title
;
Structure prediction by ZEFSAII (Michael W. Deem and Ramdas Pophale) SiO2 
 PCOD9090058
Probable space group: P -1
;
_chemical_formula_sum "Si O2"
_cell_formula_units_Z 16
_cell_length_a 18.338434
_cell_length_b 8.777752
_cell_length_c 11.947160
_cell_angle_alpha 116.497686
_cell_angle_beta 43.930217
_cell_angle_gamma 144.912835
_cell_volume 715.836344
_symmetry_space_group_name_H-M "P -1"
_symmetry_group_IT_number 2
_symmetry_cell_setting 'triclinic'
loop_
_space_group_symop_operation_xyz
x,y,z
-x,-y,-z
loop_
_atom_site_type_symbol
_atom_site_label
_atom_site_fract_x
_atom_site_fract_y
_atom_site_fract_z
Si Si1 0.769743 0.510764 0.757525
Si Si2 0.505232 0.625803 0.886533
Si Si3 0.960081 0.930436 0.233532
Si Si4 0.297870 0.189879 0.646311
Si Si5 0.759614 0.670684 0.603703
Si Si6 0.626343 0.985507 0.659645
Si Si7 0.544599 0.996924 0.324000
Si Si8 0.223999 0.995571 0.918366
O O1 0.851424 0.699245 0.616595
O O2 0.883437 0.728968 0.806555
O O3 0.573843 0.336564 0.931026
O O4 0.258408 0.724381 0.307864
O O5 0.685916 0.759968 0.750769
O O6 0.525210 0.742742 0.783117
O O7 0.358109 0.289107 0.935313
O O8 0.832080 0.824529 0.242258
O O9 0.852332 0.796215 0.423513
O O10 0.040129 0.847575 0.098204
O O11 0.500000 0.500000 0.500000
O O12 0.257318 0.988641 0.535946
O O13 0.271994 0.089841 0.766574
O O14 0.596670 0.333799 0.650957
O O15 0.496828 0.912592 0.691918
O O16 0.731023 0.142723 0.154161
O O17 0.500000 0.000000 0.500000
#
# Coordination Sequence:
#
# PCOD9090058 Si02
#       8
#     2   2   2   2   2   2   2   2
#     4  10  23  38  58  89 126 153 201 255 304 348
#     4  10  19  38  63  91 116 159 208 247 290 360
#     4  11  23  39  62  88 124 159 203 249 297 362
#     4  12  21  39  66  89 117 161 207 244 296 368
#     4  10  20  38  62  85 116 169 204 238 293 366
#     4  11  21  36  65  92 120 157 200 247 303 350
#     4  10  20  36  63  89 122 156 202 244 295 356
#     4  10  21  38  62  93 120 158 201 248 297 355
#
# _framework density 22.351476999999999
#
# number of rings (size 3 to 8) (size 9 to 14) (size 15 to 20)
#    0.000    1.500    3.750    2.250    0.000    1.500 
#    0.000    0.625   11.000    0.000    0.000    0.000 
#    0.000    0.000    0.000    0.000    0.000    0.000 
#
# Total GULP energy -89353.344129 kJ/mol
# GULP energy per Si atom -5584.584008 kJ/mol
# Density = 2.230060 g / cm^3
# Si number density = 22.351477 Si / 1000 Ang^3
#
#
#
# Elastic Constant Matrix: (Units=GPa)
#
#
# Indices 1 2 3 4 5 6 
#
# 1 86.3220 -0.5310 3.5408 -9.0749 -18.9566 -5.7030
# 2 -0.5310 56.0431 1.8169 15.1223 -9.4304 1.5348
# 3 3.5408 1.8169 77.2004 10.9995 -10.1760 -6.7923
# 4 -9.0749 15.1223 10.9995 24.7591 -1.6516 1.5667
# 5 -18.9566 -9.4304 -10.1760 -1.6516 42.0032 6.6185
# 6 -5.7030 1.5348 -6.7923 1.5667 6.6185 24.2339
#
#
#
# Elastic Compliance Matrix: (Units=1/GPa)
#
#
# Indices 1 2 3 4 5 6 
#
# 1 0.013599 -0.000456 -0.000566 0.005845 0.005960 0.001065
# 2 -0.000456 0.022551 0.002087 -0.014446 0.005013 -0.001386
# 3 -0.000566 0.002087 0.014783 -0.008084 0.002908 0.003606
# 4 0.005845 -0.014446 -0.008084 0.055185 0.000172 -0.003590
# 5 0.005960 0.005013 0.002908 0.000172 0.029297 -0.006112
# 6 0.001065 -0.001386 0.003606 -0.003590 -0.006112 0.044515
#
#
# Mechanical properties :
#
#
# Convention : Reuss Voigt Hill
#
# Bulk Modulus (GPa) = 18.84611 25.46875 22.15743
# Shear Modulus (GPa) = 25.57711 32.51515 29.04613
#
# Velocity S-wave (km/s) = 3.38644 3.81822 3.60879
# Velocity P-wave (km/s) = 4.87244 5.55498 5.22487
#
# Compressibility (1/GPa) = 0.05306134
#
# Stress axis : x y z
#
# Youngs Moduli (GPa) = 73.53750 44.34392 67.64716
#
# Poissons Ratio (x) = 0.02023 0.03832
# Poissons Ratio (y) = 0.03355 -0.14120
# Poissons Ratio (z) = 0.04166 -0.09256
#
# Static dielectric constant tensor:
#      x y z
#    x 1.893760 0.055640 -0.064270 
#    y 0.055640 1.856220 -0.014570 
#    z -0.064270 -0.014570 1.854710 
# 
# From -- ./inp_files/447632.got.cif
#   From: 2010.05.17/outbox.cif.g08.bks.cpg/sg2_224_cif.got.tgz:447632.got - 2010.06.03 11:33:40.
