data_PCOD9090624
_publ_section_title
;
Structure prediction by ZEFSAII (Michael W. Deem and Ramdas Pophale) SiO2 
 PCOD9090624
Probable space group: P -1
;
_chemical_formula_sum "Si O2"
_cell_formula_units_Z 16
_cell_length_a 19.737824
_cell_length_b 21.628903
_cell_length_c 7.421754
_cell_angle_alpha 43.553500
_cell_angle_beta 52.438376
_cell_angle_gamma 19.969399
_cell_volume 710.285374
_symmetry_space_group_name_H-M "P -1"
_symmetry_group_IT_number 2
_symmetry_cell_setting 'triclinic'
loop_
_space_group_symop_operation_xyz
x,y,z
-x,-y,-z
loop_
_atom_site_type_symbol
_atom_site_label
_atom_site_fract_x
_atom_site_fract_y
_atom_site_fract_z
Si Si1 0.362168 0.059745 0.413792
Si Si2 0.349538 0.363335 0.988791
Si Si3 0.226919 0.241813 0.628919
Si Si4 0.489548 0.409975 0.781228
Si Si5 0.079504 0.825744 0.787909
Si Si6 0.045927 0.058437 0.860501
Si Si7 0.973323 0.328160 0.414068
Si Si8 0.980894 0.733858 0.094504
O O1 0.561632 0.916842 0.301700
O O2 0.267407 0.209671 0.414699
O O3 0.464127 0.875680 0.736161
O O4 0.167272 0.207412 0.307588
O O5 0.429671 0.388672 0.785623
O O6 0.238448 0.437391 0.830896
O O7 0.176428 0.526972 0.084107
O O8 0.000000 0.500000 0.500000
O O9 0.197927 0.164550 0.880796
O O10 0.500000 0.500000 0.500000
O O11 0.303846 0.591453 0.840375
O O12 0.709831 0.174634 0.003141
O O13 0.932023 0.886104 0.832389
O O14 0.000000 0.000000 0.500000
O O15 0.086483 0.811164 0.018972
O O16 0.004289 0.197783 0.554347
O O17 0.000000 0.000000 0.000000
O O18 0.968570 0.329419 0.639010
#
# Coordination Sequence:
#
# PCOD9090624 Si02
#       8
#     2   2   2   2   2   2   2   2
#     4  10  21  39  67  93 125 171 209 262 325 378
#     4  11  21  41  68  91 125 171 215 258 322 380
#     4  10  19  38  68  92 130 170 203 267 329 370
#     4  11  21  36  63  89 124 170 208 261 321 371
#     4  10  21  37  61  90 122 165 212 256 311 377
#     4  11  22  38  59  90 128 164 212 266 314 373
#     4  10  22  41  63  94 128 167 215 265 316 386
#     4   9  21  39  64  89 131 164 205 271 311 370
#
# _framework density 22.526157000000001
#
# number of rings (size 3 to 8) (size 9 to 14) (size 15 to 20)
#    0.000    1.750    3.750    0.750    1.750    0.500 
#    0.000   10.000    0.000    0.000    0.000    0.000 
#    0.000    0.000    0.000    0.000    0.000    0.000 
#
# Total GULP energy -89219.067055 kJ/mol
# GULP energy per Si atom -5576.191691 kJ/mol
# Density = 2.247489 g / cm^3
# Si number density = 22.526157 Si / 1000 Ang^3
#
#
#
# Elastic Constant Matrix: (Units=GPa)
#
#
# Indices 1 2 3 4 5 6 
#
# 1 96.7824 34.9387 19.4894 11.0027 -11.7628 -29.1442
# 2 34.9387 115.9768 8.7921 6.0191 -2.5796 -13.3975
# 3 19.4894 8.7921 43.4414 0.0306 -10.4320 -11.6540
# 4 11.0027 6.0191 0.0306 28.5544 -13.6147 -2.4524
# 5 -11.7628 -2.5796 -10.4320 -13.6147 35.2331 4.9716
# 6 -29.1442 -13.3975 -11.6540 -2.4524 4.9716 45.8818
#
#
#
# Elastic Compliance Matrix: (Units=1/GPa)
#
#
# Indices 1 2 3 4 5 6 
#
# 1 0.015043 -0.003161 -0.003887 -0.003989 0.001066 0.007316
# 2 -0.003161 0.009750 -0.000632 -0.001318 -0.001141 0.000732
# 3 -0.003887 -0.000632 0.028024 0.006115 0.008774 0.003840
# 4 -0.003989 -0.001318 0.006115 0.045350 0.018033 -0.000896
# 5 0.001066 -0.001141 0.008774 0.018033 0.038307 -0.000615
# 6 0.007316 0.000732 0.003840 -0.000896 -0.000615 0.027650
#
#
# Mechanical properties :
#
#
# Convention : Reuss Voigt Hill
#
# Bulk Modulus (GPa) = 26.69784 42.51566 34.60675
# Shear Modulus (GPa) = 26.04556 34.79922 30.42239
#
# Velocity S-wave (km/s) = 3.40404 3.93470 3.67895
# Velocity P-wave (km/s) = 5.22758 6.28947 5.78295
#
# Compressibility (1/GPa) = 0.03745622
#
# Stress axis : x y z
#
# Youngs Moduli (GPa) = 66.47811 102.56234 35.68309
#
# Poissons Ratio (x) = 0.32421 0.13872
# Poissons Ratio (y) = 0.21014 0.02255
# Poissons Ratio (z) = 0.25843 0.06481
#
# Static dielectric constant tensor:
#      x y z
#    x 1.946680 -0.009660 -0.052390 
#    y -0.009660 1.842100 0.020650 
#    z -0.052390 0.020650 1.901790 
# 
# From -- ./inp_files/349862.got.cif
#   From: 2010.05.17/outbox.cif.g08.bks.cpg/sg2_175_cif.got.tgz:349862.got - 2010.06.03 11:33:40.
