data_PCOD9090985
_publ_section_title
;
Structure prediction by ZEFSAII (Michael W. Deem and Ramdas Pophale) SiO2 
 PCOD9090985
Probable space group: P -1
;
_chemical_formula_sum "Si O2"
_cell_formula_units_Z 14
_cell_length_a 7.294541
_cell_length_b 19.826774
_cell_length_c 7.512015
_cell_angle_alpha 140.920325
_cell_angle_beta 122.969797
_cell_angle_gamma 60.106379
_cell_volume 568.641228
_symmetry_space_group_name_H-M "P -1"
_symmetry_group_IT_number 2
_symmetry_cell_setting 'triclinic'
loop_
_space_group_symop_operation_xyz
x,y,z
-x,-y,-z
loop_
_atom_site_type_symbol
_atom_site_label
_atom_site_fract_x
_atom_site_fract_y
_atom_site_fract_z
Si Si1 0.047560 0.664173 0.894094
Si Si2 0.466264 0.403700 0.156082
Si Si3 0.716533 0.443626 0.891999
Si Si4 0.640011 0.895503 0.765186
Si Si5 0.055541 0.885681 0.205316
Si Si6 0.572504 0.733009 0.666869
Si Si7 0.456502 0.166963 0.785260
O O1 0.282452 0.625848 0.845808
O O2 0.812492 0.658024 0.661614
O O3 0.080685 0.599217 0.962208
O O4 0.046035 0.793301 0.159467
O O5 0.500000 0.500000 0.500000
O O6 0.271410 0.460341 0.041451
O O7 0.401942 0.294632 0.977640
O O8 0.623541 0.337445 0.546829
O O9 0.500000 0.500000 0.000000
O O10 0.542806 0.789260 0.572589
O O11 0.656234 0.894517 0.557229
O O12 0.879020 0.877002 0.941313
O O13 0.500000 0.000000 0.000000
O O14 0.290944 0.870637 0.207078
O O15 0.000000 0.000000 0.500000
O O16 0.571031 0.830088 0.010256
#
# Coordination Sequence:
#
# PCOD9090985 Si02
#       7
#     2   2   2   2   2   2   2
#     4   9  22  38  61  88 124 159 209 250 312 368
#     4  10  19  39  62  89 125 166 199 256 311 360
#     4  10  20  37  63  86 123 164 205 250 311 359
#     4  11  23  41  65  91 126 164 208 256 317 368
#     4  10  20  40  65  87 123 167 200 259 320 359
#     4  11  23  41  63  92 126 161 209 264 300 371
#     4  11  23  42  65  92 127 162 212 254 310 376
#
# _framework density 24.620090000000001
#
# number of rings (size 3 to 8) (size 9 to 14) (size 15 to 20)
#    0.000    1.714    2.857    2.571    0.000    4.000 
#    2.571    2.857    0.000    0.000    0.000    0.000 
#    0.000    0.000    0.000    0.000    0.000    0.000 
#
# Total GULP energy -78163.095453 kJ/mol
# GULP energy per Si atom -5583.078247 kJ/mol
# Density = 2.456405 g / cm^3
# Si number density = 24.620090 Si / 1000 Ang^3
#
#
#
# Elastic Constant Matrix: (Units=GPa)
#
#
# Indices 1 2 3 4 5 6 
#
# 1 30.6808 0.9909 -10.8980 11.8683 -8.2058 -7.9606
# 2 0.9909 113.9120 10.7564 16.5066 2.0179 -11.4976
# 3 -10.8980 10.7564 88.5806 13.0168 -18.3410 -3.5290
# 4 11.8683 16.5066 13.0168 41.4822 -4.2769 -1.6386
# 5 -8.2058 2.0179 -18.3410 -4.2769 34.0325 -3.5751
# 6 -7.9606 -11.4976 -3.5290 -1.6386 -3.5751 35.9476
#
#
#
# Elastic Compliance Matrix: (Units=1/GPa)
#
#
# Indices 1 2 3 4 5 6 
#
# 1 0.053164 0.001978 0.013484 -0.017652 0.019309 0.014845
# 2 0.001978 0.009746 -0.000272 -0.004274 -0.000439 0.003290
# 3 0.013484 -0.000272 0.016777 -0.007572 0.011923 0.005387
# 4 -0.017652 -0.004274 -0.007572 0.032572 -0.004514 -0.004984
# 5 0.019309 -0.000439 0.011923 -0.004514 0.040887 0.009167
# 6 0.014845 0.003290 0.005387 -0.004984 0.009167 0.033371
#
#
# Mechanical properties :
#
#
# Convention : Reuss Voigt Hill
#
# Bulk Modulus (GPa) = 9.08527 26.09689 17.59108
# Shear Modulus (GPa) = 25.93016 37.78074 31.85545
#
# Velocity S-wave (km/s) = 3.24884 3.92158 3.60096
# Velocity P-wave (km/s) = 4.21563 5.57924 4.94466
#
# Compressibility (1/GPa) = 0.11006832
#
# Stress axis : x y z
#
# Youngs Moduli (GPa) = 18.80982 102.60174 59.60497
#
# Poissons Ratio (x) = -0.20300 -0.80370
# Poissons Ratio (y) = -0.03722 0.01620
# Poissons Ratio (z) = -0.25363 0.02788
#
# Static dielectric constant tensor:
#      x y z
#    x 1.809060 0.046320 0.126290 
#    y 0.046320 1.977760 -0.002350 
#    z 0.126290 -0.002350 1.965200 
# 
# From -- ./inp_files/178830.got.cif
#   From: 2010.05.17/outbox.cif.g08.bks.cpg/sg2_90_cif.got.tgz:178830.got - 2010.06.03 11:33:40.
