data_PCOD9090851
_publ_section_title
;
Structure prediction by ZEFSAII (Michael W. Deem and Ramdas Pophale) SiO2 
 PCOD9090851
Probable space group: P -1
;
_chemical_formula_sum "Si O2"
_cell_formula_units_Z 16
_cell_length_a 7.723389
_cell_length_b 22.656025
_cell_length_c 14.471425
_cell_angle_alpha 160.035306
_cell_angle_beta 115.703519
_cell_angle_gamma 54.858444
_cell_volume 652.731311
_symmetry_space_group_name_H-M "P -1"
_symmetry_group_IT_number 2
_symmetry_cell_setting 'triclinic'
loop_
_space_group_symop_operation_xyz
x,y,z
-x,-y,-z
loop_
_atom_site_type_symbol
_atom_site_label
_atom_site_fract_x
_atom_site_fract_y
_atom_site_fract_z
Si Si1 0.245452 0.621152 0.035386
Si Si2 0.785704 0.279635 0.035880
Si Si3 0.238104 0.044466 0.919187
Si Si4 0.760223 0.325806 0.692523
Si Si5 0.272525 0.367436 0.348719
Si Si6 0.586695 0.175254 0.989394
Si Si7 0.917387 0.219931 0.263032
Si Si8 0.096715 0.309799 0.605137
O O1 0.166666 0.713196 0.050338
O O2 0.515204 0.531426 0.956187
O O3 0.199866 0.442303 0.790542
O O4 0.152767 0.762901 0.314198
O O5 0.654293 0.510618 0.390156
O O6 0.640922 0.193249 0.921664
O O7 0.031544 0.147153 0.947715
O O8 0.299872 0.814387 0.589111
O O9 0.396512 0.128207 0.055312
O O10 0.125090 0.166459 0.165905
O O11 0.936196 0.363343 0.736686
O O12 0.331641 0.332071 0.201228
O O13 0.000000 0.500000 0.500000
O O14 0.716912 0.258449 0.204223
O O15 0.706642 0.933024 0.686301
O O16 0.921528 0.342528 0.530750
O O17 0.000000 0.000000 0.000000
#
# Coordination Sequence:
#
# PCOD9090851 Si02
#       8
#     2   2   2   2   2   2   2   2
#     4  11  26  40  64  93 121 165 217 266 310 357
#     4  10  21  40  58  92 124 161 202 255 312 364
#     4  10  19  39  60  89 125 160 201 253 308 375
#     4  11  23  44  64  86 127 166 216 262 309 367
#     4  10  21  34  58  93 131 157 195 251 316 375
#     4  10  20  38  64  91 129 167 199 251 318 380
#     4   9  17  32  58  90 116 153 201 239 303 370
#     4  11  21  42  67  91 124 170 210 254 311 379
#
# _framework density 24.512384000000001
#
# number of rings (size 3 to 8) (size 9 to 14) (size 15 to 20)
#    0.000    1.750    3.750    2.250    1.750    1.500 
#    4.500    3.125    0.000    2.250    0.000    0.000 
#    0.000    0.000    0.000    0.000    0.000    0.000 
#
# Total GULP energy -89093.570402 kJ/mol
# GULP energy per Si atom -5568.348150 kJ/mol
# Density = 2.445659 g / cm^3
# Si number density = 24.512384 Si / 1000 Ang^3
#
#
#
# Elastic Constant Matrix: (Units=GPa)
#
#
# Indices 1 2 3 4 5 6 
#
# 1 104.9099 35.5543 30.9839 7.6913 -25.4022 29.8902
# 2 35.5543 110.7632 14.0921 0.8309 -18.4855 35.5241
# 3 30.9839 14.0921 73.4498 -1.7446 7.2195 9.1498
# 4 7.6913 0.8309 -1.7446 23.5956 13.3654 -2.4041
# 5 -25.4022 -18.4855 7.2195 13.3654 39.2465 -5.5621
# 6 29.8902 35.5241 9.1498 -2.4041 -5.5621 44.4392
#
#
#
# Elastic Compliance Matrix: (Units=1/GPa)
#
#
# Indices 1 2 3 4 5 6 
#
# 1 0.024263 0.002779 -0.012122 -0.024915 0.025719 -0.014174
# 2 0.002779 0.014132 -0.003682 -0.008796 0.010488 -0.011571
# 3 -0.012122 -0.003682 0.020956 0.016550 -0.018308 0.005386
# 4 -0.024915 -0.008796 0.016550 0.081336 -0.048358 0.018729
# 5 0.025719 0.010488 -0.018308 -0.048358 0.064572 -0.016447
# 6 -0.014174 -0.011571 0.005386 0.018729 -0.016447 0.039132
#
#
# Mechanical properties :
#
#
# Convention : Reuss Voigt Hill
#
# Bulk Modulus (GPa) = 30.02913 50.04260 40.03587
# Shear Modulus (GPa) = 17.75941 35.35576 26.55759
#
# Velocity S-wave (km/s) = 2.69459 3.80197 3.29513
# Velocity P-wave (km/s) = 4.68596 6.30340 5.55388
#
# Compressibility (1/GPa) = 0.03330100
#
# Stress axis : x y z
#
# Youngs Moduli (GPa) = 41.21573 70.76070 47.71798
#
# Poissons Ratio (x) = -0.19665 0.57845
# Poissons Ratio (y) = -0.11454 0.17570
# Poissons Ratio (z) = 0.49962 0.26055
#
# Static dielectric constant tensor:
#      x y z
#    x 2.019440 -0.126140 0.007680 
#    y -0.126140 1.696640 -0.029940 
#    z 0.007680 -0.029940 2.048480 
# 
# From -- ./inp_files/508765.got.cif
#   From: 2010.05.17/outbox.cif.g08.bks.cpg/sg2_255_cif.got.tgz:508765.got - 2010.06.03 11:33:40.
