data_PCOD9090034
_publ_section_title
;
Structure prediction by ZEFSAII (Michael W. Deem and Ramdas Pophale) SiO2 
 PCOD9090034
Probable space group: P -1
;
_chemical_formula_sum "Si O2"
_cell_formula_units_Z 14
_cell_length_a 7.386887
_cell_length_b 14.265721
_cell_length_c 7.902243
_cell_angle_alpha 45.921675
_cell_angle_beta 101.789639
_cell_angle_gamma 107.850004
_cell_volume 569.380706
_symmetry_space_group_name_H-M "P -1"
_symmetry_group_IT_number 2
_symmetry_cell_setting 'triclinic'
loop_
_space_group_symop_operation_xyz
x,y,z
-x,-y,-z
loop_
_atom_site_type_symbol
_atom_site_label
_atom_site_fract_x
_atom_site_fract_y
_atom_site_fract_z
Si Si1 0.420212 0.385291 0.993333
Si Si2 0.844158 0.042569 0.295777
Si Si3 0.003142 0.301891 0.164484
Si Si4 0.955244 0.562809 0.674390
Si Si5 0.669447 0.131176 0.841028
Si Si6 0.312502 0.569594 0.503265
Si Si7 0.531202 0.130574 0.459764
O O1 0.195326 0.318905 0.068198
O O2 0.523527 0.265846 0.191880
O O3 0.500000 0.500000 0.000000
O O4 0.445233 0.475210 0.715988
O O5 0.841727 0.174451 0.240573
O O6 0.672410 0.912161 0.426328
O O7 0.841939 0.102660 0.027655
O O8 0.000000 0.000000 0.500000
O O9 0.061488 0.319095 0.350330
O O10 0.917415 0.427710 0.945519
O O11 0.815513 0.524330 0.540471
O O12 0.165318 0.581183 0.613737
O O13 0.618919 0.270744 0.721773
O O14 0.684271 0.138811 0.629299
O O15 0.500000 0.000000 0.000000
O O16 0.500000 0.000000 0.500000
#
# Coordination Sequence:
#
# PCOD9090034 Si02
#       7
#     2   2   2   2   2   2   2
#     4  11  22  40  63  89 127 167 210 266 317 379
#     4  11  22  41  67  86 125 169 216 259 313 381
#     4  10  20  37  61  92 120 162 214 256 317 371
#     4   9  20  34  61  92 122 153 200 266 317 371
#     4  10  22  41  62  88 129 171 206 255 326 381
#     4  10  19  38  63  88 125 160 205 260 321 371
#     4  11  25  43  64  93 130 173 213 261 327 385
#
# _framework density 24.588115999999999
#
# number of rings (size 3 to 8) (size 9 to 14) (size 15 to 20)
#    0.000    1.714    4.286    0.000    2.000    1.143 
#    2.571    1.429    0.000    0.000    0.000    0.000 
#    0.000    0.000    0.000    0.000    0.000    0.000 
#
# Total GULP energy -77977.976555 kJ/mol
# GULP energy per Si atom -5569.855468 kJ/mol
# Density = 2.453215 g / cm^3
# Si number density = 24.588116 Si / 1000 Ang^3
#
#
#
# Elastic Constant Matrix: (Units=GPa)
#
#
# Indices 1 2 3 4 5 6 
#
# 1 60.2636 -3.5980 27.5211 -11.5930 -2.3206 5.2578
# 2 -3.5980 113.7566 64.8583 5.1328 11.0348 11.0734
# 3 27.5211 64.8583 181.3918 2.0019 37.2096 12.4191
# 4 -11.5930 5.1328 2.0019 57.6776 20.7188 -3.6128
# 5 -2.3206 11.0348 37.2096 20.7188 37.7198 -2.9825
# 6 5.2578 11.0734 12.4191 -3.6128 -2.9825 28.6586
#
#
#
# Elastic Compliance Matrix: (Units=1/GPa)
#
#
# Indices 1 2 3 4 5 6 
#
# 1 0.019694 0.003038 -0.004648 0.002509 0.003362 -0.002107
# 2 0.003038 0.011814 -0.004865 -0.001150 0.001928 -0.002958
# 3 -0.004648 -0.004865 0.010315 0.002868 -0.010811 -0.002501
# 4 0.002509 -0.001150 0.002868 0.023282 -0.015119 0.000103
# 5 0.003362 0.001928 -0.010811 -0.015119 0.045611 0.006164
# 6 -0.002107 -0.002958 -0.002501 0.000103 0.006164 0.038161
#
#
# Mechanical properties :
#
#
# Convention : Reuss Voigt Hill
#
# Bulk Modulus (GPa) = 34.63427 59.21942 46.92684
# Shear Modulus (GPa) = 29.16310 42.58657 35.87484
#
# Velocity S-wave (km/s) = 3.44767 4.16624 3.82387
# Velocity P-wave (km/s) = 5.47402 6.87607 6.21471
#
# Compressibility (1/GPa) = 0.02887314
#
# Stress axis : x y z
#
# Youngs Moduli (GPa) = 50.77786 84.64860 96.94633
#
# Poissons Ratio (x) = -0.25719 0.45056
# Poissons Ratio (y) = -0.15428 0.47167
# Poissons Ratio (z) = 0.23599 0.41184
#
# Static dielectric constant tensor:
#      x y z
#    x 2.194100 -0.099480 -0.093560 
#    y -0.099480 2.123620 0.131070 
#    z -0.093560 0.131070 2.137980 
# 
# From -- ./inp_files/205410.got.cif
#   From: 2010.05.17/outbox.cif.g08.bks.cpg/sg2_103_cif.got.tgz:205410.got - 2010.06.03 11:33:40.
