data_PCOD9090775
_publ_section_title
;
Structure prediction by ZEFSAII (Michael W. Deem and Ramdas Pophale) SiO2 
 PCOD9090775
Probable space group: P -1
;
_chemical_formula_sum "Si O2"
_cell_formula_units_Z 14
_cell_length_a 9.460160
_cell_length_b 19.844265
_cell_length_c 12.241748
_cell_angle_alpha 38.152025
_cell_angle_beta 35.615640
_cell_angle_gamma 30.306543
_cell_volume 646.803789
_symmetry_space_group_name_H-M "P -1"
_symmetry_group_IT_number 2
_symmetry_cell_setting 'triclinic'
loop_
_space_group_symop_operation_xyz
x,y,z
-x,-y,-z
loop_
_atom_site_type_symbol
_atom_site_label
_atom_site_fract_x
_atom_site_fract_y
_atom_site_fract_z
Si Si1 0.642603 0.358578 0.424569
Si Si2 0.665288 0.391348 0.133246
Si Si3 0.745689 0.705916 0.828183
Si Si4 0.696743 0.192605 0.207126
Si Si5 0.660534 0.692726 0.139430
Si Si6 0.629645 0.997198 0.039506
Si Si7 0.752519 0.941614 0.590766
O O1 0.505484 0.434789 0.297616
O O2 0.417999 0.378122 0.634054
O O3 0.884684 0.379271 0.294571
O O4 0.885540 0.192437 0.452201
O O5 0.699185 0.261106 0.228780
O O6 0.500000 0.500000 0.000000
O O7 0.002759 0.349130 0.996179
O O8 0.598041 0.699070 0.821652
O O9 0.624091 0.865539 0.713785
O O10 0.652288 0.671692 0.042015
O O11 0.708311 0.062499 0.396572
O O12 0.008400 0.132473 0.020730
O O13 0.420457 0.859388 0.096473
O O14 0.425241 0.998525 0.259714
O O15 0.500000 0.000000 0.000000
#
# Coordination Sequence:
#
# PCOD9090775 Si02
#       7
#     2   2   2   2   2   2   2
#     4   9  19  39  59  78 118 149 182 227 286 333
#     4  11  25  40  56  83 112 150 197 236 273 326
#     4   8  20  36  53  91 116 148 176 227 290 339
#     4  12  21  34  61  85 119 146 186 231 279 338
#     4  10  19  39  59  79 120 151 179 231 286 334
#     4  11  19  31  52  88 118 143 181 224 283 342
#     4   9  20  32  55  87 117 143 176 227 285 337
#
# _framework density 21.644893
#
# number of rings (size 3 to 8) (size 9 to 14) (size 15 to 20)
#    0.857    1.143    4.286    0.429    2.000    5.143 
#    0.000    2.857    0.000    1.714    0.000    0.000 
#    0.000    0.000    0.000    0.000    0.000    0.000 
#
# Total GULP energy -78127.457171 kJ/mol
# GULP energy per Si atom -5580.532655 kJ/mol
# Density = 2.159563 g / cm^3
# Si number density = 21.644893 Si / 1000 Ang^3
#
#
#
# Elastic Constant Matrix: (Units=GPa)
#
#
# Indices 1 2 3 4 5 6 
#
# 1 78.6283 38.2312 38.5251 7.5279 21.6652 -18.1059
# 2 38.2312 17.1889 19.2906 -21.9433 -8.5716 2.7985
# 3 38.5251 19.2906 137.3477 5.8642 22.9203 -2.5794
# 4 7.5279 -21.9433 5.8642 24.1076 -3.5199 6.3389
# 5 21.6652 -8.5716 22.9203 -3.5199 17.6271 -7.3845
# 6 -18.1059 2.7985 -2.5794 6.3389 -7.3845 25.4108
#
#
#
# Elastic Compliance Matrix: (Units=1/GPa)
#
#
# Indices 1 2 3 4 5 6 
#
# 1 0.005877 0.012837 -0.005495 0.012046 0.009381 0.001937
# 2 0.012837 -0.008397 0.002335 -0.017697 -0.023072 0.008018
# 3 -0.005495 0.002335 0.009321 0.002136 -0.006125 -0.005539
# 4 0.012046 -0.017697 0.002136 0.017852 -0.022757 -0.000318
# 5 0.009381 -0.023072 -0.006125 -0.022757 0.049397 0.028635
# 6 0.001937 0.008018 -0.005539 -0.000318 0.028635 0.047689
#
#
# Mechanical properties :
#
#
# Convention : Reuss Voigt Hill
#
# Bulk Modulus (GPa) = 38.23407 47.25096 42.74252
# Shear Modulus (GPa) = 45.00344 22.57029 33.78686
#
# Velocity S-wave (km/s) = 4.56474 3.23267 3.95519
# Velocity P-wave (km/s) = 6.74426 5.98423 6.37558
#
# Compressibility (1/GPa) = 0.02615468
#
# Stress axis : x y z
#
# Youngs Moduli (GPa) = 170.16633 -119.08768 107.28594
#
# Poissons Ratio (x) = 1.52869 0.58950
# Poissons Ratio (y) = -2.18437 -0.25053
# Poissons Ratio (z) = 0.93501 0.27809
#
# Static dielectric constant tensor:
#      x y z
#    x 1.774700 0.017510 -0.018810 
#    y 0.017510 1.818480 -0.029530 
#    z -0.018810 -0.029530 1.788640 
# 
# From -- ./inp_files/406187.got.cif
#   From: 2010.05.17/outbox.cif.g08.bks.cpg/sg2_204_cif.got.tgz:406187.got - 2010.06.03 11:33:40.
