data_PCOD9090672
_publ_section_title
;
Structure prediction by ZEFSAII (Michael W. Deem and Ramdas Pophale) SiO2 
 PCOD9090672
Probable space group: P -1
;
_chemical_formula_sum "Si O2"
_cell_formula_units_Z 16
_cell_length_a 12.054161
_cell_length_b 12.687043
_cell_length_c 12.359156
_cell_angle_alpha 35.309312
_cell_angle_beta 35.070843
_cell_angle_gamma 42.811031
_cell_volume 615.305798
_symmetry_space_group_name_H-M "P -1"
_symmetry_group_IT_number 2
_symmetry_cell_setting 'triclinic'
loop_
_space_group_symop_operation_xyz
x,y,z
-x,-y,-z
loop_
_atom_site_type_symbol
_atom_site_label
_atom_site_fract_x
_atom_site_fract_y
_atom_site_fract_z
Si Si1 0.048399 0.943146 0.887796
Si Si2 0.315096 0.209501 0.396974
Si Si3 0.795698 0.003693 0.840416
Si Si4 0.565024 0.007914 0.710094
Si Si5 0.108629 0.519137 0.153670
Si Si6 0.559854 0.370312 0.663157
Si Si7 0.486570 0.374164 0.330904
Si Si8 0.849579 0.738250 0.842992
O O1 0.248644 0.018304 0.644441
O O2 0.915860 0.046506 0.811305
O O3 0.017218 0.730523 0.079588
O O4 0.000000 0.000000 0.000000
O O5 0.469711 0.135580 0.238014
O O6 0.383489 0.304856 0.368007
O O7 0.144334 0.366779 0.347704
O O8 0.718116 0.181439 0.678327
O O9 0.914605 0.833787 0.817344
O O10 0.598387 0.962588 0.090355
O O11 0.772122 0.903792 0.680993
O O12 0.564572 0.203472 0.492136
O O13 0.330686 0.544773 0.926960
O O14 0.031378 0.431567 0.180009
O O15 0.500000 0.500000 0.500000
O O16 0.636435 0.474882 0.616401
O O17 0.353746 0.319946 0.908450
#
# Coordination Sequence:
#
# PCOD9090672 Si02
#       8
#     2   2   2   2   2   2   2   2
#     4  12  28  45  65  95 141 179 215 268 334 402
#     4  11  24  43  67  95 134 175 222 275 321 397
#     4  11  23  41  65 100 135 174 216 272 334 386
#     4  10  19  38  69  95 126 166 221 275 324 378
#     4  10  24  43  66  96 132 173 224 273 326 396
#     4  10  20  36  63 101 128 164 223 279 325 382
#     4  11  20  36  70  95 127 174 222 274 328 382
#     4   9  20  40  66  94 128 167 222 279 317 387
#
# _framework density 26.003329000000001
#
# number of rings (size 3 to 8) (size 9 to 14) (size 15 to 20)
#    0.000    1.500    1.250    5.250    3.500    1.000 
#    4.500    2.500    0.000    0.000    0.000    0.000 
#    0.000    0.000    0.000    0.000    0.000    0.000 
#
# Total GULP energy -89495.539189 kJ/mol
# GULP energy per Si atom -5593.471199 kJ/mol
# Density = 2.594414 g / cm^3
# Si number density = 26.003329 Si / 1000 Ang^3
#
#
#
# Elastic Constant Matrix: (Units=GPa)
#
#
# Indices 1 2 3 4 5 6 
#
# 1 114.1025 53.1754 27.5433 -6.2215 19.6134 34.1115
# 2 53.1754 142.6671 32.3733 -17.3506 13.2711 44.3609
# 3 27.5433 32.3733 109.3451 -20.9799 19.7061 8.0411
# 4 -6.2215 -17.3506 -20.9799 31.0406 -3.2848 5.6240
# 5 19.6134 13.2711 19.7061 -3.2848 41.2975 -6.9851
# 6 34.1115 44.3609 8.0411 5.6240 -6.9851 45.6186
#
#
#
# Elastic Compliance Matrix: (Units=1/GPa)
#
#
# Indices 1 2 3 4 5 6 
#
# 1 0.014179 -0.000239 -0.000427 0.003729 -0.008188 -0.012009
# 2 -0.000239 0.013508 0.000123 0.009679 -0.006070 -0.015101
# 3 -0.000427 0.000123 0.012087 0.008250 -0.005592 -0.003804
# 4 0.003729 0.009679 0.008250 0.046797 -0.008604 -0.020742
# 5 -0.008188 -0.006070 -0.005592 -0.008604 0.035333 0.019482
# 6 -0.012009 -0.015101 -0.003804 -0.020742 0.019482 0.051796
#
#
# Mechanical properties :
#
#
# Convention : Reuss Voigt Hill
#
# Bulk Modulus (GPa) = 25.84781 65.81095 45.82938
# Shear Modulus (GPa) = 26.64082 40.45953 33.55017
#
# Velocity S-wave (km/s) = 3.20428 3.94882 3.59587
# Velocity P-wave (km/s) = 4.86329 6.79371 5.90788
#
# Compressibility (1/GPa) = 0.03868800
#
# Stress axis : x y z
#
# Youngs Moduli (GPa) = 70.52552 74.03072 82.73452
#
# Poissons Ratio (x) = 0.01769 0.03529
# Poissons Ratio (y) = 0.01685 -0.01014
# Poissons Ratio (z) = 0.03009 -0.00907
#
# Static dielectric constant tensor:
#      x y z
#    x 2.069140 -0.002160 -0.053850 
#    y -0.002160 2.124750 0.003760 
#    z -0.053850 0.003760 2.080070 
# 
# From -- ./inp_files/427353.got.cif
#   From: 2010.05.17/outbox.cif.g08.bks.cpg/sg2_214_cif.got.tgz:427353.got - 2010.06.03 11:33:40.
