data_PCOD9090432
_publ_section_title
;
Structure prediction by ZEFSAII (Michael W. Deem and Ramdas Pophale) SiO2 
 PCOD9090432
Probable space group: P -1
;
_chemical_formula_sum "Si O2"
_cell_formula_units_Z 16
_cell_length_a 13.535540
_cell_length_b 12.068795
_cell_length_c 9.482823
_cell_angle_alpha 64.411540
_cell_angle_beta 47.605869
_cell_angle_gamma 95.478956
_cell_volume 840.163165
_symmetry_space_group_name_H-M "P -1"
_symmetry_group_IT_number 2
_symmetry_cell_setting 'triclinic'
loop_
_space_group_symop_operation_xyz
x,y,z
-x,-y,-z
loop_
_atom_site_type_symbol
_atom_site_label
_atom_site_fract_x
_atom_site_fract_y
_atom_site_fract_z
Si Si1 0.787776 0.915167 0.890282
Si Si2 0.662128 0.602536 0.690499
Si Si3 0.806549 0.417553 0.707588
Si Si4 0.548419 0.638757 0.475199
Si Si5 0.173429 0.093632 0.461084
Si Si6 0.628531 0.259539 0.256156
Si Si7 0.355376 0.983238 0.510609
Si Si8 0.374437 0.912946 0.040252
O O1 0.749597 0.856372 0.797482
O O2 0.748652 0.038603 0.871361
O O3 0.680183 0.786738 0.178505
O O4 0.978533 0.991387 0.689842
O O5 0.759636 0.526187 0.634702
O O6 0.613456 0.622373 0.571054
O O7 0.767826 0.762961 0.578453
O O8 0.500000 0.500000 0.000000
O O9 0.725563 0.267831 0.770697
O O10 0.000000 0.500000 0.500000
O O11 0.717848 0.357725 0.978149
O O12 0.500000 0.500000 0.500000
O O13 0.397767 0.649670 0.652957
O O14 0.233896 0.000527 0.526848
O O15 0.444489 0.116873 0.466628
O O16 0.713972 0.179577 0.269768
O O17 0.507348 0.024364 0.243250
O O18 0.500000 0.000000 0.000000
#
# Coordination Sequence:
#
# PCOD9090432 Si02
#       8
#     2   2   2   2   2   2   2   2
#     4  11  25  40  64  98 130 160 216 272 323 372
#     4  12  23  42  68  91 128 177 215 253 322 395
#     4  11  25  41  63  96 129 167 211 267 325 381
#     4  12  25  40  64  96 126 167 215 269 311 381
#     4  11  23  42  64  95 131 169 205 271 327 379
#     4  10  21  39  64  92 120 166 217 264 305 384
#     4  10  19  38  66  88 121 159 217 256 311 374
#     4  11  21  38  66  90 117 168 214 256 303 384
#
# _framework density 19.043918000000001
#
# number of rings (size 3 to 8) (size 9 to 14) (size 15 to 20)
#    0.000    1.000    5.000    2.250    1.750    1.500 
#    0.000    0.000    0.000    2.250    0.000    0.000 
#    0.000    0.000    0.000    0.000    0.000    0.000 
#
# Total GULP energy -89385.639403 kJ/mol
# GULP energy per Si atom -5586.602463 kJ/mol
# Density = 1.900057 g / cm^3
# Si number density = 19.043918 Si / 1000 Ang^3
#
#
#
# Elastic Constant Matrix: (Units=GPa)
#
#
# Indices 1 2 3 4 5 6 
#
# 1 135.1271 58.6468 37.8665 -1.9946 12.0554 -19.3270
# 2 58.6468 139.8568 40.4909 6.1884 10.6363 0.4657
# 3 37.8665 40.4909 61.0811 1.1522 12.7525 -9.5578
# 4 -1.9946 6.1884 1.1522 21.7754 -5.2213 0.5707
# 5 12.0554 10.6363 12.7525 -5.2213 32.4261 1.5756
# 6 -19.3270 0.4657 -9.5578 0.5707 1.5756 41.7403
#
#
#
# Elastic Compliance Matrix: (Units=1/GPa)
#
#
# Indices 1 2 3 4 5 6 
#
# 1 0.010591 -0.003450 -0.003356 0.001677 -0.001420 0.004205
# 2 -0.003450 0.010192 -0.004894 -0.002997 -0.000484 -0.002773
# 3 -0.003356 -0.004894 0.023876 -0.001985 -0.007063 0.004262
# 4 0.001677 -0.002997 -0.001985 0.049233 0.009100 -0.000661
# 5 -0.001420 -0.000484 -0.007063 0.009100 0.035952 -0.003751
# 6 0.004205 -0.002773 0.004262 -0.000661 -0.003751 0.027062
#
#
# Mechanical properties :
#
#
# Convention : Reuss Voigt Hill
#
# Bulk Modulus (GPa) = 47.03920 67.78593 57.41256
# Shear Modulus (GPa) = 26.68204 32.45907 29.57056
#
# Velocity S-wave (km/s) = 3.74716 4.13296 3.94478
# Velocity P-wave (km/s) = 6.59360 7.64506 7.13872
#
# Compressibility (1/GPa) = 0.02125887
#
# Stress axis : x y z
#
# Youngs Moduli (GPa) = 94.41990 98.11269 41.88366
#
# Poissons Ratio (x) = 0.33846 0.14057
# Poissons Ratio (y) = 0.32572 0.20499
# Poissons Ratio (z) = 0.31688 0.48019
#
# Static dielectric constant tensor:
#      x y z
#    x 1.675760 0.007980 0.018850 
#    y 0.007980 1.692670 0.010050 
#    z 0.018850 0.010050 1.650430 
# 
# From -- ./inp_files/262000.got.cif
#   From: 2010.05.17/outbox.cif.g08.bks.cpg/sg2_131_cif.got.tgz:262000.got - 2010.06.03 11:33:40.
