data_PCOD9090334
_publ_section_title
;
Structure prediction by ZEFSAII (Michael W. Deem and Ramdas Pophale) SiO2 
 PCOD9090334
Probable space group: P -1
;
_chemical_formula_sum "Si O2"
_cell_formula_units_Z 14
_cell_length_a 17.109977
_cell_length_b 11.622722
_cell_length_c 8.898259
_cell_angle_alpha 40.051990
_cell_angle_beta 144.376850
_cell_angle_gamma 138.153866
_cell_volume 626.660420
_symmetry_space_group_name_H-M "P -1"
_symmetry_group_IT_number 2
_symmetry_cell_setting 'triclinic'
loop_
_space_group_symop_operation_xyz
x,y,z
-x,-y,-z
loop_
_atom_site_type_symbol
_atom_site_label
_atom_site_fract_x
_atom_site_fract_y
_atom_site_fract_z
Si Si1 0.280452 0.488905 0.148965
Si Si2 0.821848 0.395336 0.428989
Si Si3 0.601492 0.386960 0.325158
Si Si4 0.813902 0.018717 0.695807
Si Si5 0.538833 0.767899 0.442442
Si Si6 0.944736 0.808910 0.322031
Si Si7 0.889902 0.620044 0.714269
O O1 0.395499 0.675296 0.216155
O O2 0.368004 0.363693 0.335222
O O3 0.166513 0.374965 0.209718
O O4 0.202607 0.553893 0.828753
O O5 0.671453 0.326611 0.350630
O O6 0.870071 0.213490 0.681061
O O7 0.921254 0.589810 0.462052
O O8 0.513787 0.245401 0.454617
O O9 0.740407 0.514022 0.504093
O O10 0.500000 0.500000 0.000000
O O11 0.919337 0.048662 0.689739
O O12 0.658522 0.972763 0.425541
O O13 0.820508 0.860096 0.986035
O O14 0.948924 0.803826 0.514429
O O15 0.000000 0.500000 0.000000
#
# Coordination Sequence:
#
# PCOD9090334 Si02
#       7
#     2   2   2   2   2   2   2
#     4  10  20  37  67  87 124 171 203 256 322 376
#     4  11  21  38  68  91 119 167 214 263 312 370
#     4  10  19  38  65  90 124 167 212 259 311 374
#     4  11  22  38  65  92 124 163 217 260 309 379
#     4  10  20  38  58  91 124 165 212 250 317 377
#     4  10  22  42  62  89 129 165 207 262 316 376
#     4  10  21  38  64  95 125 167 210 258 320 380
#
# _framework density 22.340647000000001
#
# number of rings (size 3 to 8) (size 9 to 14) (size 15 to 20)
#    0.000    1.714    2.857    2.143    0.000    2.286 
#    0.000    0.714    9.429    0.000    0.000    0.000 
#    0.000    0.000    0.000    0.000    0.000    0.000 
#
# Total GULP energy -77991.775059 kJ/mol
# GULP energy per Si atom -5570.841076 kJ/mol
# Density = 2.228980 g / cm^3
# Si number density = 22.340647 Si / 1000 Ang^3
#
#
#
# Elastic Constant Matrix: (Units=GPa)
#
#
# Indices 1 2 3 4 5 6 
#
# 1 160.1171 12.9702 49.4998 -1.2284 -23.4628 22.6825
# 2 12.9702 68.8450 14.8695 4.0433 -6.5957 -7.0747
# 3 49.4998 14.8695 77.2405 2.3795 -20.3043 -1.4346
# 4 -1.2284 4.0433 2.3795 26.2069 2.5712 4.3813
# 5 -23.4628 -6.5957 -20.3043 2.5712 40.6604 -1.7428
# 6 22.6825 -7.0747 -1.4346 4.3813 -1.7428 27.5962
#
#
#
# Elastic Compliance Matrix: (Units=1/GPa)
#
#
# Indices 1 2 3 4 5 6 
#
# 1 0.009679 -0.001475 -0.005637 0.002485 0.001993 -0.008895
# 2 -0.001475 0.016094 -0.001549 -0.003544 0.001463 0.005913
# 3 -0.005637 -0.001549 0.018739 -0.003375 0.006331 0.006146
# 4 0.002485 -0.003544 -0.003375 0.041161 -0.003854 -0.009904
# 5 0.001993 0.001463 0.006331 -0.003854 0.029452 0.001538
# 6 -0.008895 0.005913 0.006146 -0.009904 0.001538 0.047053
#
#
# Mechanical properties :
#
#
# Convention : Reuss Voigt Hill
#
# Bulk Modulus (GPa) = 36.77828 51.20907 43.99368
# Shear Modulus (GPa) = 26.51631 34.15024 30.33328
#
# Velocity S-wave (km/s) = 3.44889 3.91399 3.68878
# Velocity P-wave (km/s) = 5.68841 6.58768 6.15449
#
# Compressibility (1/GPa) = 0.02718996
#
# Stress axis : x y z
#
# Youngs Moduli (GPa) = 103.32103 62.13560 53.36386
#
# Poissons Ratio (x) = 0.09166 0.30079
# Poissons Ratio (y) = 0.15241 0.08267
# Poissons Ratio (z) = 0.58237 0.09626
#
# Static dielectric constant tensor:
#      x y z
#    x 1.929000 -0.006270 -0.015540 
#    y -0.006270 1.884750 -0.001090 
#    z -0.015540 -0.001090 1.821130 
# 
# From -- ./inp_files/277383.got.cif
#   From: 2010.05.17/outbox.cif.g08.bks.cpg/sg2_139_cif.got.tgz:277383.got - 2010.06.03 11:33:40.
