data_PCOD9090246
_publ_section_title
;
Structure prediction by ZEFSAII (Michael W. Deem and Ramdas Pophale) SiO2 
 PCOD9090246
Probable space group: P -1
;
_chemical_formula_sum "Si O2"
_cell_formula_units_Z 16
_cell_length_a 8.859180
_cell_length_b 9.135452
_cell_length_c 11.573132
_cell_angle_alpha 123.889703
_cell_angle_beta 89.250412
_cell_angle_gamma 82.247117
_cell_volume 765.960082
_symmetry_space_group_name_H-M "P -1"
_symmetry_group_IT_number 2
_symmetry_cell_setting 'triclinic'
loop_
_space_group_symop_operation_xyz
x,y,z
-x,-y,-z
loop_
_atom_site_type_symbol
_atom_site_label
_atom_site_fract_x
_atom_site_fract_y
_atom_site_fract_z
Si Si1 0.923742 0.496602 0.682220
Si Si2 0.497170 0.141891 0.409250
Si Si3 0.414560 0.246948 0.719677
Si Si4 0.203581 0.338465 0.484183
Si Si5 0.362256 0.510806 0.177484
Si Si6 0.172402 0.507142 0.960116
Si Si7 0.094716 0.800042 0.921579
Si Si8 0.380260 0.651941 0.710323
O O1 0.855794 0.591967 0.608264
O O2 0.788682 0.422984 0.715886
O O3 0.060900 0.343836 0.572322
O O4 0.990657 0.652570 0.818395
O O5 0.484003 0.204030 0.570483
O O6 0.317072 0.152447 0.388717
O O7 0.558669 0.266621 0.369539
O O8 0.592082 0.945147 0.312964
O O9 0.545300 0.344969 0.813008
O O10 0.253401 0.379110 0.799482
O O11 0.303452 0.483477 0.595659
O O12 0.485679 0.399158 0.216585
O O13 0.285142 0.436850 0.034320
O O14 0.162053 0.711296 0.003575
O O15 0.000000 0.500000 0.000000
O O16 0.240563 0.783678 0.828375
O O17 0.000000 0.000000 0.000000
#
# Coordination Sequence:
#
# PCOD9090246 Si02
#       8
#     2   2   2   2   2   2   2   2
#     4  10  21  37  64  95 126 171 214 261 335 384
#     4  11  22  39  68  97 135 164 212 285 322 383
#     4  11  25  42  64  99 133 169 220 266 336 386
#     4  10  19  38  64  94 133 165 212 271 325 389
#     4  12  22  42  69  93 125 185 220 259 327 395
#     4  12  26  46  67  89 136 184 215 267 330 397
#     4  11  25  45  65  98 132 170 224 274 321 391
#     4  11  22  41  71  97 130 173 223 268 326 392
#
# _framework density 20.888817
#
# number of rings (size 3 to 8) (size 9 to 14) (size 15 to 20)
#    0.000    1.000    5.000    2.250    1.750    1.000 
#    0.000    1.875    0.000    0.000    0.000    0.000 
#    0.000    0.000    0.000    0.000    0.000    0.000 
#
# Total GULP energy -89104.367227 kJ/mol
# GULP energy per Si atom -5569.022952 kJ/mol
# Density = 2.084127 g / cm^3
# Si number density = 20.888817 Si / 1000 Ang^3
#
#
#
# Elastic Constant Matrix: (Units=GPa)
#
#
# Indices 1 2 3 4 5 6 
#
# 1 119.6727 30.1484 44.6499 -5.5405 -24.2137 -0.4378
# 2 30.1484 75.9128 35.0694 0.7217 -16.8482 -14.0406
# 3 44.6499 35.0694 64.9610 -15.0209 -18.3901 -2.4477
# 4 -5.5405 0.7217 -15.0209 34.2114 -9.7221 -5.4407
# 5 -24.2137 -16.8482 -18.3901 -9.7221 51.1429 -12.8590
# 6 -0.4378 -14.0406 -2.4477 -5.4407 -12.8590 29.8336
#
#
#
# Elastic Compliance Matrix: (Units=1/GPa)
#
#
# Indices 1 2 3 4 5 6 
#
# 1 0.011671 -0.000748 -0.006817 -0.000182 0.002915 0.000483
# 2 -0.000748 0.021128 -0.008893 -0.000848 0.006193 0.011718
# 3 -0.006817 -0.008893 0.031742 0.016710 0.009843 0.005609
# 4 -0.000182 -0.000848 0.016710 0.044480 0.018373 0.017000
# 5 0.002915 0.006193 0.009843 0.018373 0.035659 0.022486
# 6 0.000483 0.011718 0.005609 0.017000 0.022486 0.052294
#
#
# Mechanical properties :
#
#
# Convention : Reuss Voigt Hill
#
# Bulk Modulus (GPa) = 31.62008 53.36467 42.49238
# Shear Modulus (GPa) = 20.79588 33.08283 26.93935
#
# Velocity S-wave (km/s) = 3.15866 3.98396 3.59507
# Velocity P-wave (km/s) = 5.33601 6.83850 6.13344
#
# Compressibility (1/GPa) = 0.03162547
#
# Stress axis : x y z
#
# Youngs Moduli (GPa) = 85.68232 47.32945 31.50387
#
# Poissons Ratio (x) = 0.03540 0.21475
# Poissons Ratio (y) = 0.06408 0.28018
# Poissons Ratio (z) = 0.58408 0.42092
#
# Static dielectric constant tensor:
#      x y z
#    x 1.786850 -0.050980 0.025280 
#    y -0.050980 1.777970 -0.041200 
#    z 0.025280 -0.041200 1.847760 
# 
# From -- ./inp_files/239120.got.cif
#   From: 2010.05.17/outbox.cif.g08.bks.cpg/sg2_120_cif.got.tgz:239120.got - 2010.06.03 11:33:40.
