data_PCOD9090829
_publ_section_title
;
Structure prediction by ZEFSAII (Michael W. Deem and Ramdas Pophale) SiO2 
 PCOD9090829
Probable space group: P -1
;
_chemical_formula_sum "Si O2"
_cell_formula_units_Z 16
_cell_length_a 7.066362
_cell_length_b 20.765658
_cell_length_c 8.175992
_cell_angle_alpha 106.671537
_cell_angle_beta 59.061993
_cell_angle_gamma 142.706712
_cell_volume 606.030298
_symmetry_space_group_name_H-M "P -1"
_symmetry_group_IT_number 2
_symmetry_cell_setting 'triclinic'
loop_
_space_group_symop_operation_xyz
x,y,z
-x,-y,-z
loop_
_atom_site_type_symbol
_atom_site_label
_atom_site_fract_x
_atom_site_fract_y
_atom_site_fract_z
Si Si1 0.609329 0.972139 0.290999
Si Si2 0.757771 0.982411 0.876061
Si Si3 0.368290 0.601595 0.314478
Si Si4 0.418667 0.384398 0.115569
Si Si5 0.289640 0.749952 0.858800
Si Si6 0.115367 0.390451 0.776192
Si Si7 0.709590 0.821032 0.437053
Si Si8 0.905081 0.246838 0.500632
O O1 0.250484 0.838932 0.353960
O O2 0.942167 0.003703 0.216331
O O3 0.500000 0.000000 0.500000
O O4 0.717133 0.014174 0.085933
O O5 0.914819 0.063980 0.716818
O O6 0.397355 0.853953 0.907025
O O7 0.622724 0.604629 0.270943
O O8 0.563252 0.717989 0.350549
O O9 0.000000 0.500000 0.500000
O O10 0.361505 0.594230 0.115638
O O11 0.684589 0.493961 0.182257
O O12 0.088220 0.346230 0.144605
O O13 0.201388 0.289765 0.277575
O O14 0.615563 0.794621 0.649215
O O15 0.233702 0.702407 0.023839
O O16 0.039502 0.349046 0.596136
O O17 0.437622 0.815118 0.498827
#
# Coordination Sequence:
#
# PCOD9090829 Si02
#       8
#     2   2   2   2   2   2   2   2
#     4  10  22  39  63  92 130 162 205 259 315 368
#     4  10  21  40  63  90 126 169 205 256 312 373
#     4  11  22  39  59  89 121 158 206 257 310 366
#     4  10  22  38  62  86 121 162 200 259 308 367
#     4  10  19  39  60  86 119 163 203 243 313 366
#     4  11  21  40  64  86 119 165 208 248 312 373
#     4  10  22  38  62  89 126 159 200 260 309 362
#     4  10  21  41  62  89 120 162 204 252 311 370
#
# _framework density 26.401320999999999
#
# number of rings (size 3 to 8) (size 9 to 14) (size 15 to 20)
#    0.000    1.750    1.250    4.500    1.750    1.000 
#    0.000    6.250    0.000    0.000    0.000    0.000 
#    0.000    0.000    0.000    0.000    0.000    0.000 
#
# Total GULP energy -89513.962065 kJ/mol
# GULP energy per Si atom -5594.622629 kJ/mol
# Density = 2.634123 g / cm^3
# Si number density = 26.401321 Si / 1000 Ang^3
#
#
#
# Elastic Constant Matrix: (Units=GPa)
#
#
# Indices 1 2 3 4 5 6 
#
# 1 65.5042 1.7734 28.3777 -9.7261 -15.5911 10.4051
# 2 1.7734 113.5788 44.4043 -9.2311 -5.4984 9.5439
# 3 28.3777 44.4043 211.7122 -15.1845 -1.6186 10.2995
# 4 -9.7261 -9.2311 -15.1845 50.1114 -5.3658 6.9689
# 5 -15.5911 -5.4984 -1.6186 -5.3658 31.6121 0.2872
# 6 10.4051 9.5439 10.2995 6.9689 0.2872 21.5933
#
#
#
# Elastic Compliance Matrix: (Units=1/GPa)
#
#
# Indices 1 2 3 4 5 6 
#
# 1 0.022552 0.002943 -0.002341 0.007489 0.012910 -0.013640
# 2 0.002943 0.010514 -0.002046 0.003147 0.003765 -0.006155
# 3 -0.002341 -0.002046 0.005563 0.000863 -0.001071 -0.000886
# 4 0.007489 0.003147 0.000863 0.025072 0.008665 -0.013618
# 5 0.012910 0.003765 -0.001071 0.008665 0.040169 -0.010705
# 6 -0.013640 -0.006155 -0.000886 -0.013618 -0.010705 0.060564
#
#
# Mechanical properties :
#
#
# Convention : Reuss Voigt Hill
#
# Bulk Modulus (GPa) = 27.97864 59.98953 43.98409
# Shear Modulus (GPa) = 27.89653 41.74602 34.82127
#
# Velocity S-wave (km/s) = 3.25412 3.98076 3.63564
# Velocity P-wave (km/s) = 4.97388 6.62571 5.85831
#
# Compressibility (1/GPa) = 0.03574155
#
# Stress axis : x y z
#
# Youngs Moduli (GPa) = 44.34199 95.11564 179.76001
#
# Poissons Ratio (x) = -0.27990 0.42075
# Poissons Ratio (y) = -0.13049 0.36772
# Poissons Ratio (z) = 0.10379 0.19457
#
# Static dielectric constant tensor:
#      x y z
#    x 2.104290 0.007700 0.001230 
#    y 0.007700 2.067390 -0.002310 
#    z 0.001230 -0.002310 2.106990 
# 
# From -- ./inp_files/226372.got.cif
#   From: 2010.05.17/outbox.cif.g08.bks.cpg/sg2_114_cif.got.tgz:226372.got - 2010.06.03 11:33:40.
