data_PCOD9090838
_publ_section_title
;
Structure prediction by ZEFSAII (Michael W. Deem and Ramdas Pophale) SiO2 
 PCOD9090838
Probable space group: P -1
;
_chemical_formula_sum "Si O2"
_cell_formula_units_Z 12
_cell_length_a 10.304867
_cell_length_b 9.555478
_cell_length_c 7.072461
_cell_angle_alpha 126.952233
_cell_angle_beta 60.986548
_cell_angle_gamma 124.460024
_cell_volume 447.640928
_symmetry_space_group_name_H-M "P -1"
_symmetry_group_IT_number 2
_symmetry_cell_setting 'triclinic'
loop_
_space_group_symop_operation_xyz
x,y,z
-x,-y,-z
loop_
_atom_site_type_symbol
_atom_site_label
_atom_site_fract_x
_atom_site_fract_y
_atom_site_fract_z
Si Si1 0.260914 0.882807 0.926787
Si Si2 0.611952 0.387385 0.881772
Si Si3 0.909345 0.130410 0.580023
Si Si4 0.610127 0.702099 0.723843
Si Si5 0.426688 0.121325 0.475292
Si Si6 0.165633 0.492588 0.484680
O O1 0.447445 0.922064 0.783521
O O2 0.168424 0.695233 0.713072
O O3 0.179267 0.820074 0.138786
O O4 0.272515 0.102114 0.091867
O O5 0.527326 0.202817 0.659324
O O6 0.791450 0.493421 0.759699
O O7 0.500000 0.500000 0.000000
O O8 0.565509 0.346336 0.098800
O O9 0.027410 0.312078 0.529744
O O10 0.754719 0.022224 0.467300
O O11 0.000000 0.000000 0.500000
O O12 0.619138 0.745340 0.531667
O O13 0.678199 0.540740 0.577102
#
# Coordination Sequence:
#
# PCOD9090838 Si02
#       6
#     2   2   2   2   2   2
#     4  10  21  36  63  89 115 161 203 241 293 354
#     4   9  21  37  60  92 117 156 202 247 289 355
#     4  11  19  37  60  88 124 158 192 247 305 348
#     4  10  19  39  60  87 124 150 199 246 297 341
#     4  10  21  38  64  89 114 164 200 239 300 355
#     4  10  20  35  59  87 119 156 197 243 297 349
#
# _framework density 26.807200999999999
#
# number of rings (size 3 to 8) (size 9 to 14) (size 15 to 20)
#    0.000    2.000    3.333    2.500    0.000    8.667 
#    0.000    3.333    0.000    5.000    0.000    0.000 
#    0.000    0.000    0.000    0.000    0.000    0.000 
#
# Total GULP energy -66909.729801 kJ/mol
# GULP energy per Si atom -5575.810817 kJ/mol
# Density = 2.674619 g / cm^3
# Si number density = 26.807201 Si / 1000 Ang^3
#
#
#
# Elastic Constant Matrix: (Units=GPa)
#
#
# Indices 1 2 3 4 5 6 
#
# 1 99.7628 44.1099 21.7571 3.0020 -25.3672 6.2283
# 2 44.1099 206.9227 74.2091 -30.7842 3.2598 21.6260
# 3 21.7571 74.2091 124.8482 -10.9005 -4.8689 11.3345
# 4 3.0020 -30.7842 -10.9005 57.9785 -10.6506 -8.7747
# 5 -25.3672 3.2598 -4.8689 -10.6506 31.4957 -6.8956
# 6 6.2283 21.6260 11.3345 -8.7747 -6.8956 46.1233
#
#
#
# Elastic Compliance Matrix: (Units=1/GPa)
#
#
# Indices 1 2 3 4 5 6 
#
# 1 0.014644 -0.003427 -0.000177 -0.000101 0.012418 0.001510
# 2 -0.003427 0.007515 -0.003595 0.002457 -0.003760 -0.002272
# 3 -0.000177 -0.003595 0.010320 0.000299 0.001817 -0.000498
# 4 -0.000101 0.002457 0.000299 0.020571 0.007504 0.003824
# 5 0.012418 -0.003760 0.001817 0.007504 0.046723 0.008052
# 6 0.001510 -0.002272 -0.000498 0.003824 0.008052 0.024596
#
#
# Mechanical properties :
#
#
# Convention : Reuss Voigt Hill
#
# Bulk Modulus (GPa) = 55.30802 79.07622 67.19212
# Shear Modulus (GPa) = 34.53210 46.55001 40.54106
#
# Velocity S-wave (km/s) = 3.59300 4.17162 3.89307
# Velocity P-wave (km/s) = 6.15544 7.26398 6.73256
#
# Compressibility (1/GPa) = 0.01808056
#
# Stress axis : x y z
#
# Youngs Moduli (GPa) = 68.28805 133.06950 96.90100
#
# Poissons Ratio (x) = 0.45600 0.01713
# Poissons Ratio (y) = 0.23401 0.34841
# Poissons Ratio (z) = 0.01207 0.47845
#
# Static dielectric constant tensor:
#      x y z
#    x 2.128720 -0.008400 0.031720 
#    y -0.008400 2.415580 0.136820 
#    z 0.031720 0.136820 2.123100 
# 
# From -- ./inp_files/260492.got.cif
#   From: 2010.05.17/outbox.cif.g08.bks.cpg/sg2_131_cif.got.tgz:260492.got - 2010.06.03 11:33:40.
