data_PCOD9090618
_publ_section_title
;
Structure prediction by ZEFSAII (Michael W. Deem and Ramdas Pophale) SiO2 
 PCOD9090618
Probable space group: P -1
;
_chemical_formula_sum "Si O2"
_cell_formula_units_Z 14
_cell_length_a 8.680660
_cell_length_b 25.898467
_cell_length_c 12.262304
_cell_angle_alpha 151.262093
_cell_angle_beta 142.247151
_cell_angle_gamma 27.893007
_cell_volume 618.567348
_symmetry_space_group_name_H-M "P -1"
_symmetry_group_IT_number 2
_symmetry_cell_setting 'triclinic'
loop_
_space_group_symop_operation_xyz
x,y,z
-x,-y,-z
loop_
_atom_site_type_symbol
_atom_site_label
_atom_site_fract_x
_atom_site_fract_y
_atom_site_fract_z
Si Si1 0.397958 0.715973 0.267393
Si Si2 0.632953 0.862737 0.080360
Si Si3 0.668969 0.082079 0.538447
Si Si4 0.182236 0.540010 0.101787
Si Si5 0.641610 0.396368 0.285164
Si Si6 0.456489 0.201622 0.856198
Si Si7 0.587762 0.846037 0.779778
O O1 0.494340 0.762934 0.303116
O O2 0.410226 0.799751 0.526456
O O3 0.030351 0.770453 0.146834
O O4 0.668470 0.548469 0.092051
O O5 0.508424 0.842684 0.082617
O O6 0.493031 0.022901 0.294505
O O7 0.556901 0.832780 0.866665
O O8 0.690896 0.075703 0.668703
O O9 0.000000 0.000000 0.500000
O O10 0.482543 0.486948 0.252251
O O11 0.919215 0.703557 0.223791
O O12 0.000000 0.500000 0.000000
O O13 0.500000 0.500000 0.500000
O O14 0.033302 0.278820 0.273527
O O15 0.534325 0.304492 0.078150
O O16 0.500000 0.000000 0.000000
#
# Coordination Sequence:
#
# PCOD9090618 Si02
#       7
#     2   2   2   2   2   2   2
#     4  11  21  41  68  93 126 176 226 257 329 394
#     4  11  24  42  63 100 138 168 211 282 336 385
#     4  10  19  38  68  91 125 173 218 261 316 398
#     4  10  19  39  66  90 124 173 221 266 322 394
#     4  11  23  42  65  98 132 173 233 273 318 405
#     4  11  23  41  67  97 134 170 215 277 343 384
#     4  12  24  41  70  97 128 180 230 268 320 403
#
# _framework density 22.632944999999999
#
# number of rings (size 3 to 8) (size 9 to 14) (size 15 to 20)
#    0.000    1.143    5.714    3.000    2.000    0.571 
#    2.571    2.143    0.000    0.000    0.000    0.000 
#    0.000    0.000    0.000    0.000    0.000    0.000 
#
# Total GULP energy -78058.712757 kJ/mol
# GULP energy per Si atom -5575.622340 kJ/mol
# Density = 2.258143 g / cm^3
# Si number density = 22.632945 Si / 1000 Ang^3
#
#
#
# Elastic Constant Matrix: (Units=GPa)
#
#
# Indices 1 2 3 4 5 6 
#
# 1 101.8662 24.7750 43.7368 -6.2103 -47.0619 22.6058
# 2 24.7750 77.7192 19.6854 2.8642 -23.9588 -7.0013
# 3 43.7368 19.6854 120.9396 -10.6951 -56.7705 -3.6873
# 4 -6.2103 2.8642 -10.6951 35.7484 -1.1534 -15.9848
# 5 -47.0619 -23.9588 -56.7705 -1.1534 42.9020 -1.1767
# 6 22.6058 -7.0013 -3.6873 -15.9848 -1.1767 26.1577
#
#
#
# Elastic Compliance Matrix: (Units=1/GPa)
#
#
# Indices 1 2 3 4 5 6 
#
# 1 0.035363 -0.000419 0.010688 -0.001305 0.051908 -0.027629
# 2 -0.000419 0.018021 0.007488 0.006276 0.019983 0.010975
# 3 0.010688 0.007488 0.034567 0.019011 0.062489 0.012069
# 4 -0.001305 0.006276 0.019011 0.050825 0.029636 0.037879
# 5 0.051908 0.019983 0.062489 0.029636 0.174766 -0.004730
# 6 -0.027629 0.010975 0.012069 0.037879 -0.004730 0.089681
#
#
# Mechanical properties :
#
#
# Convention : Reuss Voigt Hill
#
# Bulk Modulus (GPa) = 8.09948 52.99104 30.54526
# Shear Modulus (GPa) = 12.22901 35.11679 23.67290
#
# Velocity S-wave (km/s) = 2.32700 3.94328 3.23762
# Velocity P-wave (km/s) = 3.28729 6.64806 5.24419
#
# Compressibility (1/GPa) = 0.12346472
#
# Stress axis : x y z
#
# Youngs Moduli (GPa) = 28.27843 55.48968 28.92935
#
# Poissons Ratio (x) = 0.02325 -0.30919
# Poissons Ratio (y) = 0.01185 -0.21662
# Poissons Ratio (z) = -0.30224 -0.41550
#
# Static dielectric constant tensor:
#      x y z
#    x 1.872750 -0.054050 -0.014800 
#    y -0.054050 2.085630 0.057260 
#    z -0.014800 0.057260 1.992260 
# 
# From -- ./inp_files/331442.got.cif
#   From: 2010.05.17/outbox.cif.g08.bks.cpg/sg2_166_cif.got.tgz:331442.got - 2010.06.03 11:33:40.
