data_PCOD9090384
_publ_section_title
;
Structure prediction by ZEFSAII (Michael W. Deem and Ramdas Pophale) SiO2 
 PCOD9090384
Probable space group: P -1
;
_chemical_formula_sum "Si O2"
_cell_formula_units_Z 14
_cell_length_a 5.080681
_cell_length_b 16.510225
_cell_length_c 11.246534
_cell_angle_alpha 50.306765
_cell_angle_beta 93.560476
_cell_angle_gamma 125.328336
_cell_volume 516.477923
_symmetry_space_group_name_H-M "P -1"
_symmetry_group_IT_number 2
_symmetry_cell_setting 'triclinic'
loop_
_space_group_symop_operation_xyz
x,y,z
-x,-y,-z
loop_
_atom_site_type_symbol
_atom_site_label
_atom_site_fract_x
_atom_site_fract_y
_atom_site_fract_z
Si Si1 0.085195 0.277973 0.990425
Si Si2 0.248678 0.421807 0.183474
Si Si3 0.524565 0.737757 0.605998
Si Si4 0.811470 0.341031 0.591235
Si Si5 0.359770 0.165255 0.970918
Si Si6 0.681713 0.011882 0.371840
Si Si7 0.747028 0.091417 0.799605
O O1 0.474410 0.445170 0.841104
O O2 0.126484 0.199394 0.968808
O O3 0.011215 0.186527 0.190637
O O4 0.731293 0.252151 0.980224
O O5 0.232243 0.296666 0.337976
O O6 0.843018 0.358539 0.230057
O O7 0.500000 0.500000 0.000000
O O8 0.350621 0.683272 0.520502
O O9 0.753275 0.907427 0.477675
O O10 0.509447 0.232195 0.783760
O O11 0.974935 0.265285 0.656660
O O12 0.000000 0.500000 0.500000
O O13 0.123873 0.993324 0.136786
O O14 0.454128 0.952138 0.295209
O O15 0.500000 0.000000 0.500000
O O16 0.500000 0.000000 0.000000
#
# Coordination Sequence:
#
# PCOD9090384 Si02
#       7
#     2   2   2   2   2   2   2
#     4  11  23  42  67  95 128 175 223 263 323 401
#     4  12  25  44  65  92 131 175 217 268 332 401
#     4  11  26  44  66  99 133 169 220 278 333 388
#     4  10  19  38  65  95 130 169 215 272 328 388
#     4  10  22  41  64  93 128 171 215 266 324 393
#     4  10  22  42  67  98 132 172 221 277 329 385
#     4   8  18  37  59  90 127 167 212 262 320 386
#
# _framework density 27.106674999999999
#
# number of rings (size 3 to 8) (size 9 to 14) (size 15 to 20)
#    0.000    1.714    0.000    3.857    0.000    6.857 
#    0.000   31.429    0.000    0.000    0.000    0.000 
#    0.000    0.000    0.000    0.000    0.000    0.000 
#
# Total GULP energy -78263.174590 kJ/mol
# GULP energy per Si atom -5590.226756 kJ/mol
# Density = 2.704498 g / cm^3
# Si number density = 27.106675 Si / 1000 Ang^3
#
#
#
# Elastic Constant Matrix: (Units=GPa)
#
#
# Indices 1 2 3 4 5 6 
#
# 1 70.5138 38.6640 13.1438 -14.8657 -6.8016 3.0558
# 2 38.6640 175.8298 49.5578 -29.8799 21.0848 -0.6521
# 3 13.1438 49.5578 103.4661 -17.0373 -5.0930 -9.2869
# 4 -14.8657 -29.8799 -17.0373 55.6337 -21.1190 -15.4091
# 5 -6.8016 21.0848 -5.0930 -21.1190 36.9373 -3.7179
# 6 3.0558 -0.6521 -9.2869 -15.4091 -3.7179 40.7266
#
#
#
# Elastic Compliance Matrix: (Units=1/GPa)
#
#
# Indices 1 2 3 4 5 6 
#
# 1 0.019215 -0.004768 0.002146 0.008642 0.011831 0.003321
# 2 -0.004768 0.008575 -0.004159 -0.001052 -0.007099 -0.001499
# 3 0.002146 -0.004159 0.013912 0.008441 0.010225 0.007072
# 4 0.008642 -0.001052 0.008441 0.037269 0.026454 0.017775
# 5 0.011831 -0.007099 0.010225 0.026454 0.051453 0.016036
# 6 0.003321 -0.001499 0.007072 0.017775 0.016036 0.034083
#
#
# Mechanical properties :
#
#
# Convention : Reuss Voigt Hill
#
# Bulk Modulus (GPa) = 35.53503 61.39346 48.46425
# Shear Modulus (GPa) = 26.67409 43.22247 34.94828
#
# Velocity S-wave (km/s) = 3.14035 3.99749 3.59456
# Velocity P-wave (km/s) = 5.12707 6.63360 5.92838
#
# Compressibility (1/GPa) = 0.02814124
#
# Stress axis : x y z
#
# Youngs Moduli (GPa) = 52.04218 116.62082 71.87925
#
# Poissons Ratio (x) = 0.55606 -0.15428
# Poissons Ratio (y) = 0.24814 0.29892
# Poissons Ratio (z) = -0.11170 0.48499
#
# Static dielectric constant tensor:
#      x y z
#    x 2.400830 -0.074070 -0.015380 
#    y -0.074070 2.341110 0.045790 
#    z -0.015380 0.045790 2.122340 
# 
# From -- ./inp_files/367472.got.cif
#   From: 2010.05.17/outbox.cif.g08.bks.cpg/sg2_184_cif.got.tgz:367472.got - 2010.06.03 11:33:40.
