data_PCOD9090610
_publ_section_title
;
Structure prediction by ZEFSAII (Michael W. Deem and Ramdas Pophale) SiO2 
 PCOD9090610
Probable space group: P -1
;
_chemical_formula_sum "Si O2"
_cell_formula_units_Z 15
_cell_length_a 10.569505
_cell_length_b 8.922446
_cell_length_c 7.265863
_cell_angle_alpha 128.381492
_cell_angle_beta 82.583269
_cell_angle_gamma 87.503109
_cell_volume 525.851831
_symmetry_space_group_name_H-M "P -1"
_symmetry_group_IT_number 2
_symmetry_cell_setting 'triclinic'
loop_
_space_group_symop_operation_xyz
x,y,z
-x,-y,-z
loop_
_atom_site_type_symbol
_atom_site_label
_atom_site_fract_x
_atom_site_fract_y
_atom_site_fract_z
Si Si1 0.874057 0.657306 0.634103
Si Si2 0.219316 0.419800 0.810580
Si Si3 0.060193 0.104764 0.735826
Si Si4 0.304225 0.834801 0.669199
Si Si5 0.617654 0.618874 0.772671
Si Si6 0.426009 0.142392 0.420823
Si Si7 0.000000 0.000000 0.000000
Si Si8 0.665476 0.226701 0.949483
O O1 0.808368 0.590139 0.410109
O O2 0.760947 0.670088 0.820547
O O3 0.000000 0.500000 0.500000
O O4 0.921543 0.861725 0.777455
O O5 0.118147 0.292340 0.808226
O O6 0.362693 0.294149 0.697241
O O7 0.241757 0.629575 0.035084
O O8 0.165205 0.943507 0.707186
O O9 0.973776 0.171203 0.979531
O O10 0.000000 0.000000 0.500000
O O11 0.347319 0.612732 0.431374
O O12 0.422324 0.937204 0.653749
O O13 0.303480 0.824192 0.881568
O O14 0.578548 0.745441 0.689776
O O15 0.484423 0.669271 0.946062
O O16 0.337082 0.975951 0.303615
#
# Coordination Sequence:
#
# PCOD9090610 Si02
#       8
#     2   2   2   2   2   2   1   2
#     4  11  24  42  75 106 145 203 254 305 375 443
#     4  11  24  47  68 108 162 183 244 327 368 444
#     4  12  29  49  76 113 151 201 265 318 371 454
#     4  11  20  40  75 104 150 206 240 303 393 440
#     4  10  19  38  68 113 147 190 254 305 375 460
#     4  10  21  38  74 113 148 195 247 304 378 463
#     4  12  28  50  78  98 144 206 258 302 384 434
#     4  11  21  40  75 114 151 195 250 309 382 463
#
# _framework density 28.525144000000001
#
# number of rings (size 3 to 8) (size 9 to 14) (size 15 to 20)
#    0.000    1.067    5.333    3.200    5.600    0.533 
#    0.000    4.000    0.000    0.000    0.000    0.000 
#    0.000    0.000    0.000    0.000    0.000    0.000 
#
# Total GULP energy -83809.519729 kJ/mol
# GULP energy per Si atom -5587.301315 kJ/mol
# Density = 2.846022 g / cm^3
# Si number density = 28.525144 Si / 1000 Ang^3
#
#
#
# Elastic Constant Matrix: (Units=GPa)
#
#
# Indices 1 2 3 4 5 6 
#
# 1 169.2898 44.9014 24.4133 12.0687 11.4644 -6.6147
# 2 44.9014 121.5424 49.8489 11.7050 30.5303 15.7711
# 3 24.4133 49.8489 85.4132 17.4249 29.7640 -16.3224
# 4 12.0687 11.7050 17.4249 61.8364 -0.8830 12.3266
# 5 11.4644 30.5303 29.7640 -0.8830 54.2973 15.1087
# 6 -6.6147 15.7711 -16.3224 12.3266 15.1087 71.4560
#
#
#
# Elastic Compliance Matrix: (Units=1/GPa)
#
#
# Indices 1 2 3 4 5 6 
#
# 1 0.006732 -0.002564 0.000372 -0.001268 -0.000659 0.001632
# 2 -0.002564 0.013147 -0.007616 0.001093 -0.001327 -0.004787
# 3 0.000372 -0.007616 0.023998 -0.007783 -0.012171 0.011113
# 4 -0.001268 0.001093 -0.007783 0.019861 0.006152 -0.006863
# 5 -0.000659 -0.001327 -0.012171 0.006152 0.028771 -0.009693
# 6 0.001632 -0.004787 0.011113 -0.006863 -0.009693 0.020974
#
#
# Mechanical properties :
#
#
# Convention : Reuss Voigt Hill
#
# Bulk Modulus (GPa) = 41.21398 68.28584 54.74991
# Shear Modulus (GPa) = 35.41407 54.65673 45.03540
#
# Velocity S-wave (km/s) = 3.52732 4.38206 3.97772
# Velocity P-wave (km/s) = 5.57396 7.04231 6.35071
#
# Compressibility (1/GPa) = 0.02426361
#
# Stress axis : x y z
#
# Youngs Moduli (GPa) = 148.54018 76.06093 41.66931
#
# Poissons Ratio (x) = 0.19502 -0.01552
# Poissons Ratio (y) = 0.38085 0.31734
# Poissons Ratio (z) = -0.05531 0.57925
#
# Static dielectric constant tensor:
#      x y z
#    x 2.099240 -0.165330 0.203380 
#    y -0.165330 2.210310 0.065320 
#    z 0.203380 0.065320 2.064740 
# 
# From -- ./inp_files/245978.got.cif
#   From: 2010.05.17/outbox.cif.g08.bks.cpg/sg2_123_cif.got.tgz:245978.got - 2010.06.03 11:33:40.
