data_PCOD9090776
_publ_section_title
;
Structure prediction by ZEFSAII (Michael W. Deem and Ramdas Pophale) SiO2 
 PCOD9090776
Probable space group: P -1
;
_chemical_formula_sum "Si O2"
_cell_formula_units_Z 14
_cell_length_a 6.721785
_cell_length_b 8.092429
_cell_length_c 14.830820
_cell_angle_alpha 98.214230
_cell_angle_beta 125.270796
_cell_angle_gamma 110.965724
_cell_volume 546.604457
_symmetry_space_group_name_H-M "P -1"
_symmetry_group_IT_number 2
_symmetry_cell_setting 'triclinic'
loop_
_space_group_symop_operation_xyz
x,y,z
-x,-y,-z
loop_
_atom_site_type_symbol
_atom_site_label
_atom_site_fract_x
_atom_site_fract_y
_atom_site_fract_z
Si Si1 0.639583 0.208009 0.937846
Si Si2 0.776630 0.399698 0.700897
Si Si3 0.356689 0.761153 0.842258
Si Si4 0.857458 0.130651 0.486846
Si Si5 0.253650 0.279358 0.447449
Si Si6 0.323322 0.457240 0.133167
Si Si7 0.814151 0.075650 0.678970
O O1 0.542512 0.343592 0.876365
O O2 0.474995 0.977560 0.850193
O O3 0.610941 0.216325 0.038770
O O4 0.979673 0.313751 0.012758
O O5 0.488641 0.243751 0.558213
O O6 0.659299 0.471609 0.754993
O O7 0.919513 0.285195 0.773055
O O8 0.017958 0.594026 0.725872
O O9 0.533168 0.667379 0.849219
O O10 0.903913 0.175889 0.609215
O O11 0.037676 0.281115 0.463892
O O12 0.518933 0.050219 0.381234
O O13 0.000000 0.000000 0.500000
O O14 0.500000 0.500000 0.500000
O O15 0.115737 0.095700 0.325113
#
# Coordination Sequence:
#
# PCOD9090776 Si02
#       7
#     2   2   2   2   2   2   2
#     4   9  20  42  61  93 118 159 202 230 311 380
#     4  11  22  38  54  92 117 152 213 247 297 365
#     4  10  21  38  64  87 129 155 189 259 297 365
#     4   9  16  34  61  70  99 156 192 240 285 353
#     4  11  23  39  58  86 118 164 207 252 310 357
#     4  10  21  37  66  89 121 159 198 246 301 368
#     4  10  19  39  59  80 111 159 204 244 302 362
#
# _framework density 25.612672
#
# number of rings (size 3 to 8) (size 9 to 14) (size 15 to 20)
#    0.000    2.000    4.286    0.857    2.000    0.571 
#    7.714    0.000    0.000    0.000    0.000    0.000 
#    0.000    0.000    0.000    0.000    0.000    0.000 
#
# Total GULP energy -78057.082282 kJ/mol
# GULP energy per Si atom -5575.505877 kJ/mol
# Density = 2.555438 g / cm^3
# Si number density = 25.612672 Si / 1000 Ang^3
#
#
#
# Elastic Constant Matrix: (Units=GPa)
#
#
# Indices 1 2 3 4 5 6 
#
# 1 180.6327 65.8429 24.6460 9.9217 -11.4273 -2.0104
# 2 65.8429 148.0442 18.4085 40.8033 -1.6720 2.1007
# 3 24.6460 18.4085 43.5844 15.2406 -2.7723 -5.4441
# 4 9.9217 40.8033 15.2406 36.6543 -0.8889 -7.3396
# 5 -11.4273 -1.6720 -2.7723 -0.8889 24.5377 -2.3629
# 6 -2.0104 2.1007 -5.4441 -7.3396 -2.3629 43.0321
#
#
#
# Elastic Compliance Matrix: (Units=1/GPa)
#
#
# Indices 1 2 3 4 5 6 
#
# 1 0.007475 -0.004016 -0.003704 0.004255 0.003036 0.000969
# 2 -0.004016 0.012161 0.001440 -0.013695 -0.001667 -0.003026
# 3 -0.003704 0.001440 0.029008 -0.012350 0.001337 0.001394
# 4 0.004255 -0.013695 -0.012350 0.048088 0.002129 0.007624
# 5 0.003036 -0.001667 0.001337 0.002129 0.042580 0.003094
# 6 0.000969 -0.003026 0.001394 0.007624 0.003094 0.025078
#
#
# Mechanical properties :
#
#
# Convention : Reuss Voigt Hill
#
# Bulk Modulus (GPa) = 27.71465 65.56178 46.63822
# Shear Modulus (GPa) = 26.45804 38.40241 32.43022
#
# Velocity S-wave (km/s) = 3.21753 3.87635 3.56220
# Velocity P-wave (km/s) = 4.96462 6.75927 5.93023
#
# Compressibility (1/GPa) = 0.03608200
#
# Stress axis : x y z
#
# Youngs Moduli (GPa) = 133.78788 82.23341 34.47293
#
# Poissons Ratio (x) = 0.33025 0.12770
# Poissons Ratio (y) = 0.53729 -0.04963
# Poissons Ratio (z) = 0.49559 -0.11838
#
# Static dielectric constant tensor:
#      x y z
#    x 2.069280 0.012650 0.028280 
#    y 0.012650 2.251450 -0.144580 
#    z 0.028280 -0.144580 2.193100 
# 
# From -- ./inp_files/547415.got.cif
#   From: 2010.05.17/outbox.cif.g08.bks.cpg/sg2_274_cif.got.tgz:547415.got - 2010.06.03 11:33:40.
