data_PCOD9090497
_publ_section_title
;
Structure prediction by ZEFSAII (Michael W. Deem and Ramdas Pophale) SiO2 
 PCOD9090497
Probable space group: P -1
;
_chemical_formula_sum "Si O2"
_cell_formula_units_Z 16
_cell_length_a 8.118188
_cell_length_b 17.689228
_cell_length_c 11.873254
_cell_angle_alpha 153.436007
_cell_angle_beta 63.098753
_cell_angle_gamma 115.115919
_cell_volume 679.147981
_symmetry_space_group_name_H-M "P -1"
_symmetry_group_IT_number 2
_symmetry_cell_setting 'triclinic'
loop_
_space_group_symop_operation_xyz
x,y,z
-x,-y,-z
loop_
_atom_site_type_symbol
_atom_site_label
_atom_site_fract_x
_atom_site_fract_y
_atom_site_fract_z
Si Si1 0.695072 0.089157 0.600973
Si Si2 0.897806 0.471456 0.661517
Si Si3 0.595489 0.313693 0.133241
Si Si4 0.012492 0.134521 0.880477
Si Si5 0.444840 0.634969 0.530365
Si Si6 0.076767 0.641606 0.250134
Si Si7 0.821500 0.817092 0.872052
Si Si8 0.760105 0.895085 0.749074
O O1 0.760813 0.239866 0.696833
O O2 0.500000 0.000000 0.500000
O O3 0.858247 0.957374 0.370226
O O4 0.685671 0.178427 0.844755
O O5 0.714060 0.427358 0.588093
O O6 0.861792 0.442172 0.765007
O O7 0.046956 0.336630 0.399408
O O8 0.967446 0.665375 0.878561
O O9 0.598230 0.494099 0.309100
O O10 0.638943 0.349980 0.298562
O O11 0.380328 0.255794 0.130644
O O12 0.104448 0.095398 0.921539
O O13 0.810387 0.047570 0.851676
O O14 0.554842 0.807933 0.690328
O O15 0.906796 0.758706 0.486110
O O16 0.000000 0.500000 0.000000
O O17 0.798692 0.927871 0.914199
#
# Coordination Sequence:
#
# PCOD9090497 Si02
#       8
#     2   2   2   2   2   2   2   2
#     4  11  21  41  68  97 131 172 222 263 327 397
#     4  11  23  42  71  98 127 170 227 275 322 384
#     4  10  20  37  68  97 132 175 218 262 324 396
#     4  11  21  38  65 100 131 168 216 276 331 381
#     4  10  20  39  66  98 129 170 219 274 317 383
#     4  10  23  44  68  92 129 179 220 264 326 404
#     4  10  19  38  66  94 130 172 220 263 319 393
#     4   9  21  38  64  95 131 171 215 267 331 387
#
# _framework density 23.55893
#
# number of rings (size 3 to 8) (size 9 to 14) (size 15 to 20)
#    0.000    1.750    2.500    1.500    0.000    1.000 
#    0.000   10.000    0.000    3.000    0.000    0.000 
#    0.000    0.000    0.000    0.000    0.000    0.000 
#
# Total GULP energy -89562.866377 kJ/mol
# GULP energy per Si atom -5597.679149 kJ/mol
# Density = 2.350531 g / cm^3
# Si number density = 23.558930 Si / 1000 Ang^3
#
#
#
# Elastic Constant Matrix: (Units=GPa)
#
#
# Indices 1 2 3 4 5 6 
#
# 1 82.0323 79.5963 50.9308 4.9562 13.7263 1.8919
# 2 79.5963 166.4326 56.9764 10.4646 23.4577 11.7099
# 3 50.9308 56.9764 148.5833 -11.9999 7.8282 -11.1068
# 4 4.9562 10.4646 -11.9999 43.2919 -1.2110 9.7057
# 5 13.7263 23.4577 7.8282 -1.2110 34.7776 1.2710
# 6 1.8919 11.7099 -11.1068 9.7057 1.2710 37.5253
#
#
#
# Elastic Compliance Matrix: (Units=1/GPa)
#
#
# Indices 1 2 3 4 5 6 
#
# 1 0.025558 -0.010203 -0.004819 -0.002102 -0.002234 0.001088
# 2 -0.010203 0.012210 -0.001344 -0.001555 -0.003845 -0.003161
# 3 -0.004819 -0.001344 0.009290 0.002879 0.000721 0.002643
# 4 -0.002102 -0.001555 0.002879 0.025767 0.002321 -0.005300
# 5 -0.002234 -0.003845 0.000721 0.002321 0.032154 -0.000163
# 6 0.001088 -0.003161 0.002643 -0.005300 -0.000163 0.029739
#
#
# Mechanical properties :
#
#
# Convention : Reuss Voigt Hill
#
# Bulk Modulus (GPa) = 69.80478 85.78389 77.79434
# Shear Modulus (GPa) = 29.03199 37.08859 33.06029
#
# Velocity S-wave (km/s) = 3.51424 3.97204 3.75013
# Velocity P-wave (km/s) = 6.79417 7.58470 7.20029
#
# Compressibility (1/GPa) = 0.01432567
#
# Stress axis : x y z
#
# Youngs Moduli (GPa) = 39.12709 81.89838 107.64777
#
# Poissons Ratio (x) = 0.83560 0.51874
# Poissons Ratio (y) = 0.39921 0.14470
# Poissons Ratio (z) = 0.18855 0.11009
#
# Static dielectric constant tensor:
#      x y z
#    x 1.909960 0.009480 -0.010410 
#    y 0.009480 1.911050 0.041220 
#    z -0.010410 0.041220 1.898570 
# 
# From -- ./inp_files/402448.got.cif
#   From: 2010.05.17/outbox.cif.g08.bks.cpg/sg2_202_cif.got.tgz:402448.got - 2010.06.03 11:33:40.
