data_PCOD9090215
_publ_section_title
;
Structure prediction by ZEFSAII (Michael W. Deem and Ramdas Pophale) SiO2 
 PCOD9090215
Probable space group: P -1
;
_chemical_formula_sum "Si O2"
_cell_formula_units_Z 16
_cell_length_a 11.552494
_cell_length_b 11.856375
_cell_length_c 11.546919
_cell_angle_alpha 128.442442
_cell_angle_beta 37.806499
_cell_angle_gamma 123.046648
_cell_volume 754.515011
_symmetry_space_group_name_H-M "P -1"
_symmetry_group_IT_number 2
_symmetry_cell_setting 'triclinic'
loop_
_space_group_symop_operation_xyz
x,y,z
-x,-y,-z
loop_
_atom_site_type_symbol
_atom_site_label
_atom_site_fract_x
_atom_site_fract_y
_atom_site_fract_z
Si Si1 0.543180 0.492505 0.596200
Si Si2 0.467607 0.778890 0.422578
Si Si3 0.962284 0.633916 0.402936
Si Si4 0.450377 0.771261 0.971068
Si Si5 0.154105 0.102284 0.207138
Si Si6 0.772753 0.967375 0.150884
Si Si7 0.653272 0.384611 0.814703
Si Si8 0.064714 0.872087 0.288478
O O1 0.500000 0.500000 0.500000
O O2 0.479646 0.335698 0.598116
O O3 0.438984 0.615917 0.819362
O O4 0.765278 0.533016 0.481493
O O5 0.657660 0.859254 0.264212
O O6 0.350494 0.691840 0.355750
O O7 0.337264 0.890618 0.654967
O O8 0.140021 0.554687 0.257513
O O9 0.983816 0.721352 0.318229
O O10 0.959124 0.762909 0.583805
O O11 0.656569 0.853536 0.838428
O O12 0.412983 0.734499 0.111679
O O13 0.286660 0.858381 0.111570
O O14 0.041453 0.945925 0.228659
O O15 0.236260 0.097608 0.011762
O O16 0.000000 0.000000 0.000000
O O17 0.500000 0.500000 0.000000
O O18 0.000000 0.000000 0.500000
#
# Coordination Sequence:
#
# PCOD9090215 Si02
#       8
#     2   2   2   2   2   2   2   2
#     4  11  25  44  63  93 136 175 217 271 335 401
#     4  11  25  44  64  99 134 175 220 280 334 393
#     4   9  22  40  64 101 125 167 228 271 325 395
#     4  10  20  38  64  93 120 166 219 263 327 385
#     4  10  19  38  64  92 124 170 215 271 324 392
#     4  11  25  43  64  96 131 172 221 270 343 398
#     4  11  20  40  68  92 127 167 218 274 327 383
#     4   9  19  36  60  96 126 157 212 274 321 381
#
# _framework density 21.205673000000001
#
# number of rings (size 3 to 8) (size 9 to 14) (size 15 to 20)
#    0.000    1.750    2.500    1.125    1.750    2.500 
#    0.000    2.500    0.000    0.000    0.000    0.000 
#    0.000    0.000    0.000    0.000    0.000    0.000 
#
# Total GULP energy -89136.574475 kJ/mol
# GULP energy per Si atom -5571.035905 kJ/mol
# Density = 2.115741 g / cm^3
# Si number density = 21.205673 Si / 1000 Ang^3
#
#
#
# Elastic Constant Matrix: (Units=GPa)
#
#
# Indices 1 2 3 4 5 6 
#
# 1 75.3185 30.2744 41.0080 2.7505 -1.8024 -5.9978
# 2 30.2744 98.6433 35.9319 1.0675 -4.0397 -25.1264
# 3 41.0080 35.9319 92.3348 -10.1149 -15.3511 -6.8566
# 4 2.7505 1.0675 -10.1149 22.0308 -6.3286 -0.8225
# 5 -1.8024 -4.0397 -15.3511 -6.3286 41.4503 -8.1273
# 6 -5.9978 -25.1264 -6.8566 -0.8225 -8.1273 27.4431
#
#
#
# Elastic Compliance Matrix: (Units=1/GPa)
#
#
# Indices 1 2 3 4 5 6 
#
# 1 0.019665 -0.003500 -0.009234 -0.007976 -0.004680 -0.002839
# 2 -0.003500 0.016076 -0.003235 -0.000476 0.002886 0.013986
# 3 -0.009234 -0.003235 0.019301 0.012852 0.008959 0.002880
# 4 -0.007976 -0.000476 0.012852 0.056707 0.014396 0.006995
# 5 -0.004680 0.002886 0.008959 0.014396 0.032444 0.013898
# 6 -0.002839 0.013986 0.002880 0.006995 0.013898 0.053669
#
#
# Mechanical properties :
#
#
# Convention : Reuss Voigt Hill
#
# Bulk Modulus (GPa) = 43.28399 53.41391 48.34895
# Shear Modulus (GPa) = 21.05242 28.79032 24.92137
#
# Velocity S-wave (km/s) = 3.15425 3.68866 3.43187
# Velocity P-wave (km/s) = 5.80702 6.58671 6.20912
#
# Compressibility (1/GPa) = 0.02310323
#
# Stress axis : x y z
#
# Youngs Moduli (GPa) = 50.85277 62.20403 51.80956
#
# Poissons Ratio (x) = 0.21772 0.47841
# Poissons Ratio (y) = 0.17799 0.16762
# Poissons Ratio (z) = 0.46958 0.20125
#
# Static dielectric constant tensor:
#      x y z
#    x 1.651910 -0.080980 -0.092480 
#    y -0.080980 1.808460 -0.066090 
#    z -0.092480 -0.066090 1.717300 
# 
# From -- ./inp_files/426609.got.cif
#   From: 2010.05.17/outbox.cif.g08.bks.cpg/sg2_214_cif.got.tgz:426609.got - 2010.06.03 11:33:40.
