data_PCOD9090173
_publ_section_title
;
Structure prediction by ZEFSAII (Michael W. Deem and Ramdas Pophale) SiO2 
 PCOD9090173
Probable space group: P -1
;
_chemical_formula_sum "Si O2"
_cell_formula_units_Z 12
_cell_length_a 8.200979
_cell_length_b 9.351602
_cell_length_c 11.765411
_cell_angle_alpha 133.942917
_cell_angle_beta 121.615738
_cell_angle_gamma 46.379678
_cell_volume 468.538571
_symmetry_space_group_name_H-M "P -1"
_symmetry_group_IT_number 2
_symmetry_cell_setting 'triclinic'
loop_
_space_group_symop_operation_xyz
x,y,z
-x,-y,-z
loop_
_atom_site_type_symbol
_atom_site_label
_atom_site_fract_x
_atom_site_fract_y
_atom_site_fract_z
Si Si1 0.665539 0.107249 0.894366
Si Si2 0.794772 0.811618 0.329836
Si Si3 0.341239 0.490272 0.117294
Si Si4 0.587228 0.298583 0.514768
Si Si5 0.105956 0.309666 0.072752
Si Si6 0.804390 0.769262 0.575938
O O1 0.417577 0.187816 0.799980
O O2 0.823146 0.958328 0.762945
O O3 0.582918 0.353940 0.064237
O O4 0.775594 0.910444 0.923358
O O5 0.010062 0.556197 0.240812
O O6 0.766363 0.843110 0.472021
O O7 0.783748 0.040509 0.401535
O O8 0.359577 0.622588 0.304579
O O9 0.284258 0.303088 0.045598
O O10 0.115965 0.653741 0.051198
O O11 0.500000 0.500000 0.500000
O O12 0.392327 0.249643 0.447258
O O13 0.000000 0.500000 0.500000
#
# Coordination Sequence:
#
# PCOD9090173 Si02
#       6
#     2   2   2   2   2   2
#     4  10  19  38  64  89 124 172 212 256 320 383
#     4  10  22  41  69  92 127 173 217 263 318 386
#     4  10  22  37  59  96 133 164 208 273 318 377
#     4  11  24  42  66 101 131 163 217 278 314 368
#     4  10  20  39  63  92 128 177 212 251 330 389
#     4  11  22  44  70  92 127 178 219 255 323 394
#
# _framework density 25.611553000000001
#
# number of rings (size 3 to 8) (size 9 to 14) (size 15 to 20)
#    0.000    1.667    1.667    4.500    0.000    3.333 
#    3.000    8.333    0.000    0.000    0.000    0.000 
#    0.000    0.000    0.000    0.000    0.000    0.000 
#
# Total GULP energy -67054.973509 kJ/mol
# GULP energy per Si atom -5587.914459 kJ/mol
# Density = 2.555326 g / cm^3
# Si number density = 25.611553 Si / 1000 Ang^3
#
#
#
# Elastic Constant Matrix: (Units=GPa)
#
#
# Indices 1 2 3 4 5 6 
#
# 1 47.9304 29.0359 19.7388 12.0362 -14.0896 3.5804
# 2 29.0359 163.0674 48.5930 -8.8281 -2.9330 15.9286
# 3 19.7388 48.5930 121.7852 9.2837 -19.6916 7.5006
# 4 12.0362 -8.8281 9.2837 44.4674 4.5356 -11.4922
# 5 -14.0896 -2.9330 -19.6916 4.5356 35.1290 2.1305
# 6 3.5804 15.9286 7.5006 -11.4922 2.1305 46.8337
#
#
#
# Elastic Compliance Matrix: (Units=1/GPa)
#
#
# Indices 1 2 3 4 5 6 
#
# 1 0.031900 -0.005908 0.000774 -0.012573 0.014620 -0.004303
# 2 -0.005908 0.008394 -0.003324 0.004202 -0.004035 -0.000656
# 3 0.000774 -0.003324 0.010990 -0.004405 0.006888 -0.002083
# 4 -0.012573 0.004202 -0.004405 0.031000 -0.011671 0.008376
# 5 0.014620 -0.004035 0.006888 -0.011671 0.039696 -0.005518
# 6 -0.004303 -0.000656 -0.002083 0.008376 -0.005518 0.024544
#
#
# Mechanical properties :
#
#
# Convention : Reuss Voigt Hill
#
# Bulk Modulus (GPa) = 29.09651 58.61319 43.85485
# Shear Modulus (GPa) = 28.58840 40.98037 34.78439
#
# Velocity S-wave (km/s) = 3.34463 4.00443 3.68931
# Velocity P-wave (km/s) = 5.12843 6.65701 5.94207
#
# Compressibility (1/GPa) = 0.03436838
#
# Stress axis : x y z
#
# Youngs Moduli (GPa) = 31.34788 119.13332 90.99356
#
# Poissons Ratio (x) = 0.70387 -0.07047
# Poissons Ratio (y) = 0.18521 0.30245
# Poissons Ratio (z) = -0.02428 0.39598
#
# Static dielectric constant tensor:
#      x y z
#    x 2.157640 -0.061010 -0.047230 
#    y -0.061010 2.065370 0.111550 
#    z -0.047230 0.111550 2.135880 
# 
# From -- ./inp_files/300162.got.cif
#   From: 2010.05.17/outbox.cif.g08.bks.cpg/sg2_151_cif.got.tgz:300162.got - 2010.06.03 11:33:40.
