data_PCOD9090844
_publ_section_title
;
Structure prediction by ZEFSAII (Michael W. Deem and Ramdas Pophale) SiO2 
 PCOD9090844
Probable space group: P -1
;
_chemical_formula_sum "Si O2"
_cell_formula_units_Z 16
_cell_length_a 14.100445
_cell_length_b 10.001360
_cell_length_c 7.821962
_cell_angle_alpha 45.173091
_cell_angle_beta 110.391670
_cell_angle_gamma 88.470178
_cell_volume 668.966969
_symmetry_space_group_name_H-M "P -1"
_symmetry_group_IT_number 2
_symmetry_cell_setting 'triclinic'
loop_
_space_group_symop_operation_xyz
x,y,z
-x,-y,-z
loop_
_atom_site_type_symbol
_atom_site_label
_atom_site_fract_x
_atom_site_fract_y
_atom_site_fract_z
Si Si1 0.644268 0.286364 0.144909
Si Si2 0.988100 0.406671 0.354835
Si Si3 0.769425 0.254160 0.912830
Si Si4 0.017467 0.209661 0.174236
Si Si5 0.565523 0.438538 0.414680
Si Si6 0.194450 0.119158 0.924570
Si Si7 0.162153 0.806995 0.449715
Si Si8 0.608384 0.021853 0.609490
O O1 0.710675 0.337483 0.294114
O O2 0.660839 0.063230 0.429144
O O3 0.707643 0.322830 0.991211
O O4 0.514759 0.396291 0.919298
O O5 0.014559 0.286960 0.296129
O O6 0.905957 0.331561 0.471697
O O7 0.949080 0.642640 0.061549
O O8 0.098570 0.323909 0.611721
O O9 0.689125 0.405130 0.581613
O O10 0.763842 0.032841 0.075445
O O11 0.893718 0.237266 0.017496
O O12 0.102399 0.974171 0.412694
O O13 0.500000 0.500000 0.500000
O O14 0.572931 0.223363 0.530253
O O15 0.154060 0.965109 0.148861
O O16 0.292199 0.143079 0.069938
O O17 0.500000 0.000000 0.500000
#
# Coordination Sequence:
#
# PCOD9090844 Si02
#       8
#     2   2   2   2   2   2   2   2
#     4  10  20  38  64  86 122 174 202 254 323 382
#     4  11  22  38  58  92 122 163 214 258 315 381
#     4  10  19  39  60  88 122 166 214 253 320 378
#     4  11  23  37  63  91 124 167 211 261 317 381
#     4   9  20  39  65  91 120 162 213 256 315 386
#     4  10  22  39  62  87 127 169 208 262 322 380
#     4  11  21  40  60  89 127 168 205 260 321 374
#     4  10  22  41  63  95 126 161 216 266 322 377
#
# _framework density 23.917475
#
# number of rings (size 3 to 8) (size 9 to 14) (size 15 to 20)
#    0.000    1.750    2.500    1.875    0.000    1.500 
#    4.500    8.125    0.000    0.000    0.000    0.000 
#    0.000    0.000    0.000    0.000    0.000    0.000 
#
# Total GULP energy -89242.614205 kJ/mol
# GULP energy per Si atom -5577.663388 kJ/mol
# Density = 2.386304 g / cm^3
# Si number density = 23.917475 Si / 1000 Ang^3
#
#
#
# Elastic Constant Matrix: (Units=GPa)
#
#
# Indices 1 2 3 4 5 6 
#
# 1 84.9918 28.0819 30.9938 15.9148 18.6954 21.2722
# 2 28.0819 94.9995 41.2287 21.7871 5.6803 8.5343
# 3 30.9938 41.2287 156.5800 29.5357 28.8022 17.9181
# 4 15.9148 21.7871 29.5357 41.8565 5.0032 6.7496
# 5 18.6954 5.6803 28.8022 5.0032 48.3762 14.8792
# 6 21.2722 8.5343 17.9181 6.7496 14.8792 37.5463
#
#
#
# Elastic Compliance Matrix: (Units=1/GPa)
#
#
# Indices 1 2 3 4 5 6 
#
# 1 0.015725 -0.003075 -0.000499 -0.002637 -0.003234 -0.006216
# 2 -0.003075 0.013359 -0.002373 -0.004290 0.001468 0.000028
# 3 -0.000499 -0.002373 0.008734 -0.004096 -0.003988 -0.001029
# 4 -0.002637 -0.004290 -0.004096 0.030103 0.001312 -0.001508
# 5 -0.003234 0.001468 -0.003988 0.001312 0.026208 -0.007220
# 6 -0.006216 0.000028 -0.001029 -0.001508 -0.007220 0.033773
#
#
# Mechanical properties :
#
#
# Convention : Reuss Voigt Hill
#
# Bulk Modulus (GPa) = 38.57479 59.68667 49.13073
# Shear Modulus (GPa) = 33.68430 41.30691 37.49560
#
# Velocity S-wave (km/s) = 3.75688 4.16030 3.96372
# Velocity P-wave (km/s) = 5.91457 6.93447 6.44473
#
# Compressibility (1/GPa) = 0.02592367
#
# Stress axis : x y z
#
# Youngs Moduli (GPa) = 63.59332 74.85783 114.49440
#
# Poissons Ratio (x) = 0.23019 0.05716
# Poissons Ratio (y) = 0.19555 0.27166
# Poissons Ratio (z) = 0.03175 0.17761
#
# Static dielectric constant tensor:
#      x y z
#    x 2.032590 -0.075440 0.012310 
#    y -0.075440 2.018360 0.018980 
#    z 0.012310 0.018980 1.927990 
# 
# From -- ./inp_files/304605.got.cif
#   From: 2010.05.17/outbox.cif.g08.bks.cpg/sg2_153_cif.got.tgz:304605.got - 2010.06.03 11:33:40.
