data_PCOD9090751
_publ_section_title
;
Structure prediction by ZEFSAII (Michael W. Deem and Ramdas Pophale) SiO2 
 PCOD9090751
Probable space group: P -1
;
_chemical_formula_sum "Si O2"
_cell_formula_units_Z 16
_cell_length_a 7.031879
_cell_length_b 8.837874
_cell_length_c 16.972677
_cell_angle_alpha 78.945062
_cell_angle_beta 69.102551
_cell_angle_gamma 126.171416
_cell_volume 672.862478
_symmetry_space_group_name_H-M "P -1"
_symmetry_group_IT_number 2
_symmetry_cell_setting 'triclinic'
loop_
_space_group_symop_operation_xyz
x,y,z
-x,-y,-z
loop_
_atom_site_type_symbol
_atom_site_label
_atom_site_fract_x
_atom_site_fract_y
_atom_site_fract_z
Si Si1 0.190638 0.415881 0.406354
Si Si2 0.818146 0.339593 0.968962
Si Si3 0.717498 0.755956 0.919270
Si Si4 0.740678 0.186197 0.632707
Si Si5 0.802085 0.612919 0.321626
Si Si6 0.742925 0.317312 0.250867
Si Si7 0.910663 0.819401 0.113213
Si Si8 0.330848 0.354747 0.231257
O O1 0.276909 0.641974 0.364777
O O2 0.470067 0.485469 0.399513
O O3 0.152198 0.317163 0.336252
O O4 0.906716 0.251245 0.519004
O O5 0.888984 0.200568 0.955947
O O6 0.952733 0.506098 0.858251
O O7 0.488881 0.205237 0.049618
O O8 0.000000 0.500000 0.000000
O O9 0.819383 0.776791 0.813687
O O10 0.973503 0.943844 0.921860
O O11 0.500000 0.500000 0.000000
O O12 0.958569 0.235211 0.661862
O O13 0.428250 0.934480 0.700648
O O14 0.787271 0.424532 0.317283
O O15 0.887678 0.750027 0.215235
O O16 0.524915 0.315647 0.236379
O O17 0.580836 0.619339 0.151037
#
# Coordination Sequence:
#
# PCOD9090751 Si02
#       8
#     2   2   2   2   2   2   2   2
#     4   9  22  39  59  89 123 151 194 252 293 356
#     4  10  19  39  58  80 115 151 190 241 278 343
#     4  12  23  35  57  88 114 154 199 235 295 352
#     4  11  20  39  64  87 116 158 197 239 308 348
#     4   9  20  38  61  86 119 153 195 243 293 357
#     4   9  20  37  61  86 114 153 202 235 289 362
#     4   9  20  38  59  81 116 156 191 234 294 347
#     4   9  20  41  53  81 124 148 188 251 288 341
#
# _framework density 23.779004
#
# number of rings (size 3 to 8) (size 9 to 14) (size 15 to 20)
#    0.000    2.750    2.500    1.500    0.000    6.500 
#    2.250    7.500    0.000    0.000    0.000    0.000 
#    0.000    0.000    0.000    0.000    0.000    0.000 
#
# Total GULP energy -89456.903392 kJ/mol
# GULP energy per Si atom -5591.056462 kJ/mol
# Density = 2.372488 g / cm^3
# Si number density = 23.779004 Si / 1000 Ang^3
#
#
#
# Elastic Constant Matrix: (Units=GPa)
#
#
# Indices 1 2 3 4 5 6 
#
# 1 68.4251 23.1449 29.1219 9.0814 -10.7233 -2.2883
# 2 23.1449 152.6706 52.1191 12.4845 4.6469 15.2472
# 3 29.1219 52.1191 80.7267 19.8961 -10.1034 -11.2654
# 4 9.0814 12.4845 19.8961 38.6120 -9.1604 -7.4155
# 5 -10.7233 4.6469 -10.1034 -9.1604 20.3287 -4.0351
# 6 -2.2883 15.2472 -11.2654 -7.4155 -4.0351 10.5489
#
#
#
# Elastic Compliance Matrix: (Units=1/GPa)
#
#
# Indices 1 2 3 4 5 6 
#
# 1 0.011735 0.034630 -0.047859 -0.035099 -0.071207 -0.150530
# 2 0.034630 -0.188507 0.229985 0.194097 0.426947 0.825340
# 3 -0.047859 0.229985 -0.261412 -0.238857 -0.510950 -0.985320
# 4 -0.035099 0.194097 -0.238857 -0.160779 -0.415884 -0.815342
# 5 -0.071207 0.426947 -0.510950 -0.415884 -0.886515 -1.809661
# 6 -0.150530 0.825340 -0.985320 -0.815342 -1.809661 -3.448411
#
#
# Mechanical properties :
#
#
# Convention : Reuss Voigt Hill
#
# Bulk Modulus (GPa) = -214.06996 56.73270 -78.66863
# Shear Modulus (GPa) = -0.93128 27.06034 13.06453
#
# Velocity S-wave (km/s) = -0.62649 3.37707 2.34650
# Velocity P-wave (km/s) = 9.52594 6.25430 5.08071
#
# Compressibility (1/GPa) = -0.00467137
#
# Stress axis : x y z
#
# Youngs Moduli (GPa) = 85.21637 -5.30484 -3.82538
#
# Poissons Ratio (x) = 0.18371 -0.18308
# Poissons Ratio (y) = -2.95107 0.87978
# Poissons Ratio (z) = 4.07839 1.22004
#
# Static dielectric constant tensor:
#      x y z
#    x 1.932230 -0.015940 0.024390 
#    y -0.015940 1.929610 -0.034910 
#    z 0.024390 -0.034910 1.926160 
# 
# From -- ./inp_files/556225.got.cif
#   From: 2010.05.17/outbox.cif.g08.bks.cpg/sg2_279_cif.got.tgz:556225.got - 2010.06.03 11:33:40.
