data_PCOD9090586
_publ_section_title
;
Structure prediction by ZEFSAII (Michael W. Deem and Ramdas Pophale) SiO2 
 PCOD9090586
Probable space group: P -1
;
_chemical_formula_sum "Si O2"
_cell_formula_units_Z 16
_cell_length_a 12.899656
_cell_length_b 10.022027
_cell_length_c 11.958939
_cell_angle_alpha 115.277485
_cell_angle_beta 107.851715
_cell_angle_gamma 127.520004
_cell_volume 679.773626
_symmetry_space_group_name_H-M "P -1"
_symmetry_group_IT_number 2
_symmetry_cell_setting 'triclinic'
loop_
_space_group_symop_operation_xyz
x,y,z
-x,-y,-z
loop_
_atom_site_type_symbol
_atom_site_label
_atom_site_fract_x
_atom_site_fract_y
_atom_site_fract_z
Si Si1 0.797341 0.705224 0.657418
Si Si2 0.952976 0.826356 0.517272
Si Si3 0.163445 0.664566 0.935910
Si Si4 0.629955 0.271090 0.794226
Si Si5 0.226564 0.630779 0.373497
Si Si6 0.487049 0.186897 0.079987
Si Si7 0.406520 0.233433 0.839094
Si Si8 0.682001 0.852465 0.791048
O O1 0.867603 0.626510 0.695312
O O2 0.811258 0.859178 0.800532
O O3 0.542536 0.399073 0.438671
O O4 0.915092 0.864976 0.636256
O O5 0.736355 0.486400 0.297266
O O6 0.156988 0.960384 0.639480
O O7 0.000000 0.000000 0.500000
O O8 0.355006 0.902372 0.994226
O O9 0.941094 0.431514 0.717451
O O10 0.197326 0.571866 0.999053
O O11 0.191112 0.848679 0.082438
O O12 0.703836 0.336428 0.715854
O O13 0.533790 0.318028 0.806060
O O14 0.430185 0.924863 0.614538
O O15 0.385386 0.209406 0.123555
O O16 0.443943 0.165028 0.929208
O O17 0.500000 0.500000 0.000000
#
# Coordination Sequence:
#
# PCOD9090586 Si02
#       8
#     2   2   2   2   2   2   2   2
#     4  10  19  38  67  96 125 171 208 263 326 368
#     4  11  22  41  62  94 135 162 209 262 322 381
#     4  10  21  44  65  93 130 166 216 265 320 384
#     4  11  26  43  63  95 132 167 218 268 317 384
#     4  11  23  43  68  94 129 169 216 268 324 378
#     4   9  21  43  63  92 133 163 211 265 313 382
#     4  12  26  42  64  95 129 172 215 263 323 388
#     4   8  19  36  68  93 128 160 210 267 314 375
#
# _framework density 23.537248000000002
#
# number of rings (size 3 to 8) (size 9 to 14) (size 15 to 20)
#    0.750    1.000    2.500    1.125    1.750    4.000 
#    0.000    4.375    0.000    0.000    0.000    0.000 
#    0.000    0.000    0.000    0.000    0.000    0.000 
#
# Total GULP energy -89463.064493 kJ/mol
# GULP energy per Si atom -5591.441531 kJ/mol
# Density = 2.348368 g / cm^3
# Si number density = 23.537248 Si / 1000 Ang^3
#
#
#
# Elastic Constant Matrix: (Units=GPa)
#
#
# Indices 1 2 3 4 5 6 
#
# 1 103.3681 25.6966 33.6502 4.0645 4.5268 9.8403
# 2 25.6966 79.0351 18.7611 -5.9039 1.9603 9.5666
# 3 33.6502 18.7611 70.0656 -0.5770 24.4055 12.2669
# 4 4.0645 -5.9039 -0.5770 25.4937 -3.4245 4.6945
# 5 4.5268 1.9603 24.4055 -3.4245 38.0975 2.8593
# 6 9.8403 9.5666 12.2669 4.6945 2.8593 26.6503
#
#
#
# Elastic Compliance Matrix: (Units=1/GPa)
#
#
# Indices 1 2 3 4 5 6 
#
# 1 0.012330 -0.002758 -0.005876 -0.002302 0.002287 -0.000698
# 2 -0.002758 0.014997 -0.002597 0.004902 0.001979 -0.004245
# 3 -0.005876 -0.002597 0.023742 0.000181 -0.013883 -0.006369
# 4 -0.002302 0.004902 0.000181 0.042994 0.004449 -0.009044
# 5 0.002287 0.001979 -0.013883 0.004449 0.035148 0.000281
# 6 -0.000698 -0.004245 -0.006369 -0.009044 0.000281 0.043799
#
#
# Mechanical properties :
#
#
# Convention : Reuss Voigt Hill
#
# Bulk Modulus (GPa) = 34.95698 45.40942 40.18320
# Shear Modulus (GPa) = 24.38944 29.67234 27.03089
#
# Velocity S-wave (km/s) = 3.22251 3.55442 3.39253
# Velocity P-wave (km/s) = 5.36005 6.01495 5.69692
#
# Compressibility (1/GPa) = 0.02860659
#
# Stress axis : x y z
#
# Youngs Moduli (GPa) = 81.10614 66.68160 42.11899
#
# Poissons Ratio (x) = 0.18391 0.24751
# Poissons Ratio (y) = 0.22369 0.10936
# Poissons Ratio (z) = 0.47661 0.17314
#
# Static dielectric constant tensor:
#      x y z
#    x 1.932950 0.013420 -0.002830 
#    y 0.013420 1.878220 0.026040 
#    z -0.002830 0.026040 1.912610 
# 
# From -- ./inp_files/428750.got.cif
#   From: 2010.05.17/outbox.cif.g08.bks.cpg/sg2_215_cif.got.tgz:428750.got - 2010.06.03 11:33:40.
