data_PCOD9090374
_publ_section_title
;
Structure prediction by ZEFSAII (Michael W. Deem and Ramdas Pophale) SiO2 
 PCOD9090374
Probable space group: P -1
;
_chemical_formula_sum "Si O2"
_cell_formula_units_Z 14
_cell_length_a 10.624488
_cell_length_b 17.067519
_cell_length_c 5.751895
_cell_angle_alpha 123.698784
_cell_angle_beta 115.697298
_cell_angle_gamma 42.129735
_cell_volume 581.638813
_symmetry_space_group_name_H-M "P -1"
_symmetry_group_IT_number 2
_symmetry_cell_setting 'triclinic'
loop_
_space_group_symop_operation_xyz
x,y,z
-x,-y,-z
loop_
_atom_site_type_symbol
_atom_site_label
_atom_site_fract_x
_atom_site_fract_y
_atom_site_fract_z
Si Si1 0.398332 0.023710 0.206782
Si Si2 0.850679 0.686820 0.502357
Si Si3 0.347270 0.584676 0.716142
Si Si4 0.851428 0.207585 0.745237
Si Si5 0.932728 0.352172 0.764548
Si Si6 0.153390 0.955971 0.852971
Si Si7 0.754151 0.540642 0.297962
O O1 0.228617 0.174485 0.297369
O O2 0.500000 0.000000 0.500000
O O3 0.500000 0.000000 0.000000
O O4 0.320072 0.952256 0.047468
O O5 0.710951 0.669860 0.461084
O O6 0.890402 0.670547 0.228647
O O7 0.045037 0.569469 0.592418
O O8 0.500000 0.500000 0.500000
O O9 0.153208 0.660796 0.546884
O O10 0.373959 0.480463 0.725574
O O11 0.303159 0.694585 0.023129
O O12 0.934809 0.267947 0.812774
O O13 0.777697 0.171455 0.424100
O O14 0.027822 0.073156 0.768006
O O15 0.790103 0.492366 0.983489
O O16 0.000000 0.000000 0.000000
#
# Coordination Sequence:
#
# PCOD9090374 Si02
#       7
#     2   2   2   2   2   2   2
#     4  12  30  50  70 110 158 197 238 315 391 438
#     4  10  21  42  67  92 134 182 241 289 357 443
#     4  10  21  39  57  99 141 171 217 295 372 431
#     4  10  22  39  73 100 130 182 251 296 356 436
#     4  10  19  38  65  94 123 174 230 296 354 424
#     4  11  24  47  75 101 132 193 261 302 353 452
#     4   9  20  38  68  97 124 182 240 286 355 432
#
# _framework density 24.069921000000001
#
# number of rings (size 3 to 8) (size 9 to 14) (size 15 to 20)
#    0.000    1.714    0.000    4.714    8.000    2.286 
#    7.714    0.000    0.000    0.000    0.000    0.000 
#    0.000    0.000    0.000    0.000    0.000    0.000 
#
# Total GULP energy -78017.412694 kJ/mol
# GULP energy per Si atom -5572.672335 kJ/mol
# Density = 2.401514 g / cm^3
# Si number density = 24.069921 Si / 1000 Ang^3
#
#
#
# Elastic Constant Matrix: (Units=GPa)
#
#
# Indices 1 2 3 4 5 6 
#
# 1 129.8947 8.5903 74.0929 19.2377 -7.6672 11.2905
# 2 8.5903 60.6429 12.0489 6.0809 1.4162 7.6132
# 3 74.0929 12.0489 123.0636 18.0865 -23.4768 9.9994
# 4 19.2377 6.0809 18.0865 38.5728 -5.4914 4.8783
# 5 -7.6672 1.4162 -23.4768 -5.4914 37.8569 16.3394
# 6 11.2905 7.6132 9.9994 4.8783 16.3394 26.6334
#
#
#
# Elastic Compliance Matrix: (Units=1/GPa)
#
#
# Indices 1 2 3 4 5 6 
#
# 1 0.012216 0.000140 -0.007326 -0.002934 -0.002267 -0.000540
# 2 0.000140 0.017420 -0.001086 -0.001661 0.000448 -0.004602
# 3 -0.007326 -0.001086 0.016036 -0.000533 0.012930 -0.010439
# 4 -0.002934 -0.001661 -0.000533 0.029844 0.006797 -0.007718
# 5 -0.002267 0.000448 0.012930 0.006797 0.050621 -0.036322
# 6 -0.000540 -0.004602 -0.010439 -0.007718 -0.036322 0.066708
#
#
# Mechanical properties :
#
#
# Convention : Reuss Voigt Hill
#
# Bulk Modulus (GPa) = 34.33174 55.89614 45.11394
# Shear Modulus (GPa) = 22.82093 35.20389 29.01241
#
# Velocity S-wave (km/s) = 3.08248 3.82850 3.47557
# Velocity P-wave (km/s) = 5.19261 6.54340 5.90674
#
# Compressibility (1/GPa) = 0.02912756
#
# Stress axis : x y z
#
# Youngs Moduli (GPa) = 81.86277 57.40601 62.35942
#
# Poissons Ratio (x) = -0.00804 0.45682
# Poissons Ratio (y) = -0.01147 0.06774
# Poissons Ratio (z) = 0.59970 0.06236
#
# Static dielectric constant tensor:
#      x y z
#    x 2.173970 -0.064080 0.036500 
#    y -0.064080 1.920770 -0.065380 
#    z 0.036500 -0.065380 2.050680 
# 
# From -- ./inp_files/80959.got.cif
#   From: 2010.05.17/outbox.cif.g08.bks.cpg/sg2_41_cif.got.tgz:80959.got - 2010.06.03 11:33:40.
