data_PCOD9090921
_publ_section_title
;
Structure prediction by ZEFSAII (Michael W. Deem and Ramdas Pophale) SiO2 
 PCOD9090921
Probable space group: P -1
;
_chemical_formula_sum "Si O2"
_cell_formula_units_Z 16
_cell_length_a 13.384332
_cell_length_b 8.078630
_cell_length_c 8.767725
_cell_angle_alpha 83.707936
_cell_angle_beta 51.050053
_cell_angle_gamma 95.083590
_cell_volume 717.462353
_symmetry_space_group_name_H-M "P -1"
_symmetry_group_IT_number 2
_symmetry_cell_setting 'triclinic'
loop_
_space_group_symop_operation_xyz
x,y,z
-x,-y,-z
loop_
_atom_site_type_symbol
_atom_site_label
_atom_site_fract_x
_atom_site_fract_y
_atom_site_fract_z
Si Si1 0.828131 0.702170 0.597460
Si Si2 0.928910 0.174821 0.461660
Si Si3 0.952443 0.210592 0.873736
Si Si4 0.948221 0.642663 0.942384
Si Si5 0.233800 0.663951 0.148784
Si Si6 0.241583 0.135312 0.896272
Si Si7 0.713889 0.923841 0.499067
Si Si8 0.544101 0.025750 0.129843
O O1 0.784854 0.521209 0.739710
O O2 0.703825 0.762274 0.638606
O O3 0.928108 0.831480 0.600470
O O4 0.923019 0.711075 0.357714
O O5 0.836963 0.226810 0.675594
O O6 0.974907 0.334361 0.290663
O O7 0.840481 0.041625 0.446729
O O8 0.848377 0.330986 0.928098
O O9 0.994986 0.205869 0.006603
O O10 0.875995 0.021153 0.926085
O O11 0.803779 0.685325 0.053953
O O12 0.000000 0.500000 0.000000
O O13 0.373886 0.779740 0.965102
O O14 0.268907 0.112335 0.691837
O O15 0.362567 0.098143 0.885130
O O16 0.585269 0.999308 0.640140
O O17 0.500000 0.000000 0.000000
#
# Coordination Sequence:
#
# PCOD9090921 Si02
#       8
#     2   2   2   2   2   2   2   2
#     4  11  22  37  64  97 133 163 206 269 335 378
#     4  11  22  36  63  99 131 164 208 263 326 393
#     4  10  19  39  61  92 130 164 198 259 335 389
#     4  12  22  36  64  99 131 161 199 267 338 390
#     4  10  22  42  62  92 133 167 214 267 318 380
#     4  11  24  42  64  93 131 168 217 261 320 389
#     4  12  23  41  66  92 130 175 218 261 313 383
#     4  11  25  45  68  88 121 181 234 264 296 372
#
# _framework density 22.300820999999999
#
# number of rings (size 3 to 8) (size 9 to 14) (size 15 to 20)
#    0.000    1.000    3.750    4.875    1.750    0.500 
#    0.000    0.000    0.000    1.500    0.000    0.000 
#    0.000    0.000    0.000    0.000    0.000    0.000 
#
# Total GULP energy -89192.161899 kJ/mol
# GULP energy per Si atom -5574.510119 kJ/mol
# Density = 2.225006 g / cm^3
# Si number density = 22.300821 Si / 1000 Ang^3
#
#
#
# Elastic Constant Matrix: (Units=GPa)
#
#
# Indices 1 2 3 4 5 6 
#
# 1 144.6276 38.4220 33.2324 -5.7693 7.2992 -31.5181
# 2 38.4220 77.7165 16.0529 -5.0938 -5.0169 -34.9760
# 3 33.2324 16.0529 85.8836 3.5204 8.6880 -13.0736
# 4 -5.7693 -5.0938 3.5204 33.1152 -3.8862 2.9766
# 5 7.2992 -5.0169 8.6880 -3.8862 41.7682 2.2291
# 6 -31.5181 -34.9760 -13.0736 2.9766 2.2291 43.4825
#
#
#
# Elastic Compliance Matrix: (Units=1/GPa)
#
#
# Indices 1 2 3 4 5 6 
#
# 1 0.009040 -0.002164 -0.002356 0.000949 -0.001481 0.004114
# 2 -0.002164 0.021147 -0.001200 0.001972 0.002561 0.014814
# 3 -0.002356 -0.001200 0.013427 -0.002508 -0.002848 0.001681
# 4 0.000949 0.001972 -0.002508 0.031424 0.003560 -0.000813
# 5 -0.001481 0.002561 -0.002848 0.003560 0.025508 -0.001421
# 6 0.004114 0.014814 0.001681 -0.000813 -0.001421 0.038530
#
#
# Mechanical properties :
#
#
# Convention : Reuss Voigt Hill
#
# Bulk Modulus (GPa) = 31.08296 53.73802 42.41049
# Shear Modulus (GPa) = 31.00980 38.37453 34.69217
#
# Velocity S-wave (km/s) = 3.73302 4.15271 3.94845
# Velocity P-wave (km/s) = 5.70516 6.86604 6.31235
#
# Compressibility (1/GPa) = 0.03217197
#
# Stress axis : x y z
#
# Youngs Moduli (GPa) = 110.62112 47.28878 74.47910
#
# Poissons Ratio (x) = 0.10235 0.17549
# Poissons Ratio (y) = 0.23943 0.08937
# Poissons Ratio (z) = 0.26065 0.05675
#
# Static dielectric constant tensor:
#      x y z
#    x 1.893390 0.036570 0.009020 
#    y 0.036570 2.042880 0.029200 
#    z 0.009020 0.029200 1.802100 
# 
# From -- ./inp_files/208212.got.cif
#   From: 2010.05.17/outbox.cif.g08.bks.cpg/sg2_105_cif.got.tgz:208212.got - 2010.06.03 11:33:40.
