data_PCOD9090500
_publ_section_title
;
Structure prediction by ZEFSAII (Michael W. Deem and Ramdas Pophale) SiO2 
 PCOD9090500
Probable space group: P -1
;
_chemical_formula_sum "Si O2"
_cell_formula_units_Z 14
_cell_length_a 8.819225
_cell_length_b 21.284698
_cell_length_c 9.693824
_cell_angle_alpha 125.074897
_cell_angle_beta 111.526393
_cell_angle_gamma 30.090975
_cell_volume 708.028450
_symmetry_space_group_name_H-M "P -1"
_symmetry_group_IT_number 2
_symmetry_cell_setting 'triclinic'
loop_
_space_group_symop_operation_xyz
x,y,z
-x,-y,-z
loop_
_atom_site_type_symbol
_atom_site_label
_atom_site_fract_x
_atom_site_fract_y
_atom_site_fract_z
Si Si1 0.243296 0.974106 0.539312
Si Si2 0.641309 0.680810 0.231016
Si Si3 0.711149 0.340662 0.399788
Si Si4 0.267708 0.324546 0.327575
Si Si5 0.374669 0.113954 0.209907
Si Si6 0.286018 0.754076 0.455659
Si Si7 0.629791 0.649500 0.884961
O O1 0.563671 0.800105 0.390018
O O2 0.324012 0.985779 0.719626
O O3 0.000000 0.000000 0.500000
O O4 0.079752 0.091958 0.517767
O O5 0.484701 0.684325 0.292092
O O6 0.017187 0.522133 0.175623
O O7 0.503224 0.723196 0.085655
O O8 0.500000 0.500000 0.500000
O O9 0.659757 0.337512 0.538141
O O10 0.574349 0.330444 0.239416
O O11 0.082545 0.200040 0.311810
O O12 0.231151 0.251832 0.272104
O O13 0.585390 0.226164 0.386521
O O14 0.316862 0.307033 0.157957
O O15 0.000000 0.500000 0.500000
O O16 0.500000 0.000000 0.000000
#
# Coordination Sequence:
#
# PCOD9090500 Si02
#       7
#     2   2   2   2   2   2   2
#     4  10  20  40  67  86 125 179 217 255 329 413
#     4  10  19  38  66  95 119 164 232 272 307 380
#     4  11  25  41  63  97 136 175 217 276 348 392
#     4  11  19  41  68  91 126 185 224 261 325 411
#     4  12  26  41  65 104 144 165 215 295 341 377
#     4  10  21  38  71  85 119 179 224 251 321 410
#     4  10  22  36  67  95 123 163 236 274 307 397
#
# _framework density 19.773216999999999
#
# number of rings (size 3 to 8) (size 9 to 14) (size 15 to 20)
#    0.000    1.429    4.286    2.571    4.000    1.714 
#    0.000    6.429    0.000    0.000    0.000    0.000 
#    0.000    0.000    0.000    0.000    0.000    0.000 
#
# Total GULP energy -77978.644457 kJ/mol
# GULP energy per Si atom -5569.903175 kJ/mol
# Density = 1.972821 g / cm^3
# Si number density = 19.773217 Si / 1000 Ang^3
#
#
#
# Elastic Constant Matrix: (Units=GPa)
#
#
# Indices 1 2 3 4 5 6 
#
# 1 75.8652 33.2180 36.5676 -9.0293 -3.4539 11.9793
# 2 33.2180 98.8039 40.9813 -22.7114 6.8580 9.8325
# 3 36.5676 40.9813 113.9373 -26.7590 -5.1683 14.6797
# 4 -9.0293 -22.7114 -26.7590 40.1218 3.1173 -3.2529
# 5 -3.4539 6.8580 -5.1683 3.1173 26.6125 -2.8914
# 6 11.9793 9.8325 14.6797 -3.2529 -2.8914 37.5140
#
#
#
# Elastic Compliance Matrix: (Units=1/GPa)
#
#
# Indices 1 2 3 4 5 6 
#
# 1 0.017386 -0.004520 -0.003864 -0.001649 0.002560 -0.002801
# 2 -0.004520 0.014550 -0.002484 0.005894 -0.005653 -0.001323
# 3 -0.003864 -0.002484 0.012674 0.005851 0.001650 -0.002440
# 4 -0.001649 0.005894 0.005851 0.032066 -0.004447 -0.000870
# 5 0.002560 -0.005653 0.001650 -0.004447 0.040506 0.002755
# 6 -0.002801 -0.001323 -0.002440 -0.000870 0.002755 0.028989
#
#
# Mechanical properties :
#
#
# Convention : Reuss Voigt Hill
#
# Bulk Modulus (GPa) = 43.72305 56.68226 50.20265
# Shear Modulus (GPa) = 28.48466 32.70564 30.59515
#
# Velocity S-wave (km/s) = 3.79960 4.07140 3.93784
# Velocity P-wave (km/s) = 6.43502 7.12952 6.79116
#
# Compressibility (1/GPa) = 0.02287123
#
# Stress axis : x y z
#
# Youngs Moduli (GPa) = 57.51873 68.72836 78.90245
#
# Poissons Ratio (x) = 0.31068 0.30491
# Poissons Ratio (y) = 0.26000 0.19602
# Poissons Ratio (z) = 0.22228 0.17075
#
# Static dielectric constant tensor:
#      x y z
#    x 1.743120 -0.008270 -0.031250 
#    y -0.008270 1.759470 0.035570 
#    z -0.031250 0.035570 1.747830 
# 
# From -- ./inp_files/222340.got.cif
#   From: 2010.05.17/outbox.cif.g08.bks.cpg/sg2_112_cif.got.tgz:222340.got - 2010.06.03 11:33:40.
