data_PCOD9090197
_publ_section_title
;
Structure prediction by ZEFSAII (Michael W. Deem and Ramdas Pophale) SiO2 
 PCOD9090197
Probable space group: P -1
;
_chemical_formula_sum "Si O2"
_cell_formula_units_Z 15
_cell_length_a 6.006983
_cell_length_b 18.666474
_cell_length_c 8.231213
_cell_angle_alpha 72.239612
_cell_angle_beta 105.040110
_cell_angle_gamma 58.720972
_cell_volume 644.648097
_symmetry_space_group_name_H-M "P -1"
_symmetry_group_IT_number 2
_symmetry_cell_setting 'triclinic'
loop_
_space_group_symop_operation_xyz
x,y,z
-x,-y,-z
loop_
_atom_site_type_symbol
_atom_site_label
_atom_site_fract_x
_atom_site_fract_y
_atom_site_fract_z
Si Si1 0.182495 0.759379 0.524008
Si Si2 0.706691 0.425648 0.233090
Si Si3 0.707329 0.901048 0.873830
Si Si4 0.484848 0.909878 0.179396
Si Si5 0.646636 0.209517 0.914577
Si Si6 0.289949 0.884556 0.657533
Si Si7 0.278106 0.383112 0.522142
Si Si8 0.500000 0.500000 0.500000
O O1 0.228478 0.677096 0.705137
O O2 0.267664 0.821694 0.570812
O O3 0.403835 0.697301 0.458225
O O4 0.830600 0.832905 0.356609
O O5 0.522376 0.475186 0.330216
O O6 0.020129 0.403807 0.342264
O O7 0.500000 0.500000 0.000000
O O8 0.566606 0.885249 0.710300
O O9 0.690326 0.995209 0.803033
O O10 0.511509 0.928178 0.981380
O O11 0.052672 0.803996 0.029550
O O12 0.333553 0.860912 0.167668
O O13 0.336952 0.318693 0.738316
O O14 0.667324 0.168183 0.125502
O O15 0.000000 0.000000 0.500000
O O16 0.282875 0.469408 0.508379
#
# Coordination Sequence:
#
# PCOD9090197 Si02
#       8
#     2   2   2   2   2   2   2   1
#     4  11  23  43  67  98 137 178 227 286 336 411
#     4  11  26  50  74 105 136 180 228 291 364 425
#     4  10  21  38  61  91 131 179 228 271 325 389
#     4  10  19  38  64  90 130 174 228 273 322 396
#     4  11  23  39  66  95 128 183 231 273 336 405
#     4  11  25  41  60  99 146 181 226 282 331 396
#     4  11  24  47  72 100 133 178 231 288 353 419
#     4  10  26  46  76 102 138 170 228 294 358 426
#
# _framework density 23.268509999999999
#
# number of rings (size 3 to 8) (size 9 to 14) (size 15 to 20)
#    0.000    1.333    4.000    0.800    1.867    4.800 
#    4.800    0.000    0.000    0.000    0.000    0.000 
#    0.000    0.000    0.000    0.000    0.000    0.000 
#
# Total GULP energy -83509.828907 kJ/mol
# GULP energy per Si atom -5567.321927 kJ/mol
# Density = 2.321555 g / cm^3
# Si number density = 23.268510 Si / 1000 Ang^3
#
#
#
# Elastic Constant Matrix: (Units=GPa)
#
#
# Indices 1 2 3 4 5 6 
#
# 1 42.2158 2.4163 21.4254 5.3925 17.8962 18.4710
# 2 2.4163 81.0559 36.5870 6.7870 6.3100 23.8008
# 3 21.4254 36.5870 130.3964 -10.5152 20.5331 3.9332
# 4 5.3925 6.7870 -10.5152 31.8678 3.6997 4.0048
# 5 17.8962 6.3100 20.5331 3.6997 43.3937 3.6825
# 6 18.4710 23.8008 3.9332 4.0048 3.6825 39.7199
#
#
#
# Elastic Compliance Matrix: (Units=1/GPa)
#
#
# Indices 1 2 3 4 5 6 
#
# 1 0.044884 0.011469 -0.008387 -0.008125 -0.013408 -0.024852
# 2 0.011469 0.020817 -0.007395 -0.006508 -0.002328 -0.016203
# 3 -0.008387 -0.007395 0.011762 0.006277 -0.002138 0.006732
# 4 -0.008125 -0.006508 0.006277 0.035995 -0.002049 0.003617
# 5 -0.013408 -0.002328 -0.002138 -0.002049 0.029649 0.005300
# 6 -0.024852 -0.016203 0.006732 0.003617 0.005300 0.044920
#
#
# Mechanical properties :
#
#
# Convention : Reuss Voigt Hill
#
# Bulk Modulus (GPa) = 14.52705 41.61396 28.07050
# Shear Modulus (GPa) = 22.76885 35.87891 29.32388
#
# Velocity S-wave (km/s) = 3.13153 3.93103 3.55384
# Velocity P-wave (km/s) = 4.39683 6.20702 5.37862
#
# Compressibility (1/GPa) = 0.06883709
#
# Stress axis : x y z
#
# Youngs Moduli (GPa) = 22.27979 48.03720 85.02214
#
# Poissons Ratio (x) = -0.55096 0.71310
# Poissons Ratio (y) = -0.25554 0.62873
# Poissons Ratio (z) = 0.18687 0.35523
#
# Static dielectric constant tensor:
#      x y z
#    x 1.970270 0.039120 -0.026090 
#    y 0.039120 1.921440 -0.060630 
#    z -0.026090 -0.060630 1.865640 
# 
# From -- ./inp_files/46583.got.cif
#   From: 2010.05.17/outbox.cif.g08.bks.cpg/sg2_24_cif.got.tgz:46583.got - 2010.06.03 11:33:40.
