data_PCOD9090820
_publ_section_title
;
Structure prediction by ZEFSAII (Michael W. Deem and Ramdas Pophale) SiO2 
 PCOD9090820
Probable space group: P -1
;
_chemical_formula_sum "Si O2"
_cell_formula_units_Z 12
_cell_length_a 7.053026
_cell_length_b 13.697855
_cell_length_c 6.415716
_cell_angle_alpha 103.422455
_cell_angle_beta 45.099478
_cell_angle_gamma 107.000454
_cell_volume 419.558255
_symmetry_space_group_name_H-M "P -1"
_symmetry_group_IT_number 2
_symmetry_cell_setting 'triclinic'
loop_
_space_group_symop_operation_xyz
x,y,z
-x,-y,-z
loop_
_atom_site_type_symbol
_atom_site_label
_atom_site_fract_x
_atom_site_fract_y
_atom_site_fract_z
Si Si1 0.692009 0.424972 0.621544
Si Si2 0.829649 0.038485 0.966733
Si Si3 0.257200 0.288227 0.676821
Si Si4 0.919184 0.417805 0.843504
Si Si5 0.152441 0.144532 0.370881
Si Si6 0.307702 0.797923 0.541345
O O1 0.421997 0.396513 0.679409
O O2 0.854275 0.534127 0.481138
O O3 0.662382 0.414324 0.888941
O O4 0.820990 0.323947 0.403675
O O5 0.021923 0.092362 0.660369
O O6 0.688686 0.932079 0.913402
O O7 0.685675 0.120579 0.235735
O O8 0.000000 0.000000 0.000000
O O9 0.964486 0.311627 0.853120
O O10 0.336470 0.246062 0.371281
O O11 0.373226 0.217706 0.726589
O O12 0.000000 0.500000 0.000000
O O13 0.890505 0.164147 0.453070
#
# Coordination Sequence:
#
# PCOD9090820 Si02
#       6
#     2   2   2   2   2   2
#     4   9  22  39  55  86 116 143 196 234 269 344
#     4   9  20  38  61  83 114 154 183 227 289 334
#     4  10  20  37  59  85 116 147 189 235 277 331
#     4  11  22  39  60  80 116 156 185 233 288 326
#     4  10  19  39  60  84 117 146 189 233 274 340
#     4   9  20  37  57  84 115 148 188 230 279 330
#
# _framework density 28.601512
#
# number of rings (size 3 to 8) (size 9 to 14) (size 15 to 20)
#    1.000    1.333    1.667    0.500    2.333    1.333 
#    0.000   17.500    0.000    0.000    0.000    0.000 
#    0.000    0.000    0.000    0.000    0.000    0.000 
#
# Total GULP energy -66807.322100 kJ/mol
# GULP energy per Si atom -5567.276842 kJ/mol
# Density = 2.853641 g / cm^3
# Si number density = 28.601512 Si / 1000 Ang^3
#
#
#
# Elastic Constant Matrix: (Units=GPa)
#
#
# Indices 1 2 3 4 5 6 
#
# 1 171.8943 53.6039 56.6889 13.3616 36.1701 -27.0858
# 2 53.6039 118.0109 47.5109 23.6821 7.2373 -19.5309
# 3 56.6889 47.5109 92.8044 16.8122 28.1092 -7.4719
# 4 13.3616 23.6821 16.8122 60.4462 16.1023 14.1756
# 5 36.1701 7.2373 28.1092 16.1023 48.0377 15.6373
# 6 -27.0858 -19.5309 -7.4719 14.1756 15.6373 71.9298
#
#
#
# Elastic Compliance Matrix: (Units=1/GPa)
#
#
# Indices 1 2 3 4 5 6 
#
# 1 0.009309 -0.002333 -0.002154 0.000320 -0.006830 0.004070
# 2 -0.002333 0.012638 -0.005190 -0.004470 0.003708 0.002089
# 3 -0.002154 -0.005190 0.017405 -0.000519 -0.008078 0.001446
# 4 0.000320 -0.004470 -0.000519 0.020630 -0.004824 -0.004164
# 5 -0.006830 0.003708 -0.008078 -0.004824 0.034671 -0.008991
# 6 0.004070 0.002089 0.001446 -0.004164 -0.008991 0.018927
#
#
# Mechanical properties :
#
#
# Convention : Reuss Voigt Hill
#
# Bulk Modulus (GPa) = 50.00410 77.59077 63.79744
# Shear Modulus (GPa) = 35.81646 51.07647 43.44647
#
# Velocity S-wave (km/s) = 3.54256 4.23045 3.90170
# Velocity P-wave (km/s) = 5.85269 7.14489 6.53083
#
# Compressibility (1/GPa) = 0.01999836
#
# Stress axis : x y z
#
# Youngs Moduli (GPa) = 107.42554 79.12366 57.45475
#
# Poissons Ratio (x) = 0.18461 0.12373
# Poissons Ratio (y) = 0.25065 0.29820
# Poissons Ratio (z) = 0.23134 0.41067
#
# Static dielectric constant tensor:
#      x y z
#    x 2.349090 0.017040 0.009220 
#    y 0.017040 2.406830 0.001250 
#    z 0.009220 0.001250 2.266880 
# 
# From -- ./inp_files/6510.got.cif
#   From: 2010.05.17/outbox.cif.g08.bks.cpg/sg2_4_cif.got.tgz:6510.got - 2010.06.03 11:33:40.
