data_PCOD9090811
_publ_section_title
;
Structure prediction by ZEFSAII (Michael W. Deem and Ramdas Pophale) SiO2 
 PCOD9090811
Probable space group: P -1
;
_chemical_formula_sum "Si O2"
_cell_formula_units_Z 14
_cell_length_a 17.607339
_cell_length_b 20.112503
_cell_length_c 7.280013
_cell_angle_alpha 41.597868
_cell_angle_beta 132.055909
_cell_angle_gamma 160.457274
_cell_volume 565.426798
_symmetry_space_group_name_H-M "P -1"
_symmetry_group_IT_number 2
_symmetry_cell_setting 'triclinic'
loop_
_space_group_symop_operation_xyz
x,y,z
-x,-y,-z
loop_
_atom_site_type_symbol
_atom_site_label
_atom_site_fract_x
_atom_site_fract_y
_atom_site_fract_z
Si Si1 0.308948 0.553238 0.346195
Si Si2 0.800481 0.569415 0.001286
Si Si3 0.737855 0.267307 0.117335
Si Si4 0.241191 0.044516 0.902264
Si Si5 0.402309 0.345568 0.996743
Si Si6 0.018718 0.891559 0.199706
Si Si7 0.447752 0.832952 0.597296
O O1 0.107083 0.324128 0.604067
O O2 0.207471 0.455568 0.177791
O O3 0.356104 0.708698 0.153983
O O4 0.563766 0.731736 0.366096
O O5 0.711539 0.385089 0.317677
O O6 0.052641 0.821868 0.942497
O O7 0.615938 0.491869 0.923793
O O8 0.704203 0.244442 0.332393
O O9 0.593627 0.043295 0.291241
O O10 0.000000 0.500000 0.000000
O O11 0.111527 0.003754 0.917123
O O12 0.374946 0.083608 0.173984
O O13 0.200870 0.240650 0.808421
O O14 0.500000 0.500000 0.000000
O O15 0.236097 0.100325 0.253598
#
# Coordination Sequence:
#
# PCOD9090811 Si02
#       7
#     2   2   2   2   2   2   2
#     4  10  23  39  59  89 114 151 194 235 291 342
#     4  10  20  39  58  84 123 153 188 240 284 334
#     4   9  17  34  60  82 112 149 188 234 284 339
#     4  10  19  39  60  82 120 153 190 235 284 339
#     4  11  22  38  61  88 113 154 197 232 288 341
#     4  11  22  39  62  83 117 153 192 241 284 338
#     4   9  19  35  56  85 113 152 192 227 285 342
#
# _framework density 24.760058000000001
#
# number of rings (size 3 to 8) (size 9 to 14) (size 15 to 20)
#    0.000    2.286    4.286    0.857    0.000    1.714 
#    0.000   12.857    0.000   15.429    0.000    0.000 
#    0.000    0.000    0.000    0.000    0.000    0.000 
#
# Total GULP energy -78026.399402 kJ/mol
# GULP energy per Si atom -5573.314243 kJ/mol
# Density = 2.470370 g / cm^3
# Si number density = 24.760058 Si / 1000 Ang^3
#
#
#
# Elastic Constant Matrix: (Units=GPa)
#
#
# Indices 1 2 3 4 5 6 
#
# 1 53.7472 13.0997 8.3321 -9.3199 -2.2783 2.6594
# 2 13.0997 128.9119 37.8791 -48.0415 -5.6072 -25.6129
# 3 8.3321 37.8791 73.0272 -33.7116 -5.3511 5.9770
# 4 -9.3199 -48.0415 -33.7116 43.7327 1.1616 -3.6516
# 5 -2.2783 -5.6072 -5.3511 1.1616 25.7607 -13.5733
# 6 2.6594 -25.6129 5.9770 -3.6516 -13.5733 38.0665
#
#
#
# Elastic Compliance Matrix: (Units=1/GPa)
#
#
# Indices 1 2 3 4 5 6 
#
# 1 0.019493 -0.001547 -0.000294 0.002048 0.000118 -0.002118
# 2 -0.001547 0.023786 -0.000466 0.027063 0.016770 0.024761
# 3 -0.000294 -0.000466 0.021638 0.015934 0.003090 -0.001060
# 4 0.002048 0.027063 0.015934 0.067224 0.022101 0.029893
# 5 0.000118 0.016770 0.003090 0.022101 0.060246 0.034392
# 6 -0.002118 0.024761 -0.001060 0.029893 0.034392 0.058376
#
#
# Mechanical properties :
#
#
# Convention : Reuss Voigt Hill
#
# Bulk Modulus (GPa) = 16.58295 41.58979 29.08637
# Shear Modulus (GPa) = 18.15029 34.60366 26.37698
#
# Velocity S-wave (km/s) = 2.71042 3.74245 3.26744
# Velocity P-wave (km/s) = 4.06290 5.95887 5.09977
#
# Compressibility (1/GPa) = 0.06030292
#
# Stress axis : x y z
#
# Youngs Moduli (GPa) = 51.29997 42.04169 46.21529
#
# Poissons Ratio (x) = 0.06502 0.01360
# Poissons Ratio (y) = 0.07934 0.02154
# Poissons Ratio (z) = 0.01510 0.01960
#
# Static dielectric constant tensor:
#      x y z
#    x 2.094250 0.011630 0.078180 
#    y 0.011630 1.980240 -0.004390 
#    z 0.078180 -0.004390 2.127150 
# 
# From -- ./inp_files/337599.got.cif
#   From: 2010.05.17/outbox.cif.g08.bks.cpg/sg2_169_cif.got.tgz:337599.got - 2010.06.03 11:33:40.
