data_PCOD9090481
_publ_section_title
;
Structure prediction by ZEFSAII (Michael W. Deem and Ramdas Pophale) SiO2 
 PCOD9090481
Probable space group: P -1
;
_chemical_formula_sum "Si O2"
_cell_formula_units_Z 16
_cell_length_a 7.895326
_cell_length_b 16.468571
_cell_length_c 19.691388
_cell_angle_alpha 23.335022
_cell_angle_beta 142.919100
_cell_angle_gamma 141.204299
_cell_volume 599.607791
_symmetry_space_group_name_H-M "P -1"
_symmetry_group_IT_number 2
_symmetry_cell_setting 'triclinic'
loop_
_space_group_symop_operation_xyz
x,y,z
-x,-y,-z
loop_
_atom_site_type_symbol
_atom_site_label
_atom_site_fract_x
_atom_site_fract_y
_atom_site_fract_z
Si Si1 0.907782 0.083187 0.479234
Si Si2 0.831804 0.503963 0.085752
Si Si3 0.780123 0.104049 0.152229
Si Si4 0.666189 0.389071 0.491586
Si Si5 0.481829 0.628150 0.036690
Si Si6 0.620000 0.246700 0.442653
Si Si7 0.077631 0.992801 0.108820
Si Si8 0.741618 0.774021 0.293372
O O1 0.949791 0.334166 0.299089
O O2 0.570176 0.980452 0.453746
O O3 0.000000 0.000000 0.500000
O O4 0.058213 0.991376 0.661230
O O5 0.790349 0.397258 0.079454
O O6 0.500000 0.500000 0.000000
O O7 0.008498 0.735818 0.952306
O O8 0.590070 0.253651 0.010016
O O9 0.617750 0.915804 0.198098
O O10 0.529035 0.350614 0.403526
O O11 0.567882 0.545410 0.393225
O O12 0.000000 0.500000 0.500000
O O13 0.689767 0.159126 0.698962
O O14 0.766875 0.784492 0.983306
O O15 0.552195 0.403126 0.244483
O O16 0.952684 0.244602 0.560409
O O17 0.831239 0.891140 0.160632
O O18 0.000000 0.000000 0.000000
#
# Coordination Sequence:
#
# PCOD9090481 Si02
#       8
#     2   2   2   2   2   2   2   2
#     4  12  24  41  65  91 134 175 208 261 329 383
#     4  12  25  42  64  96 127 172 228 261 312 389
#     4  12  26  43  60  98 139 166 211 269 328 388
#     4   8  17  36  60  87 115 154 208 259 312 365
#     4  12  22  39  64  93 129 167 210 269 324 381
#     4  10  20  38  66  88 117 169 213 257 314 371
#     4  10  19  38  66  93 120 165 223 263 314 385
#     4  10  22  41  63  91 127 163 213 270 321 379
#
# _framework density 26.684107999999998
#
# number of rings (size 3 to 8) (size 9 to 14) (size 15 to 20)
#    0.000    1.500    2.500    6.375    1.750    1.000 
#    2.250    3.125    0.000    0.000    0.000    0.000 
#    0.000    0.000    0.000    0.000    0.000    0.000 
#
# Total GULP energy -89615.153385 kJ/mol
# GULP energy per Si atom -5600.947087 kJ/mol
# Density = 2.662337 g / cm^3
# Si number density = 26.684108 Si / 1000 Ang^3
#
#
#
# Elastic Constant Matrix: (Units=GPa)
#
#
# Indices 1 2 3 4 5 6 
#
# 1 101.5325 -0.6203 14.2630 0.5899 5.7503 -25.6765
# 2 -0.6203 92.4770 20.0120 -3.1286 -7.2714 -10.3905
# 3 14.2630 20.0120 173.7636 10.6258 -22.7138 -2.4170
# 4 0.5899 -3.1286 10.6258 33.5977 -3.3530 0.4805
# 5 5.7503 -7.2714 -22.7138 -3.3530 32.4280 -1.7730
# 6 -25.6765 -10.3905 -2.4170 0.4805 -1.7730 49.4782
#
#
#
# Elastic Compliance Matrix: (Units=1/GPa)
#
#
# Indices 1 2 3 4 5 6 
#
# 1 0.011721 0.000850 -0.001294 -0.000051 -0.002466 0.006110
# 2 0.000850 0.011610 -0.001213 0.001601 0.001926 0.002873
# 3 -0.001294 -0.001213 0.006682 -0.001755 0.004433 -0.000424
# 4 -0.000051 0.001601 -0.001755 0.030700 0.002314 0.000009
# 5 -0.002466 0.001926 0.004433 0.002314 0.035082 0.000576
# 6 0.006110 0.002873 -0.000424 0.000009 0.000576 0.023985
#
#
# Mechanical properties :
#
#
# Convention : Reuss Voigt Hill
#
# Bulk Modulus (GPa) = 37.45631 48.34250 42.89940
# Shear Modulus (GPa) = 37.88037 45.37534 41.62785
#
# Velocity S-wave (km/s) = 3.77183 4.12814 3.95400
# Velocity P-wave (km/s) = 5.74772 6.39359 6.07924
#
# Compressibility (1/GPa) = 0.02669777
#
# Stress axis : x y z
#
# Youngs Moduli (GPa) = 85.31593 86.13183 149.66116
#
# Poissons Ratio (x) = -0.07318 0.19368
# Poissons Ratio (y) = -0.07248 0.18155
# Poissons Ratio (z) = 0.11041 0.10448
#
# Static dielectric constant tensor:
#      x y z
#    x 2.263570 -0.010270 -0.058780 
#    y -0.010270 2.070650 -0.037970 
#    z -0.058780 -0.037970 2.146760 
# 
# From -- ./inp_files/282754.got.cif
#   From: 2010.05.17/outbox.cif.g08.bks.cpg/sg2_142_cif.got.tgz:282754.got - 2010.06.03 11:33:40.
