data_PCOD9090111
_publ_section_title
;
Structure prediction by ZEFSAII (Michael W. Deem and Ramdas Pophale) SiO2 
 PCOD9090111
Probable space group: P -1
;
_chemical_formula_sum "Si O2"
_cell_formula_units_Z 16
_cell_length_a 7.829401
_cell_length_b 18.505479
_cell_length_c 7.816817
_cell_angle_alpha 41.035222
_cell_angle_beta 103.670715
_cell_angle_gamma 85.530394
_cell_volume 661.653706
_symmetry_space_group_name_H-M "P -1"
_symmetry_group_IT_number 2
_symmetry_cell_setting 'triclinic'
loop_
_space_group_symop_operation_xyz
x,y,z
-x,-y,-z
loop_
_atom_site_type_symbol
_atom_site_label
_atom_site_fract_x
_atom_site_fract_y
_atom_site_fract_z
Si Si1 0.989659 0.324102 0.163769
Si Si2 0.560381 0.321278 0.379412
Si Si3 0.870595 0.910619 0.819140
Si Si4 0.237357 0.959543 0.122797
Si Si5 0.253524 0.398275 0.874562
Si Si6 0.630927 0.554690 0.535932
Si Si7 0.121563 0.065962 0.587600
Si Si8 0.950201 0.343465 0.497161
O O1 0.962571 0.199632 0.354408
O O2 0.053634 0.337542 0.349560
O O3 0.807572 0.440822 0.856687
O O4 0.152946 0.319477 0.077663
O O5 0.643581 0.178441 0.635026
O O6 0.467266 0.364997 0.466098
O O7 0.746858 0.350507 0.367786
O O8 0.428247 0.379173 0.080844
O O9 0.788576 0.925780 0.584749
O O10 0.723360 0.995990 0.767244
O O11 0.039585 0.961552 0.747072
O O12 0.956516 0.777123 0.154711
O O13 0.000000 0.000000 0.000000
O O14 0.262203 0.034595 0.836647
O O15 0.311105 0.377733 0.726211
O O16 0.104394 0.537167 0.617448
O O17 0.500000 0.500000 0.500000
#
# Coordination Sequence:
#
# PCOD9090111 Si02
#       8
#     2   2   2   2   2   2   2   2
#     4  12  25  44  69 100 143 184 215 274 350 420
#     4  12  24  43  69 102 133 176 229 290 330 390
#     4  10  20  36  67  98 122 171 224 287 321 384
#     4  10  19  38  63  96 129 164 222 282 331 383
#     4  12  27  45  66 101 143 182 221 272 350 414
#     4  12  26  43  69 102 137 178 228 283 332 398
#     4  10  20  37  63  95 129 166 224 270 330 390
#     4  12  20  42  71  98 133 171 233 278 335 394
#
# _framework density 24.181836000000001
#
# number of rings (size 3 to 8) (size 9 to 14) (size 15 to 20)
#    0.000    0.750    6.250    3.375    0.000    1.000 
#    0.000    0.625    0.000    1.500    0.000    0.000 
#    0.000    0.000    0.000    0.000    0.000    0.000 
#
# Total GULP energy -89471.107190 kJ/mol
# GULP energy per Si atom -5591.944199 kJ/mol
# Density = 2.412680 g / cm^3
# Si number density = 24.181836 Si / 1000 Ang^3
#
#
#
# Elastic Constant Matrix: (Units=GPa)
#
#
# Indices 1 2 3 4 5 6 
#
# 1 52.5875 9.6768 25.2877 4.8154 -6.9917 -3.3539
# 2 9.6768 151.6921 74.4288 10.0881 -8.3346 -38.1080
# 3 25.2877 74.4288 144.4853 6.8070 -20.0195 -25.9612
# 4 4.8154 10.0881 6.8070 58.4495 -8.0723 -16.4522
# 5 -6.9917 -8.3346 -20.0195 -8.0723 28.4894 6.3541
# 6 -3.3539 -38.1080 -25.9612 -16.4522 6.3541 30.3375
#
#
#
# Elastic Compliance Matrix: (Units=1/GPa)
#
#
# Indices 1 2 3 4 5 6 
#
# 1 0.021134 0.000246 -0.003736 -0.001529 0.002631 -0.001932
# 2 0.000246 0.011415 -0.004051 0.001671 -0.001685 0.012158
# 3 -0.003736 -0.004051 0.010958 0.001457 0.005214 0.003574
# 4 -0.001529 0.001671 0.001457 0.021234 0.004067 0.013840
# 5 0.002631 -0.001685 0.005214 0.004067 0.040900 -0.003725
# 6 -0.001932 0.012158 0.003574 0.013840 -0.003725 0.059365
#
#
# Mechanical properties :
#
#
# Convention : Reuss Voigt Hill
#
# Bulk Modulus (GPa) = 35.18126 63.06128 49.12127
# Shear Modulus (GPa) = 26.37650 39.41338 32.89494
#
# Velocity S-wave (km/s) = 3.30624 4.04155 3.69225
# Velocity P-wave (km/s) = 5.39956 6.92195 6.20760
#
# Compressibility (1/GPa) = 0.02842422
#
# Stress axis : x y z
#
# Youngs Moduli (GPa) = 47.31752 87.60505 91.26157
#
# Poissons Ratio (x) = -0.02153 0.34096
# Poissons Ratio (y) = -0.01163 0.36967
# Poissons Ratio (z) = 0.17678 0.35486
#
# Static dielectric constant tensor:
#      x y z
#    x 2.032080 0.009590 -0.043280 
#    y 0.009590 2.007460 0.028820 
#    z -0.043280 0.028820 1.938700 
# 
# From -- ./inp_files/220300.got.cif
#   From: 2010.05.17/outbox.cif.g08.bks.cpg/sg2_111_cif.got.tgz:220300.got - 2010.06.03 11:33:40.
