data_PCOD9091534
_publ_section_title
;
Structure prediction by ZEFSAII (Michael W. Deem and Ramdas Pophale) SiO2 
 PCOD9091534
Probable space group: P -1
;
_chemical_formula_sum "Si O2"
_cell_formula_units_Z 14
_cell_length_a 24.902551
_cell_length_b 11.595850
_cell_length_c 7.758601
_cell_angle_alpha 142.454669
_cell_angle_beta 30.330029
_cell_angle_gamma 148.477467
_cell_volume 577.514193
_symmetry_space_group_name_H-M "P -1"
_symmetry_group_IT_number 2
_symmetry_cell_setting 'triclinic'
loop_
_space_group_symop_operation_xyz
x,y,z
-x,-y,-z
loop_
_atom_site_type_symbol
_atom_site_label
_atom_site_fract_x
_atom_site_fract_y
_atom_site_fract_z
Si Si1 0.381382 0.790226 0.184620
Si Si2 0.905407 0.021016 0.160970
Si Si3 0.545624 0.484695 0.163659
Si Si4 0.306553 0.428479 0.667842
Si Si5 0.164626 0.158530 0.242659
Si Si6 0.130785 0.729530 0.971159
Si Si7 0.880253 0.541427 0.034306
O O1 0.260336 0.794819 0.588779
O O2 0.439068 0.727191 0.111434
O O3 0.318337 0.574882 0.975676
O O4 0.500000 0.000000 0.000000
O O5 0.770297 0.840663 0.404263
O O6 0.883007 0.915314 0.906399
O O7 0.000000 0.000000 0.000000
O O8 0.980321 0.288031 0.230642
O O9 0.500000 0.500000 0.500000
O O10 0.447029 0.489206 0.315365
O O11 0.683964 0.700248 0.006847
O O12 0.229345 0.482649 0.812880
O O13 0.127222 0.320723 0.620147
O O14 0.118303 0.939403 0.226077
O O15 0.144227 0.683079 0.077941
O O16 0.000000 0.500000 0.000000
#
# Coordination Sequence:
#
# PCOD9091534 Si02
#       7
#     2   2   2   2   2   2   2
#     4  11  23  42  66  98 133 175 226 276 328 397
#     4  10  20  37  66  94 126 168 215 268 322 387
#     4  10  19  39  67  89 123 174 218 266 327 391
#     4  10  22  42  68  95 130 171 226 269 334 396
#     4  12  22  41  68  92 133 174 220 262 342 388
#     4  12  25  40  67  99 132 178 220 269 335 398
#     4  11  24  43  64  98 135 174 214 278 328 396
#
# _framework density 24.241827000000001
#
# number of rings (size 3 to 8) (size 9 to 14) (size 15 to 20)
#    0.000    1.143    5.714    2.143    2.000    0.571 
#    2.571    2.143    0.000    0.000    0.000    0.000 
#    0.000    0.000    0.000    0.000    0.000    0.000 
#
# Total GULP energy -78197.807920 kJ/mol
# GULP energy per Si atom -5585.557709 kJ/mol
# Density = 2.418665 g / cm^3
# Si number density = 24.241827 Si / 1000 Ang^3
#
#
#
# Elastic Constant Matrix: (Units=GPa)
#
#
# Indices 1 2 3 4 5 6 
#
# 1 121.4515 28.6947 19.6423 -6.3146 -11.3574 -5.5544
# 2 28.6947 151.4910 31.1095 -30.8446 -8.6918 -15.7152
# 3 19.6423 31.1095 96.8794 -28.7753 -11.3461 8.5878
# 4 -6.3146 -30.8446 -28.7753 48.1447 8.6829 -8.4559
# 5 -11.3574 -8.6918 -11.3461 8.6829 32.9333 -3.2837
# 6 -5.5544 -15.7152 8.5878 -8.4559 -3.2837 41.1568
#
#
#
# Elastic Compliance Matrix: (Units=1/GPa)
#
#
# Indices 1 2 3 4 5 6 
#
# 1 0.009026 -0.001320 -0.001434 -0.000800 0.002586 0.001055
# 2 -0.001320 0.008702 -0.001289 0.005351 0.000440 0.004548
# 3 -0.001434 -0.001289 0.013277 0.006224 0.001896 -0.002026
# 4 -0.000800 0.005351 0.006224 0.029643 -0.003895 0.006416
# 5 0.002586 0.000440 0.001896 -0.003895 0.033250 0.001974
# 6 0.001055 0.004548 -0.002026 0.006416 0.001974 0.028075
#
#
# Mechanical properties :
#
#
# Convention : Reuss Voigt Hill
#
# Bulk Modulus (GPa) = 43.63326 58.74610 51.18968
# Shear Modulus (GPa) = 36.31065 43.80531 40.05798
#
# Velocity S-wave (km/s) = 3.87441 4.25551 4.06942
# Velocity P-wave (km/s) = 6.16871 6.95930 6.57589
#
# Compressibility (1/GPa) = 0.02291830
#
# Stress axis : x y z
#
# Youngs Moduli (GPa) = 110.78896 114.91018 75.31723
#
# Poissons Ratio (x) = 0.15171 0.10804
# Poissons Ratio (y) = 0.14627 0.09709
# Poissons Ratio (z) = 0.15893 0.14812
#
# Static dielectric constant tensor:
#      x y z
#    x 1.992560 -0.013510 0.006940 
#    y -0.013510 1.954860 -0.000810 
#    z 0.006940 -0.000810 1.980120 
# 
# From -- ./inp_files/257342.got.cif
#   From: 2010.05.17/outbox.cif.g08.bks.cpg/sg2_129_cif.got.tgz:257342.got - 2010.06.03 11:33:40.
