data_PCOD9091544
_publ_section_title
;
Structure prediction by ZEFSAII (Michael W. Deem and Ramdas Pophale) SiO2 
 PCOD9091544
Probable space group: P -1
;
_chemical_formula_sum "Si O2"
_cell_formula_units_Z 12
_cell_length_a 14.222698
_cell_length_b 8.035775
_cell_length_c 8.880127
_cell_angle_alpha 70.101023
_cell_angle_beta 48.611832
_cell_angle_gamma 40.118157
_cell_volume 461.094398
_symmetry_space_group_name_H-M "P -1"
_symmetry_group_IT_number 2
_symmetry_cell_setting 'triclinic'
loop_
_space_group_symop_operation_xyz
x,y,z
-x,-y,-z
loop_
_atom_site_type_symbol
_atom_site_label
_atom_site_fract_x
_atom_site_fract_y
_atom_site_fract_z
Si Si1 0.862373 0.220881 0.210436
Si Si2 0.762323 0.243211 0.880411
Si Si3 0.618072 0.395438 0.661066
Si Si4 0.164037 0.361662 0.993243
Si Si5 0.565037 0.842525 0.631083
Si Si6 0.281329 0.284201 0.203257
O O1 0.708962 0.254655 0.445541
O O2 0.779257 0.494684 0.148654
O O3 0.029011 0.061221 0.210889
O O4 0.000000 0.000000 0.000000
O O5 0.699878 0.237676 0.783201
O O6 0.757026 0.464106 0.812864
O O7 0.610933 0.374604 0.137564
O O8 0.662722 0.555222 0.571876
O O9 0.353456 0.036606 0.868601
O O10 0.133716 0.383034 0.198940
O O11 0.000000 0.500000 0.000000
O O12 0.698124 0.804635 0.619498
O O13 0.500000 0.000000 0.500000
O O14 0.500000 0.000000 0.000000
#
# Coordination Sequence:
#
# PCOD9091544 Si02
#       6
#     2   2   2   2   2   2
#     4  12  23  39  64  98 138 166 213 280 333 392
#     4  10  21  41  65  95 127 173 222 271 330 391
#     4  10  22  40  68  94 128 177 220 266 334 400
#     4  11  22  40  63  92 132 177 219 268 329 394
#     4  10  19  39  67  91 127 172 219 269 324 389
#     4   9  20  39  64  89 128 170 217 270 324 390
#
# _framework density 26.025037999999999
#
# number of rings (size 3 to 8) (size 9 to 14) (size 15 to 20)
#    0.000    1.667    3.333    1.500    0.000    2.000 
#    0.000    2.500    0.000    0.000    0.000    0.000 
#    0.000    0.000    0.000    0.000    0.000    0.000 
#
# Total GULP energy -66890.977676 kJ/mol
# GULP energy per Si atom -5574.248140 kJ/mol
# Density = 2.596580 g / cm^3
# Si number density = 26.025038 Si / 1000 Ang^3
#
#
#
# Elastic Constant Matrix: (Units=GPa)
#
#
# Indices 1 2 3 4 5 6 
#
# 1 108.6748 24.0110 34.3797 -12.5584 29.8419 -39.8740
# 2 24.0110 114.7377 34.7340 3.4709 7.3826 -12.9321
# 3 34.3797 34.7340 140.9571 -2.1086 16.9343 -18.4926
# 4 -12.5584 3.4709 -2.1086 43.4237 -18.1093 4.1196
# 5 29.8419 7.3826 16.9343 -18.1093 32.6054 -5.6745
# 6 -39.8740 -12.9321 -18.4926 4.1196 -5.6745 52.1237
#
#
#
# Elastic Compliance Matrix: (Units=1/GPa)
#
#
# Indices 1 2 3 4 5 6 
#
# 1 0.017755 -0.001165 -0.000790 -0.002036 -0.014692 0.011575
# 2 -0.001165 0.009749 -0.001917 -0.001678 -0.000925 0.000880
# 3 -0.000790 -0.001917 0.008391 -0.001351 -0.003672 0.001604
# 4 -0.002036 -0.001678 -0.001351 0.030972 0.019667 -0.002760
# 5 -0.014692 -0.000925 -0.003672 0.019667 0.055719 -0.008260
# 6 0.011575 0.000880 0.001604 -0.002760 -0.008260 0.028146
#
#
# Mechanical properties :
#
#
# Convention : Reuss Voigt Hill
#
# Bulk Modulus (GPa) = 35.52258 61.17988 48.35123
# Shear Modulus (GPa) = 29.78673 43.71356 36.75014
#
# Velocity S-wave (km/s) = 3.38678 4.10283 3.76188
# Velocity P-wave (km/s) = 5.38263 6.78258 6.12275
#
# Compressibility (1/GPa) = 0.02815111
#
# Stress axis : x y z
#
# Youngs Moduli (GPa) = 56.32129 102.57483 119.17828
#
# Poissons Ratio (x) = 0.11948 0.09419
# Poissons Ratio (y) = 0.06561 0.22844
# Poissons Ratio (z) = 0.04451 0.19661
#
# Static dielectric constant tensor:
#      x y z
#    x 2.205170 -0.075920 0.089920 
#    y -0.075920 2.074440 -0.056580 
#    z 0.089920 -0.056580 2.317570 
# 
# From -- ./inp_files/189474.got.cif
#   From: 2010.05.17/outbox.cif.g08.bks.cpg/sg2_95_cif.got.tgz:189474.got - 2010.06.03 11:33:40.
