data_PCOD9091273
_publ_section_title
;
Structure prediction by ZEFSAII (Michael W. Deem and Ramdas Pophale) SiO2 
 PCOD9091273
Probable space group: P -1
;
_chemical_formula_sum "Si O2"
_cell_formula_units_Z 16
_cell_length_a 13.852982
_cell_length_b 10.798890
_cell_length_c 8.939019
_cell_angle_alpha 84.465772
_cell_angle_beta 70.579478
_cell_angle_gamma 42.405998
_cell_volume 826.811633
_symmetry_space_group_name_H-M "P -1"
_symmetry_group_IT_number 2
_symmetry_cell_setting 'triclinic'
loop_
_space_group_symop_operation_xyz
x,y,z
-x,-y,-z
loop_
_atom_site_type_symbol
_atom_site_label
_atom_site_fract_x
_atom_site_fract_y
_atom_site_fract_z
Si Si1 0.989554 0.691137 0.889562
Si Si2 0.098268 0.116814 0.641647
Si Si3 0.682829 0.041162 0.195401
Si Si4 0.340912 0.670388 0.975238
Si Si5 0.011390 0.024904 0.171174
Si Si6 0.413647 0.152238 0.158888
Si Si7 0.204413 0.533676 0.044850
Si Si8 0.101593 0.310043 0.376656
O O1 0.031837 0.793420 0.808983
O O2 0.962824 0.634725 0.764592
O O3 0.127948 0.526900 0.948784
O O4 0.826713 0.859777 0.040841
O O5 0.090456 0.186962 0.477270
O O6 0.944626 0.297284 0.794503
O O7 0.249054 0.025372 0.665286
O O8 0.090207 0.975869 0.679329
O O9 0.649535 0.216506 0.148263
O O10 0.534806 0.095095 0.222696
O O11 0.500000 0.500000 0.000000
O O12 0.286365 0.587462 0.945219
O O13 0.193533 0.839969 0.136642
O O14 0.000000 0.000000 0.000000
O O15 0.325315 0.346765 0.101339
O O16 0.279439 0.190488 0.293707
O O17 0.500000 0.000000 0.000000
O O18 0.000000 0.500000 0.500000
#
# Coordination Sequence:
#
# PCOD9091273 Si02
#       8
#     2   2   2   2   2   2   2   2
#     4  10  20  38  62  89 117 156 203 253 296 363
#     4  10  20  38  61  87 123 155 193 251 308 360
#     4  10  19  36  62  89 116 151 199 252 296 356
#     4  10  16  28  58  93 117 139 185 252 307 347
#     4  10  16  33  62  93 114 143 201 247 299 373
#     4  12  24  38  59  87 117 160 217 247 286 356
#     4  10  19  36  63  89 113 154 204 247 297 364
#     4  12  26  40  57  85 127 167 207 246 299 349
#
# _framework density 19.351445999999999
#
# number of rings (size 3 to 8) (size 9 to 14) (size 15 to 20)
#    0.000    1.500    8.750    0.000    0.000    2.500 
#    0.000    0.000    0.000    0.000    0.000    7.000 
#    0.000    0.000    0.000    0.000    0.000    0.000 
#
# Total GULP energy -89244.048501 kJ/mol
# GULP energy per Si atom -5577.753031 kJ/mol
# Density = 1.930740 g / cm^3
# Si number density = 19.351446 Si / 1000 Ang^3
#
#
#
# Elastic Constant Matrix: (Units=GPa)
#
#
# Indices 1 2 3 4 5 6 
#
# 1 91.4668 6.3529 17.3130 2.0524 -8.2994 -25.1017
# 2 6.3529 57.2038 -2.2256 2.0907 6.0262 -18.7888
# 3 17.3130 -2.2256 43.4192 -3.6327 -8.4484 -2.3306
# 4 2.0524 2.0907 -3.6327 18.0014 -2.0212 -1.5044
# 5 -8.2994 6.0262 -8.4484 -2.0212 27.2536 -8.0120
# 6 -25.1017 -18.7888 -2.3306 -1.5044 -8.0120 38.1732
#
#
#
# Elastic Compliance Matrix: (Units=1/GPa)
#
#
# Indices 1 2 3 4 5 6 
#
# 1 0.015557 0.001390 -0.004306 -0.001069 0.006538 0.011981
# 2 0.001390 0.021167 0.000830 -0.001613 -0.000844 0.011143
# 3 -0.004306 0.000830 0.026910 0.006778 0.007672 0.001097
# 4 -0.001069 -0.001613 0.006778 0.058272 0.007259 0.002737
# 5 0.006538 -0.000844 0.007672 0.007259 0.045988 0.014291
# 6 0.011981 0.011143 0.001097 0.002737 0.014291 0.042734
#
#
# Mechanical properties :
#
#
# Convention : Reuss Voigt Hill
#
# Bulk Modulus (GPa) = 16.81772 26.10783 21.46278
# Shear Modulus (GPa) = 21.31114 28.06227 24.68670
#
# Velocity S-wave (km/s) = 3.32214 3.81220 3.57557
# Velocity P-wave (km/s) = 4.83994 5.73566 5.30673
#
# Compressibility (1/GPa) = 0.05946109
#
# Stress axis : x y z
#
# Youngs Moduli (GPa) = 64.28085 47.24366 37.16152
#
# Poissons Ratio (x) = -0.06569 0.16002
# Poissons Ratio (y) = -0.08937 -0.03083
# Poissons Ratio (z) = 0.27679 -0.03919
#
# Static dielectric constant tensor:
#      x y z
#    x 1.724060 0.021800 -0.007630 
#    y 0.021800 1.699290 -0.029590 
#    z -0.007630 -0.029590 1.653190 
# 
# From -- ./inp_files/303023.got.cif
#   From: 2010.05.17/outbox.cif.g08.bks.cpg/sg2_152_cif.got.tgz:303023.got - 2010.06.03 11:33:40.
