data_PCOD9091361
_publ_section_title
;
Structure prediction by ZEFSAII (Michael W. Deem and Ramdas Pophale) SiO2 
 PCOD9091361
Probable space group: P -1
;
_chemical_formula_sum "Si O2"
_cell_formula_units_Z 16
_cell_length_a 11.199751
_cell_length_b 16.876434
_cell_length_c 18.973177
_cell_angle_alpha 157.803228
_cell_angle_beta 29.009782
_cell_angle_gamma 139.996635
_cell_volume 638.045412
_symmetry_space_group_name_H-M "P -1"
_symmetry_group_IT_number 2
_symmetry_cell_setting 'triclinic'
loop_
_space_group_symop_operation_xyz
x,y,z
-x,-y,-z
loop_
_atom_site_type_symbol
_atom_site_label
_atom_site_fract_x
_atom_site_fract_y
_atom_site_fract_z
Si Si1 0.651180 0.007050 0.605711
Si Si2 0.694626 0.741214 0.108273
Si Si3 0.646668 0.733916 0.588728
Si Si4 0.153498 0.621829 0.158482
Si Si5 0.887234 0.301635 0.948352
Si Si6 0.947357 0.538067 0.405646
Si Si7 0.571987 0.353789 0.520103
Si Si8 0.866960 0.037870 0.882445
O O1 0.449621 0.872422 0.622517
O O2 0.919286 0.837664 0.320943
O O3 0.687309 0.203429 0.797100
O O4 0.567640 0.098726 0.646088
O O5 0.688957 0.562320 0.022049
O O6 0.795682 0.610374 0.877643
O O7 0.909060 0.868011 0.122061
O O8 0.762888 0.573699 0.460543
O O9 0.540220 0.650194 0.504125
O O10 0.912002 0.766627 0.446544
O O11 0.402421 0.896754 0.883180
O O12 0.038142 0.470921 0.041974
O O13 0.830016 0.149860 0.916439
O O14 0.620678 0.446327 0.178624
O O15 0.836565 0.413560 0.421265
O O16 0.951147 0.780267 0.623050
#
# Coordination Sequence:
#
# PCOD9091361 Si02
#       8
#     2   2   2   2   2   2   2   2
#     4  12  25  42  57  89 133 171 195 231 311 376
#     4  10  23  41  63  89 124 160 207 254 288 363
#     4  10  19  39  65  93 119 145 207 265 303 336
#     4   9  22  38  65  89 116 164 205 255 297 353
#     4  10  22  39  61  93 120 154 206 258 300 355
#     4  11  21  38  66  96 114 156 209 257 309 342
#     4  11  23  39  63  90 130 160 196 255 300 369
#     4  11  21  38  69  95 115 152 209 267 300 342
#
# _framework density 25.076585000000001
#
# number of rings (size 3 to 8) (size 9 to 14) (size 15 to 20)
#    0.000    1.500    2.500    3.750    1.750    5.500 
#    2.250    0.625    0.000    0.000    0.000    0.000 
#    0.000    0.000    0.000    0.000    0.000    0.000 
#
# Total GULP energy -89421.958199 kJ/mol
# GULP energy per Si atom -5588.872387 kJ/mol
# Density = 2.501951 g / cm^3
# Si number density = 25.076585 Si / 1000 Ang^3
#
#
#
# Elastic Constant Matrix: (Units=GPa)
#
#
# Indices 1 2 3 4 5 6 
#
# 1 47.6653 25.1756 31.2481 0.6188 10.9955 24.8370
# 2 25.1756 82.5784 -2.0824 63.5459 -15.9026 -49.1969
# 3 31.2481 -2.0824 33.9937 41.8498 -13.3328 -40.2585
# 4 0.6188 63.5459 41.8498 29.9082 19.5996 33.4208
# 5 10.9955 -15.9026 -13.3328 19.5996 11.8849 -40.0117
# 6 24.8370 -49.1969 -40.2585 33.4208 -40.0117 -45.4788
#
#
#
# Elastic Compliance Matrix: (Units=1/GPa)
#
#
# Indices 1 2 3 4 5 6 
#
# 1 0.019566 0.001867 -0.003898 -0.006124 0.003978 0.004115
# 2 0.001867 0.010933 -0.003963 -0.006218 -0.005363 -0.007150
# 3 -0.003898 -0.003963 0.020547 -0.002873 -0.008830 -0.010372
# 4 -0.006124 -0.006218 -0.002873 0.025863 0.008936 0.017069
# 5 0.003978 -0.005363 -0.008830 0.008936 0.031275 -0.005159
# 6 0.004115 -0.007150 -0.010372 0.017069 -0.005159 0.014258
#
#
# Mechanical properties :
#
#
# Convention : Reuss Voigt Hill
#
# Bulk Modulus (GPa) = 25.60274 30.32445 27.96359
# Shear Modulus (GPa) = 33.91019 6.58928 20.24974
#
# Velocity S-wave (km/s) = 3.68131 1.62276 2.84476
# Velocity P-wave (km/s) = 5.31990 3.95350 4.68676
#
# Compressibility (1/GPa) = 0.03905832
#
# Stress axis : x y z
#
# Youngs Moduli (GPa) = 51.10922 91.46759 48.66995
#
# Poissons Ratio (x) = -0.17078 0.18970
# Poissons Ratio (y) = -0.09543 0.19288
# Poissons Ratio (z) = 0.19921 0.36248
#
# Static dielectric constant tensor:
#      x y z
#    x 2.013240 -0.006790 0.020600 
#    y -0.006790 2.039340 -0.021330 
#    z 0.020600 -0.021330 1.992280 
# 
# From -- ./inp_files/426859.got.cif
#   From: 2010.05.17/outbox.cif.g08.bks.cpg/sg2_214_cif.got.tgz:426859.got - 2010.06.03 11:33:40.
