data_PCOD9091924
_publ_section_title
;
Structure prediction by ZEFSAII (Michael W. Deem and Ramdas Pophale) SiO2 
 PCOD9091924
Probable space group: P -1
;
_chemical_formula_sum "Si O2"
_cell_formula_units_Z 16
_cell_length_a 20.062827
_cell_length_b 7.706054
_cell_length_c 8.604551
_cell_angle_alpha 104.324233
_cell_angle_beta 58.048650
_cell_angle_gamma 141.405539
_cell_volume 668.513060
_symmetry_space_group_name_H-M "P -1"
_symmetry_group_IT_number 2
_symmetry_cell_setting 'triclinic'
loop_
_space_group_symop_operation_xyz
x,y,z
-x,-y,-z
loop_
_atom_site_type_symbol
_atom_site_label
_atom_site_fract_x
_atom_site_fract_y
_atom_site_fract_z
Si Si1 0.854843 0.613929 0.074125
Si Si2 0.552959 0.510637 0.592938
Si Si3 0.383786 0.160067 0.008165
Si Si4 0.368618 0.974110 0.286921
Si Si5 0.584975 0.243007 0.318227
Si Si6 0.892654 0.171584 0.639755
Si Si7 0.889414 0.470365 0.323034
Si Si8 0.091469 0.915066 0.725625
O O1 0.708181 0.354608 0.146958
O O2 0.875214 0.532253 0.185895
O O3 0.885184 0.875317 0.140758
O O4 0.937254 0.668416 0.851428
O O5 0.500000 0.500000 0.500000
O O6 0.630855 0.809429 0.641111
O O7 0.636013 0.503128 0.416657
O O8 0.436254 0.235175 0.784413
O O9 0.388766 0.000523 0.084345
O O10 0.241043 0.987841 0.164433
O O11 0.500000 0.500000 0.000000
O O12 0.488556 0.120198 0.271270
O O13 0.230982 0.672652 0.458602
O O14 0.500000 0.000000 0.500000
O O15 0.858696 0.985719 0.491533
O O16 0.000000 0.500000 0.500000
O O17 0.976553 0.242056 0.692564
O O18 0.884043 0.241362 0.272546
#
# Coordination Sequence:
#
# PCOD9091924 Si02
#       8
#     2   2   2   2   2   2   2   2
#     4  11  24  42  65  95 136 179 226 280 341 400
#     4   9  21  39  64  94 125 173 220 276 338 405
#     4  10  20  39  65 100 125 170 227 280 333 407
#     4  10  19  40  63  93 126 168 222 270 337 402
#     4  11  22  38  59  90 134 170 212 282 326 394
#     4  10  21  40  68  96 135 173 227 282 339 407
#     4  11  21  42  69  94 131 179 224 280 341 402
#     4  10  23  44  65  94 133 176 227 284 335 413
#
# _framework density 23.933712
#
# number of rings (size 3 to 8) (size 9 to 14) (size 15 to 20)
#    0.000    1.750    3.750    1.125    1.750    2.500 
#   18.000    1.875    0.000    0.000    0.000    0.000 
#    0.000    0.000    0.000    0.000    0.000    0.000 
#
# Total GULP energy -89190.082910 kJ/mol
# GULP energy per Si atom -5574.380182 kJ/mol
# Density = 2.387924 g / cm^3
# Si number density = 23.933712 Si / 1000 Ang^3
#
#
#
# Elastic Constant Matrix: (Units=GPa)
#
#
# Indices 1 2 3 4 5 6 
#
# 1 134.1137 19.6382 67.5782 -4.4092 -4.3944 30.6561
# 2 19.6382 65.8565 9.1100 11.5019 -3.5025 7.2047
# 3 67.5782 9.1100 168.1083 -14.7144 -12.9946 20.2194
# 4 -4.4092 11.5019 -14.7144 38.4884 15.9135 -8.5741
# 5 -4.3944 -3.5025 -12.9946 15.9135 43.8019 -5.4594
# 6 30.6561 7.2047 20.2194 -8.5741 -5.4594 41.5546
#
#
#
# Elastic Compliance Matrix: (Units=1/GPa)
#
#
# Indices 1 2 3 4 5 6 
#
# 1 0.010967 -0.002013 -0.003665 -0.000636 -0.000687 -0.006180
# 2 -0.002013 0.017623 -0.000228 -0.007642 0.003596 -0.002564
# 3 -0.003665 -0.000228 0.007755 0.002051 0.001112 -0.000461
# 4 -0.000636 -0.007642 0.002051 0.035444 -0.012132 0.006516
# 5 -0.000687 0.003596 0.001112 -0.012132 0.027848 0.000498
# 6 -0.006180 -0.002564 -0.000461 0.006516 0.000498 0.030702
#
#
# Mechanical properties :
#
#
# Convention : Reuss Voigt Hill
#
# Bulk Modulus (GPa) = 40.76230 62.30347 51.53289
# Shear Modulus (GPa) = 33.26014 42.88579 38.07296
#
# Velocity S-wave (km/s) = 3.73188 4.23763 3.99277
# Velocity P-wave (km/s) = 5.96972 7.07329 6.54481
#
# Compressibility (1/GPa) = 0.02453247
#
# Stress axis : x y z
#
# Youngs Moduli (GPa) = 91.18197 56.74452 128.94650
#
# Poissons Ratio (x) = 0.11421 0.47260
# Poissons Ratio (y) = 0.18353 0.02946
# Poissons Ratio (z) = 0.33419 0.01296
#
# Static dielectric constant tensor:
#      x y z
#    x 1.886670 0.112310 0.027680 
#    y 0.112310 1.865800 -0.087040 
#    z 0.027680 -0.087040 1.982120 
# 
# From -- ./inp_files/343647.got.cif
#   From: 2010.05.17/outbox.cif.g08.bks.cpg/sg2_172_cif.got.tgz:343647.got - 2010.06.03 11:33:40.
