data_PCOD9091000
_publ_section_title
;
Structure prediction by ZEFSAII (Michael W. Deem and Ramdas Pophale) SiO2 
 PCOD9091000
Probable space group: P -1
;
_chemical_formula_sum "Si O2"
_cell_formula_units_Z 16
_cell_length_a 19.070464
_cell_length_b 14.609567
_cell_length_c 6.602181
_cell_angle_alpha 118.081780
_cell_angle_beta 40.392173
_cell_angle_gamma 139.723433
_cell_volume 743.384658
_symmetry_space_group_name_H-M "P -1"
_symmetry_group_IT_number 2
_symmetry_cell_setting 'triclinic'
loop_
_space_group_symop_operation_xyz
x,y,z
-x,-y,-z
loop_
_atom_site_type_symbol
_atom_site_label
_atom_site_fract_x
_atom_site_fract_y
_atom_site_fract_z
Si Si1 0.348707 0.172156 0.591245
Si Si2 0.765452 0.385869 0.374576
Si Si3 0.162863 0.906681 0.416024
Si Si4 0.579745 0.855814 0.171985
Si Si5 0.559781 0.633706 0.760196
Si Si6 0.266873 0.410042 0.444687
Si Si7 0.012027 0.585901 0.374495
Si Si8 0.081126 0.133590 0.312686
O O1 0.428213 0.167032 0.595332
O O2 0.453840 0.318444 0.374081
O O3 0.264326 0.026056 0.494205
O O4 0.223095 0.168029 0.944307
O O5 0.588989 0.232812 0.632879
O O6 0.759481 0.487100 0.359067
O O7 0.852585 0.475831 0.484151
O O8 0.864436 0.371178 0.017135
O O9 0.074082 0.739341 0.471516
O O10 0.034056 0.903239 0.640270
O O11 0.283794 0.980150 0.038996
O O12 0.621811 0.769519 0.905328
O O13 0.675214 0.616372 0.517812
O O14 0.401493 0.494536 0.066838
O O15 0.126581 0.260765 0.487657
O O16 0.000000 0.500000 0.500000
O O17 0.000000 0.000000 0.500000
#
# Coordination Sequence:
#
# PCOD9091000 Si02
#       8
#     2   2   2   2   2   2   2   2
#     4  11  22  38  64  96 132 170 209 255 315 389
#     4  10  24  45  68  89 123 170 211 270 321 363
#     4  11  24  42  64  94 131 170 210 265 318 373
#     4  10  21  43  66  93 129 165 213 261 315 388
#     4   9  20  37  59  97 132 165 210 255 314 387
#     4  10  19  39  62  90 132 167 206 264 316 374
#     4  11  26  46  67  96 123 160 223 269 317 382
#     4  12  21  37  62  93 132 169 208 252 310 388
#
# _framework density 21.523178999999999
#
# number of rings (size 3 to 8) (size 9 to 14) (size 15 to 20)
#    0.000    1.500    3.750    1.125    0.000    8.000 
#    0.000    1.250    0.000    0.000    0.000    0.000 
#    0.000    0.000    0.000    0.000    0.000    0.000 
#
# Total GULP energy -89355.016297 kJ/mol
# GULP energy per Si atom -5584.688519 kJ/mol
# Density = 2.147419 g / cm^3
# Si number density = 21.523179 Si / 1000 Ang^3
#
#
#
# Elastic Constant Matrix: (Units=GPa)
#
#
# Indices 1 2 3 4 5 6 
#
# 1 100.2311 36.7677 12.7599 -12.0600 5.4562 5.6148
# 2 36.7677 83.2087 9.8152 -14.9917 10.1964 0.4171
# 3 12.7599 9.8152 33.9278 -10.0733 -0.3934 -1.9390
# 4 -12.0600 -14.9917 -10.0733 31.6312 -2.4439 1.5135
# 5 5.4562 10.1964 -0.3934 -2.4439 32.4277 -7.8922
# 6 5.6148 0.4171 -1.9390 1.5135 -7.8922 27.2375
#
#
#
# Elastic Compliance Matrix: (Units=1/GPa)
#
#
# Indices 1 2 3 4 5 6 
#
# 1 0.012542 -0.004709 -0.003071 0.001623 -0.001325 -0.003206
# 2 -0.004709 0.015636 -0.001387 0.004905 -0.003963 -0.000788
# 3 -0.003071 -0.001387 0.033943 0.009040 0.002874 0.003401
# 4 0.001623 0.004905 0.009040 0.037572 0.000726 -0.001643
# 5 -0.001325 -0.003963 0.002874 0.000726 0.034985 0.010635
# 6 -0.003206 -0.000788 0.003401 -0.001643 0.010635 0.040802
#
#
# Mechanical properties :
#
#
# Convention : Reuss Voigt Hill
#
# Bulk Modulus (GPa) = 22.83857 37.33925 30.08891
# Shear Modulus (GPa) = 23.99127 28.79428 26.39277
#
# Velocity S-wave (km/s) = 3.34229 3.66160 3.50558
# Velocity P-wave (km/s) = 5.05260 5.93822 5.51322
#
# Compressibility (1/GPa) = 0.04378558
#
# Stress axis : x y z
#
# Youngs Moduli (GPa) = 79.72976 63.95629 29.46156
#
# Poissons Ratio (x) = 0.30117 0.09049
# Poissons Ratio (y) = 0.37544 0.04086
# Poissons Ratio (z) = 0.24489 0.08871
#
# Static dielectric constant tensor:
#      x y z
#    x 1.799450 0.006520 0.024290 
#    y 0.006520 1.804370 -0.018210 
#    z 0.024290 -0.018210 1.837430 
# 
# From -- ./inp_files/98567.got.cif
#   From: 2010.05.17/outbox.cif.g08.bks.cpg/sg2_50_cif.got.tgz:98567.got - 2010.06.03 11:33:40.
