data_PCOD9091169
_publ_section_title
;
Structure prediction by ZEFSAII (Michael W. Deem and Ramdas Pophale) SiO2 
 PCOD9091169
Probable space group: P -1
;
_chemical_formula_sum "Si O2"
_cell_formula_units_Z 16
_cell_length_a 10.331425
_cell_length_b 14.148348
_cell_length_c 9.485411
_cell_angle_alpha 125.032668
_cell_angle_beta 73.799031
_cell_angle_gamma 63.050714
_cell_volume 682.163864
_symmetry_space_group_name_H-M "P -1"
_symmetry_group_IT_number 2
_symmetry_cell_setting 'triclinic'
loop_
_space_group_symop_operation_xyz
x,y,z
-x,-y,-z
loop_
_atom_site_type_symbol
_atom_site_label
_atom_site_fract_x
_atom_site_fract_y
_atom_site_fract_z
Si Si1 0.769776 0.705273 0.773896
Si Si2 0.855018 0.987450 0.420501
Si Si3 0.253580 0.835842 0.810050
Si Si4 0.646967 0.323853 0.623542
Si Si5 0.792326 0.404228 0.870841
Si Si6 0.364063 0.994628 0.743461
Si Si7 0.646371 0.145712 0.910832
Si Si8 0.208700 0.208126 0.458359
O O1 0.713237 0.782552 0.699312
O O2 0.000000 0.500000 0.500000
O O3 0.762644 0.817920 0.978498
O O4 0.602203 0.723770 0.896844
O O5 0.842013 0.108553 0.428788
O O6 0.725207 0.121327 0.710240
O O7 0.732372 0.975107 0.352056
O O8 0.067740 0.781945 0.238597
O O9 0.350120 0.671139 0.541033
O O10 0.341873 0.895843 0.764526
O O11 0.306938 0.801392 0.928914
O O12 0.000000 0.000000 0.000000
O O13 0.692361 0.409606 0.767674
O O14 0.417775 0.423117 0.826806
O O15 0.969312 0.378582 0.741069
O O16 0.609301 0.875190 0.558136
O O17 0.770146 0.940588 0.718094
#
# Coordination Sequence:
#
# PCOD9091169 Si02
#       8
#     2   2   2   2   2   2   2   2
#     4  11  22  35  61  90 126 158 199 256 307 360
#     4  10  22  39  65  88 125 163 201 254 311 360
#     4  11  20  37  65  91 115 164 205 247 306 364
#     4  10  23  40  63  92 124 160 211 250 301 374
#     4  10  22  40  64  88 125 164 202 255 310 359
#     4  10  21  41  60  90 123 154 210 250 298 376
#     4  10  20  38  61  87 119 159 203 247 305 362
#     4  10  19  39  64  84 118 165 198 252 306 360
#
# _framework density 23.454774
#
# number of rings (size 3 to 8) (size 9 to 14) (size 15 to 20)
#    0.000    1.750    2.500    2.625    1.750    6.500 
#    0.000    2.500    0.000    5.250    0.000    0.000 
#    0.000    0.000    0.000    0.000    0.000    0.000 
#
# Total GULP energy -89358.822146 kJ/mol
# GULP energy per Si atom -5584.926384 kJ/mol
# Density = 2.340139 g / cm^3
# Si number density = 23.454774 Si / 1000 Ang^3
#
#
#
# Elastic Constant Matrix: (Units=GPa)
#
#
# Indices 1 2 3 4 5 6 
#
# 1 88.4720 21.1387 38.2537 -14.1152 6.2070 -32.0957
# 2 21.1387 70.4316 30.9509 -17.2209 10.0370 -15.4045
# 3 38.2537 30.9509 125.9508 -12.5406 -9.6463 -28.9058
# 4 -14.1152 -17.2209 -12.5406 37.0771 -8.3105 8.1922
# 5 6.2070 10.0370 -9.6463 -8.3105 34.0359 -15.2665
# 6 -32.0957 -15.4045 -28.9058 8.1922 -15.2665 38.4849
#
#
#
# Elastic Compliance Matrix: (Units=1/GPa)
#
#
# Indices 1 2 3 4 5 6 
#
# 1 0.017482 -0.001441 -0.001065 0.003429 0.004096 0.014098
# 2 -0.001441 0.018417 -0.003864 0.005580 -0.004827 0.000165
# 3 -0.001065 -0.003864 0.012644 0.002002 0.010197 0.010681
# 4 0.003429 0.005580 0.002002 0.032637 0.007430 0.002597
# 5 0.004096 -0.004827 0.010197 0.007430 0.046411 0.025971
# 6 0.014098 0.000165 0.010681 0.002597 0.025971 0.055580
#
#
# Mechanical properties :
#
#
# Convention : Reuss Voigt Hill
#
# Bulk Modulus (GPa) = 27.93054 51.72676 39.82865
# Shear Modulus (GPa) = 24.05639 34.88697 29.47168
#
# Velocity S-wave (km/s) = 3.20605 3.86089 3.54861
# Velocity P-wave (km/s) = 5.06351 6.47896 5.81447
#
# Compressibility (1/GPa) = 0.03580310
#
# Stress axis : x y z
#
# Youngs Moduli (GPa) = 57.20238 54.29719 79.08702
#
# Poissons Ratio (x) = 0.07822 0.08423
# Poissons Ratio (y) = 0.08241 0.30562
# Poissons Ratio (z) = 0.06092 0.20983
#
# Static dielectric constant tensor:
#      x y z
#    x 1.892360 0.084090 -0.017780 
#    y 0.084090 1.268130 0.042880 
#    z -0.017780 0.042880 1.899720 
# 
# From -- ./inp_files/208209.got.cif
#   From: 2010.05.17/outbox.cif.g08.bks.cpg/sg2_105_cif.got.tgz:208209.got - 2010.06.03 11:33:40.
