data_PCOD9091753
_publ_section_title
;
Structure prediction by ZEFSAII (Michael W. Deem and Ramdas Pophale) SiO2 
 PCOD9091753
Probable space group: P -1
;
_chemical_formula_sum "Si O2"
_cell_formula_units_Z 14
_cell_length_a 5.054964
_cell_length_b 15.856673
_cell_length_c 12.628991
_cell_angle_alpha 31.130122
_cell_angle_beta 96.132410
_cell_angle_gamma 104.119566
_cell_volume 496.907293
_symmetry_space_group_name_H-M "P -1"
_symmetry_group_IT_number 2
_symmetry_cell_setting 'triclinic'
loop_
_space_group_symop_operation_xyz
x,y,z
-x,-y,-z
loop_
_atom_site_type_symbol
_atom_site_label
_atom_site_fract_x
_atom_site_fract_y
_atom_site_fract_z
Si Si1 0.495456 0.249130 0.637495
Si Si2 0.939010 0.741314 0.226936
Si Si3 0.343331 0.582038 0.756852
Si Si4 0.784772 0.122981 0.479915
Si Si5 0.884158 0.323664 0.922787
Si Si6 0.761807 0.772439 0.788064
Si Si7 0.635714 0.953952 0.869695
O O1 0.302625 0.319845 0.630218
O O2 0.783166 0.264236 0.695306
O O3 0.513886 0.346138 0.423292
O O4 0.433840 0.048974 0.815348
O O5 0.851678 0.907661 0.005739
O O6 0.961530 0.654627 0.207788
O O7 0.373403 0.732957 0.679371
O O8 0.012996 0.501229 0.799157
O O9 0.413479 0.418048 0.982086
O O10 0.063320 0.203126 0.339088
O O11 0.654503 0.932450 0.635375
O O12 0.798898 0.083715 0.647632
O O13 0.564530 0.225034 0.991665
O O14 0.991992 0.199769 0.138853
#
# Coordination Sequence:
#
# PCOD9091753 Si02
#       7
#     2   2   2   2   2   2   2
#     4  11  26  40  71  98 141 189 239 279 364 405
#     4  12  23  43  66 102 139 190 233 295 339 427
#     4   9  22  44  60 106 136 184 231 297 338 436
#     4  10  19  39  74  94 136 187 230 285 367 411
#     4  10  23  40  64  95 145 176 231 293 348 406
#     4   9  20  40  68 100 135 180 234 293 349 420
#     4  11  22  40  66 102 137 183 236 297 340 432
#
# _framework density 28.174268999999999
#
# number of rings (size 3 to 8) (size 9 to 14) (size 15 to 20)
#    0.857    0.857    2.857    1.286    2.000    1.714 
#    5.143    0.000    0.000    1.714    0.000    0.000 
#    0.000    0.000    0.000    0.000    0.000    0.000 
#
# Total GULP energy -78310.771321 kJ/mol
# GULP energy per Si atom -5593.626523 kJ/mol
# Density = 2.811014 g / cm^3
# Si number density = 28.174269 Si / 1000 Ang^3
#
#
#
# Elastic Constant Matrix: (Units=GPa)
#
#
# Indices 1 2 3 4 5 6 
#
# 1 126.6510 41.7851 36.6029 6.2580 -8.2118 -7.2020
# 2 41.7851 119.7011 52.1203 2.9614 -19.4657 -19.8336
# 3 36.6029 52.1203 174.5302 13.2584 6.8537 -23.4587
# 4 6.2580 2.9614 13.2584 47.0734 -1.5542 -6.3550
# 5 -8.2118 -19.4657 6.8537 -1.5542 32.8860 11.1616
# 6 -7.2020 -19.8336 -23.4587 -6.3550 11.1616 41.1160
#
#
#
# Elastic Compliance Matrix: (Units=1/GPa)
#
#
# Indices 1 2 3 4 5 6 
#
# 1 0.009181 -0.002564 -0.001261 -0.000772 0.001277 -0.000814
# 2 -0.002564 0.011945 -0.003094 0.000936 0.006461 0.001938
# 3 -0.001261 -0.003094 0.007753 -0.001468 -0.005149 0.003881
# 4 -0.000772 0.000936 -0.001468 0.022088 0.000803 0.002675
# 5 0.001277 0.006461 -0.005149 0.000803 0.039085 -0.010083
# 6 -0.000814 0.001938 0.003881 0.002675 -0.010083 0.030479
#
#
# Mechanical properties :
#
#
# Convention : Reuss Voigt Hill
#
# Bulk Modulus (GPa) = 66.47906 75.76656 71.12281
# Shear Modulus (GPa) = 35.87278 43.57334 39.72306
#
# Velocity S-wave (km/s) = 3.57213 3.93691 3.75894
# Velocity P-wave (km/s) = 6.37655 6.90044 6.64366
#
# Compressibility (1/GPa) = 0.01504233
#
# Stress axis : x y z
#
# Youngs Moduli (GPa) = 108.92517 83.71715 128.97746
#
# Poissons Ratio (x) = 0.21464 0.16260
# Poissons Ratio (y) = 0.27927 0.39902
# Poissons Ratio (z) = 0.13732 0.25900
#
# Static dielectric constant tensor:
#      x y z
#    x 2.225700 0.084090 -0.038050 
#    y 0.084090 2.239740 -0.082800 
#    z -0.038050 -0.082800 2.200990 
# 
# From -- ./inp_files/485133.got.cif
#   From: 2010.05.17/outbox.cif.g08.bks.cpg/sg2_243_cif.got.tgz:485133.got - 2010.06.03 11:33:40.
