data_PCOD9091200
_publ_section_title
;
Structure prediction by ZEFSAII (Michael W. Deem and Ramdas Pophale) SiO2 
 PCOD9091200
Probable space group: P -1
;
_chemical_formula_sum "Si O2"
_cell_formula_units_Z 16
_cell_length_a 10.651928
_cell_length_b 15.128855
_cell_length_c 7.498304
_cell_angle_alpha 84.255934
_cell_angle_beta 46.265130
_cell_angle_gamma 56.573851
_cell_volume 644.904943
_symmetry_space_group_name_H-M "P -1"
_symmetry_group_IT_number 2
_symmetry_cell_setting 'triclinic'
loop_
_space_group_symop_operation_xyz
x,y,z
-x,-y,-z
loop_
_atom_site_type_symbol
_atom_site_label
_atom_site_fract_x
_atom_site_fract_y
_atom_site_fract_z
Si Si1 0.140120 0.447282 0.061169
Si Si2 0.503131 0.476673 0.789456
Si Si3 0.670619 0.014754 0.008341
Si Si4 0.865549 0.210201 0.363547
Si Si5 0.508341 0.211849 0.560168
Si Si6 0.721946 0.964138 0.546610
Si Si7 0.779259 0.172299 0.834043
Si Si8 0.349546 0.386791 0.387102
O O1 0.924261 0.501663 0.394530
O O2 0.282520 0.489733 0.952194
O O3 0.333338 0.303580 0.873311
O O4 0.000000 0.500000 0.000000
O O5 0.732514 0.343294 0.530234
O O6 0.536146 0.562776 0.651645
O O7 0.500000 0.500000 0.000000
O O8 0.859275 0.877983 0.919410
O O9 0.665239 0.011993 0.798450
O O10 0.761213 0.080882 0.949940
O O11 0.422161 0.076362 0.321809
O O12 0.725584 0.206519 0.351709
O O13 0.843403 0.151522 0.567586
O O14 0.614910 0.078744 0.508590
O O15 0.370980 0.291096 0.505195
O O16 0.999751 0.856830 0.283803
O O17 0.526342 0.303896 0.070808
#
# Coordination Sequence:
#
# PCOD9091200 Si02
#       8
#     2   2   2   2   2   2   2   2
#     4   9  23  43  63  93 131 171 212 261 312 392
#     4  11  23  42  65  98 129 165 219 266 319 381
#     4  10  20  36  63  90 116 164 210 261 314 372
#     4  10  19  39  64  88 123 162 213 264 310 379
#     4  10  20  41  62  87 124 165 208 257 313 388
#     4  10  20  36  60  91 116 159 213 255 311 376
#     4  11  20  40  60  89 130 153 209 271 317 368
#     4  11  25  41  62  92 132 170 200 268 332 372
#
# _framework density 24.809857999999998
#
# number of rings (size 3 to 8) (size 9 to 14) (size 15 to 20)
#    0.000    1.750    3.750    0.750    1.750    6.500 
#    4.500    0.625    0.000    0.000    0.000    0.000 
#    0.000    0.000    0.000    0.000    0.000    0.000 
#
# Total GULP energy -89348.027810 kJ/mol
# GULP energy per Si atom -5584.251738 kJ/mol
# Density = 2.475339 g / cm^3
# Si number density = 24.809858 Si / 1000 Ang^3
#
#
#
# Elastic Constant Matrix: (Units=GPa)
#
#
# Indices 1 2 3 4 5 6 
#
# 1 84.8312 10.3071 29.9194 0.5268 -18.8683 4.9041
# 2 10.3071 69.4803 9.6165 -4.5676 -4.8653 2.4877
# 3 29.9194 9.6165 115.6342 9.5221 -27.9409 7.5501
# 4 0.5268 -4.5676 9.5221 24.0242 3.0586 -0.3300
# 5 -18.8683 -4.8653 -27.9409 3.0586 35.0722 -2.5592
# 6 4.9041 2.4877 7.5501 -0.3300 -2.5592 29.0856
#
#
#
# Elastic Compliance Matrix: (Units=1/GPa)
#
#
# Indices 1 2 3 4 5 6 
#
# 1 0.014007 -0.001391 -0.002009 -0.000518 0.005698 -0.001226
# 2 -0.001391 0.014999 -0.001078 0.003283 0.000135 -0.000719
# 3 -0.002009 -0.001078 0.011988 -0.006048 0.008702 -0.001984
# 4 -0.000518 0.003283 -0.006048 0.045761 -0.008548 0.001143
# 5 0.005698 0.000135 0.008702 -0.008548 0.039284 0.000128
# 6 -0.001226 -0.000719 -0.001984 0.001143 0.000128 0.035189
#
#
# Mechanical properties :
#
#
# Convention : Reuss Voigt Hill
#
# Bulk Modulus (GPa) = 31.21374 41.07022 36.14198
# Shear Modulus (GPa) = 27.64507 32.30992 29.97749
#
# Velocity S-wave (km/s) = 3.34170 3.61266 3.47982
# Velocity P-wave (km/s) = 5.24383 5.83024 5.54479
#
# Compressibility (1/GPa) = 0.03203718
#
# Stress axis : x y z
#
# Youngs Moduli (GPa) = 71.39240 66.67055 83.41809
#
# Poissons Ratio (x) = 0.09274 0.16760
# Poissons Ratio (y) = 0.09931 0.08995
# Poissons Ratio (z) = 0.14344 0.07189
#
# Static dielectric constant tensor:
#      x y z
#    x 2.032540 -0.030810 0.049150 
#    y -0.030810 1.971780 -0.007920 
#    z 0.049150 -0.007920 2.071230 
# 
# From -- ./inp_files/270103.got.cif
#   From: 2010.05.17/outbox.cif.g08.bks.cpg/sg2_136_cif.got.tgz:270103.got - 2010.06.03 11:33:40.
