data_PCOD9091745
_publ_section_title
;
Structure prediction by ZEFSAII (Michael W. Deem and Ramdas Pophale) SiO2 
 PCOD9091745
Probable space group: P -1
;
_chemical_formula_sum "Si O2"
_cell_formula_units_Z 14
_cell_length_a 8.093181
_cell_length_b 11.484865
_cell_length_c 11.424815
_cell_angle_alpha 116.679782
_cell_angle_beta 46.856388
_cell_angle_gamma 125.371088
_cell_volume 629.281924
_symmetry_space_group_name_H-M "P -1"
_symmetry_group_IT_number 2
_symmetry_cell_setting 'triclinic'
loop_
_space_group_symop_operation_xyz
x,y,z
-x,-y,-z
loop_
_atom_site_type_symbol
_atom_site_label
_atom_site_fract_x
_atom_site_fract_y
_atom_site_fract_z
Si Si1 0.000277 0.291408 0.995417
Si Si2 0.873441 0.347403 0.560185
Si Si3 0.495908 0.166116 0.051882
Si Si4 0.754089 0.032075 0.125968
Si Si5 0.333578 0.575765 0.067754
Si Si6 0.642404 0.858969 0.320438
Si Si7 0.035701 0.090790 0.403828
O O1 0.211285 0.236379 0.834855
O O2 0.786156 0.235375 0.976220
O O3 0.120212 0.458042 0.039652
O O4 0.861019 0.202077 0.138320
O O5 0.778888 0.375767 0.745336
O O6 0.629777 0.249675 0.558120
O O7 0.010292 0.242703 0.476756
O O8 0.000000 0.500000 0.500000
O O9 0.306143 0.127346 0.233417
O O10 0.397544 0.034745 0.949177
O O11 0.481220 0.292242 0.037972
O O12 0.599777 0.948609 0.273506
O O13 0.000000 0.000000 0.000000
O O14 0.500000 0.500000 0.000000
O O15 0.826430 0.977793 0.370497
O O16 0.000000 0.000000 0.500000
#
# Coordination Sequence:
#
# PCOD9091745 Si02
#       7
#     2   2   2   2   2   2   2
#     4  11  24  39  75 110 141 181 253 313 362 414
#     4  12  28  48  75 109 150 199 244 300 375 449
#     4  12  24  44  73 108 144 189 246 306 366 428
#     4  10  19  39  73 104 127 183 251 302 336 421
#     4  12  24  46  74 103 145 192 256 302 358 440
#     4  11  24  46  74 104 143 193 258 297 360 438
#     4  12  30  48  72 110 158 195 237 305 381 444
#
# _framework density 22.247581
#
# number of rings (size 3 to 8) (size 9 to 14) (size 15 to 20)
#    0.000    0.571    5.714    3.000    6.000    1.143 
#    0.000    1.429    0.000    0.000    0.000    0.000 
#    0.000    0.000    0.000    0.000    0.000    0.000 
#
# Total GULP energy -78219.715777 kJ/mol
# GULP energy per Si atom -5587.122556 kJ/mol
# Density = 2.219694 g / cm^3
# Si number density = 22.247581 Si / 1000 Ang^3
#
#
#
# Elastic Constant Matrix: (Units=GPa)
#
#
# Indices 1 2 3 4 5 6 
#
# 1 81.1170 19.4505 33.9592 6.6285 -13.5288 1.7995
# 2 19.4505 159.4197 47.5277 -8.7547 -5.1046 -12.2306
# 3 33.9592 47.5277 94.8566 -2.1913 -1.6759 -13.0332
# 4 6.6285 -8.7547 -2.1913 45.6667 -2.7907 6.7863
# 5 -13.5288 -5.1046 -1.6759 -2.7907 33.4342 0.5848
# 6 1.7995 -12.2306 -13.0332 6.7863 0.5848 49.5269
#
#
#
# Elastic Compliance Matrix: (Units=1/GPa)
#
#
# Indices 1 2 3 4 5 6 
#
# 1 0.016042 -0.000295 -0.005807 -0.002001 0.006023 -0.001981
# 2 -0.000295 0.007512 -0.003508 0.001260 0.000944 0.000759
# 3 -0.005807 -0.003508 0.014790 0.000268 -0.002178 0.003226
# 4 -0.002001 0.001260 0.000268 0.022927 0.001357 -0.002703
# 5 0.006023 0.000944 -0.002178 0.001357 0.032514 -0.001129
# 6 -0.001981 0.000759 0.003226 -0.002703 -0.001129 0.021683
#
#
# Mechanical properties :
#
#
# Convention : Reuss Voigt Hill
#
# Bulk Modulus (GPa) = 52.29330 59.69647 55.99488
# Shear Modulus (GPa) = 35.44487 41.35594 38.40041
#
# Velocity S-wave (km/s) = 3.99582 4.31617 4.15908
# Velocity P-wave (km/s) = 6.69664 7.19237 6.94892
#
# Compressibility (1/GPa) = 0.01912291
#
# Stress axis : x y z
#
# Youngs Moduli (GPa) = 62.33754 133.11514 67.61314
#
# Poissons Ratio (x) = 0.03926 0.39264
# Poissons Ratio (y) = 0.01839 0.23721
# Poissons Ratio (z) = 0.36201 0.46702
#
# Static dielectric constant tensor:
#      x y z
#    x 1.889830 -0.054130 0.022010 
#    y -0.054130 1.896540 -0.009120 
#    z 0.022010 -0.009120 1.850880 
# 
# From -- ./inp_files/392803.got.cif
#   From: 2010.05.17/outbox.cif.g08.bks.cpg/sg2_197_cif.got.tgz:392803.got - 2010.06.03 11:33:40.
