data_PCOD9091862
_publ_section_title
;
Structure prediction by ZEFSAII (Michael W. Deem and Ramdas Pophale) SiO2 
 PCOD9091862
Probable space group: P -1
;
_chemical_formula_sum "Si O2"
_cell_formula_units_Z 12
_cell_length_a 11.874511
_cell_length_b 5.510655
_cell_length_c 12.541978
_cell_angle_alpha 81.009312
_cell_angle_beta 73.350999
_cell_angle_gamma 40.772781
_cell_volume 511.076718
_symmetry_space_group_name_H-M "P -1"
_symmetry_group_IT_number 2
_symmetry_cell_setting 'triclinic'
loop_
_space_group_symop_operation_xyz
x,y,z
-x,-y,-z
loop_
_atom_site_type_symbol
_atom_site_label
_atom_site_fract_x
_atom_site_fract_y
_atom_site_fract_z
Si Si1 0.981370 0.487735 0.380290
Si Si2 0.657097 0.556156 0.969920
Si Si3 0.882627 0.463325 0.077805
Si Si4 0.369653 0.719413 0.619529
Si Si5 0.460817 0.701244 0.827789
Si Si6 0.983852 0.015844 0.284834
O O1 0.046190 0.121027 0.346885
O O2 0.000000 0.500000 0.500000
O O3 0.770606 0.835820 0.385709
O O4 0.061242 0.613757 0.296786
O O5 0.637656 0.518872 0.852919
O O6 0.825358 0.406942 0.992634
O O7 0.609560 0.399606 0.067286
O O8 0.500000 0.000000 0.000000
O O9 0.983215 0.157101 0.163239
O O10 0.698547 0.850230 0.153867
O O11 0.000000 0.500000 0.000000
O O12 0.500000 0.500000 0.500000
O O13 0.471964 0.584981 0.713089
O O14 0.227324 0.720320 0.658410
#
# Coordination Sequence:
#
# PCOD9091862 Si02
#       6
#     2   2   2   2   2   2
#     4  10  21  41  66  88 132 172 215 278 333 384
#     4   9  19  36  63  87 125 165 209 277 330 382
#     4  11  21  38  64  94 130 171 216 264 345 405
#     4  10  22  39  68  92 126 174 226 267 334 393
#     4  10  19  40  62  89 129 164 215 278 328 387
#     4  10  21  41  64  92 130 169 218 280 327 401
#
# _framework density 23.479838999999998
#
# number of rings (size 3 to 8) (size 9 to 14) (size 15 to 20)
#    1.000    1.000    3.333    0.500    0.000    1.333 
#    0.000    6.667    0.000    0.000    0.000    0.000 
#    0.000    0.000    0.000    0.000    0.000    0.000 
#
# Total GULP energy -66973.238949 kJ/mol
# GULP energy per Si atom -5581.103246 kJ/mol
# Density = 2.342640 g / cm^3
# Si number density = 23.479839 Si / 1000 Ang^3
#
#
#
# Elastic Constant Matrix: (Units=GPa)
#
#
# Indices 1 2 3 4 5 6 
#
# 1 158.9006 6.7208 60.2288 -6.2524 35.1938 7.9024
# 2 6.7208 61.8873 3.3284 -3.5652 10.1115 9.6351
# 3 60.2288 3.3284 139.0019 -5.0750 33.5189 5.0103
# 4 -6.2524 -3.5652 -5.0750 37.9568 0.3152 8.5280
# 5 35.1938 10.1115 33.5189 0.3152 53.0706 -2.9065
# 6 7.9024 9.6351 5.0103 8.5280 -2.9065 36.2303
#
#
#
# Elastic Compliance Matrix: (Units=1/GPa)
#
#
# Indices 1 2 3 4 5 6 
#
# 1 0.008311 0.000358 -0.002466 0.001620 -0.004157 -0.002282
# 2 0.000358 0.017956 0.000852 0.003269 -0.004550 -0.006106
# 3 -0.002466 0.000852 0.009463 0.001356 -0.004604 -0.001686
# 4 0.001620 0.003269 0.001356 0.029037 -0.003192 -0.008501
# 5 -0.004157 -0.004550 -0.004604 -0.003192 0.025698 0.005566
# 6 -0.002282 -0.006106 -0.001686 -0.008501 0.005566 0.032403
#
#
# Mechanical properties :
#
#
# Convention : Reuss Voigt Hill
#
# Bulk Modulus (GPa) = 30.10551 55.59395 42.84973
# Shear Modulus (GPa) = 36.64276 44.75233 40.69755
#
# Velocity S-wave (km/s) = 3.95474 4.37050 4.16781
# Velocity P-wave (km/s) = 5.80542 7.01406 6.43817
#
# Compressibility (1/GPa) = 0.03321651
#
# Stress axis : x y z
#
# Youngs Moduli (GPa) = 120.32917 55.69148 105.67876
#
# Poissons Ratio (x) = -0.01992 0.26058
# Poissons Ratio (y) = -0.04305 -0.09000
# Poissons Ratio (z) = 0.29671 -0.04743
#
# Static dielectric constant tensor:
#      x y z
#    x 1.928550 0.028770 -0.004810 
#    y 0.028770 1.957570 0.042730 
#    z -0.004810 0.042730 1.880650 
# 
# From -- ./inp_files/361994.got.cif
#   From: 2010.05.17/outbox.cif.g08.bks.cpg/sg2_181_cif.got.tgz:361994.got - 2010.06.03 11:33:40.
