data_PCOD9091161
_publ_section_title
;
Structure prediction by ZEFSAII (Michael W. Deem and Ramdas Pophale) SiO2 
 PCOD9091161
Probable space group: P -1
;
_chemical_formula_sum "Si O2"
_cell_formula_units_Z 14
_cell_length_a 14.864320
_cell_length_b 7.513504
_cell_length_c 8.122005
_cell_angle_alpha 66.330905
_cell_angle_beta 125.269390
_cell_angle_gamma 128.339127
_cell_volume 579.557079
_symmetry_space_group_name_H-M "P -1"
_symmetry_group_IT_number 2
_symmetry_cell_setting 'triclinic'
loop_
_space_group_symop_operation_xyz
x,y,z
-x,-y,-z
loop_
_atom_site_type_symbol
_atom_site_label
_atom_site_fract_x
_atom_site_fract_y
_atom_site_fract_z
Si Si1 0.453649 0.280611 0.910993
Si Si2 0.267494 0.427098 0.023101
Si Si3 0.238985 0.979078 0.015260
Si Si4 0.645457 0.178056 0.539217
Si Si5 0.641915 0.594816 0.533556
Si Si6 0.025847 0.792961 0.599130
Si Si7 0.820866 0.345987 0.388212
O O1 0.368179 0.059283 0.012863
O O2 0.356420 0.256337 0.672202
O O3 0.500000 0.500000 0.000000
O O4 0.587856 0.358154 0.934845
O O5 0.242381 0.212705 0.967488
O O6 0.181245 0.520986 0.826374
O O7 0.262213 0.340662 0.235085
O O8 0.109791 0.819463 0.838652
O O9 0.261005 0.879328 0.240481
O O10 0.656483 0.406105 0.526509
O O11 0.681862 0.192041 0.381639
O O12 0.500000 0.000000 0.500000
O O13 0.500000 0.500000 0.500000
O O14 0.898952 0.545874 0.530860
O O15 0.110275 0.790917 0.534505
O O16 0.000000 0.000000 0.500000
#
# Coordination Sequence:
#
# PCOD9091161 Si02
#       7
#     2   2   2   2   2   2   2
#     4   9  18  35  62  93 134 181 220 278 356 405
#     4  10  19  39  63  99 136 179 224 287 355 414
#     4  11  22  39  67  97 136 180 232 286 341 420
#     4  12  24  42  66 107 143 176 228 285 356 432
#     4  10  21  36  60  95 141 181 219 274 346 420
#     4  11  25  48  73  99 131 188 250 287 342 406
#     4  11  25  46  74  98 141 184 230 298 348 405
#
# _framework density 24.156376999999999
#
# number of rings (size 3 to 8) (size 9 to 14) (size 15 to 20)
#    0.000    1.429    1.429    6.000    0.000    4.000 
#    0.000    5.714    0.000    0.000    0.000    0.000 
#    0.000    0.000    0.000    0.000    0.000    0.000 
#
# Total GULP energy -78197.981573 kJ/mol
# GULP energy per Si atom -5585.570112 kJ/mol
# Density = 2.410140 g / cm^3
# Si number density = 24.156377 Si / 1000 Ang^3
#
#
#
# Elastic Constant Matrix: (Units=GPa)
#
#
# Indices 1 2 3 4 5 6 
#
# 1 93.4542 34.9478 14.2173 -12.8287 4.3725 -26.8611
# 2 34.9478 85.8174 33.8325 3.5101 14.0089 -21.1196
# 3 14.2173 33.8325 151.1548 7.6998 -9.1835 -3.1048
# 4 -12.8287 3.5101 7.6998 32.7823 -2.8189 9.8324
# 5 4.3725 14.0089 -9.1835 -2.8189 38.8899 -7.5003
# 6 -26.8611 -21.1196 -3.1048 9.8324 -7.5003 35.7247
#
#
#
# Elastic Compliance Matrix: (Units=1/GPa)
#
#
# Indices 1 2 3 4 5 6 
#
# 1 0.015250 -0.004575 -0.000366 0.004321 0.001682 0.007894
# 2 -0.004575 0.017792 -0.003476 -0.005497 -0.005748 0.007083
# 3 -0.000366 -0.003476 0.007643 -0.001090 0.002872 -0.000763
# 4 0.004321 -0.005497 -0.001090 0.036094 0.002000 -0.009610
# 5 0.001682 -0.005748 0.002872 0.002000 0.029128 0.003681
# 6 0.007894 0.007083 -0.000763 -0.009610 0.003681 0.041466
#
#
# Mechanical properties :
#
#
# Convention : Reuss Voigt Hill
#
# Bulk Modulus (GPa) = 41.92574 55.15797 48.54186
# Shear Modulus (GPa) = 29.04319 37.97464 33.50892
#
# Velocity S-wave (km/s) = 3.47118 3.96919 3.72851
# Velocity P-wave (km/s) = 5.78438 6.62489 6.21886
#
# Compressibility (1/GPa) = 0.02385170
#
# Stress axis : x y z
#
# Youngs Moduli (GPa) = 65.57248 56.20453 130.84720
#
# Poissons Ratio (x) = 0.25712 0.04792
# Poissons Ratio (y) = 0.29997 0.45480
# Poissons Ratio (z) = 0.02401 0.19535
#
# Static dielectric constant tensor:
#      x y z
#    x 1.985880 0.019120 0.003660 
#    y 0.019120 1.918910 0.016720 
#    z 0.003660 0.016720 1.940060 
# 
# From -- ./inp_files/222789.got.cif
#   From: 2010.05.17/outbox.cif.g08.bks.cpg/sg2_112_cif.got.tgz:222789.got - 2010.06.03 11:33:40.
