data_PCOD9091952
_publ_section_title
;
Structure prediction by ZEFSAII (Michael W. Deem and Ramdas Pophale) SiO2 
 PCOD9091952
Probable space group: P -1
;
_chemical_formula_sum "Si O2"
_cell_formula_units_Z 16
_cell_length_a 7.357710
_cell_length_b 7.785748
_cell_length_c 11.840615
_cell_angle_alpha 99.076245
_cell_angle_beta 100.710101
_cell_angle_gamma 112.696489
_cell_volume 594.842354
_symmetry_space_group_name_H-M "P -1"
_symmetry_group_IT_number 2
_symmetry_cell_setting 'triclinic'
loop_
_space_group_symop_operation_xyz
x,y,z
-x,-y,-z
loop_
_atom_site_type_symbol
_atom_site_label
_atom_site_fract_x
_atom_site_fract_y
_atom_site_fract_z
Si Si1 0.923718 0.041470 0.874002
Si Si2 0.485613 0.308364 0.035425
Si Si3 0.515944 0.933123 0.196437
Si Si4 0.233032 0.260891 0.367202
Si Si5 0.931865 0.538902 0.115804
Si Si6 0.410611 0.676394 0.717171
Si Si7 0.293327 0.669946 0.339108
Si Si8 0.967587 0.668113 0.445874
O O1 0.708345 0.066519 0.855842
O O2 0.078142 0.256207 0.873766
O O3 0.906440 0.889480 0.759003
O O4 0.000000 0.000000 0.000000
O O5 0.721342 0.359404 0.094722
O O6 0.426527 0.305910 0.160047
O O7 0.500000 0.500000 0.000000
O O8 0.419598 0.143778 0.916733
O O9 0.474090 0.803895 0.290926
O O10 0.661060 0.153652 0.261288
O O11 0.451112 0.254697 0.373421
O O12 0.311108 0.490880 0.380709
O O13 0.110067 0.217779 0.465170
O O14 0.105692 0.555370 0.221807
O O15 0.000000 0.500000 0.000000
O O16 0.230247 0.463578 0.666871
O O17 0.181860 0.772569 0.414419
O O18 0.000000 0.500000 0.500000
#
# Coordination Sequence:
#
# PCOD9091952 Si02
#       8
#     2   2   2   2   2   2   2   2
#     4  10  21  34  62  93 120 159 206 248 310 363
#     4  12  24  38  61  93 128 166 205 246 318 378
#     4  10  23  39  60  91 129 163 199 258 311 374
#     4  10  22  39  64  89 122 163 207 251 309 373
#     4  11  20  37  61  85 126 162 200 255 307 365
#     4  11  23  41  62  90 128 162 205 258 311 367
#     4  10  19  40  64  87 120 164 206 252 308 355
#     4  10  22  41  66  88 115 165 214 257 304 365
#
# _framework density 26.897883
#
# number of rings (size 3 to 8) (size 9 to 14) (size 15 to 20)
#    0.000    1.500    3.750    2.250    3.500    0.000 
#    4.500    8.125    0.000    0.000    0.000    0.000 
#    0.000    0.000    0.000    0.000    0.000    0.000 
#
# Total GULP energy -89358.831282 kJ/mol
# GULP energy per Si atom -5584.926955 kJ/mol
# Density = 2.683666 g / cm^3
# Si number density = 26.897883 Si / 1000 Ang^3
#
#
#
# Elastic Constant Matrix: (Units=GPa)
#
#
# Indices 1 2 3 4 5 6 
#
# 1 59.6799 8.4660 26.8185 8.2998 -20.6243 -6.2246
# 2 8.4660 95.1907 33.9312 14.1706 -10.7554 2.0770
# 3 26.8185 33.9312 162.6519 34.3712 -30.9689 -6.2765
# 4 8.2998 14.1706 34.3712 41.7284 -4.2106 -6.2806
# 5 -20.6243 -10.7554 -30.9689 -4.2106 40.0227 -3.6480
# 6 -6.2246 2.0770 -6.2765 -6.2806 -3.6480 31.2935
#
#
#
# Elastic Compliance Matrix: (Units=1/GPa)
#
#
# Indices 1 2 3 4 5 6 
#
# 1 0.021648 -0.000254 -0.000959 -0.001596 0.010638 0.005050
# 2 -0.000254 0.011693 -0.001642 -0.002666 0.001320 -0.001537
# 3 -0.000959 -0.001642 0.008996 -0.005929 0.005509 0.001175
# 4 -0.001596 -0.002666 -0.005929 0.030495 -0.002508 0.004498
# 5 0.010638 0.001320 0.005509 -0.002508 0.035437 0.006761
# 6 0.005050 -0.001537 0.001175 0.004498 0.006761 0.034989
#
#
# Mechanical properties :
#
#
# Convention : Reuss Voigt Hill
#
# Bulk Modulus (GPa) = 27.30255 50.66155 38.98205
# Shear Modulus (GPa) = 31.02209 39.16272 35.09240
#
# Velocity S-wave (km/s) = 3.39975 3.81987 3.61592
# Velocity P-wave (km/s) = 5.05802 6.19119 5.65307
#
# Compressibility (1/GPa) = 0.03662661
#
# Stress axis : x y z
#
# Youngs Moduli (GPa) = 46.19390 85.52369 111.16345
#
# Poissons Ratio (x) = 0.02174 0.10657
# Poissons Ratio (y) = 0.01174 0.18252
# Poissons Ratio (z) = 0.04429 0.14042
#
# Static dielectric constant tensor:
#      x y z
#    x 2.366500 0.169300 -0.195750 
#    y 0.169300 2.223020 -0.150660 
#    z -0.195750 -0.150660 2.362650 
# 
# From -- ./inp_files/283250.got.cif
#   From: 2010.05.17/outbox.cif.g08.bks.cpg/sg2_142_cif.got.tgz:283250.got - 2010.06.03 11:33:40.
