data_PCOD9091471
_publ_section_title
;
Structure prediction by ZEFSAII (Michael W. Deem and Ramdas Pophale) SiO2 
 PCOD9091471
Probable space group: P -1
;
_chemical_formula_sum "Si O2"
_cell_formula_units_Z 12
_cell_length_a 5.262025
_cell_length_b 7.667526
_cell_length_c 16.791596
_cell_angle_alpha 136.175912
_cell_angle_beta 68.454632
_cell_angle_gamma 111.562494
_cell_volume 430.775402
_symmetry_space_group_name_H-M "P -1"
_symmetry_group_IT_number 2
_symmetry_cell_setting 'triclinic'
loop_
_space_group_symop_operation_xyz
x,y,z
-x,-y,-z
loop_
_atom_site_type_symbol
_atom_site_label
_atom_site_fract_x
_atom_site_fract_y
_atom_site_fract_z
Si Si1 0.715038 0.324930 0.451407
Si Si2 0.258912 0.821583 0.048173
Si Si3 0.983443 0.256635 0.789833
Si Si4 0.720122 0.640552 0.851122
Si Si5 0.558785 0.100271 0.242766
Si Si6 0.478291 0.351650 0.647425
O O1 0.500000 0.500000 0.500000
O O2 0.752188 0.141582 0.312094
O O3 0.571176 0.216750 0.514199
O O4 0.000000 0.500000 0.500000
O O5 0.262839 0.982475 0.277467
O O6 0.184853 0.070515 0.093371
O O7 0.524270 0.915551 0.108650
O O8 0.400406 0.644958 0.914469
O O9 0.868014 0.515578 0.862878
O O10 0.226101 0.234025 0.693028
O O11 0.981485 0.263657 0.888894
O O12 0.725275 0.449409 0.713075
O O13 0.585581 0.376003 0.289541
#
# Coordination Sequence:
#
# PCOD9091471 Si02
#       6
#     2   2   2   2   2   2
#     4  10  22  43  72  95 137 182 224 288 344 408
#     4   8  19  40  63  97 135 171 228 271 333 410
#     4  10  21  40  64  96 135 173 222 280 336 403
#     4  10  19  39  66  92 135 178 216 278 339 398
#     4   8  20  42  60  95 134 167 229 276 334 404
#     4  10  22  39  65  97 130 174 229 275 337 407
#
# _framework density 27.856743000000002
#
# number of rings (size 3 to 8) (size 9 to 14) (size 15 to 20)
#    1.000    1.667    0.000    0.500    4.667    1.333 
#    9.000    8.333    0.000    0.000    0.000    0.000 
#    0.000    0.000    0.000    0.000    0.000    0.000 
#
# Total GULP energy -67042.801784 kJ/mol
# GULP energy per Si atom -5586.900149 kJ/mol
# Density = 2.779334 g / cm^3
# Si number density = 27.856743 Si / 1000 Ang^3
#
#
#
# Elastic Constant Matrix: (Units=GPa)
#
#
# Indices 1 2 3 4 5 6 
#
# 1 90.1209 55.6081 27.0087 1.0266 -0.8866 4.0290
# 2 55.6081 220.9203 31.9377 -57.4972 -15.2281 0.6305
# 3 27.0087 31.9377 160.6314 -16.3003 -10.1129 -9.5308
# 4 1.0266 -57.4972 -16.3003 36.0822 -3.1291 7.1135
# 5 -0.8866 -15.2281 -10.1129 -3.1291 48.7444 8.6462
# 6 4.0290 0.6305 -9.5308 7.1135 8.6462 43.9392
#
#
#
# Elastic Compliance Matrix: (Units=1/GPa)
#
#
# Indices 1 2 3 4 5 6 
#
# 1 0.017141 -0.008200 -0.003011 -0.015507 -0.004084 0.001207
# 2 -0.008200 0.012643 0.001280 0.022282 0.006203 -0.003980
# 3 -0.003011 0.001280 0.007193 0.005454 0.002095 0.000523
# 4 -0.015507 0.022282 0.005454 0.069705 0.014383 -0.011830
# 5 -0.004084 0.006203 0.002095 0.014383 0.024887 -0.006486
# 6 0.001207 -0.003980 0.000523 -0.011830 -0.006486 0.026010
#
#
# Mechanical properties :
#
#
# Convention : Reuss Voigt Hill
#
# Bulk Modulus (GPa) = 58.42244 77.86463 68.14353
# Shear Modulus (GPa) = 27.30055 49.56103 38.43079
#
# Velocity S-wave (km/s) = 3.13395 4.22256 3.71831
# Velocity P-wave (km/s) = 5.84067 7.19624 6.55360
#
# Compressibility (1/GPa) = 0.01711671
#
# Stress axis : x y z
#
# Youngs Moduli (GPa) = 58.34036 79.09255 139.01448
#
# Poissons Ratio (x) = 0.64857 0.41854
# Poissons Ratio (y) = 0.47840 -0.17799
# Poissons Ratio (z) = 0.17565 -0.10127
#
# Static dielectric constant tensor:
#      x y z
#    x 2.283870 0.007910 -0.002860 
#    y 0.007910 2.178720 0.069230 
#    z -0.002860 0.069230 2.240060 
# 
# From -- ./inp_files/546328.got.cif
#   From: 2010.05.17/outbox.cif.g08.bks.cpg/sg2_274_cif.got.tgz:546328.got - 2010.06.03 11:33:40.
