data_PCOD9091793
_publ_section_title
;
Structure prediction by ZEFSAII (Michael W. Deem and Ramdas Pophale) SiO2 
 PCOD9091793
Probable space group: P -1
;
_chemical_formula_sum "Si O2"
_cell_formula_units_Z 16
_cell_length_a 9.113160
_cell_length_b 16.836916
_cell_length_c 14.319620
_cell_angle_alpha 156.528050
_cell_angle_beta 127.610108
_cell_angle_gamma 54.884559
_cell_volume 692.433172
_symmetry_space_group_name_H-M "P -1"
_symmetry_group_IT_number 2
_symmetry_cell_setting 'triclinic'
loop_
_space_group_symop_operation_xyz
x,y,z
-x,-y,-z
loop_
_atom_site_type_symbol
_atom_site_label
_atom_site_fract_x
_atom_site_fract_y
_atom_site_fract_z
Si Si1 0.118106 0.881843 0.555574
Si Si2 0.488566 0.696175 0.268556
Si Si3 0.958703 0.797711 0.969549
Si Si4 0.517883 0.310166 0.517218
Si Si5 0.827605 0.460739 0.462714
Si Si6 0.743643 0.008203 0.948208
Si Si7 0.256916 0.061630 0.611102
Si Si8 0.328035 0.938793 0.233737
O O1 0.103071 0.035001 0.800203
O O2 0.265167 0.697676 0.430268
O O3 0.913372 0.824718 0.382824
O O4 0.194668 0.005666 0.630656
O O5 0.501059 0.661618 0.347746
O O6 0.644688 0.856304 0.477927
O O7 0.303698 0.843183 0.346222
O O8 0.500000 0.500000 0.000000
O O9 0.180789 0.786481 0.044435
O O10 0.881245 0.878331 0.926502
O O11 0.875646 0.581986 0.705573
O O12 0.366426 0.457787 0.570060
O O13 0.454227 0.090490 0.220429
O O14 0.000000 0.500000 0.500000
O O15 0.790372 0.234046 0.227264
O O16 0.752192 0.986763 0.816778
O O17 0.460903 0.150126 0.789544
#
# Coordination Sequence:
#
# PCOD9091793 Si02
#       8
#     2   2   2   2   2   2   2   2
#     4  10  19  40  60  88 118 166 207 237 300 382
#     4   8  16  33  61  87 115 154 199 250 296 348
#     4  11  23  36  64  94 120 158 206 248 303 360
#     4   9  21  39  62  82 125 167 188 250 315 351
#     4  11  23  35  62  96 117 157 207 250 305 363
#     4  10  20  39  59  87 126 152 198 253 303 354
#     4   8  19  36  65  85 117 170 201 239 315 355
#     4   9  18  37  59  89 120 166 189 254 310 341
#
# _framework density 23.106925
#
# number of rings (size 3 to 8) (size 9 to 14) (size 15 to 20)
#    0.750    1.750    2.500    0.375    3.500    3.500 
#    0.000    2.500    0.000    2.250    0.000    0.000 
#    0.000    0.000    0.000    0.000    0.000    0.000 
#
# Total GULP energy -89147.150084 kJ/mol
# GULP energy per Si atom -5571.696880 kJ/mol
# Density = 2.305433 g / cm^3
# Si number density = 23.106925 Si / 1000 Ang^3
#
#
#
# Elastic Constant Matrix: (Units=GPa)
#
#
# Indices 1 2 3 4 5 6 
#
# 1 87.7139 50.1641 23.7872 -9.9170 -3.0470 -38.8807
# 2 50.1641 81.1270 34.1418 -18.8713 3.3528 -22.8550
# 3 23.7872 34.1418 114.1349 -7.8065 8.1597 -5.1985
# 4 -9.9170 -18.8713 -7.8065 34.7907 0.0789 3.0807
# 5 -3.0470 3.3528 8.1597 0.0789 23.7778 -2.3327
# 6 -38.8807 -22.8550 -5.1985 3.0807 -2.3327 32.0429
#
#
#
# Elastic Compliance Matrix: (Units=1/GPa)
#
#
# Indices 1 2 3 4 5 6 
#
# 1 0.033124 -0.010233 -0.003030 0.000257 0.009974 0.033104
# 2 -0.010233 0.023047 -0.003854 0.008517 -0.003036 0.002356
# 3 -0.003030 -0.003854 0.010594 -0.000127 -0.003969 -0.004984
# 4 0.000257 0.008517 -0.000127 0.033135 -0.000929 0.003113
# 5 0.009974 -0.003036 -0.003969 -0.000929 0.046379 0.012759
# 6 0.033104 0.002356 -0.004984 0.003113 0.012759 0.072877
#
#
# Mechanical properties :
#
#
# Convention : Reuss Voigt Hill
#
# Bulk Modulus (GPa) = 30.74155 55.46245 43.10200
# Shear Modulus (GPa) = 18.92259 29.78113 24.35186
#
# Velocity S-wave (km/s) = 2.86477 3.59394 3.24987
# Velocity P-wave (km/s) = 4.92702 6.42468 5.72503
#
# Compressibility (1/GPa) = 0.03252927
#
# Stress axis : x y z
#
# Youngs Moduli (GPa) = 30.18933 43.39036 94.39216
#
# Poissons Ratio (x) = 0.44403 0.28601
# Poissons Ratio (y) = 0.30894 0.36382
# Poissons Ratio (z) = 0.09148 0.16724
#
# Static dielectric constant tensor:
#      x y z
#    x 1.934410 0.005910 -0.002780 
#    y 0.005910 1.904960 -0.004120 
#    z -0.002780 -0.004120 1.889020 
# 
# From -- ./inp_files/523520.got.cif
#   From: 2010.05.17/outbox.cif.g08.bks.cpg/sg2_262_cif.got.tgz:523520.got - 2010.06.03 11:33:40.
