data_PCOD9091864
_publ_section_title
;
Structure prediction by ZEFSAII (Michael W. Deem and Ramdas Pophale) SiO2 
 PCOD9091864
Probable space group: P -1
;
_chemical_formula_sum "Si O2"
_cell_formula_units_Z 14
_cell_length_a 14.150615
_cell_length_b 10.312434
_cell_length_c 8.223915
_cell_angle_alpha 82.066538
_cell_angle_beta 124.514183
_cell_angle_gamma 54.251931
_cell_volume 572.041060
_symmetry_space_group_name_H-M "P -1"
_symmetry_group_IT_number 2
_symmetry_cell_setting 'triclinic'
loop_
_space_group_symop_operation_xyz
x,y,z
-x,-y,-z
loop_
_atom_site_type_symbol
_atom_site_label
_atom_site_fract_x
_atom_site_fract_y
_atom_site_fract_z
Si Si1 0.589284 0.017961 0.459584
Si Si2 0.226666 0.794086 0.686255
Si Si3 0.748575 0.717644 0.356168
Si Si4 0.933225 0.175685 0.784425
Si Si5 0.140770 0.123270 0.693003
Si Si6 0.013013 0.358305 0.927761
Si Si7 0.696225 0.549285 0.086919
O O1 0.500000 0.000000 0.500000
O O2 0.644448 0.881183 0.378989
O O3 0.783579 0.890289 0.761799
O O4 0.425837 0.273401 0.205632
O O5 0.273877 0.898759 0.757459
O O6 0.343999 0.568134 0.923864
O O7 0.000000 0.000000 0.500000
O O8 0.064122 0.667274 0.644079
O O9 0.661731 0.670906 0.192343
O O10 0.763144 0.823350 0.225537
O O11 0.954243 0.476188 0.675843
O O12 0.786622 0.240165 0.506188
O O13 0.088150 0.101161 0.818013
O O14 0.869622 0.364152 0.790043
O O15 0.000000 0.000000 0.000000
O O16 0.000000 0.500000 0.000000
#
# Coordination Sequence:
#
# PCOD9091864 Si02
#       7
#     2   2   2   2   2   2   2
#     4  11  25  38  57  93 135 157 196 262 324 351
#     4   8  18  37  60  89 115 159 206 242 299 358
#     4  11  21  40  65  91 118 164 217 248 295 375
#     4  10  20  36  60  91 123 153 202 256 302 350
#     4  10  21  38  68  93 115 161 217 254 291 368
#     4  10  22  39  62  98 121 160 207 258 305 365
#     4  10  19  40  62  90 123 165 199 254 307 370
#
# _framework density 24.473766000000001
#
# number of rings (size 3 to 8) (size 9 to 14) (size 15 to 20)
#    0.000    2.286    2.857    1.714    6.000    0.000 
#    7.714    0.714    0.000    7.714    0.000    0.000 
#    0.000    0.000    0.000    0.000    0.000    0.000 
#
# Total GULP energy -78018.753515 kJ/mol
# GULP energy per Si atom -5572.768108 kJ/mol
# Density = 2.441806 g / cm^3
# Si number density = 24.473766 Si / 1000 Ang^3
#
#
#
# Elastic Constant Matrix: (Units=GPa)
#
#
# Indices 1 2 3 4 5 6 
#
# 1 87.3404 48.4822 41.1027 -5.3301 -23.3204 19.6172
# 2 48.4822 140.3835 56.0627 -16.4854 -9.1529 33.7045
# 3 41.1027 56.0627 202.5957 -16.8300 -25.4138 17.5903
# 4 -5.3301 -16.4854 -16.8300 41.1783 15.9856 -4.9200
# 5 -23.3204 -9.1529 -25.4138 15.9856 44.7658 -5.0865
# 6 19.6172 33.7045 17.5903 -4.9200 -5.0865 44.4506
#
#
#
# Elastic Compliance Matrix: (Units=1/GPa)
#
#
# Indices 1 2 3 4 5 6 
#
# 1 0.017293 -0.004636 -0.001219 -0.003726 0.008348 -0.003091
# 2 -0.004636 0.010957 -0.001693 0.003620 -0.003058 -0.005541
# 3 -0.001219 -0.001693 0.006002 0.000765 0.002127 -0.000225
# 4 -0.003726 0.003620 0.000765 0.030078 -0.011437 0.000618
# 5 0.008348 -0.003058 0.002127 -0.011437 0.031367 0.000117
# 6 -0.003091 -0.005541 -0.000225 0.000618 0.000117 0.028233
#
#
# Mechanical properties :
#
#
# Convention : Reuss Voigt Hill
#
# Bulk Modulus (GPa) = 52.21063 80.17943 66.19503
# Shear Modulus (GPa) = 34.38526 45.05707 39.72117
#
# Velocity S-wave (km/s) = 3.75238 4.29538 4.03303
# Velocity P-wave (km/s) = 6.33667 7.57845 6.98521
#
# Compressibility (1/GPa) = 0.01915319
#
# Stress axis : x y z
#
# Youngs Moduli (GPa) = 57.82814 91.26831 166.61747
#
# Poissons Ratio (x) = 0.42315 0.20317
# Poissons Ratio (y) = 0.26811 0.28212
# Poissons Ratio (z) = 0.07051 0.15454
#
# Static dielectric constant tensor:
#      x y z
#    x 2.039340 -0.009650 0.019200 
#    y -0.009650 2.110730 0.014220 
#    z 0.019200 0.014220 1.910990 
# 
# From -- ./inp_files/306766.got.cif
#   From: 2010.05.17/outbox.cif.g08.bks.cpg/sg2_154_cif.got.tgz:306766.got - 2010.06.03 11:33:40.
