data_PCOD9091311
_publ_section_title
;
Structure prediction by ZEFSAII (Michael W. Deem and Ramdas Pophale) SiO2 
 PCOD9091311
Probable space group: P -1
;
_chemical_formula_sum "Si O2"
_cell_formula_units_Z 14
_cell_length_a 16.112146
_cell_length_b 9.292317
_cell_length_c 22.152130
_cell_angle_alpha 28.102778
_cell_angle_beta 152.841937
_cell_angle_gamma 143.902401
_cell_volume 708.956768
_symmetry_space_group_name_H-M "P -1"
_symmetry_group_IT_number 2
_symmetry_cell_setting 'triclinic'
loop_
_space_group_symop_operation_xyz
x,y,z
-x,-y,-z
loop_
_atom_site_type_symbol
_atom_site_label
_atom_site_fract_x
_atom_site_fract_y
_atom_site_fract_z
Si Si1 0.444141 0.242592 0.507789
Si Si2 0.131952 0.170203 0.933769
Si Si3 0.233647 0.190804 0.129988
Si Si4 0.212744 0.623752 0.599036
Si Si5 0.677245 0.377562 0.193344
Si Si6 0.503748 0.271560 0.854306
Si Si7 0.543979 0.195914 0.769994
O O1 0.500000 0.500000 0.500000
O O2 0.438462 0.449379 0.368107
O O3 0.608045 0.031556 0.690095
O O4 0.265194 0.994717 0.490974
O O5 0.156607 0.466310 0.796961
O O6 0.180440 0.260822 0.000747
O O7 0.934522 0.984519 0.878460
O O8 0.276094 0.944880 0.086018
O O9 0.316200 0.496959 0.102589
O O10 0.288258 0.536399 0.746500
O O11 0.331181 0.459806 0.687059
O O12 0.000000 0.500000 0.500000
O O13 0.627562 0.011318 0.294547
O O14 0.500000 0.500000 0.000000
O O15 0.513067 0.154419 0.836058
O O16 0.500000 0.000000 0.000000
#
# Coordination Sequence:
#
# PCOD9091311 Si02
#       7
#     2   2   2   2   2   2   2
#     4  11  20  42  63  85 124 167 208 248 314 381
#     4  10  20  37  61  88 116 158 217 256 297 369
#     4  10  22  38  60  88 124 160 202 263 313 360
#     4  11  25  42  64  94 132 163 205 272 317 361
#     4  10  19  39  65  86 121 171 212 247 311 379
#     4  11  23  41  60  90 127 163 207 259 320 371
#     4  11  21  36  65  88 115 168 208 249 310 380
#
# _framework density 19.747325
#
# number of rings (size 3 to 8) (size 9 to 14) (size 15 to 20)
#    0.000    1.429    2.857    5.143    0.000    6.286 
#    2.571    1.429    0.000    0.000    0.000    0.000 
#    0.000    0.000    0.000    0.000    0.000    0.000 
#
# Total GULP energy -78125.434342 kJ/mol
# GULP energy per Si atom -5580.388167 kJ/mol
# Density = 1.970238 g / cm^3
# Si number density = 19.747325 Si / 1000 Ang^3
#
#
#
# Elastic Constant Matrix: (Units=GPa)
#
#
# Indices 1 2 3 4 5 6 
#
# 1 97.9641 45.9285 -0.1127 10.3523 -6.9961 13.5418
# 2 45.9285 127.3920 25.3121 4.8593 6.4733 19.7624
# 3 -0.1127 25.3121 23.9913 -3.6829 -16.2154 11.2298
# 4 10.3523 4.8593 -3.6829 31.0195 6.4141 -4.8033
# 5 -6.9961 6.4733 -16.2154 6.4141 26.3738 -4.3819
# 6 13.5418 19.7624 11.2298 -4.8033 -4.3819 41.2223
#
#
#
# Elastic Compliance Matrix: (Units=1/GPa)
#
#
# Indices 1 2 3 4 5 6 
#
# 1 0.027795 -0.023495 0.064757 -0.010727 0.053728 -0.011047
# 2 -0.023495 0.035478 -0.086414 0.007414 -0.068573 0.007825
# 3 0.064757 -0.086414 0.297183 -0.024595 0.220400 -0.040242
# 4 -0.010727 0.007414 -0.024595 0.038769 -0.027849 0.008227
# 5 0.053728 -0.068573 0.220400 -0.027849 0.206950 -0.026063
# 6 -0.011047 0.007825 -0.040242 0.008227 -0.026063 0.033287
#
#
# Mechanical properties :
#
#
# Convention : Reuss Voigt Hill
#
# Bulk Modulus (GPa) = 3.70161 43.51148 23.60654
# Shear Modulus (GPa) = 6.09892 31.60442 18.85167
#
# Velocity S-wave (km/s) = 1.75931 4.00489 3.09308
# Velocity P-wave (km/s) = 2.45060 6.59299 4.97358
#
# Compressibility (1/GPa) = 0.27015295
#
# Stress axis : x y z
#
# Youngs Moduli (GPa) = 35.97748 28.18639 3.36492
#
# Poissons Ratio (x) = 0.66224 -0.21790
# Poissons Ratio (y) = 0.84529 0.29078
# Poissons Ratio (z) = -2.32980 2.43570
#
# Static dielectric constant tensor:
#      x y z
#    x 1.698470 0.015380 -0.027030 
#    y 0.015380 1.727820 -0.014830 
#    z -0.027030 -0.014830 1.719770 
# 
# From -- ./inp_files/199326.got.cif
#   From: 2010.05.17/outbox.cif.g08.bks.cpg/sg2_100_cif.got.tgz:199326.got - 2010.06.03 11:33:40.
