data_PCOD9091042
_publ_section_title
;
Structure prediction by ZEFSAII (Michael W. Deem and Ramdas Pophale) SiO2 
 PCOD9091042
Probable space group: P -1
;
_chemical_formula_sum "Si O2"
_cell_formula_units_Z 14
_cell_length_a 9.051227
_cell_length_b 18.761562
_cell_length_c 8.659082
_cell_angle_alpha 133.567869
_cell_angle_beta 45.740596
_cell_angle_gamma 146.369980
_cell_volume 561.159421
_symmetry_space_group_name_H-M "P -1"
_symmetry_group_IT_number 2
_symmetry_cell_setting 'triclinic'
loop_
_space_group_symop_operation_xyz
x,y,z
-x,-y,-z
loop_
_atom_site_type_symbol
_atom_site_label
_atom_site_fract_x
_atom_site_fract_y
_atom_site_fract_z
Si Si1 0.396709 0.308612 0.777405
Si Si2 0.838417 0.321291 0.899568
Si Si3 0.301096 0.110308 0.790008
Si Si4 0.998043 0.155723 0.280947
Si Si5 0.040227 0.382969 0.173269
Si Si6 0.012315 0.627374 0.456483
Si Si7 0.384226 0.357193 0.525172
O O1 0.399017 0.207850 0.719499
O O2 0.672529 0.464026 0.841493
O O3 0.384547 0.290543 0.576373
O O4 0.139693 0.301015 0.991528
O O5 0.115923 0.341482 0.721570
O O6 0.542234 0.180501 0.850112
O O7 0.901683 0.400556 0.808459
O O8 0.838312 0.341676 0.114221
O O9 0.048202 0.097488 0.018466
O O10 0.181801 0.962063 0.637800
O O11 0.306698 0.276329 0.305402
O O12 0.891366 0.228138 0.419876
O O13 0.924829 0.375838 0.415124
O O14 0.672543 0.509273 0.530667
#
# Coordination Sequence:
#
# PCOD9091042 Si02
#       7
#     2   2   2   2   2   2   2
#     4   9  18  35  58  81 112 149 188 225 283 342
#     4  10  21  35  58  89 112 146 192 235 277 326
#     4  11  23  36  54  88 116 147 184 235 292 326
#     4  10  21  38  59  76 119 154 183 229 286 345
#     4   9  18  36  59  83 112 149 188 231 272 344
#     4  10  19  39  63  84 109 155 192 226 275 347
#     4   9  20  38  62  83 105 155 195 223 274 346
#
# _framework density 24.948345
#
# number of rings (size 3 to 8) (size 9 to 14) (size 15 to 20)
#    0.000    2.286    1.429    2.571    2.000    3.429 
#    2.571    2.143    0.000    0.000    0.000    0.000 
#    0.000    0.000    0.000    0.000    0.000    0.000 
#
# Total GULP energy -78062.854754 kJ/mol
# GULP energy per Si atom -5575.918197 kJ/mol
# Density = 2.489156 g / cm^3
# Si number density = 24.948345 Si / 1000 Ang^3
#
#
#
# Elastic Constant Matrix: (Units=GPa)
#
#
# Indices 1 2 3 4 5 6 
#
# 1 162.8740 48.1550 36.4481 7.1408 23.2536 -30.8048
# 2 48.1550 110.4615 17.5500 -3.8644 11.8006 -38.5780
# 3 36.4481 17.5500 109.0596 -11.2395 11.3360 -20.3062
# 4 7.1408 -3.8644 -11.2395 24.2693 -5.9830 -3.5673
# 5 23.2536 11.8006 11.3360 -5.9830 48.8907 -5.0997
# 6 -30.8048 -38.5780 -20.3062 -3.5673 -5.0997 51.9365
#
#
#
# Elastic Compliance Matrix: (Units=1/GPa)
#
#
# Indices 1 2 3 4 5 6 
#
# 1 0.008338 -0.002548 -0.002208 -0.004445 -0.003219 0.001568
# 2 -0.002548 0.013412 0.000913 0.004452 -0.000749 0.009040
# 3 -0.002208 0.000913 0.011261 0.006486 -0.000553 0.004163
# 4 -0.004445 0.004452 0.006486 0.048822 0.006259 0.007175
# 5 -0.003219 -0.000749 -0.000553 0.006259 0.023061 0.000012
# 6 0.001568 0.009040 0.004163 0.007175 0.000012 0.029021
#
#
# Mechanical properties :
#
#
# Convention : Reuss Voigt Hill
#
# Bulk Modulus (GPa) = 39.48610 65.18903 52.33756
# Shear Modulus (GPa) = 33.32370 43.70208 38.51289
#
# Velocity S-wave (km/s) = 3.65870 4.18988 3.93326
# Velocity P-wave (km/s) = 5.80600 7.04223 6.45378
#
# Compressibility (1/GPa) = 0.02532537
#
# Stress axis : x y z
#
# Youngs Moduli (GPa) = 119.92850 74.56218 88.79947
#
# Poissons Ratio (x) = 0.18999 0.19608
# Poissons Ratio (y) = 0.30559 -0.08110
# Poissons Ratio (z) = 0.26482 -0.06810
#
# Static dielectric constant tensor:
#      x y z
#    x 2.072240 0.036080 -0.037830 
#    y 0.036080 2.033500 -0.031210 
#    z -0.037830 -0.031210 2.117920 
# 
# From -- ./inp_files/175479.got.cif
#   From: 2010.05.17/outbox.cif.g08.bks.cpg/sg2_88_cif.got.tgz:175479.got - 2010.06.03 11:33:40.
