data_PCOD9091315
_publ_section_title
;
Structure prediction by ZEFSAII (Michael W. Deem and Ramdas Pophale) SiO2 
 PCOD9091315
Probable space group: P -1
;
_chemical_formula_sum "Si O2"
_cell_formula_units_Z 16
_cell_length_a 10.151045
_cell_length_b 10.151071
_cell_length_c 19.358043
_cell_angle_alpha 65.871185
_cell_angle_beta 132.263681
_cell_angle_gamma 138.461473
_cell_volume 960.546662
_symmetry_space_group_name_H-M "P -1"
_symmetry_group_IT_number 2
_symmetry_cell_setting 'triclinic'
loop_
_space_group_symop_operation_xyz
x,y,z
-x,-y,-z
loop_
_atom_site_type_symbol
_atom_site_label
_atom_site_fract_x
_atom_site_fract_y
_atom_site_fract_z
Si Si1 0.677250 0.962462 0.069860
Si Si2 0.495187 0.903879 0.449534
Si Si3 0.525497 0.437607 0.448621
Si Si4 0.455048 0.440168 0.916333
Si Si5 0.112775 0.882720 0.247747
Si Si6 0.959639 0.871744 0.448623
Si Si7 0.107503 0.122379 0.083669
Si Si8 0.986006 0.936646 0.711327
O O1 0.890416 0.080047 0.059963
O O2 0.820129 0.035653 0.177898
O O3 0.539860 0.729500 0.059958
O O4 0.500000 0.000000 0.000000
O O5 0.420153 0.698917 0.487497
O O6 0.305579 0.866582 0.336087
O O7 0.500000 0.000000 0.500000
O O8 0.776073 0.054843 0.487492
O O9 0.500000 0.500000 0.500000
O O10 0.740933 0.636629 0.438781
O O11 0.259705 0.291500 0.347383
O O12 0.661558 0.642579 0.902067
O O13 0.172493 0.327027 0.821977
O O14 0.500000 0.500000 0.000000
O O15 0.183080 0.028535 0.178024
O O16 0.102085 0.979161 0.290615
O O17 0.000000 0.000000 0.500000
O O18 0.903279 0.935062 0.347387
O O19 0.000000 0.000000 0.000000
#
# Coordination Sequence:
#
# PCOD9091315 Si02
#       8
#     2   2   2   2   2   2   2   2
#     4  10  23  41  60  90 126 151 200 254 289 352
#     4  11  22  42  58  92 124 143 205 255 280 357
#     4  11  21  39  63  83 121 162 193 239 303 350
#     4  10  19  39  65  87 119 159 195 242 303 349
#     4  10  21  38  62  91 120 150 199 255 289 346
#     4  11  21  39  63  83 121 162 193 239 303 350
#     4  10  19  39  65  87 119 159 195 242 303 349
#     4   9  20  40  59  84 122 154 198 240 299 350
#
# _framework density 16.657181999999999
#
# number of rings (size 3 to 8) (size 9 to 14) (size 15 to 20)
#    0.000    2.000    7.500    0.000    0.000    6.000 
#    4.500    0.000    0.000    0.000    0.000    0.000 
#    0.000    0.000    0.000    0.000    0.000    0.000 
#
# Total GULP energy -89195.809473 kJ/mol
# GULP energy per Si atom -5574.738092 kJ/mol
# Density = 1.661927 g / cm^3
# Si number density = 16.657182 Si / 1000 Ang^3
#
#
#
# Elastic Constant Matrix: (Units=GPa)
#
#
# Indices 1 2 3 4 5 6 
#
# 1 107.8912 69.5797 78.0003 -7.1183 4.3706 7.5178
# 2 69.5797 168.9122 72.5706 1.1995 6.0728 28.6273
# 3 78.0003 72.5706 155.5231 -1.9004 5.3114 -2.6144
# 4 -7.1183 1.1995 -1.9004 31.9599 -4.0155 -4.0257
# 5 4.3706 6.0728 5.3114 -4.0155 39.1296 -2.5758
# 6 7.5178 28.6273 -2.6144 -4.0257 -2.5758 37.6970
#
#
#
# Elastic Compliance Matrix: (Units=1/GPa)
#
#
# Indices 1 2 3 4 5 6 
#
# 1 0.016889 -0.004135 -0.006503 0.003488 -0.000024 -0.000308
# 2 -0.004135 0.010148 -0.002767 -0.002593 -0.001494 -0.007452
# 3 -0.006503 -0.002767 0.011053 -0.000177 -0.000090 0.004140
# 4 0.003488 -0.002593 -0.000177 0.033267 0.003785 0.005072
# 5 -0.000024 -0.001494 -0.000090 0.003785 0.026411 0.003342
# 6 -0.000308 -0.007452 0.004140 0.005072 0.003342 0.033305
#
#
# Mechanical properties :
#
#
# Convention : Reuss Voigt Hill
#
# Bulk Modulus (GPa) = 88.65337 96.95863 92.80600
# Shear Modulus (GPa) = 30.93233 35.90236 33.41734
#
# Velocity S-wave (km/s) = 4.31396 4.64763 4.48390
# Velocity P-wave (km/s) = 8.84034 9.33463 9.09084
#
# Compressibility (1/GPa) = 0.01127989
#
# Stress axis : x y z
#
# Youngs Moduli (GPa) = 59.21017 98.54560 90.47321
#
# Poissons Ratio (x) = 0.40748 0.58832
# Poissons Ratio (y) = 0.24483 0.25036
# Poissons Ratio (z) = 0.38503 0.27270
#
# Static dielectric constant tensor:
#      x y z
#    x 1.548680 0.004590 0.001010 
#    y 0.004590 1.556370 -0.000040 
#    z 0.001010 -0.000040 1.576460 
# 
# From -- ./inp_files/527600.got.cif
#   From: 2010.05.17/outbox.cif.g08.bks.cpg/sg2_264_cif.got.tgz:527600.got - 2010.06.03 11:33:40.
