data_PCOD9091682
_publ_section_title
;
Structure prediction by ZEFSAII (Michael W. Deem and Ramdas Pophale) SiO2 
 PCOD9091682
Probable space group: P -1
;
_chemical_formula_sum "Si O2"
_cell_formula_units_Z 12
_cell_length_a 8.001512
_cell_length_b 9.004837
_cell_length_c 15.028288
_cell_angle_alpha 123.105355
_cell_angle_beta 147.013461
_cell_angle_gamma 74.645262
_cell_volume 447.261431
_symmetry_space_group_name_H-M "P -1"
_symmetry_group_IT_number 2
_symmetry_cell_setting 'triclinic'
loop_
_space_group_symop_operation_xyz
x,y,z
-x,-y,-z
loop_
_atom_site_type_symbol
_atom_site_label
_atom_site_fract_x
_atom_site_fract_y
_atom_site_fract_z
Si Si1 0.205289 0.302707 0.764919
Si Si2 0.902325 0.213431 0.783318
Si Si3 0.257271 0.745947 0.624436
Si Si4 0.661376 0.532587 0.797505
Si Si5 0.770791 0.166610 0.978872
Si Si6 0.095311 0.871028 0.779135
O O1 0.405910 0.169717 0.803022
O O2 0.931520 0.217520 0.692419
O O3 0.007607 0.308297 0.591021
O O4 0.500000 0.500000 0.000000
O O5 0.657917 0.319106 0.730599
O O6 0.886335 0.004790 0.737166
O O7 0.255210 0.367555 0.035750
O O8 0.363147 0.570495 0.633474
O O9 0.083222 0.788456 0.647593
O O10 0.626986 0.930112 0.830744
O O11 0.988321 0.677292 0.932973
O O12 0.936530 0.232935 0.172968
O O13 0.500000 0.000000 0.000000
#
# Coordination Sequence:
#
# PCOD9091682 Si02
#       6
#     2   2   2   2   2   2
#     4  12  24  44  68  95 132 181 225 269 322 392
#     4  11  22  41  65  96 142 174 209 268 339 383
#     4  11  23  41  71 100 130 172 226 270 323 392
#     4  11  23  41  69  99 138 174 208 276 336 390
#     4  11  21  41  71 100 130 171 218 268 332 392
#     4  10  19  39  69  95 131 175 215 268 321 398
#
# _framework density 26.829944999999999
#
# number of rings (size 3 to 8) (size 9 to 14) (size 15 to 20)
#    0.000    1.000    8.333    1.000    0.000    0.667 
#    0.000    5.833    0.000    0.000    0.000    0.000 
#    0.000    0.000    0.000    0.000    0.000    0.000 
#
# Total GULP energy -67104.128702 kJ/mol
# GULP energy per Si atom -5592.010725 kJ/mol
# Density = 2.676888 g / cm^3
# Si number density = 26.829945 Si / 1000 Ang^3
#
#
#
# Elastic Constant Matrix: (Units=GPa)
#
#
# Indices 1 2 3 4 5 6 
#
# 1 104.6477 46.5700 58.4899 -19.1205 -21.0758 7.5410
# 2 46.5700 127.2583 63.9902 -50.0090 4.0190 1.7890
# 3 58.4899 63.9902 168.3247 -39.3057 -30.3046 19.0881
# 4 -19.1205 -50.0090 -39.3057 60.2136 25.2853 12.1233
# 5 -21.0758 4.0190 -30.3046 25.2853 46.1081 -12.3351
# 6 7.5410 1.7890 19.0881 12.1233 -12.3351 28.1971
#
#
#
# Elastic Compliance Matrix: (Units=1/GPa)
#
#
# Indices 1 2 3 4 5 6 
#
# 1 0.017891 -0.015811 -0.003761 -0.025467 0.026783 0.021431
# 2 -0.015811 0.044476 -0.000084 0.071017 -0.065553 -0.057747
# 3 -0.003761 -0.000084 0.009981 0.008468 -0.002612 -0.010529
# 4 -0.025467 0.071017 0.008468 0.152900 -0.129810 -0.125953
# 5 0.026783 -0.065553 -0.002612 -0.129810 0.140112 0.115870
# 6 0.021431 -0.057747 -0.010529 -0.125953 0.115870 0.145366
#
#
# Mechanical properties :
#
#
# Convention : Reuss Voigt Hill
#
# Bulk Modulus (GPa) = 30.27070 82.03676 56.15373
# Shear Modulus (GPa) = 8.91187 42.31582 25.61384
#
# Velocity S-wave (km/s) = 1.82451 3.97569 3.09313
# Velocity P-wave (km/s) = 3.96804 7.19151 5.80789
#
# Compressibility (1/GPa) = 0.03303524
#
# Stress axis : x y z
#
# Youngs Moduli (GPa) = 55.89491 22.48401 100.19184
#
# Poissons Ratio (x) = 0.35549 0.37685
# Poissons Ratio (y) = 0.88374 0.00844
# Poissons Ratio (z) = 0.21024 0.00189
#
# Static dielectric constant tensor:
#      x y z
#    x 2.122270 -0.068440 -0.034230 
#    y -0.068440 2.312960 0.087580 
#    z -0.034230 0.087580 2.224500 
# 
# From -- ./inp_files/148097.got.cif
#   From: 2010.05.17/outbox.cif.g08.bks.cpg/sg2_75_cif.got.tgz:148097.got - 2010.06.03 11:33:40.
