data_PCOD9091444
_publ_section_title
;
Structure prediction by ZEFSAII (Michael W. Deem and Ramdas Pophale) SiO2 
 PCOD9091444
Probable space group: P -1
;
_chemical_formula_sum "Si O2"
_cell_formula_units_Z 16
_cell_length_a 15.282264
_cell_length_b 9.384872
_cell_length_c 12.626493
_cell_angle_alpha 143.121168
_cell_angle_beta 136.195952
_cell_angle_gamma 47.841592
_cell_volume 732.797459
_symmetry_space_group_name_H-M "P -1"
_symmetry_group_IT_number 2
_symmetry_cell_setting 'triclinic'
loop_
_space_group_symop_operation_xyz
x,y,z
-x,-y,-z
loop_
_atom_site_type_symbol
_atom_site_label
_atom_site_fract_x
_atom_site_fract_y
_atom_site_fract_z
Si Si1 0.311522 0.205554 0.537946
Si Si2 0.917249 0.800586 0.826069
Si Si3 0.525397 0.804456 0.815377
Si Si4 0.497573 0.307022 0.600678
Si Si5 0.106162 0.740950 0.279622
Si Si6 0.723093 0.748498 0.782325
Si Si7 0.726537 0.888069 0.318780
Si Si8 0.886894 0.580427 0.107421
O O1 0.178010 0.240915 0.376370
O O2 0.412904 0.349201 0.659840
O O3 0.293586 0.251502 0.674582
O O4 0.380447 0.917618 0.413580
O O5 0.826310 0.877582 0.896326
O O6 0.016250 0.550644 0.794593
O O7 0.000000 0.000000 0.000000
O O8 0.529770 0.540726 0.711829
O O9 0.656665 0.818170 0.877558
O O10 0.400713 0.895497 0.684001
O O11 0.500000 0.000000 0.000000
O O12 0.395520 0.221893 0.383714
O O13 0.201624 0.533023 0.308496
O O14 0.962414 0.746429 0.201693
O O15 0.153608 0.986102 0.479777
O O16 0.124120 0.632721 0.111964
O O17 0.762484 0.723828 0.147787
#
# Coordination Sequence:
#
# PCOD9091444 Si02
#       8
#     2   2   2   2   2   2   2   2
#     4  10  22  38  68  91 125 177 215 257 325 391
#     4  10  22  41  63  91 128 172 217 264 318 386
#     4  12  24  38  62 101 131 160 213 278 329 385
#     4  10  20  42  65  92 128 168 215 259 324 396
#     4  10  20  39  65  91 129 172 211 273 319 378
#     4  10  19  39  66  90 121 168 215 257 322 390
#     4  12  22  39  65  97 130 167 216 267 332 381
#     4  10  23  39  61  97 130 169 225 262 319 385
#
# _framework density 21.834137999999999
#
# number of rings (size 3 to 8) (size 9 to 14) (size 15 to 20)
#    0.000    1.500    2.500    3.000    0.000    1.500 
#    2.250    1.875    0.000    0.000    0.000    0.000 
#    0.000    0.000    0.000    0.000    0.000    0.000 
#
# Total GULP energy -89369.535228 kJ/mol
# GULP energy per Si atom -5585.595952 kJ/mol
# Density = 2.178444 g / cm^3
# Si number density = 21.834138 Si / 1000 Ang^3
#
#
#
# Elastic Constant Matrix: (Units=GPa)
#
#
# Indices 1 2 3 4 5 6 
#
# 1 185.9556 23.4912 33.6145 13.3554 -8.7674 15.8522
# 2 23.4912 94.6617 3.5132 -18.6958 0.1985 0.1847
# 3 33.6145 3.5132 39.9089 -5.4889 -0.2568 8.4057
# 4 13.3554 -18.6958 -5.4889 20.9411 -2.9000 -3.7566
# 5 -8.7674 0.1985 -0.2568 -2.9000 28.3849 -8.3722
# 6 15.8522 0.1847 8.4057 -3.7566 -8.3722 31.0760
#
#
#
# Elastic Compliance Matrix: (Units=1/GPa)
#
#
# Indices 1 2 3 4 5 6 
#
# 1 0.008412 -0.004089 -0.007573 -0.011587 0.000334 -0.003529
# 2 -0.004089 0.014941 0.003845 0.017796 0.001523 0.003519
# 3 -0.007573 0.003845 0.034138 0.016313 -0.001521 -0.003831
# 4 -0.011587 0.017796 0.016313 0.078833 0.008386 0.013181
# 5 0.000334 0.001523 -0.001521 0.008386 0.039687 0.011938
# 6 -0.003529 0.003519 -0.003831 0.013181 0.011938 0.039804
#
#
# Mechanical properties :
#
#
# Convention : Reuss Voigt Hill
#
# Bulk Modulus (GPa) = 23.89116 49.08489 36.48803
# Shear Modulus (GPa) = 20.37480 33.40756 26.89118
#
# Velocity S-wave (km/s) = 3.05808 3.91584 3.51324
# Velocity P-wave (km/s) = 4.84098 6.55551 5.76237
#
# Compressibility (1/GPa) = 0.04185649
#
# Stress axis : x y z
#
# Youngs Moduli (GPa) = 118.87885 66.93161 29.29251
#
# Poissons Ratio (x) = 0.27366 0.22185
# Poissons Ratio (y) = 0.48606 -0.11263
# Poissons Ratio (z) = 0.90033 -0.25735
#
# Static dielectric constant tensor:
#      x y z
#    x 1.877190 0.005560 0.004840 
#    y 0.005560 1.825860 -0.057170 
#    z 0.004840 -0.057170 1.785890 
# 
# From -- ./inp_files/271990.got.cif
#   From: 2010.05.17/outbox.cif.g08.bks.cpg/sg2_136_cif.got.tgz:271990.got - 2010.06.03 11:33:40.
