data_PCOD9091923
_publ_section_title
;
Structure prediction by ZEFSAII (Michael W. Deem and Ramdas Pophale) SiO2 
 PCOD9091923
Probable space group: P -1
;
_chemical_formula_sum "Si O2"
_cell_formula_units_Z 14
_cell_length_a 8.371761
_cell_length_b 9.456850
_cell_length_c 14.063705
_cell_angle_alpha 90.866898
_cell_angle_beta 113.313971
_cell_angle_gamma 134.923657
_cell_volume 645.418309
_symmetry_space_group_name_H-M "P -1"
_symmetry_group_IT_number 2
_symmetry_cell_setting 'triclinic'
loop_
_space_group_symop_operation_xyz
x,y,z
-x,-y,-z
loop_
_atom_site_type_symbol
_atom_site_label
_atom_site_fract_x
_atom_site_fract_y
_atom_site_fract_z
Si Si1 0.229794 0.737427 0.942164
Si Si2 0.167302 0.797708 0.424557
Si Si3 0.133039 0.231022 0.816891
Si Si4 0.999012 0.906063 0.659814
Si Si5 0.973084 0.560292 0.685634
Si Si6 0.660628 0.839211 0.426427
Si Si7 0.764678 0.559361 0.961365
O O1 0.162863 0.642733 0.819636
O O2 0.979136 0.672855 0.926553
O O3 0.280043 0.630634 0.016321
O O4 0.500000 0.000000 0.000000
O O5 0.022697 0.554868 0.396960
O O6 0.038360 0.782233 0.298364
O O7 0.500000 0.000000 0.500000
O O8 0.149917 0.903251 0.503449
O O9 0.462257 0.436733 0.874859
O O10 0.013149 0.998529 0.763642
O O11 0.101861 0.269551 0.916967
O O12 0.023748 0.754894 0.675424
O O13 0.738569 0.784808 0.531380
O O14 0.247213 0.131278 0.658470
O O15 0.662089 0.346858 0.648311
#
# Coordination Sequence:
#
# PCOD9091923 Si02
#       7
#     2   2   2   2   2   2   2
#     4  11  23  40  61  95 121 162 214 262 307 374
#     4   9  19  36  61  90 127 161 205 254 311 373
#     4  10  19  40  63  93 123 170 207 254 313 379
#     4  10  20  35  60  87 121 156 203 250 306 371
#     4  11  20  36  59  85 120 158 199 262 302 360
#     4   9  20  37  58  85 119 161 203 243 310 371
#     4  10  22  40  66  84 128 170 208 254 319 363
#
# _framework density 21.69136
#
# number of rings (size 3 to 8) (size 9 to 14) (size 15 to 20)
#    0.000    2.000    1.429    2.143    0.000    1.714 
#    0.000    7.857    3.143    0.000    0.000    0.000 
#    0.000    0.000    0.000    0.000    0.000    0.000 
#
# Total GULP energy -78014.300776 kJ/mol
# GULP energy per Si atom -5572.450055 kJ/mol
# Density = 2.164199 g / cm^3
# Si number density = 21.691360 Si / 1000 Ang^3
#
#
#
# Elastic Constant Matrix: (Units=GPa)
#
#
# Indices 1 2 3 4 5 6 
#
# 1 86.2319 41.8577 37.1024 44.9035 -18.7972 -29.0787
# 2 41.8577 103.8754 35.8804 49.0097 -19.7053 -32.3492
# 3 37.1024 35.8804 114.9094 33.9853 -8.3817 -8.9506
# 4 44.9035 49.0097 33.9853 86.4871 -26.3120 -29.6370
# 5 -18.7972 -19.7053 -8.3817 -26.3120 52.7507 16.5357
# 6 -29.0787 -32.3492 -8.9506 -29.6370 16.5357 40.5211
#
#
#
# Elastic Compliance Matrix: (Units=1/GPa)
#
#
# Indices 1 2 3 4 5 6 
#
# 1 0.019254 -0.001682 -0.003641 -0.004634 0.000856 0.007931
# 2 -0.001682 0.015554 -0.002425 -0.004368 0.000347 0.007339
# 3 -0.003641 -0.002425 0.011051 -0.002519 -0.000534 -0.003732
# 4 -0.004634 -0.004368 -0.002519 0.020971 0.004907 0.005967
# 5 0.000856 0.000347 -0.000534 0.004907 0.023377 -0.005178
# 6 0.007931 0.007339 -0.003732 0.005967 -0.005178 0.041881
#
#
# Mechanical properties :
#
#
# Convention : Reuss Voigt Hill
#
# Bulk Modulus (GPa) = 32.93440 59.41085 46.17262
# Shear Modulus (GPa) = 31.70473 48.63021 40.16747
#
# Velocity S-wave (km/s) = 3.82727 4.74002 4.30789
# Velocity P-wave (km/s) = 5.89465 7.57666 6.78795
#
# Compressibility (1/GPa) = 0.03036339
#
# Stress axis : x y z
#
# Youngs Moduli (GPa) = 51.93735 64.29085 90.49206
#
# Poissons Ratio (x) = 0.10815 0.32945
# Poissons Ratio (y) = 0.08737 0.21944
# Poissons Ratio (z) = 0.18909 0.15591
#
# Static dielectric constant tensor:
#      x y z
#    x 1.925280 -0.081220 -0.026560 
#    y -0.081220 1.782200 -0.011310 
#    z -0.026560 -0.011310 1.815000 
# 
# From -- ./inp_files/493047.got.cif
#   From: 2010.05.17/outbox.cif.g08.bks.cpg/sg2_247_cif.got.tgz:493047.got - 2010.06.03 11:33:40.
