data_PCOD9091537
_publ_section_title
;
Structure prediction by ZEFSAII (Michael W. Deem and Ramdas Pophale) SiO2 
 PCOD9091537
Probable space group: P -1
;
_chemical_formula_sum "Si O2"
_cell_formula_units_Z 16
_cell_length_a 8.758314
_cell_length_b 15.909441
_cell_length_c 8.147958
_cell_angle_alpha 111.496406
_cell_angle_beta 126.804923
_cell_angle_gamma 48.310067
_cell_volume 677.856750
_symmetry_space_group_name_H-M "P -1"
_symmetry_group_IT_number 2
_symmetry_cell_setting 'triclinic'
loop_
_space_group_symop_operation_xyz
x,y,z
-x,-y,-z
loop_
_atom_site_type_symbol
_atom_site_label
_atom_site_fract_x
_atom_site_fract_y
_atom_site_fract_z
Si Si1 0.384993 0.098506 0.633282
Si Si2 0.573496 0.791600 0.815263
Si Si3 0.153209 0.040320 0.687620
Si Si4 0.912417 0.735410 0.698172
Si Si5 0.155936 0.561377 0.482660
Si Si6 0.214057 0.401178 0.956790
Si Si7 0.105773 0.061585 0.038031
Si Si8 0.571197 0.357706 0.405216
O O1 0.276431 0.208584 0.533848
O O2 0.500000 0.000000 0.500000
O O3 0.184855 0.106041 0.616201
O O4 0.616311 0.044152 0.852734
O O5 0.421138 0.924478 0.801110
O O6 0.781140 0.738030 0.776576
O O7 0.396771 0.757935 0.636112
O O8 0.697267 0.722919 0.013119
O O9 0.000000 0.000000 0.500000
O O10 0.052492 0.097220 0.839467
O O11 0.966357 0.826870 0.829901
O O12 0.117568 0.611865 0.675626
O O13 0.388015 0.438897 0.489443
O O14 0.210243 0.636469 0.462249
O O15 0.920081 0.573772 0.283300
O O16 0.432600 0.400049 0.167175
O O17 0.000000 0.500000 0.000000
O O18 0.000000 0.000000 0.000000
#
# Coordination Sequence:
#
# PCOD9091537 Si02
#       8
#     2   2   2   2   2   2   2   2
#     4  10  21  40  58  86 126 160 213 262 311 377
#     4  10  22  40  60  92 128 161 216 262 318 389
#     4  12  24  40  65  88 127 175 211 266 325 376
#     4  11  24  39  61  92 125 168 212 261 326 378
#     4  10  19  39  67  90 122 168 206 266 324 383
#     4   8  18  38  63  90 121 164 209 262 316 380
#     4  11  25  41  59  89 129 168 213 273 312 384
#     4   8  20  38  64  93 124 155 218 258 315 392
#
# _framework density 23.603807
#
# number of rings (size 3 to 8) (size 9 to 14) (size 15 to 20)
#    0.750    1.250    2.500    1.875    5.250    0.500 
#    0.000    0.000    0.000    2.250    0.000    0.000 
#    0.000    0.000    0.000    0.000    0.000    0.000 
#
# Total GULP energy -89124.195974 kJ/mol
# GULP energy per Si atom -5570.262248 kJ/mol
# Density = 2.355008 g / cm^3
# Si number density = 23.603807 Si / 1000 Ang^3
#
#
#
# Elastic Constant Matrix: (Units=GPa)
#
#
# Indices 1 2 3 4 5 6 
#
# 1 81.8483 -2.3538 17.1367 8.6417 4.6436 -1.4496
# 2 -2.3538 87.1925 2.6303 15.1434 0.8997 -7.0032
# 3 17.1367 2.6303 68.1448 14.9836 0.9589 -12.4549
# 4 8.6417 15.1434 14.9836 32.9799 -2.9339 -5.5068
# 5 4.6436 0.8997 0.9589 -2.9339 33.1574 9.0401
# 6 -1.4496 -7.0032 -12.4549 -5.5068 9.0401 32.3298
#
#
#
# Elastic Compliance Matrix: (Units=1/GPa)
#
#
# Indices 1 2 3 4 5 6 
#
# 1 0.013231 0.000943 -0.002740 -0.002864 -0.002002 -0.000186
# 2 0.000943 0.012801 0.001189 -0.006376 -0.001812 0.002694
# 3 -0.002740 0.001189 0.018150 -0.007199 -0.002619 0.006633
# 4 -0.002864 -0.006376 -0.007199 0.037792 0.003831 0.001083
# 5 -0.002002 -0.001812 -0.002619 0.003831 0.033701 -0.010262
# 6 -0.000186 0.002694 0.006633 0.001083 -0.010262 0.037116
#
#
# Mechanical properties :
#
#
# Convention : Reuss Voigt Hill
#
# Bulk Modulus (GPa) = 23.27426 30.22355 26.74891
# Shear Modulus (GPa) = 29.70365 34.34491 32.02428
#
# Velocity S-wave (km/s) = 3.55128 3.81866 3.68739
# Velocity P-wave (km/s) = 5.16694 5.68113 5.43012
#
# Compressibility (1/GPa) = 0.04296591
#
# Stress axis : x y z
#
# Youngs Moduli (GPa) = 75.57904 78.11892 55.09703
#
# Poissons Ratio (x) = -0.07367 0.15095
# Poissons Ratio (y) = -0.07127 -0.06549
# Poissons Ratio (z) = 0.20706 -0.09286
#
# Static dielectric constant tensor:
#      x y z
#    x 1.815810 0.018530 0.067120 
#    y 0.018530 1.947500 -0.042960 
#    z 0.067120 -0.042960 1.972510 
# 
# From -- ./inp_files/218094.got.cif
#   From: 2010.05.17/outbox.cif.g08.bks.cpg/sg2_110_cif.got.tgz:218094.got - 2010.06.03 11:33:40.
