data_PCOD9091611
_publ_section_title
;
Structure prediction by ZEFSAII (Michael W. Deem and Ramdas Pophale) SiO2 
 PCOD9091611
Probable space group: P -1
;
_chemical_formula_sum "Si O2"
_cell_formula_units_Z 12
_cell_length_a 9.961047
_cell_length_b 11.310227
_cell_length_c 9.563273
_cell_angle_alpha 77.111371
_cell_angle_beta 44.059586
_cell_angle_gamma 106.512105
_cell_volume 551.421230
_symmetry_space_group_name_H-M "P -1"
_symmetry_group_IT_number 2
_symmetry_cell_setting 'triclinic'
loop_
_space_group_symop_operation_xyz
x,y,z
-x,-y,-z
loop_
_atom_site_type_symbol
_atom_site_label
_atom_site_fract_x
_atom_site_fract_y
_atom_site_fract_z
Si Si1 0.758513 0.703050 0.099514
Si Si2 0.960748 0.307410 0.327461
Si Si3 0.126998 0.613399 0.237575
Si Si4 0.739476 0.670105 0.439722
Si Si5 0.964803 0.864709 0.470855
Si Si6 0.464784 0.152025 0.918673
O O1 0.784226 0.740983 0.233665
O O2 0.530167 0.510555 0.306895
O O3 0.673410 0.786315 0.056620
O O4 0.005174 0.744152 0.832040
O O5 0.095089 0.272757 0.347759
O O6 0.677155 0.204987 0.630153
O O7 0.098306 0.494507 0.178091
O O8 0.400642 0.760918 0.056775
O O9 0.000000 0.500000 0.500000
O O10 0.953424 0.654452 0.311250
O O11 0.769177 0.780227 0.511480
O O12 0.000000 0.000000 0.500000
O O13 0.244307 0.964790 0.163997
#
# Coordination Sequence:
#
# PCOD9091611 Si02
#       6
#     2   2   2   2   2   2
#     4  11  24  43  67  93 134 166 212 266 323 370
#     4  11  22  41  67  95 123 169 222 255 313 379
#     4  10  19  39  68  90 123 167 216 267 303 362
#     4  11  24  44  63  99 130 167 211 271 316 377
#     4  12  24  40  68  96 129 170 216 257 322 382
#     4  11  22  42  64  95 130 169 208 269 312 376
#
# _framework density 21.761946999999999
#
# number of rings (size 3 to 8) (size 9 to 14) (size 15 to 20)
#    0.000    1.000    8.333    0.500    2.333    2.667 
#    0.000    0.833    0.000    0.000    0.000    0.000 
#    0.000    0.000    0.000    0.000    0.000    0.000 
#
# Total GULP energy -67024.487346 kJ/mol
# GULP energy per Si atom -5585.373946 kJ/mol
# Density = 2.171242 g / cm^3
# Si number density = 21.761947 Si / 1000 Ang^3
#
#
#
# Elastic Constant Matrix: (Units=GPa)
#
#
# Indices 1 2 3 4 5 6 
#
# 1 59.1997 16.5444 16.9130 13.6721 1.0172 -1.8744
# 2 16.5444 100.3655 21.2337 21.6338 3.4968 3.7120
# 3 16.9130 21.2337 63.7751 8.7028 6.0127 2.0186
# 4 13.6721 21.6338 8.7028 35.6578 1.8399 -4.8054
# 5 1.0172 3.4968 6.0127 1.8399 20.1250 4.2177
# 6 -1.8744 3.7120 2.0186 -4.8054 4.2177 30.0451
#
#
#
# Elastic Compliance Matrix: (Units=1/GPa)
#
#
# Indices 1 2 3 4 5 6 
#
# 1 0.019754 -0.001178 -0.004153 -0.005808 0.000851 0.000609
# 2 -0.001178 0.012271 -0.002778 -0.006639 -0.000123 -0.002448
# 3 -0.004153 -0.002778 0.018298 -0.001045 -0.004537 -0.000675
# 4 -0.005808 -0.006639 -0.001045 0.035596 -0.002884 0.006626
# 5 0.000851 -0.000123 -0.004537 -0.002884 0.052861 -0.007509
# 6 0.000609 -0.002448 -0.000675 0.006626 -0.007509 0.035783
#
#
# Mechanical properties :
#
#
# Convention : Reuss Voigt Hill
#
# Bulk Modulus (GPa) = 29.32198 36.96916 33.14557
# Shear Modulus (GPa) = 24.73414 28.40886 26.57150
#
# Velocity S-wave (km/s) = 3.37497 3.61700 3.49808
# Velocity P-wave (km/s) = 5.35635 5.87099 5.61956
#
# Compressibility (1/GPa) = 0.03410411
#
# Stress axis : x y z
#
# Youngs Moduli (GPa) = 50.62351 81.49067 54.64977
#
# Poissons Ratio (x) = 0.09598 0.22698
# Poissons Ratio (y) = 0.05963 0.15184
# Poissons Ratio (z) = 0.21026 0.22641
#
# Static dielectric constant tensor:
#      x y z
#    x 1.790630 0.011850 -0.036370 
#    y 0.011850 1.855310 0.024500 
#    z -0.036370 0.024500 1.839750 
# 
# From -- ./inp_files/164183.got.cif
#   From: 2010.05.17/outbox.cif.g08.bks.cpg/sg2_83_cif.got.tgz:164183.got - 2010.06.03 11:33:40.
