data_PCOD9091040
_publ_section_title
;
Structure prediction by ZEFSAII (Michael W. Deem and Ramdas Pophale) SiO2 
 PCOD9091040
Probable space group: P -1
;
_chemical_formula_sum "Si O2"
_cell_formula_units_Z 14
_cell_length_a 7.538532
_cell_length_b 12.854985
_cell_length_c 18.046985
_cell_angle_alpha 158.939799
_cell_angle_beta 103.892194
_cell_angle_gamma 86.389343
_cell_volume 541.140475
_symmetry_space_group_name_H-M "P -1"
_symmetry_group_IT_number 2
_symmetry_cell_setting 'triclinic'
loop_
_space_group_symop_operation_xyz
x,y,z
-x,-y,-z
loop_
_atom_site_type_symbol
_atom_site_label
_atom_site_fract_x
_atom_site_fract_y
_atom_site_fract_z
Si Si1 0.890568 0.447108 0.106471
Si Si2 0.512399 0.603792 0.737201
Si Si3 0.799162 0.544624 0.503741
Si Si4 0.276929 0.181216 0.757680
Si Si5 0.660155 0.300318 0.667567
Si Si6 0.576574 0.097565 0.306814
Si Si7 0.833607 0.056293 0.973511
O O1 0.882155 0.734157 0.246397
O O2 0.113300 0.473676 0.125575
O O3 0.657830 0.170269 0.881506
O O4 0.886127 0.396535 0.162773
O O5 0.278913 0.441414 0.576718
O O6 0.561636 0.517768 0.766303
O O7 0.654894 0.959835 0.953269
O O8 0.600511 0.405406 0.561645
O O9 0.185399 0.163659 0.248127
O O10 0.000000 0.500000 0.500000
O O11 0.620387 0.224764 0.312610
O O12 0.260065 0.027623 0.735449
O O13 0.299575 0.913321 0.532365
O O14 0.500000 0.500000 0.000000
O O15 0.500000 0.000000 0.500000
O O16 0.000000 0.000000 0.000000
#
# Coordination Sequence:
#
# PCOD9091040 Si02
#       7
#     2   2   2   2   2   2   2
#     4  11  19  38  64  86 119 157 204 240 289 359
#     4  10  19  39  63  83 121 163 199 231 297 374
#     4  11  22  38  62  92 124 151 197 257 298 347
#     4   9  21  40  63  87 113 164 208 235 287 368
#     4  11  24  40  59  91 126 152 196 259 306 336
#     4   9  18  38  63  86 115 162 204 231 287 372
#     4  11  20  39  66  92 114 160 204 238 298 364
#
# _framework density 25.871286000000001
#
# number of rings (size 3 to 8) (size 9 to 14) (size 15 to 20)
#    0.000    1.714    4.286    1.286    0.000    1.143 
#    7.714    7.143    0.000    0.000    0.000    0.000 
#    0.000    0.000    0.000    0.000    0.000    0.000 
#
# Total GULP energy -77941.667400 kJ/mol
# GULP energy per Si atom -5567.261957 kJ/mol
# Density = 2.581240 g / cm^3
# Si number density = 25.871286 Si / 1000 Ang^3
#
#
#
# Elastic Constant Matrix: (Units=GPa)
#
#
# Indices 1 2 3 4 5 6 
#
# 1 86.2541 35.4554 20.4007 -15.7374 13.3036 -19.2846
# 2 35.4554 170.5577 15.6831 2.7453 5.7512 -59.1917
# 3 20.4007 15.6831 87.6250 -8.0040 16.5711 6.4767
# 4 -15.7374 2.7453 -8.0040 35.0363 1.5887 10.9408
# 5 13.3036 5.7512 16.5711 1.5887 39.6932 -0.4842
# 6 -19.2846 -59.1917 6.4767 10.9408 -0.4842 44.8542
#
#
#
# Elastic Compliance Matrix: (Units=1/GPa)
#
#
# Indices 1 2 3 4 5 6 
#
# 1 0.015218 -0.001955 -0.002084 0.005827 -0.004147 0.002798
# 2 -0.001955 0.013953 -0.004662 -0.009518 0.001212 0.020580
# 3 -0.002084 -0.004662 0.015143 0.006530 -0.005342 -0.010885
# 4 0.005827 -0.009518 0.006530 0.040140 -0.005161 -0.020844
# 5 -0.004147 0.001212 -0.005342 -0.005161 0.028871 0.002158
# 6 0.002798 0.020580 -0.010885 -0.020844 0.002158 0.057335
#
#
# Mechanical properties :
#
#
# Convention : Reuss Voigt Hill
#
# Bulk Modulus (GPa) = 37.15616 54.16836 45.66226
# Shear Modulus (GPa) = 25.37669 42.10993 33.74331
#
# Velocity S-wave (km/s) = 3.13530 4.03882 3.61539
# Velocity P-wave (km/s) = 5.24404 6.53701 5.92589
#
# Compressibility (1/GPa) = 0.02691344
#
# Stress axis : x y z
#
# Youngs Moduli (GPa) = 65.71012 71.67043 66.03709
#
# Poissons Ratio (x) = 0.14012 0.13759
# Poissons Ratio (y) = 0.12846 0.30785
# Poissons Ratio (z) = 0.13691 0.33411
#
# Static dielectric constant tensor:
#      x y z
#    x 2.085590 -0.089910 -0.000970 
#    y -0.089910 2.218080 0.024880 
#    z -0.000970 0.024880 2.217300 
# 
# From -- ./inp_files/588781.got.cif
#   From: 2010.05.17/outbox.cif.g08.bks.cpg/sg2_295_cif.got.tgz:588781.got - 2010.06.03 11:33:40.
