data_PCOD9091265
_publ_section_title
;
Structure prediction by ZEFSAII (Michael W. Deem and Ramdas Pophale) SiO2 
 PCOD9091265
Probable space group: P -1
;
_chemical_formula_sum "Si O2"
_cell_formula_units_Z 14
_cell_length_a 9.331866
_cell_length_b 11.466972
_cell_length_c 6.990338
_cell_angle_alpha 81.480682
_cell_angle_beta 127.530479
_cell_angle_gamma 115.943802
_cell_volume 526.023961
_symmetry_space_group_name_H-M "P -1"
_symmetry_group_IT_number 2
_symmetry_cell_setting 'triclinic'
loop_
_space_group_symop_operation_xyz
x,y,z
-x,-y,-z
loop_
_atom_site_type_symbol
_atom_site_label
_atom_site_fract_x
_atom_site_fract_y
_atom_site_fract_z
Si Si1 0.946734 0.983462 0.733060
Si Si2 0.781837 0.140118 0.088039
Si Si3 0.395832 0.635630 0.490451
Si Si4 0.654048 0.643559 0.017722
Si Si5 0.432205 0.205730 0.760194
Si Si6 0.286186 0.867370 0.393675
Si Si7 0.063598 0.396649 0.485088
O O1 0.759270 0.857442 0.521088
O O2 0.136523 0.970594 0.792350
O O3 0.852010 0.086925 0.602540
O O4 0.000000 0.000000 0.000000
O O5 0.905397 0.270833 0.277445
O O6 0.551018 0.118623 0.915375
O O7 0.824210 0.172390 0.890097
O O8 0.419278 0.668147 0.277717
O O9 0.338655 0.746959 0.512256
O O10 0.238005 0.488972 0.456112
O O11 0.603459 0.657715 0.756856
O O12 0.616189 0.745866 0.093600
O O13 0.861089 0.652121 0.255885
O O14 0.500000 0.500000 0.000000
O O15 0.500000 0.000000 0.500000
O O16 0.000000 0.500000 0.500000
#
# Coordination Sequence:
#
# PCOD9091265 Si02
#       7
#     2   2   2   2   2   2   2
#     4  10  20  37  65  96 133 173 218 277 324 387
#     4  10  20  36  66  92 127 175 215 266 338 377
#     4  10  23  41  70  96 131 184 220 265 353 383
#     4  10  22  42  63  92 133 172 216 281 326 391
#     4  11  21  42  69  95 134 171 222 273 332 394
#     4  10  19  39  64  94 133 171 218 275 319 394
#     4  11  23  43  64  97 140 168 222 287 326 401
#
# _framework density 26.614757000000001
#
# number of rings (size 3 to 8) (size 9 to 14) (size 15 to 20)
#    0.000    1.714    4.286    1.714    0.000    4.571 
#    7.714    0.714    0.000    3.429    0.000    0.000 
#    0.000    0.000    0.000    0.000    0.000    0.000 
#
# Total GULP energy -78247.339782 kJ/mol
# GULP energy per Si atom -5589.095699 kJ/mol
# Density = 2.655418 g / cm^3
# Si number density = 26.614757 Si / 1000 Ang^3
#
#
#
# Elastic Constant Matrix: (Units=GPa)
#
#
# Indices 1 2 3 4 5 6 
#
# 1 84.4423 46.1325 37.5110 -11.3604 13.9047 -33.9396
# 2 46.1325 125.5377 52.3947 -5.9710 6.8945 -8.6931
# 3 37.5110 52.3947 147.5026 4.1393 12.8936 -2.1497
# 4 -11.3604 -5.9710 4.1393 54.6422 -12.9273 2.9574
# 5 13.9047 6.8945 12.8936 -12.9273 44.0811 -10.6819
# 6 -33.9396 -8.6931 -2.1497 2.9574 -10.6819 64.9173
#
#
#
# Elastic Compliance Matrix: (Units=1/GPa)
#
#
# Indices 1 2 3 4 5 6 
#
# 1 0.020731 -0.005400 -0.003166 0.003076 -0.001536 0.009618
# 2 -0.005400 0.010928 -0.002591 0.000474 0.000558 -0.001376
# 3 -0.003166 -0.002591 0.008727 -0.002021 -0.002223 -0.001987
# 4 0.003076 0.000474 -0.002021 0.020463 0.005948 0.001651
# 5 -0.001536 0.000558 -0.002223 0.005948 0.026264 0.003249
# 6 0.009618 -0.001376 -0.001987 0.001651 0.003249 0.020642
#
#
# Mechanical properties :
#
#
# Convention : Reuss Voigt Hill
#
# Bulk Modulus (GPa) = 55.33105 69.95101 62.64103
# Shear Modulus (GPa) = 36.73942 47.49108 42.11525
#
# Velocity S-wave (km/s) = 3.71943 4.22879 3.98226
# Velocity P-wave (km/s) = 6.26740 7.08402 6.68818
#
# Compressibility (1/GPa) = 0.01807304
#
# Stress axis : x y z
#
# Youngs Moduli (GPa) = 48.23580 91.50687 114.58889
#
# Poissons Ratio (x) = 0.49418 0.36276
# Poissons Ratio (y) = 0.26050 0.29685
# Poissons Ratio (z) = 0.15270 0.23705
#
# Static dielectric constant tensor:
#      x y z
#    x 2.156200 0.035170 0.075700 
#    y 0.035170 2.214970 0.072020 
#    z 0.075700 0.072020 2.122500 
# 
# From -- ./inp_files/249097.got.cif
#   From: 2010.05.17/outbox.cif.g08.bks.cpg/sg2_125_cif.got.tgz:249097.got - 2010.06.03 11:33:40.
