data_PCOD9091051
_publ_section_title
;
Structure prediction by ZEFSAII (Michael W. Deem and Ramdas Pophale) SiO2 
 PCOD9091051
Probable space group: P -1
;
_chemical_formula_sum "Si O2"
_cell_formula_units_Z 14
_cell_length_a 7.238253
_cell_length_b 8.983689
_cell_length_c 10.946647
_cell_angle_alpha 65.483083
_cell_angle_beta 99.463699
_cell_angle_gamma 115.786980
_cell_volume 583.034402
_symmetry_space_group_name_H-M "P -1"
_symmetry_group_IT_number 2
_symmetry_cell_setting 'triclinic'
loop_
_space_group_symop_operation_xyz
x,y,z
-x,-y,-z
loop_
_atom_site_type_symbol
_atom_site_label
_atom_site_fract_x
_atom_site_fract_y
_atom_site_fract_z
Si Si1 0.989050 0.142737 0.271600
Si Si2 0.222685 0.443637 0.329719
Si Si3 0.045881 0.204031 0.975751
Si Si4 0.576890 0.513989 0.201656
Si Si5 0.812313 0.222331 0.708586
Si Si6 0.220412 0.256079 0.616682
Si Si7 0.579774 0.899109 0.646885
O O1 0.000126 0.296415 0.314758
O O2 0.194862 0.109782 0.339333
O O3 0.995812 0.201035 0.112646
O O4 0.806930 0.947866 0.322550
O O5 0.343552 0.492919 0.197918
O O6 0.243726 0.610136 0.357203
O O7 0.306766 0.339687 0.468646
O O8 0.276942 0.353598 0.928486
O O9 0.905437 0.244351 0.847596
O O10 0.000000 0.000000 0.000000
O O11 0.661937 0.627635 0.296153
O O12 0.563955 0.311666 0.273303
O O13 0.993141 0.248859 0.622813
O O14 0.631397 0.031579 0.725059
O O15 0.500000 0.000000 0.500000
#
# Coordination Sequence:
#
# PCOD9091051 Si02
#       7
#     2   2   2   2   2   2   2
#     4  10  22  39  64  87 121 167 202 248 297 361
#     4  11  22  36  57  98 126 146 204 257 313 345
#     4  11  20  45  68  80 119 167 219 232 296 375
#     4  10  22  37  66  89 119 164 199 257 300 351
#     4  10  22  39  64  87 122 168 196 251 295 366
#     4  10  19  39  63  85 123 169 199 239 305 372
#     4  10  20  36  58  91 123 152 200 243 302 360
#
# _framework density 24.012305000000001
#
# number of rings (size 3 to 8) (size 9 to 14) (size 15 to 20)
#    0.000    1.714    4.286    2.143    0.000    7.429 
#    0.000    3.571    0.000    0.000    0.000    0.000 
#    0.000    0.000    0.000    0.000    0.000    0.000 
#
# Total GULP energy -78021.251319 kJ/mol
# GULP energy per Si atom -5572.946523 kJ/mol
# Density = 2.395765 g / cm^3
# Si number density = 24.012305 Si / 1000 Ang^3
#
#
#
# Elastic Constant Matrix: (Units=GPa)
#
#
# Indices 1 2 3 4 5 6 
#
# 1 60.6808 3.2956 2.5560 -10.7586 0.4866 3.4672
# 2 3.2956 179.3785 -12.7861 -18.3388 -8.8703 3.6652
# 3 2.5560 -12.7861 50.2819 -2.1634 -4.3484 6.8173
# 4 -10.7586 -18.3388 -2.1634 49.7637 9.8665 -3.7549
# 5 0.4866 -8.8703 -4.3484 9.8665 13.8863 1.8969
# 6 3.4672 3.6652 6.8173 -3.7549 1.8969 18.1160
#
#
#
# Elastic Compliance Matrix: (Units=1/GPa)
#
#
# Indices 1 2 3 4 5 6 
#
# 1 0.017411 -0.000087 -0.000812 0.004310 -0.003747 -0.001723
# 2 -0.000087 0.006119 0.002258 0.001389 0.003931 -0.002194
# 3 -0.000812 0.002258 0.022788 -0.001297 0.010934 -0.010291
# 4 0.004310 0.001389 -0.001297 0.025727 -0.018863 0.006690
# 5 -0.003747 0.003931 0.010934 -0.018863 0.093933 -0.017938
# 6 -0.001723 -0.002194 -0.010291 0.006690 -0.017938 0.063111
#
#
# Mechanical properties :
#
#
# Convention : Reuss Voigt Hill
#
# Bulk Modulus (GPa) = 20.39390 30.71914 25.55652
# Shear Modulus (GPa) = 20.60007 36.17158 28.38583
#
# Velocity S-wave (km/s) = 2.93216 3.88542 3.44195
# Velocity P-wave (km/s) = 4.46934 5.74016 5.14415
#
# Compressibility (1/GPa) = 0.04903426
#
# Stress axis : x y z
#
# Youngs Moduli (GPa) = 57.43422 163.43660 43.88240
#
# Poissons Ratio (x) = 0.01426 0.03564
# Poissons Ratio (y) = 0.00501 -0.09907
# Poissons Ratio (z) = 0.04665 -0.36897
#
# Static dielectric constant tensor:
#      x y z
#    x 2.192870 0.030640 0.079800 
#    y 0.030640 2.028690 -0.136340 
#    z 0.079800 -0.136340 2.008940 
# 
# From -- ./inp_files/168888.got.cif
#   From: 2010.05.17/outbox.cif.g08.bks.cpg/sg2_85_cif.got.tgz:168888.got - 2010.06.03 11:33:40.
