data_PCOD9091969
_publ_section_title
;
Structure prediction by ZEFSAII (Michael W. Deem and Ramdas Pophale) SiO2 
 PCOD9091969
Probable space group: P -1
;
_chemical_formula_sum "Si O2"
_cell_formula_units_Z 14
_cell_length_a 12.127527
_cell_length_b 17.388003
_cell_length_c 7.959661
_cell_angle_alpha 141.480828
_cell_angle_beta 128.827712
_cell_angle_gamma 32.034807
_cell_volume 551.118882
_symmetry_space_group_name_H-M "P -1"
_symmetry_group_IT_number 2
_symmetry_cell_setting 'triclinic'
loop_
_space_group_symop_operation_xyz
x,y,z
-x,-y,-z
loop_
_atom_site_type_symbol
_atom_site_label
_atom_site_fract_x
_atom_site_fract_y
_atom_site_fract_z
Si Si1 0.586468 0.812997 0.420757
Si Si2 0.439028 0.620031 0.484026
Si Si3 0.802285 0.786349 0.865273
Si Si4 0.154437 0.181010 0.495757
Si Si5 0.918651 0.989410 0.073554
Si Si6 0.733458 0.567551 0.430711
Si Si7 0.997287 0.159772 0.630127
O O1 0.625230 0.895149 0.739385
O O2 0.776829 0.724938 0.325971
O O3 0.608006 0.679280 0.328318
O O4 0.369802 0.973064 0.397517
O O5 0.500000 0.500000 0.500000
O O6 0.317286 0.817226 0.780969
O O7 0.623309 0.543044 0.406569
O O8 0.250282 0.680257 0.297492
O O9 0.749471 0.692270 0.750759
O O10 0.035475 0.609262 0.717048
O O11 0.834073 0.893610 0.173809
O O12 0.066558 0.161416 0.219557
O O13 0.012605 0.241629 0.623109
O O14 0.043810 0.987165 0.329919
O O15 0.000000 0.000000 0.000000
#
# Coordination Sequence:
#
# PCOD9091969 Si02
#       7
#     2   2   2   2   2   2   2
#     4   9  21  37  64  89 122 169 206 258 307 368
#     4  10  22  39  64  93 123 166 210 254 313 378
#     4   9  20  41  62  88 130 163 203 263 313 367
#     4  10  19  40  64  90 122 167 214 252 311 372
#     4   8  19  39  59  86 127 155 206 254 309 364
#     4   9  21  40  60  91 127 163 203 259 318 366
#     4   9  21  38  61  93 121 161 211 256 310 367
#
# _framework density 25.402866
#
# number of rings (size 3 to 8) (size 9 to 14) (size 15 to 20)
#    1.714    1.143    0.000    0.000    2.000    4.571 
#    2.571    7.143    0.000    0.000    0.000    0.000 
#    0.000    0.000    0.000    0.000    0.000    0.000 
#
# Total GULP energy -77973.999883 kJ/mol
# GULP energy per Si atom -5569.571420 kJ/mol
# Density = 2.534505 g / cm^3
# Si number density = 25.402866 Si / 1000 Ang^3
#
#
#
# Elastic Constant Matrix: (Units=GPa)
#
#
# Indices 1 2 3 4 5 6 
#
# 1 169.4162 37.5135 8.3830 8.6521 21.0937 -0.3858
# 2 37.5135 87.4411 12.9630 -14.2295 1.8932 10.8862
# 3 8.3830 12.9630 63.0155 -31.5621 1.9273 -9.6852
# 4 8.6521 -14.2295 -31.5621 29.5884 -6.4635 -0.6159
# 5 21.0937 1.8932 1.9273 -6.4635 26.9543 -1.4459
# 6 -0.3858 10.8862 -9.6852 -0.6159 -1.4459 43.6816
#
#
#
# Elastic Compliance Matrix: (Units=1/GPa)
#
#
# Indices 1 2 3 4 5 6 
#
# 1 0.009641 -0.005237 -0.008345 -0.016580 -0.010612 -0.001045
# 2 -0.005237 0.015665 0.004475 0.015133 0.006171 -0.002540
# 3 -0.008345 0.004475 0.046016 0.057676 0.017315 0.010400
# 4 -0.016580 0.015133 0.057676 0.115583 0.036131 0.011696
# 5 -0.010612 0.006171 0.017315 0.036131 0.052636 0.004459
# 6 -0.001045 -0.002540 0.010400 0.011696 0.004459 0.026135
#
#
# Mechanical properties :
#
#
# Convention : Reuss Voigt Hill
#
# Bulk Modulus (GPa) = 18.83031 48.62131 33.72581
# Shear Modulus (GPa) = 16.57864 37.44574 27.01219
#
# Velocity S-wave (km/s) = 2.55743 3.84353 3.26445
# Velocity P-wave (km/s) = 4.01863 6.23527 5.24538
#
# Compressibility (1/GPa) = 0.05310586
#
# Stress axis : x y z
#
# Youngs Moduli (GPa) = 103.72585 63.83654 21.73180
#
# Poissons Ratio (x) = 0.33431 0.18136
# Poissons Ratio (y) = 0.54322 -0.09724
# Poissons Ratio (z) = 0.86563 -0.28565
#
# Static dielectric constant tensor:
#      x y z
#    x 2.120220 0.064140 -0.000430 
#    y 0.064140 1.970910 -0.003540 
#    z -0.000430 -0.003540 2.134540 
# 
# From -- ./inp_files/277144.got.cif
#   From: 2010.05.17/outbox.cif.g08.bks.cpg/sg2_139_cif.got.tgz:277144.got - 2010.06.03 11:33:40.
