data_PCOD9091268
_publ_section_title
;
Structure prediction by ZEFSAII (Michael W. Deem and Ramdas Pophale) SiO2 
 PCOD9091268
Probable space group: P -1
;
_chemical_formula_sum "Si O2"
_cell_formula_units_Z 16
_cell_length_a 14.363494
_cell_length_b 16.901192
_cell_length_c 4.943575
_cell_angle_alpha 79.644030
_cell_angle_beta 105.735658
_cell_angle_gamma 150.083923
_cell_volume 572.262121
_symmetry_space_group_name_H-M "P -1"
_symmetry_group_IT_number 2
_symmetry_cell_setting 'triclinic'
loop_
_space_group_symop_operation_xyz
x,y,z
-x,-y,-z
loop_
_atom_site_type_symbol
_atom_site_label
_atom_site_fract_x
_atom_site_fract_y
_atom_site_fract_z
Si Si1 0.585226 0.982470 0.734829
Si Si2 0.285875 0.458032 0.746965
Si Si3 0.279545 0.224169 0.023390
Si Si4 0.124790 0.202767 0.426050
Si Si5 0.199204 0.687877 0.526477
Si Si6 0.967435 0.296204 0.910477
Si Si7 0.715052 0.926975 0.504986
Si Si8 0.300425 0.622866 0.284336
O O1 0.378280 0.804379 0.795919
O O2 0.670764 0.975592 0.610435
O O3 0.500000 0.000000 0.500000
O O4 0.762876 0.127331 0.988672
O O5 0.495118 0.595559 0.948688
O O6 0.245529 0.365056 0.537658
O O7 0.288484 0.550202 0.569322
O O8 0.108121 0.328681 0.894479
O O9 0.190216 0.221571 0.173028
O O10 0.259293 0.124215 0.217038
O O11 0.175345 0.165812 0.695390
O O12 0.903628 0.066375 0.385502
O O13 0.126781 0.725920 0.405342
O O14 0.279552 0.698582 0.321950
O O15 0.000000 0.500000 0.500000
O O16 0.114639 0.462842 0.066346
O O17 0.521068 0.768373 0.277664
#
# Coordination Sequence:
#
# PCOD9091268 Si02
#       8
#     2   2   2   2   2   2   2   2
#     4   9  20  39  69  98 137 177 221 280 345 417
#     4  11  24  40  67  96 136 173 228 289 351 409
#     4  11  27  44  70 101 140 182 240 289 354 409
#     4  12  25  47  69 103 137 186 234 298 347 415
#     4  10  19  39  64  94 136 174 221 279 337 413
#     4  11  21  40  67  91 132 181 222 278 344 411
#     4  10  22  44  68  99 139 181 227 290 346 415
#     4  10  23  40  64  99 131 178 232 275 345 415
#
# _framework density 27.959215
#
# number of rings (size 3 to 8) (size 9 to 14) (size 15 to 20)
#    0.000    1.500    2.500    1.875    5.250    0.000 
#    2.250    1.875    0.000    0.000    0.000    0.000 
#    0.000    0.000    0.000    0.000    0.000    0.000 
#
# Total GULP energy -89555.252274 kJ/mol
# GULP energy per Si atom -5597.203267 kJ/mol
# Density = 2.789558 g / cm^3
# Si number density = 27.959215 Si / 1000 Ang^3
#
#
#
# Elastic Constant Matrix: (Units=GPa)
#
#
# Indices 1 2 3 4 5 6 
#
# 1 170.4970 50.8370 43.3507 5.7556 21.6642 -4.1993
# 2 50.8370 158.3776 49.1841 61.1975 18.7620 48.3533
# 3 43.3507 49.1841 110.2944 19.2450 14.9273 15.5392
# 4 5.7556 61.1975 19.2450 53.1277 1.7553 19.8633
# 5 21.6642 18.7620 14.9273 1.7553 43.4543 12.7779
# 6 -4.1993 48.3533 15.5392 19.8633 12.7779 71.1807
#
#
#
# Elastic Compliance Matrix: (Units=1/GPa)
#
#
# Indices 1 2 3 4 5 6 
#
# 1 0.007773 -0.003659 -0.002030 0.003073 -0.002604 0.002997
# 2 -0.003659 0.015969 -0.001944 -0.014943 -0.002003 -0.006110
# 3 -0.002030 -0.001944 0.011293 -0.001363 -0.001808 -0.000560
# 4 0.003073 -0.014943 -0.001363 0.036127 0.003977 -0.000165
# 5 -0.002604 -0.002003 -0.001808 0.003977 0.026912 -0.004339
# 6 0.002997 -0.006110 -0.000560 -0.000165 -0.004339 0.019323
#
#
# Mechanical properties :
#
#
# Convention : Reuss Voigt Hill
#
# Bulk Modulus (GPa) = 50.58114 80.65696 65.61905
# Shear Modulus (GPa) = 35.90637 53.27235 44.58936
#
# Velocity S-wave (km/s) = 3.58752 4.36978 3.99783
# Velocity P-wave (km/s) = 5.94060 7.37365 6.69557
#
# Compressibility (1/GPa) = 0.01977021
#
# Stress axis : x y z
#
# Youngs Moduli (GPa) = 128.64860 62.62222 88.55378
#
# Poissons Ratio (x) = 0.22912 0.17974
# Poissons Ratio (y) = 0.47069 0.17212
# Poissons Ratio (z) = 0.26112 0.12172
#
# Static dielectric constant tensor:
#      x y z
#    x 2.134290 -0.075770 0.008590 
#    y -0.075770 2.673840 -0.104930 
#    z 0.008590 -0.104930 2.177950 
# 
# From -- ./inp_files/99702.got.cif
#   From: 2010.05.17/outbox.cif.g08.bks.cpg/sg2_50_cif.got.tgz:99702.got - 2010.06.03 11:33:40.
