data_PCOD9091339
_publ_section_title
;
Structure prediction by ZEFSAII (Michael W. Deem and Ramdas Pophale) SiO2 
 PCOD9091339
Probable space group: P -1
;
_chemical_formula_sum "Si O2"
_cell_formula_units_Z 16
_cell_length_a 8.326734
_cell_length_b 6.035703
_cell_length_c 24.179355
_cell_angle_alpha 49.046832
_cell_angle_beta 130.047901
_cell_angle_gamma 111.135864
_cell_volume 698.621015
_symmetry_space_group_name_H-M "P -1"
_symmetry_group_IT_number 2
_symmetry_cell_setting 'triclinic'
loop_
_space_group_symop_operation_xyz
x,y,z
-x,-y,-z
loop_
_atom_site_type_symbol
_atom_site_label
_atom_site_fract_x
_atom_site_fract_y
_atom_site_fract_z
Si Si1 0.084587 0.123709 0.632219
Si Si2 0.863678 0.722450 0.986682
Si Si3 0.816027 0.125799 0.190043
Si Si4 0.115616 0.148740 0.156968
Si Si5 0.480217 0.351832 0.934102
Si Si6 0.474873 0.841218 0.691076
Si Si7 0.816105 0.199097 0.458883
Si Si8 0.570301 0.240413 0.853360
O O1 0.154069 0.454707 0.601218
O O2 0.872370 0.148215 0.544125
O O3 0.060273 0.972817 0.710802
O O4 0.269154 0.937477 0.667747
O O5 0.887218 0.873826 0.906419
O O6 0.684710 0.493771 0.978581
O O7 0.762274 0.000028 0.952713
O O8 0.059844 0.507681 0.087642
O O9 0.729177 0.472008 0.116053
O O10 0.939450 0.035899 0.175950
O O11 0.605423 0.964754 0.171339
O O12 0.333287 0.033481 0.254042
O O13 0.485398 0.415969 0.859962
O O14 0.500000 0.000000 0.000000
O O15 0.394242 0.896514 0.601299
O O16 0.565150 0.495455 0.765807
O O17 0.000000 0.000000 0.500000
#
# Coordination Sequence:
#
# PCOD9091339 Si02
#       8
#     2   2   2   2   2   2   2   2
#     4  10  19  39  65  91 117 147 198 250 291 359
#     4  10  23  41  54  80 125 165 206 244 291 345
#     4  11  22  38  59  90 122 154 199 252 297 343
#     4  11  23  40  54  86 128 159 195 249 302 343
#     4  11  21  38  60  84 115 162 211 248 286 343
#     4  11  20  38  61  90 114 155 198 236 297 357
#     4   9  20  36  67  93 112 147 198 244 298 357
#     4  11  20  38  62  81 113 161 209 244 278 349
#
# _framework density 22.902259000000001
#
# number of rings (size 3 to 8) (size 9 to 14) (size 15 to 20)
#    0.000    1.500    3.750    2.250    0.000    2.500 
#    6.750    0.625    0.000    6.750    0.000    0.000 
#    0.000    0.000    0.000    0.000    0.000    0.000 
#
# Total GULP energy -89194.791736 kJ/mol
# GULP energy per Si atom -5574.674484 kJ/mol
# Density = 2.285013 g / cm^3
# Si number density = 22.902259 Si / 1000 Ang^3
#
#
#
# Elastic Constant Matrix: (Units=GPa)
#
#
# Indices 1 2 3 4 5 6 
#
# 1 48.5448 -9.3034 22.2029 2.9406 -3.2377 -15.1391
# 2 -9.3034 66.1683 19.9121 -6.3270 1.4814 -11.4497
# 3 22.2029 19.9121 143.6631 27.3994 3.3742 -7.0103
# 4 2.9406 -6.3270 27.3994 46.5279 -4.6270 -2.6548
# 5 -3.2377 1.4814 3.3742 -4.6270 31.3545 0.2711
# 6 -15.1391 -11.4497 -7.0103 -2.6548 0.2711 15.4228
#
#
#
# Elastic Compliance Matrix: (Units=1/GPa)
#
#
# Indices 1 2 3 4 5 6 
#
# 1 0.046270 0.019871 -0.008921 0.008873 0.005611 0.057545
# 2 0.019871 0.027341 -0.006743 0.008859 0.002462 0.038220
# 3 -0.008921 -0.006743 0.010211 -0.007221 -0.002678 -0.010318
# 4 0.008873 0.008859 -0.007221 0.027863 0.005242 0.016708
# 5 0.005611 0.002462 -0.002678 0.005242 0.033362 0.006434
# 6 0.057545 0.038220 -0.010318 0.016708 0.006434 0.147772
#
#
# Mechanical properties :
#
#
# Convention : Reuss Voigt Hill
#
# Bulk Modulus (GPa) = 10.84177 35.99993 23.42085
# Shear Modulus (GPa) = 15.86535 33.69869 24.78202
#
# Velocity S-wave (km/s) = 2.63485 3.84006 3.29306
# Velocity P-wave (km/s) = 3.74177 5.95101 4.97068
#
# Compressibility (1/GPa) = 0.09223583
#
# Stress axis : x y z
#
# Youngs Moduli (GPa) = 21.61206 36.57458 97.93692
#
# Poissons Ratio (x) = -0.72676 0.87370
# Poissons Ratio (y) = -0.42945 0.66038
# Poissons Ratio (z) = 0.19280 0.24662
#
# Static dielectric constant tensor:
#      x y z
#    x 1.948860 0.053630 0.023050 
#    y 0.053630 1.906820 0.034800 
#    z 0.023050 0.034800 1.899830 
# 
# From -- ./inp_files/45546.got.cif
#   From: 2010.05.17/outbox.cif.g08.bks.cpg/sg2_23_cif.got.tgz:45546.got - 2010.06.03 11:33:40.
