data_PCOD9091334
_publ_section_title
;
Structure prediction by ZEFSAII (Michael W. Deem and Ramdas Pophale) SiO2 
 PCOD9091334
Probable space group: P -1
;
_chemical_formula_sum "Si O2"
_cell_formula_units_Z 14
_cell_length_a 10.913808
_cell_length_b 16.443179
_cell_length_c 11.354860
_cell_angle_alpha 39.437611
_cell_angle_beta 49.870611
_cell_angle_gamma 31.121118
_cell_volume 668.166591
_symmetry_space_group_name_H-M "P -1"
_symmetry_group_IT_number 2
_symmetry_cell_setting 'triclinic'
loop_
_space_group_symop_operation_xyz
x,y,z
-x,-y,-z
loop_
_atom_site_type_symbol
_atom_site_label
_atom_site_fract_x
_atom_site_fract_y
_atom_site_fract_z
Si Si1 0.043764 0.886015 0.944794
Si Si2 0.054955 0.761907 0.308208
Si Si3 0.516651 0.071871 0.030359
Si Si4 0.719363 0.154987 0.369744
Si Si5 0.644245 0.568449 0.316068
Si Si6 0.765903 0.267399 0.451726
Si Si7 0.567335 0.912673 0.423908
O O1 0.195619 0.792959 0.836866
O O2 0.029673 0.047322 0.805661
O O3 0.166404 0.738312 0.141472
O O4 0.783161 0.975534 0.988640
O O5 0.201574 0.592885 0.499400
O O6 0.837193 0.796912 0.376808
O O7 0.460234 0.035201 0.230805
O O8 0.334433 0.295805 0.872938
O O9 0.500000 0.000000 0.000000
O O10 0.672988 0.249872 0.415183
O O11 0.505220 0.192438 0.419473
O O12 0.954829 0.926070 0.496199
O O13 0.700358 0.454642 0.291796
O O14 0.379441 0.704569 0.379142
O O15 0.500000 0.000000 0.500000
#
# Coordination Sequence:
#
# PCOD9091334 Si02
#       7
#     2   2   2   2   2   2   2
#     4  10  19  39  65  90 122 171 211 245 312 393
#     4  10  21  37  66  94 122 169 211 250 315 381
#     4  11  24  40  67  94 120 170 219 257 311 383
#     4  11  20  39  65  93 126 163 211 257 309 374
#     4  11  19  42  64  94 124 165 210 263 309 377
#     4  10  21  34  66  94 122 159 212 261 312 360
#     4  11  22  39  62  95 128 167 211 258 314 376
#
# _framework density 20.952859
#
# number of rings (size 3 to 8) (size 9 to 14) (size 15 to 20)
#    0.000    1.429    4.286    1.714    2.000    0.000 
#    0.000   10.000    3.143    0.000    0.000    0.000 
#    0.000    0.000    0.000    0.000    0.000    0.000 
#
# Total GULP energy -77995.723963 kJ/mol
# GULP energy per Si atom -5571.123140 kJ/mol
# Density = 2.090517 g / cm^3
# Si number density = 20.952859 Si / 1000 Ang^3
#
#
#
# Elastic Constant Matrix: (Units=GPa)
#
#
# Indices 1 2 3 4 5 6 
#
# 1 122.3577 33.8489 33.1936 4.9388 4.7503 15.1138
# 2 33.8489 56.2966 25.7634 2.3167 -0.7213 20.3908
# 3 33.1936 25.7634 105.9817 6.5541 14.5464 6.4599
# 4 4.9388 2.3167 6.5541 25.5683 -1.1232 0.0203
# 5 4.7503 -0.7213 14.5464 -1.1232 28.0655 4.6391
# 6 15.1138 20.3908 6.4599 0.0203 4.6391 43.7646
#
#
#
# Elastic Compliance Matrix: (Units=1/GPa)
#
#
# Indices 1 2 3 4 5 6 
#
# 1 0.010212 -0.004999 -0.001745 -0.001109 -0.000857 -0.000848
# 2 -0.004999 0.027131 -0.005207 0.000116 0.006029 -0.010785
# 3 -0.001745 -0.005207 0.012195 -0.002608 -0.006582 0.001927
# 4 -0.001109 0.000116 -0.002608 0.040119 0.003087 0.000368
# 5 -0.000857 0.006029 -0.006582 0.003087 0.040429 -0.005829
# 6 -0.000848 -0.010785 0.001927 0.000368 -0.005829 0.028501
#
#
# Mechanical properties :
#
#
# Convention : Reuss Voigt Hill
#
# Bulk Modulus (GPa) = 39.00926 52.24974 45.62950
# Shear Modulus (GPa) = 26.17330 32.26834 29.22082
#
# Velocity S-wave (km/s) = 3.53817 3.92860 3.73848
# Velocity P-wave (km/s) = 5.94555 6.75051 6.36078
#
# Compressibility (1/GPa) = 0.02563494
#
# Stress axis : x y z
#
# Youngs Moduli (GPa) = 97.92334 36.85870 81.99986
#
# Poissons Ratio (x) = 0.18427 0.14311
# Poissons Ratio (y) = 0.48956 0.42695
# Poissons Ratio (z) = 0.17090 0.19191
#
# Static dielectric constant tensor:
#      x y z
#    x 1.802270 0.004360 0.043380 
#    y 0.004360 1.795690 0.010260 
#    z 0.043380 0.010260 1.824390 
# 
# From -- ./inp_files/436478.got.cif
#   From: 2010.05.17/outbox.cif.g08.bks.cpg/sg2_219_cif.got.tgz:436478.got - 2010.06.03 11:33:40.
