data_PCOD9091515
_publ_section_title
;
Structure prediction by ZEFSAII (Michael W. Deem and Ramdas Pophale) SiO2 
 PCOD9091515
Probable space group: P -1
;
_chemical_formula_sum "Si O2"
_cell_formula_units_Z 16
_cell_length_a 11.220742
_cell_length_b 7.723912
_cell_length_c 9.492992
_cell_angle_alpha 89.822415
_cell_angle_beta 82.371450
_cell_angle_gamma 123.859160
_cell_volume 674.188900
_symmetry_space_group_name_H-M "P -1"
_symmetry_group_IT_number 2
_symmetry_cell_setting 'triclinic'
loop_
_space_group_symop_operation_xyz
x,y,z
-x,-y,-z
loop_
_atom_site_type_symbol
_atom_site_label
_atom_site_fract_x
_atom_site_fract_y
_atom_site_fract_z
Si Si1 0.223176 0.869060 0.869128
Si Si2 0.488385 0.223129 0.646393
Si Si3 0.629085 0.953885 0.628684
Si Si4 0.975200 0.234847 0.606185
Si Si5 0.091805 0.993888 0.113792
Si Si6 0.440279 0.785197 0.922485
Si Si7 0.966069 0.614295 0.696177
Si Si8 0.685737 0.535767 0.824803
O O1 0.290318 0.732253 0.876754
O O2 0.085382 0.768340 0.788912
O O3 0.352820 0.080814 0.773456
O O4 0.174603 0.900359 0.028226
O O5 0.427549 0.192340 0.499427
O O6 0.590322 0.450937 0.698620
O O7 0.579617 0.116116 0.625859
O O8 0.549830 0.827272 0.781788
O O9 0.801722 0.083966 0.610792
O O10 0.012871 0.461454 0.642521
O O11 0.042318 0.267951 0.440325
O O12 0.005550 0.141277 0.737078
O O13 0.213595 0.223283 0.150648
O O14 0.000000 0.000000 0.000000
O O15 0.413305 0.606557 0.031176
O O16 0.500000 0.000000 0.000000
O O17 0.806921 0.482383 0.787157
#
# Coordination Sequence:
#
# PCOD9091515 Si02
#       8
#     2   2   2   2   2   2   2   2
#     4  11  22  42  66  95 131 173 219 281 322 388
#     4  10  21  39  67  98 132 163 221 274 334 382
#     4  10  19  39  67 101 131 162 216 285 325 375
#     4  11  24  42  69 101 131 173 220 274 330 393
#     4  12  28  45  61  94 142 181 217 266 335 403
#     4  11  21  39  69 100 131 169 221 279 326 383
#     4  11  23  42  72  97 129 168 229 274 327 385
#     4  12  24  44  63  97 133 181 217 269 333 393
#
# _framework density 23.732223000000001
#
# number of rings (size 3 to 8) (size 9 to 14) (size 15 to 20)
#    0.000    1.000    6.250    1.500    1.750    2.000 
#    0.000    0.625    0.000    0.000    0.000    0.000 
#    0.000    0.000    0.000    0.000    0.000    0.000 
#
# Total GULP energy -89545.289343 kJ/mol
# GULP energy per Si atom -5596.580584 kJ/mol
# Density = 2.367821 g / cm^3
# Si number density = 23.732223 Si / 1000 Ang^3
#
#
#
# Elastic Constant Matrix: (Units=GPa)
#
#
# Indices 1 2 3 4 5 6 
#
# 1 55.5951 5.3224 11.1121 7.1618 12.8387 9.9298
# 2 5.3224 100.3236 52.9053 22.4276 18.2897 7.0923
# 3 11.1121 52.9053 148.9077 2.3366 21.2688 1.8171
# 4 7.1618 22.4276 2.3366 43.2379 3.4549 7.9874
# 5 12.8387 18.2897 21.2688 3.4549 35.1798 2.0857
# 6 9.9298 7.0923 1.8171 7.9874 2.0857 30.3731
#
#
#
# Elastic Compliance Matrix: (Units=1/GPa)
#
#
# Indices 1 2 3 4 5 6 
#
# 1 0.021162 0.001806 -0.001047 -0.002673 -0.007407 -0.006066
# 2 0.001806 0.014873 -0.004600 -0.007086 -0.004820 -0.001594
# 3 -0.001047 -0.004600 0.008785 0.002215 -0.002785 0.000500
# 4 -0.002673 -0.007086 0.002215 0.027985 0.000870 -0.005023
# 5 -0.007407 -0.004820 -0.002785 0.000870 0.035169 0.001070
# 6 -0.006066 -0.001594 0.000500 -0.005023 0.001070 0.036497
#
#
# Mechanical properties :
#
#
# Convention : Reuss Voigt Hill
#
# Bulk Modulus (GPa) = 26.92637 49.27844 38.10240
# Shear Modulus (GPa) = 30.38931 37.45726 33.92329
#
# Velocity S-wave (km/s) = 3.58230 3.97713 3.78487
# Velocity P-wave (km/s) = 5.33676 6.47298 5.93214
#
# Compressibility (1/GPa) = 0.03713831
#
# Stress axis : x y z
#
# Youngs Moduli (GPa) = 47.25497 67.23520 113.83174
#
# Poissons Ratio (x) = -0.12144 0.11918
# Poissons Ratio (y) = -0.08535 0.52362
# Poissons Ratio (z) = 0.04948 0.30928
#
# Static dielectric constant tensor:
#      x y z
#    x 1.962040 -0.060020 0.015470 
#    y -0.060020 1.874030 -0.000270 
#    z 0.015470 -0.000270 1.899460 
# 
# From -- ./inp_files/217670.got.cif
#   From: 2010.05.17/outbox.cif.g08.bks.cpg/sg2_109_cif.got.tgz:217670.got - 2010.06.03 11:33:40.
