data_PCOD9091563
_publ_section_title
;
Structure prediction by ZEFSAII (Michael W. Deem and Ramdas Pophale) SiO2 
 PCOD9091563
Probable space group: P -1
;
_chemical_formula_sum "Si O2"
_cell_formula_units_Z 16
_cell_length_a 8.840384
_cell_length_b 18.919699
_cell_length_c 12.415450
_cell_angle_alpha 152.313153
_cell_angle_beta 125.464204
_cell_angle_gamma 53.067149
_cell_volume 764.750071
_symmetry_space_group_name_H-M "P -1"
_symmetry_group_IT_number 2
_symmetry_cell_setting 'triclinic'
loop_
_space_group_symop_operation_xyz
x,y,z
-x,-y,-z
loop_
_atom_site_type_symbol
_atom_site_label
_atom_site_fract_x
_atom_site_fract_y
_atom_site_fract_z
Si Si1 0.489619 0.750197 0.152969
Si Si2 0.657564 0.964356 0.674655
Si Si3 0.706660 0.376940 0.921067
Si Si4 0.005122 0.501015 0.331125
Si Si5 0.912836 0.214398 0.367383
Si Si6 0.264013 0.344858 0.393046
Si Si7 0.357267 0.020112 0.069866
Si Si8 0.327691 0.608407 0.310166
O O1 0.604028 0.838648 0.401059
O O2 0.314698 0.728267 0.127274
O O3 0.414961 0.866058 0.180027
O O4 0.613609 0.580329 0.937452
O O5 0.569361 0.959779 0.751688
O O6 0.885289 0.908461 0.705643
O O7 0.718115 0.311881 0.717950
O O8 0.500000 0.500000 0.000000
O O9 0.885465 0.452868 0.118978
O O10 0.852609 0.526053 0.399439
O O11 0.069172 0.659028 0.544029
O O12 0.188269 0.378402 0.286486
O O13 0.846845 0.321505 0.589658
O O14 0.753401 0.116968 0.151785
O O15 0.222922 0.185193 0.204495
O O16 0.483129 0.348556 0.504908
O O17 0.500000 0.000000 0.000000
#
# Coordination Sequence:
#
# PCOD9091563 Si02
#       8
#     2   2   2   2   2   2   2   2
#     4  10  23  42  73  96 133 179 223 285 332 405
#     4  11  25  44  67 102 137 173 228 276 349 396
#     4  10  19  39  67  94 127 175 222 271 332 396
#     4  11  24  38  68  99 127 169 229 278 324 398
#     4  12  26  41  68 101 137 175 222 282 339 396
#     4  11  23  42  64  97 130 173 226 269 335 400
#     4  12  26  44  67  93 139 184 216 273 342 412
#     4  11  23  42  71  97 134 176 229 276 336 403
#
# _framework density 20.921869000000001
#
# number of rings (size 3 to 8) (size 9 to 14) (size 15 to 20)
#    0.000    1.000    5.000    2.625    3.500    3.500 
#    0.000    1.875    0.000    0.000    0.000    0.000 
#    0.000    0.000    0.000    0.000    0.000    0.000 
#
# Total GULP energy -89259.140786 kJ/mol
# GULP energy per Si atom -5578.696299 kJ/mol
# Density = 2.087425 g / cm^3
# Si number density = 20.921869 Si / 1000 Ang^3
#
#
#
# Elastic Constant Matrix: (Units=GPa)
#
#
# Indices 1 2 3 4 5 6 
#
# 1 88.7621 31.4588 20.9409 -8.3259 -11.6362 16.3824
# 2 31.4588 114.6952 47.2529 -12.8352 4.6282 24.2339
# 3 20.9409 47.2529 79.7514 3.5300 8.0339 3.1418
# 4 -8.3259 -12.8352 3.5300 24.5289 0.6307 6.6396
# 5 -11.6362 4.6282 8.0339 0.6307 46.6441 0.0442
# 6 16.3824 24.2339 3.1418 6.6396 0.0442 14.9430
#
#
#
# Elastic Compliance Matrix: (Units=1/GPa)
#
#
# Indices 1 2 3 4 5 6 
#
# 1 0.033261 0.030866 -0.026354 0.060165 0.009063 -0.107742
# 2 0.030866 0.069512 -0.047442 0.102827 0.007757 -0.182309
# 3 -0.026354 -0.047442 0.046708 -0.075315 -0.009016 0.129502
# 4 0.060165 0.102827 -0.075315 0.209342 0.015242 -0.309949
# 5 0.009063 0.007757 -0.009016 0.015242 0.024303 -0.027463
# 6 -0.107742 -0.182309 0.129502 -0.309949 -0.027463 0.591276
#
#
# Mechanical properties :
#
#
# Convention : Reuss Voigt Hill
#
# Bulk Modulus (GPa) = 15.71745 53.61265 34.66505
# Shear Modulus (GPa) = 4.62334 29.46025 17.04180
#
# Velocity S-wave (km/s) = 1.48816 3.75655 2.85712
# Velocity P-wave (km/s) = 3.23753 6.67056 5.24299
#
# Compressibility (1/GPa) = 0.06362354
#
# Stress axis : x y z
#
# Youngs Moduli (GPa) = 30.06541 14.38595 21.40938
#
# Poissons Ratio (x) = -0.44404 0.56421
# Poissons Ratio (y) = -0.92801 1.01570
# Poissons Ratio (z) = 0.79233 0.68250
#
# Static dielectric constant tensor:
#      x y z
#    x 1.777940 0.002390 -0.013790 
#    y 0.002390 1.794030 -0.010650 
#    z -0.013790 -0.010650 1.813950 
# 
# From -- ./inp_files/403625.got.cif
#   From: 2010.05.17/outbox.cif.g08.bks.cpg/sg2_202_cif.got.tgz:403625.got - 2010.06.03 11:33:40.
