data_PCOD9091790
_publ_section_title
;
Structure prediction by ZEFSAII (Michael W. Deem and Ramdas Pophale) SiO2 
 PCOD9091790
Probable space group: P -1
;
_chemical_formula_sum "Si O2"
_cell_formula_units_Z 16
_cell_length_a 11.702311
_cell_length_b 10.423290
_cell_length_c 8.758241
_cell_angle_alpha 45.609162
_cell_angle_beta 110.870439
_cell_angle_gamma 92.199858
_cell_volume 676.810192
_symmetry_space_group_name_H-M "P -1"
_symmetry_group_IT_number 2
_symmetry_cell_setting 'triclinic'
loop_
_space_group_symop_operation_xyz
x,y,z
-x,-y,-z
loop_
_atom_site_type_symbol
_atom_site_label
_atom_site_fract_x
_atom_site_fract_y
_atom_site_fract_z
Si Si1 0.727388 0.754961 0.111907
Si Si2 0.569124 0.138927 0.651279
Si Si3 0.314944 0.319375 0.502296
Si Si4 0.344258 0.720769 0.120231
Si Si5 0.039517 0.910121 0.760250
Si Si6 0.045082 0.552011 0.219312
Si Si7 0.015180 0.731396 0.359502
Si Si8 0.566370 0.512158 0.178207
O O1 0.648922 0.928003 0.824819
O O2 0.678106 0.763742 0.256396
O O3 0.871281 0.761733 0.197552
O O4 0.691946 0.577152 0.176839
O O5 0.415692 0.180450 0.553573
O O6 0.614486 0.165837 0.821646
O O7 0.598971 0.304044 0.436667
O O8 0.351892 0.512771 0.359798
O O9 0.165019 0.397331 0.324923
O O10 0.454437 0.668260 0.088649
O O11 0.196879 0.829004 0.911326
O O12 0.985335 0.074089 0.725983
O O13 0.993854 0.730057 0.935199
O O14 0.000000 0.000000 0.500000
O O15 0.968919 0.423524 0.368941
O O16 0.095397 0.642557 0.319296
O O17 0.500000 0.500000 0.000000
#
# Coordination Sequence:
#
# PCOD9091790 Si02
#       8
#     2   2   2   2   2   2   2   2
#     4  11  20  34  66  90 116 155 203 243 292 349
#     4  11  19  36  66  89 114 153 210 243 285 362
#     4   9  17  33  62  90 111 149 200 251 280 340
#     4  10  19  40  60  88 114 159 206 238 290 366
#     4  11  23  41  61  91 124 158 201 258 306 346
#     4   9  21  39  62  87 121 160 207 246 297 360
#     4  10  21  40  64  91 118 160 211 245 292 363
#     4  11  24  40  56  91 129 155 187 247 314 354
#
# _framework density 23.640308000000001
#
# number of rings (size 3 to 8) (size 9 to 14) (size 15 to 20)
#    0.000    1.750    3.750    1.500    0.000    1.000 
#    9.000    0.000    5.500    0.000    0.000    0.000 
#    0.000    0.000    0.000    0.000    0.000    0.000 
#
# Total GULP energy -89343.927740 kJ/mol
# GULP energy per Si atom -5583.995484 kJ/mol
# Density = 2.358650 g / cm^3
# Si number density = 23.640308 Si / 1000 Ang^3
#
#
#
# Elastic Constant Matrix: (Units=GPa)
#
#
# Indices 1 2 3 4 5 6 
#
# 1 83.2330 17.9418 28.9191 -4.8777 12.2463 -2.3795
# 2 17.9418 41.3874 46.4566 0.4648 -2.3924 8.5772
# 3 28.9191 46.4566 154.9002 -17.4309 2.0232 4.4540
# 4 -4.8777 0.4648 -17.4309 30.1445 -2.4219 2.6383
# 5 12.2463 -2.3924 2.0232 -2.4219 10.7314 -5.0338
# 6 -2.3795 8.5772 4.4540 2.6383 -5.0338 11.9306
#
#
#
# Elastic Compliance Matrix: (Units=1/GPa)
#
#
# Indices 1 2 3 4 5 6 
#
# 1 0.017061 -0.008383 -0.000303 0.000996 -0.020800 0.000546
# 2 -0.008383 0.048591 -0.013113 -0.006653 0.008958 -0.026459
# 3 -0.000303 -0.013113 0.011070 0.006136 -0.001821 0.003109
# 4 0.000996 -0.006653 0.006136 0.037589 0.002581 -0.004533
# 5 -0.020800 0.008958 -0.001821 0.002581 0.143286 0.049976
# 6 0.000546 -0.026459 0.003109 -0.004533 0.049976 0.123877
#
#
# Mechanical properties :
#
#
# Convention : Reuss Voigt Hill
#
# Bulk Modulus (GPa) = 30.18893 51.79508 40.99201
# Shear Modulus (GPa) = 11.46492 22.97484 17.21988
#
# Velocity S-wave (km/s) = 2.20460 3.12083 2.70184
# Velocity P-wave (km/s) = 4.39069 5.91129 5.20680
#
# Compressibility (1/GPa) = 0.03312472
#
# Stress axis : x y z
#
# Youngs Moduli (GPa) = 58.61280 20.58001 90.33447
#
# Poissons Ratio (x) = 0.17251 0.02739
# Poissons Ratio (y) = 0.49133 1.18454
# Poissons Ratio (z) = 0.01777 0.26986
#
# Static dielectric constant tensor:
#      x y z
#    x 1.978840 -0.053390 0.030020 
#    y -0.053390 1.903830 -0.058810 
#    z 0.030020 -0.058810 1.932240 
# 
# From -- ./inp_files/306284.got.cif
#   From: 2010.05.17/outbox.cif.g08.bks.cpg/sg2_154_cif.got.tgz:306284.got - 2010.06.03 11:33:40.
