data_PCOD9091949
_publ_section_title
;
Structure prediction by ZEFSAII (Michael W. Deem and Ramdas Pophale) SiO2 
 PCOD9091949
Probable space group: P -1
;
_chemical_formula_sum "Si O2"
_cell_formula_units_Z 15
_cell_length_a 12.208198
_cell_length_b 8.003524
_cell_length_c 17.199717
_cell_angle_alpha 47.847411
_cell_angle_beta 29.967096
_cell_angle_gamma 45.445844
_cell_volume 588.637125
_symmetry_space_group_name_H-M "P -1"
_symmetry_group_IT_number 2
_symmetry_cell_setting 'triclinic'
loop_
_space_group_symop_operation_xyz
x,y,z
-x,-y,-z
loop_
_atom_site_type_symbol
_atom_site_label
_atom_site_fract_x
_atom_site_fract_y
_atom_site_fract_z
Si Si1 0.206987 0.195650 0.684468
Si Si2 0.379743 0.671056 0.668051
Si Si3 0.838692 0.873026 0.680208
Si Si4 0.859042 0.192507 0.786486
Si Si5 0.000000 0.000000 0.000000
Si Si6 0.506595 0.310623 0.838051
Si Si7 0.007487 0.311374 0.203547
Si Si8 0.566881 0.251916 0.086632
O O1 0.434220 0.268390 0.519511
O O2 0.031189 0.308632 0.685899
O O3 0.261804 0.915008 0.712756
O O4 0.099308 0.193065 0.835719
O O5 0.502418 0.481787 0.716457
O O6 0.208937 0.565624 0.757396
O O7 0.989577 0.671302 0.710300
O O8 0.671501 0.803305 0.744662
O O9 0.649233 0.049360 0.799836
O O10 0.000000 0.000000 0.500000
O O11 0.657208 0.350871 0.805337
O O12 0.992230 0.962036 0.726185
O O13 0.746159 0.095579 0.959068
O O14 0.269554 0.827765 0.914539
O O15 0.247679 0.333907 0.016822
O O16 0.500000 0.500000 0.000000
#
# Coordination Sequence:
#
# PCOD9091949 Si02
#       8
#     2   2   2   2   1   2   2   2
#     4   9  21  40  56  89 130 159 204 258 313 382
#     4  10  22  36  61  95 119 157 212 262 312 371
#     4  11  24  41  63  93 125 162 211 273 324 376
#     4   9  18  38  62  84 116 162 205 248 305 380
#     4  10  24  40  66  86 132 178 202 258 326 382
#     4  11  20  39  66  87 119 163 212 258 315 378
#     4  10  19  40  64  86 122 160 204 257 314 381
#     4  11  23  42  64  94 128 168 216 258 319 392
#
# _framework density 25.482589999999998
#
# number of rings (size 3 to 8) (size 9 to 14) (size 15 to 20)
#    0.000    1.867    2.667    1.200    3.733    2.667 
#    2.400    0.667    0.000    0.000    0.000    0.000 
#    0.000    0.000    0.000    0.000    0.000    0.000 
#
# Total GULP energy -83524.266721 kJ/mol
# GULP energy per Si atom -5568.284448 kJ/mol
# Density = 2.542459 g / cm^3
# Si number density = 25.482590 Si / 1000 Ang^3
#
#
#
# Elastic Constant Matrix: (Units=GPa)
#
#
# Indices 1 2 3 4 5 6 
#
# 1 125.1850 27.8091 37.8828 -4.1005 -19.0430 -12.0415
# 2 27.8091 45.1531 -10.1797 -4.6374 -10.9447 -15.8401
# 3 37.8828 -10.1797 108.1097 -20.6441 -19.0465 -7.6884
# 4 -4.1005 -4.6374 -20.6441 26.5381 -8.9770 5.3653
# 5 -19.0430 -10.9447 -19.0465 -8.9770 40.8103 -4.1969
# 6 -12.0415 -15.8401 -7.6884 5.3653 -4.1969 46.7474
#
#
#
# Elastic Compliance Matrix: (Units=1/GPa)
#
#
# Indices 1 2 3 4 5 6 
#
# 1 0.011565 -0.009625 -0.006186 -0.004959 -0.001249 -0.000843
# 2 -0.009625 0.045281 0.017408 0.024637 0.022733 0.014940
# 3 -0.006186 0.017408 0.020942 0.022870 0.017273 0.006675
# 4 -0.004959 0.024637 0.022870 0.068185 0.030557 0.005749
# 5 -0.001249 0.022733 0.017273 0.030557 0.045915 0.010837
# 6 -0.000843 0.014940 0.006675 0.005749 0.010837 0.027648
#
#
# Mechanical properties :
#
#
# Convention : Reuss Voigt Hill
#
# Bulk Modulus (GPa) = 12.34824 43.27470 27.81147
# Shear Modulus (GPa) = 20.54793 37.68153 29.11473
#
# Velocity S-wave (km/s) = 2.84271 3.84958 3.38381
# Velocity P-wave (km/s) = 3.95360 6.06448 5.11903
#
# Compressibility (1/GPa) = 0.08098319
#
# Stress axis : x y z
#
# Youngs Moduli (GPa) = 86.47089 22.08429 47.75193
#
# Poissons Ratio (x) = 0.21256 0.29537
# Poissons Ratio (y) = 0.83226 -0.83128
# Poissons Ratio (z) = 0.53487 -0.38445
#
# Static dielectric constant tensor:
#      x y z
#    x 2.129150 0.095940 -0.014020 
#    y 0.095940 2.304100 0.113000 
#    z -0.014020 0.113000 1.931510 
# 
# From -- ./inp_files/279791.got.cif
#   From: 2010.05.17/outbox.cif.g08.bks.cpg/sg2_140_cif.got.tgz:279791.got - 2010.06.03 11:33:40.
