data_PCOD9091287
_publ_section_title
;
Structure prediction by ZEFSAII (Michael W. Deem and Ramdas Pophale) SiO2 
 PCOD9091287
Probable space group: P -1
;
_chemical_formula_sum "Si O2"
_cell_formula_units_Z 14
_cell_length_a 7.399013
_cell_length_b 8.637012
_cell_length_c 13.811467
_cell_angle_alpha 55.817660
_cell_angle_beta 48.196845
_cell_angle_gamma 63.119034
_cell_volume 539.956327
_symmetry_space_group_name_H-M "P -1"
_symmetry_group_IT_number 2
_symmetry_cell_setting 'triclinic'
loop_
_space_group_symop_operation_xyz
x,y,z
-x,-y,-z
loop_
_atom_site_type_symbol
_atom_site_label
_atom_site_fract_x
_atom_site_fract_y
_atom_site_fract_z
Si Si1 0.031705 0.533227 0.363433
Si Si2 0.440476 0.335038 0.151545
Si Si3 0.988386 0.952631 0.206926
Si Si4 0.709496 0.114902 0.426128
Si Si5 0.689559 0.546337 0.313875
Si Si6 0.021493 0.676610 0.996854
Si Si7 0.466909 0.930192 0.291124
O O1 0.228195 0.390470 0.285446
O O2 0.000000 0.500000 0.500000
O O3 0.113812 0.740468 0.245593
O O4 0.771363 0.527241 0.403637
O O5 0.698261 0.297118 0.126428
O O6 0.411776 0.131191 0.187444
O O7 0.500000 0.500000 0.000000
O O8 0.736473 0.925816 0.247860
O O9 0.930447 0.035637 0.305813
O O10 0.113267 0.114571 0.050709
O O11 0.651671 0.341671 0.359496
O O12 0.719170 0.073282 0.551404
O O13 0.500000 0.000000 0.500000
O O14 0.493667 0.728589 0.299794
O O15 0.934138 0.606538 0.154719
O O16 0.000000 0.500000 0.000000
#
# Coordination Sequence:
#
# PCOD9091287 Si02
#       7
#     2   2   2   2   2   2   2
#     4  11  24  44  67 100 143 183 223 280 342 403
#     4  11  23  42  68  97 140 181 223 280 345 397
#     4   9  20  37  67  92 130 174 222 274 334 396
#     4  10  19  39  64  98 129 166 224 289 333 387
#     4  11  22  39  69 100 132 178 233 277 337 414
#     4  11  22  41  67  97 134 180 229 279 334 411
#     4   9  21  36  63  96 128 172 225 276 331 397
#
# _framework density 25.928025000000002
#
# number of rings (size 3 to 8) (size 9 to 14) (size 15 to 20)
#    0.000    1.714    2.857    1.286    2.000    5.143 
#    2.571    5.000    0.000    0.000    0.000    0.000 
#    0.000    0.000    0.000    0.000    0.000    0.000 
#
# Total GULP energy -78233.292054 kJ/mol
# GULP energy per Si atom -5588.092290 kJ/mol
# Density = 2.586901 g / cm^3
# Si number density = 25.928025 Si / 1000 Ang^3
#
#
#
# Elastic Constant Matrix: (Units=GPa)
#
#
# Indices 1 2 3 4 5 6 
#
# 1 65.7374 27.1040 9.6640 -7.7168 -5.8398 13.4339
# 2 27.1040 214.5419 52.5919 -41.9656 -8.1259 14.6131
# 3 9.6640 52.5919 110.1095 -33.8867 5.4249 6.2510
# 4 -7.7168 -41.9656 -33.8867 62.3094 6.9467 -5.9302
# 5 -5.8398 -8.1259 5.4249 6.9467 30.4989 -0.6726
# 6 13.4339 14.6131 6.2510 -5.9302 -0.6726 26.3319
#
#
#
# Elastic Compliance Matrix: (Units=1/GPa)
#
#
# Indices 1 2 3 4 5 6 
#
# 1 0.017805 -0.001479 -0.000616 -0.000230 0.002999 -0.008092
# 2 -0.001479 0.005950 -0.001898 0.002535 0.001029 -0.001500
# 3 -0.000616 -0.001898 0.011976 0.005577 -0.004031 -0.000323
# 4 -0.000230 0.002535 0.005577 0.021543 -0.005221 0.002105
# 5 0.002999 0.001029 -0.004031 -0.005221 0.035512 -0.001413
# 6 -0.008092 -0.001500 -0.000323 0.002105 -0.001413 0.043452
#
#
# Mechanical properties :
#
#
# Convention : Reuss Voigt Hill
#
# Bulk Modulus (GPa) = 36.03982 63.23430 49.63706
# Shear Modulus (GPa) = 32.57946 43.89663 38.23804
#
# Velocity S-wave (km/s) = 3.54861 4.11909 3.84445
# Velocity P-wave (km/s) = 5.54259 6.86032 6.23635
#
# Compressibility (1/GPa) = 0.02774709
#
# Stress axis : x y z
#
# Youngs Moduli (GPa) = 56.16297 168.06578 83.50299
#
# Poissons Ratio (x) = 0.24853 0.05140
# Poissons Ratio (y) = 0.08305 0.15846
# Poissons Ratio (z) = 0.03457 0.31893
#
# Static dielectric constant tensor:
#      x y z
#    x 2.190200 -0.152830 -0.034040 
#    y -0.152830 2.235170 -0.027640 
#    z -0.034040 -0.027640 2.177300 
# 
# From -- ./inp_files/379421.got.cif
#   From: 2010.05.17/outbox.cif.g08.bks.cpg/sg2_190_cif.got.tgz:379421.got - 2010.06.03 11:33:40.
