data_PCOD9091830
_publ_section_title
;
Structure prediction by ZEFSAII (Michael W. Deem and Ramdas Pophale) SiO2 
 PCOD9091830
Probable space group: P -1
;
_chemical_formula_sum "Si O2"
_cell_formula_units_Z 12
_cell_length_a 12.452343
_cell_length_b 11.760699
_cell_length_c 8.986201
_cell_angle_alpha 131.688273
_cell_angle_beta 123.252670
_cell_angle_gamma 36.702727
_cell_volume 587.026011
_symmetry_space_group_name_H-M "P -1"
_symmetry_group_IT_number 2
_symmetry_cell_setting 'triclinic'
loop_
_space_group_symop_operation_xyz
x,y,z
-x,-y,-z
loop_
_atom_site_type_symbol
_atom_site_label
_atom_site_fract_x
_atom_site_fract_y
_atom_site_fract_z
Si Si1 0.940499 0.863687 0.624632
Si Si2 0.324582 0.753615 0.436586
Si Si3 0.939690 0.512441 0.799543
Si Si4 0.455289 0.134021 0.228752
Si Si5 0.303520 0.709382 0.722549
Si Si6 0.232470 0.084878 0.153787
O O1 0.832884 0.912335 0.733334
O O2 0.947155 0.709667 0.390251
O O3 0.146315 0.740573 0.704923
O O4 0.842340 0.084646 0.658518
O O5 0.401496 0.859673 0.615841
O O6 0.273411 0.733154 0.541942
O O7 0.493851 0.518643 0.297700
O O8 0.732925 0.626847 0.743747
O O9 0.921252 0.684154 0.841093
O O10 0.000000 0.500000 0.000000
O O11 0.402450 0.059159 0.253300
O O12 0.500000 0.000000 0.000000
O O13 0.280846 0.898716 0.930393
#
# Coordination Sequence:
#
# PCOD9091830 Si02
#       6
#     2   2   2   2   2   2
#     4  12  23  41  62  94 127 160 204 252 316 360
#     4  11  23  39  66  88 122 168 204 255 301 361
#     4  10  21  39  65  90 120 161 206 252 304 360
#     4  10  19  40  61  90 120 153 211 253 295 360
#     4  11  22  43  60  88 130 162 209 248 298 373
#     4  10  23  38  65  89 128 162 198 262 307 358
#
# _framework density 20.442025000000001
#
# number of rings (size 3 to 8) (size 9 to 14) (size 15 to 20)
#    1.000    0.333    3.333    3.500    0.000    1.333 
#    0.000    1.667    0.000    0.000    0.000    0.000 
#    0.000    0.000    0.000    0.000    0.000    0.000 
#
# Total GULP energy -66967.450408 kJ/mol
# GULP energy per Si atom -5580.620867 kJ/mol
# Density = 2.039550 g / cm^3
# Si number density = 20.442025 Si / 1000 Ang^3
#
#
#
# Elastic Constant Matrix: (Units=GPa)
#
#
# Indices 1 2 3 4 5 6 
#
# 1 86.0807 -7.4541 18.2499 17.3835 -10.8994 -3.6002
# 2 -7.4541 98.6576 29.3802 29.5578 -17.9168 4.4254
# 3 18.2499 29.3802 50.3127 21.1154 -3.2480 8.6548
# 4 17.3835 29.5578 21.1154 26.4116 -0.9057 5.3525
# 5 -10.8994 -17.9168 -3.2480 -0.9057 33.8171 3.5515
# 6 -3.6002 4.4254 8.6548 5.3525 3.5515 25.4411
#
#
#
# Elastic Compliance Matrix: (Units=1/GPa)
#
#
# Indices 1 2 3 4 5 6 
#
# 1 0.019819 0.011446 -0.004476 -0.023056 0.010808 0.005678
# 2 0.011446 0.024306 -0.005008 -0.030935 0.014887 0.003526
# 3 -0.004476 -0.005008 0.032266 -0.015783 -0.000650 -0.007328
# 4 -0.023056 -0.030935 -0.015783 0.101754 -0.021465 -0.010924
# 5 0.010808 0.014887 -0.000650 -0.021465 0.040512 -0.001978
# 6 0.005678 0.003526 -0.007328 -0.010924 -0.001978 0.044564
#
#
# Mechanical properties :
#
#
# Convention : Reuss Voigt Hill
#
# Bulk Modulus (GPa) = 12.45081 35.04478 23.74780
# Shear Modulus (GPa) = 17.47841 30.12563 23.80202
#
# Velocity S-wave (km/s) = 2.92725 3.84306 3.41598
# Velocity P-wave (km/s) = 4.18677 6.07230 5.21545
#
# Compressibility (1/GPa) = 0.08031608
#
# Stress axis : x y z
#
# Youngs Moduli (GPa) = 50.45633 41.14244 30.99256
#
# Poissons Ratio (x) = -0.47092 0.13871
# Poissons Ratio (y) = -0.57753 0.15520
# Poissons Ratio (z) = 0.22583 0.20603
#
# Static dielectric constant tensor:
#      x y z
#    x 1.746790 -0.007790 0.041620 
#    y -0.007790 1.773590 0.003020 
#    z 0.041620 0.003020 1.740620 
# 
# From -- ./inp_files/161333.got.cif
#   From: 2010.05.17/outbox.cif.g08.bks.cpg/sg2_81_cif.got.tgz:161333.got - 2010.06.03 11:33:40.
