data_PCOD9091783
_publ_section_title
;
Structure prediction by ZEFSAII (Michael W. Deem and Ramdas Pophale) SiO2 
 PCOD9091783
Probable space group: P -1
;
_chemical_formula_sum "Si O2"
_cell_formula_units_Z 14
_cell_length_a 14.820616
_cell_length_b 11.975195
_cell_length_c 8.274787
_cell_angle_alpha 126.024061
_cell_angle_beta 95.858704
_cell_angle_gamma 129.575649
_cell_volume 589.831623
_symmetry_space_group_name_H-M "P -1"
_symmetry_group_IT_number 2
_symmetry_cell_setting 'triclinic'
loop_
_space_group_symop_operation_xyz
x,y,z
-x,-y,-z
loop_
_atom_site_type_symbol
_atom_site_label
_atom_site_fract_x
_atom_site_fract_y
_atom_site_fract_z
Si Si1 0.785396 0.142650 0.763147
Si Si2 0.084556 0.688394 0.430359
Si Si3 0.597828 0.263732 0.663518
Si Si4 0.953179 0.079600 0.229836
Si Si5 0.320571 0.527655 0.814760
Si Si6 0.638251 0.129772 0.269373
Si Si7 0.889763 0.988140 0.764147
O O1 0.828051 0.230638 0.659575
O O2 0.569687 0.854377 0.504515
O O3 0.889649 0.138695 0.818816
O O4 0.873966 0.376527 0.091948
O O5 0.172951 0.698567 0.582430
O O6 0.126207 0.900282 0.665130
O O7 0.677180 0.306825 0.550381
O O8 0.500000 0.000000 0.500000
O O9 0.719934 0.484517 0.017782
O O10 0.170898 0.393300 0.550346
O O11 0.046900 0.078789 0.840027
O O12 0.883856 0.991335 0.959882
O O13 0.288289 0.323763 0.605183
O O14 0.515731 0.844963 0.082109
O O15 0.500000 0.000000 0.000000
#
# Coordination Sequence:
#
# PCOD9091783 Si02
#       7
#     2   2   2   2   2   2   2
#     4  11  23  38  63  91 115 157 204 236 294 355
#     4  11  23  37  61  92 122 144 201 257 283 340
#     4  10  19  40  60  85 121 160 191 240 295 352
#     4   9  21  41  61  86 119 160 196 243 290 349
#     4   9  19  42  62  79 123 161 191 238 294 356
#     4  11  24  37  61  94 120 149 195 251 301 339
#     4   9  22  40  65  82 117 165 200 231 294 363
#
# _framework density 23.735586999999999
#
# number of rings (size 3 to 8) (size 9 to 14) (size 15 to 20)
#    0.857    1.143    2.857    1.714    6.000    1.714 
#    0.000    2.143    0.000    0.000    0.000    0.000 
#    0.000    0.000    0.000    0.000    0.000    0.000 
#
# Total GULP energy -78076.186690 kJ/mol
# GULP energy per Si atom -5576.870478 kJ/mol
# Density = 2.368156 g / cm^3
# Si number density = 23.735587 Si / 1000 Ang^3
#
#
#
# Elastic Constant Matrix: (Units=GPa)
#
#
# Indices 1 2 3 4 5 6 
#
# 1 116.8234 15.6838 34.7492 -17.0730 -13.5531 -19.7631
# 2 15.6838 39.8217 34.5899 -12.7445 -2.2868 -16.3850
# 3 34.7492 34.5899 132.2541 -21.4095 -26.1678 -4.2229
# 4 -17.0730 -12.7445 -21.4095 25.3737 -0.9999 2.3986
# 5 -13.5531 -2.2868 -26.1678 -0.9999 44.5746 -4.6646
# 6 -19.7631 -16.3850 -4.2229 2.3986 -4.6646 33.4502
#
#
#
# Elastic Compliance Matrix: (Units=1/GPa)
#
#
# Indices 1 2 3 4 5 6 
#
# 1 0.011468 0.002526 -0.001548 0.007084 0.003685 0.007823
# 2 0.002526 0.046210 -0.009654 0.014700 0.000089 0.021867
# 3 -0.001548 -0.009654 0.012412 0.005162 0.006060 -0.003601
# 4 0.007084 0.014700 0.005162 0.055368 0.008144 0.009203
# 5 0.003685 0.000089 0.006060 0.008144 0.027959 0.006301
# 6 0.007823 0.021867 -0.003601 0.009203 0.006301 0.044992
#
#
# Mechanical properties :
#
#
# Convention : Reuss Voigt Hill
#
# Bulk Modulus (GPa) = 18.96173 50.99388 34.97781
# Shear Modulus (GPa) = 21.42800 34.27147 27.84974
#
# Velocity S-wave (km/s) = 3.00789 3.80397 3.42911
# Velocity P-wave (km/s) = 4.47987 6.38940 5.51786
#
# Compressibility (1/GPa) = 0.05273781
#
# Stress axis : x y z
#
# Youngs Moduli (GPa) = 87.20273 21.64047 80.56470
#
# Poissons Ratio (x) = -0.05466 0.12470
# Poissons Ratio (y) = -0.22025 0.77775
# Poissons Ratio (z) = 0.13498 0.20891
#
# Static dielectric constant tensor:
#      x y z
#    x 1.931570 0.007810 0.022020 
#    y 0.007810 1.954880 0.028730 
#    z 0.022020 0.028730 1.899180 
# 
# From -- ./inp_files/305915.got.cif
#   From: 2010.05.17/outbox.cif.g08.bks.cpg/sg2_153_cif.got.tgz:305915.got - 2010.06.03 11:33:40.
