data_PCOD9091043
_publ_section_title
;
Structure prediction by ZEFSAII (Michael W. Deem and Ramdas Pophale) SiO2 
 PCOD9091043
Probable space group: P -1
;
_chemical_formula_sum "Si O2"
_cell_formula_units_Z 16
_cell_length_a 9.737351
_cell_length_b 26.256712
_cell_length_c 7.936680
_cell_angle_alpha 48.824195
_cell_angle_beta 47.077512
_cell_angle_gamma 30.907504
_cell_volume 748.302341
_symmetry_space_group_name_H-M "P -1"
_symmetry_group_IT_number 2
_symmetry_cell_setting 'triclinic'
loop_
_space_group_symop_operation_xyz
x,y,z
-x,-y,-z
loop_
_atom_site_type_symbol
_atom_site_label
_atom_site_fract_x
_atom_site_fract_y
_atom_site_fract_z
Si Si1 0.769906 0.942473 0.518663
Si Si2 0.560592 0.440522 0.416192
Si Si3 0.670343 0.380043 0.986018
Si Si4 0.845236 0.257969 0.766049
Si Si5 0.694062 0.595291 0.484743
Si Si6 0.639843 0.197611 0.846312
Si Si7 0.272910 0.194516 0.003350
Si Si8 0.468629 0.080551 0.761166
O O1 0.050183 0.888711 0.304215
O O2 0.500000 0.000000 0.500000
O O3 0.695469 0.018075 0.558893
O O4 0.820731 0.855964 0.754289
O O5 0.500000 0.500000 0.500000
O O6 0.520130 0.504559 0.159897
O O7 0.821621 0.321511 0.498778
O O8 0.327449 0.446010 0.572293
O O9 0.712781 0.324850 0.900232
O O10 0.984395 0.310758 0.943148
O O11 0.515617 0.378612 0.258938
O O12 0.694266 0.229181 0.897181
O O13 0.168068 0.160706 0.747553
O O14 0.572657 0.700125 0.311446
O O15 0.000000 0.500000 0.500000
O O16 0.473005 0.172016 0.029813
O O17 0.451682 0.138933 0.800582
O O18 0.500000 0.000000 0.000000
#
# Coordination Sequence:
#
# PCOD9091043 Si02
#       8
#     2   2   2   2   2   2   2   2
#     4  11  21  39  62  87 123 158 197 251 304 340
#     4   9  19  35  59  85 114 156 195 239 297 355
#     4  10  19  39  63  84 118 164 196 242 307 351
#     4   9  19  37  59  85 124 155 197 251 295 356
#     4  11  22  38  59  88 123 153 200 249 293 358
#     4  11  22  39  61  91 123 155 201 249 294 362
#     4  10  22  39  62  88 120 159 202 242 299 358
#     4   9  19  37  60  85 117 162 195 243 299 349
#
# _framework density 21.381730999999998
#
# number of rings (size 3 to 8) (size 9 to 14) (size 15 to 20)
#    0.000    2.000    2.500    1.125    0.000    1.000 
#    0.000    8.125    0.000    0.000    0.000    0.000 
#    0.000    0.000    0.000    0.000    0.000    0.000 
#
# Total GULP energy -89160.913695 kJ/mol
# GULP energy per Si atom -5572.557106 kJ/mol
# Density = 2.133307 g / cm^3
# Si number density = 21.381731 Si / 1000 Ang^3
#
#
#
# Elastic Constant Matrix: (Units=GPa)
#
#
# Indices 1 2 3 4 5 6 
#
# 1 89.8450 38.1234 10.8907 10.5355 -0.7074 -6.6005
# 2 38.1234 107.2096 6.4035 -4.3911 2.6980 -11.7762
# 3 10.8907 6.4035 18.9382 -3.0869 1.1520 0.2779
# 4 10.5355 -4.3911 -3.0869 36.5136 -5.6431 10.6653
# 5 -0.7074 2.6980 1.1520 -5.6431 24.3295 -2.0442
# 6 -6.6005 -11.7762 0.2779 10.6653 -2.0442 33.7129
#
#
#
# Elastic Compliance Matrix: (Units=1/GPa)
#
#
# Indices 1 2 3 4 5 6 
#
# 1 0.015211 -0.004809 -0.008266 -0.006666 0.000113 0.003482
# 2 -0.004809 0.011446 -0.000790 0.001875 -0.000733 0.002426
# 3 -0.008266 -0.000790 0.059389 0.008611 -0.001404 -0.005193
# 4 -0.006666 0.001875 0.008611 0.034519 0.006251 -0.011262
# 5 0.000113 -0.000733 -0.001404 0.006251 0.042736 0.000392
# 6 0.003482 0.002426 -0.005193 -0.011262 0.000392 0.034821
#
#
# Mechanical properties :
#
#
# Convention : Reuss Voigt Hill
#
# Bulk Modulus (GPa) = 17.14776 36.31422 26.73099
# Shear Modulus (GPa) = 20.38395 29.61622 25.00008
#
# Velocity S-wave (km/s) = 3.09096 3.72575 3.42310
# Velocity P-wave (km/s) = 4.55806 5.96062 5.30589
#
# Compressibility (1/GPa) = 0.05831665
#
# Stress axis : x y z
#
# Youngs Moduli (GPa) = 65.74198 87.36398 16.83816
#
# Poissons Ratio (x) = 0.42010 0.13918
# Poissons Ratio (y) = 0.31613 0.01331
# Poissons Ratio (z) = 0.54341 0.06905
#
# Static dielectric constant tensor:
#      x y z
#    x 1.829440 0.041190 0.001240 
#    y 0.041190 1.838940 -0.043630 
#    z 0.001240 -0.043630 1.782760 
# 
# From -- ./inp_files/77519.got.cif
#   From: 2010.05.17/outbox.cif.g08.bks.cpg/sg2_39_cif.got.tgz:77519.got - 2010.06.03 11:33:40.
