data_PCOD9091067
_publ_section_title
;
Structure prediction by ZEFSAII (Michael W. Deem and Ramdas Pophale) SiO2 
 PCOD9091067
Probable space group: P -1
;
_chemical_formula_sum "Si O2"
_cell_formula_units_Z 16
_cell_length_a 10.973031
_cell_length_b 8.186485
_cell_length_c 16.930582
_cell_angle_alpha 37.776666
_cell_angle_beta 46.869116
_cell_angle_gamma 48.343714
_cell_volume 653.123898
_symmetry_space_group_name_H-M "P -1"
_symmetry_group_IT_number 2
_symmetry_cell_setting 'triclinic'
loop_
_space_group_symop_operation_xyz
x,y,z
-x,-y,-z
loop_
_atom_site_type_symbol
_atom_site_label
_atom_site_fract_x
_atom_site_fract_y
_atom_site_fract_z
Si Si1 0.799803 0.609989 0.069027
Si Si2 0.055999 0.863621 0.412936
Si Si3 0.445705 0.681547 0.378278
Si Si4 0.702287 0.410632 0.925451
Si Si5 0.246069 0.798042 0.196325
Si Si6 0.243057 0.133845 0.833812
Si Si7 0.990716 0.611940 0.680948
Si Si8 0.464462 0.705056 0.658533
O O1 0.797403 0.719953 0.118599
O O2 0.705884 0.359591 0.200001
O O3 0.000000 0.500000 0.000000
O O4 0.716989 0.893563 0.944585
O O5 0.246917 0.784900 0.400311
O O6 0.088315 0.848803 0.311085
O O7 0.969539 0.661715 0.577506
O O8 0.949330 0.157588 0.383550
O O9 0.500000 0.500000 0.500000
O O10 0.550258 0.910308 0.250439
O O11 0.534272 0.458423 0.359582
O O12 0.754019 0.279994 0.865598
O O13 0.809378 0.630695 0.796823
O O14 0.500000 0.500000 0.000000
O O15 0.790219 0.162664 0.039995
O O16 0.380284 0.514573 0.278942
O O17 0.132579 0.326768 0.742920
O O18 0.500000 0.000000 0.500000
#
# Coordination Sequence:
#
# PCOD9091067 Si02
#       8
#     2   2   2   2   2   2   2   2
#     4  10  21  41  67  95 129 176 215 265 334 398
#     4  10  22  40  66  94 127 170 215 260 331 388
#     4  10  19  39  63  87 125 165 211 254 317 389
#     4  11  25  43  63  93 128 173 217 270 325 381
#     4  10  23  46  64  95 134 177 217 268 329 402
#     4  10  21  39  64  93 124 164 214 264 320 390
#     4  11  22  40  64  98 127 165 217 270 322 387
#     4  10  23  41  63  99 130 169 219 271 325 383
#
# _framework density 24.49765
#
# number of rings (size 3 to 8) (size 9 to 14) (size 15 to 20)
#    0.000    1.750    1.250    2.250    0.000    6.500 
#   13.500    0.000    0.000    0.000    0.000    0.000 
#    0.000    0.000    0.000    0.000    0.000    0.000 
#
# Total GULP energy -89071.330865 kJ/mol
# GULP energy per Si atom -5566.958179 kJ/mol
# Density = 2.444189 g / cm^3
# Si number density = 24.497650 Si / 1000 Ang^3
#
#
#
# Elastic Constant Matrix: (Units=GPa)
#
#
# Indices 1 2 3 4 5 6 
#
# 1 36.1914 8.7261 31.3945 -5.0141 4.1222 -9.7732
# 2 8.7261 53.7740 40.4102 -2.5727 -1.1831 -12.6083
# 3 31.3945 40.4102 180.1477 -26.1885 -6.4925 -10.1879
# 4 -5.0141 -2.5727 -26.1885 33.7528 -6.5717 4.4071
# 5 4.1222 -1.1831 -6.4925 -6.5717 43.7427 11.4835
# 6 -9.7732 -12.6083 -10.1879 4.4071 11.4835 36.4900
#
#
#
# Elastic Compliance Matrix: (Units=1/GPa)
#
#
# Indices 1 2 3 4 5 6 
#
# 1 0.036676 0.001448 -0.006748 -0.002650 -0.007757 0.011201
# 2 0.001448 0.024692 -0.006053 -0.004401 -0.003342 0.008813
# 3 -0.006748 -0.006053 0.008998 0.006675 0.003691 -0.003354
# 4 -0.002650 -0.004401 0.006675 0.036735 0.008613 -0.007514
# 5 -0.007757 -0.003342 0.003691 0.008613 0.028553 -0.012228
# 6 0.011201 0.008813 -0.003354 -0.007514 -0.012228 0.037269
#
#
# Mechanical properties :
#
#
# Convention : Reuss Voigt Hill
#
# Bulk Modulus (GPa) = 20.98130 47.90830 34.44480
# Shear Modulus (GPa) = 23.63878 35.43592 29.53735
#
# Velocity S-wave (km/s) = 3.10972 3.80742 3.47612
# Velocity P-wave (km/s) = 4.63433 6.23918 5.49565
#
# Compressibility (1/GPa) = 0.04766149
#
# Stress axis : x y z
#
# Youngs Moduli (GPa) = 27.26561 40.49829 111.13133
#
# Poissons Ratio (x) = -0.05864 0.74988
# Poissons Ratio (y) = -0.03948 0.67268
# Poissons Ratio (z) = 0.18398 0.24514
#
# Static dielectric constant tensor:
#      x y z
#    x 1.655160 -0.284090 -0.226500 
#    y -0.284090 1.696860 -0.111100 
#    z -0.226500 -0.111100 2.113880 
# 
# From -- ./inp_files/566351.got.cif
#   From: 2010.05.17/outbox.cif.g08.bks.cpg/sg2_284_cif.got.tgz:566351.got - 2010.06.03 11:33:40.
