data_PCOD9091217
_publ_section_title
;
Structure prediction by ZEFSAII (Michael W. Deem and Ramdas Pophale) SiO2 
 PCOD9091217
Probable space group: P -1
;
_chemical_formula_sum "Si O2"
_cell_formula_units_Z 16
_cell_length_a 11.925232
_cell_length_b 10.119472
_cell_length_c 12.086122
_cell_angle_alpha 144.455024
_cell_angle_beta 132.880112
_cell_angle_gamma 58.587274
_cell_volume 619.514094
_symmetry_space_group_name_H-M "P -1"
_symmetry_group_IT_number 2
_symmetry_cell_setting 'triclinic'
loop_
_space_group_symop_operation_xyz
x,y,z
-x,-y,-z
loop_
_atom_site_type_symbol
_atom_site_label
_atom_site_fract_x
_atom_site_fract_y
_atom_site_fract_z
Si Si1 0.820594 0.348231 0.881194
Si Si2 0.411088 0.356114 0.999427
Si Si3 0.841648 0.118815 0.976896
Si Si4 0.958512 0.936295 0.662449
Si Si5 0.055920 0.745143 0.383115
Si Si6 0.382453 0.839023 0.718770
Si Si7 0.700165 0.932978 0.956010
Si Si8 0.260321 0.440866 0.714822
O O1 0.805522 0.213470 0.896552
O O2 0.954908 0.546900 0.120006
O O3 0.671984 0.484748 0.861830
O O4 0.864486 0.143632 0.693139
O O5 0.583613 0.462936 0.173756
O O6 0.387539 0.092751 0.838999
O O7 0.323446 0.376603 0.836262
O O8 0.846491 0.349113 0.210544
O O9 0.707328 0.977011 0.858439
O O10 0.000000 0.000000 0.000000
O O11 0.835756 0.780923 0.547290
O O12 0.007959 0.745435 0.481192
O O13 0.117038 0.072772 0.901957
O O14 0.234676 0.703767 0.476517
O O15 0.000000 0.000000 0.500000
O O16 0.342019 0.885849 0.852243
O O17 0.551656 0.758882 0.758776
#
# Coordination Sequence:
#
# PCOD9091217 Si02
#       8
#     2   2   2   2   2   2   2   2
#     4  11  23  39  64  98 123 162 217 269 308 379
#     4  10  19  39  64  90 127 163 212 258 322 368
#     4  11  20  40  62  91 129 161 210 264 313 370
#     4  11  22  40  62  95 125 161 217 258 316 376
#     4  11  21  41  65  91 124 171 210 257 324 374
#     4  10  20  39  61  91 124 168 214 253 315 386
#     4  10  22  37  61  89 126 167 206 260 311 379
#     4  10  21  37  67  93 121 172 205 264 323 366
#
# _framework density 25.826695000000001
#
# number of rings (size 3 to 8) (size 9 to 14) (size 15 to 20)
#    0.000    1.500    6.250    0.000    0.000    1.500 
#    0.000    0.625    0.000    0.000    0.000    0.000 
#    0.000    0.000    0.000    0.000    0.000    0.000 
#
# Total GULP energy -89186.949917 kJ/mol
# GULP energy per Si atom -5574.184370 kJ/mol
# Density = 2.576791 g / cm^3
# Si number density = 25.826695 Si / 1000 Ang^3
#
#
#
# Elastic Constant Matrix: (Units=GPa)
#
#
# Indices 1 2 3 4 5 6 
#
# 1 141.7273 41.0836 55.0458 -4.0135 24.4927 -18.8142
# 2 41.0836 92.5288 22.9684 -1.0355 12.2082 -12.5765
# 3 55.0458 22.9684 95.8420 6.2323 15.4039 -36.6107
# 4 -4.0135 -1.0355 6.2323 34.1205 -7.7459 -6.6868
# 5 24.4927 12.2082 15.4039 -7.7459 40.4387 -4.7608
# 6 -18.8142 -12.5765 -36.6107 -6.6868 -4.7608 48.8772
#
#
#
# Elastic Compliance Matrix: (Units=1/GPa)
#
#
# Indices 1 2 3 4 5 6 
#
# 1 0.010412 -0.003010 -0.005081 0.001162 -0.003326 -0.000738
# 2 -0.003010 0.012689 -0.000428 0.000057 -0.001642 0.001634
# 3 -0.005081 -0.000428 0.018294 -0.002460 -0.002936 0.011014
# 4 0.001162 0.000057 -0.002460 0.032164 0.006811 0.003683
# 5 -0.003326 -0.001642 -0.002936 0.006811 0.029652 -0.000082
# 6 -0.000738 0.001634 0.011014 0.003683 -0.000082 0.029342
#
#
# Mechanical properties :
#
#
# Convention : Reuss Voigt Hill
#
# Bulk Modulus (GPa) = 41.05685 63.14374 52.10029
# Shear Modulus (GPa) = 31.70377 38.75397 35.22887
#
# Velocity S-wave (km/s) = 3.50745 3.87788 3.69731
# Velocity P-wave (km/s) = 5.68635 6.67478 6.20029
#
# Compressibility (1/GPa) = 0.02435647
#
# Stress axis : x y z
#
# Youngs Moduli (GPa) = 96.04657 78.80576 54.66260
#
# Poissons Ratio (x) = 0.23720 0.27776
# Poissons Ratio (y) = 0.28910 0.02340
# Poissons Ratio (z) = 0.48804 0.03373
#
# Static dielectric constant tensor:
#      x y z
#    x 2.280780 0.127870 -0.076520 
#    y 0.127870 2.168260 -0.063950 
#    z -0.076520 -0.063950 2.013080 
# 
# From -- ./inp_files/519421.got.cif
#   From: 2010.05.17/outbox.cif.g08.bks.cpg/sg2_260_cif.got.tgz:519421.got - 2010.06.03 11:33:40.
