data_PCOD9091122
_publ_section_title
;
Structure prediction by ZEFSAII (Michael W. Deem and Ramdas Pophale) SiO2 
 PCOD9091122
Probable space group: P -1
;
_chemical_formula_sum "Si O2"
_cell_formula_units_Z 16
_cell_length_a 12.410102
_cell_length_b 10.824406
_cell_length_c 12.489643
_cell_angle_alpha 93.970998
_cell_angle_beta 60.130974
_cell_angle_gamma 41.940829
_cell_volume 633.523124
_symmetry_space_group_name_H-M "P -1"
_symmetry_group_IT_number 2
_symmetry_cell_setting 'triclinic'
loop_
_space_group_symop_operation_xyz
x,y,z
-x,-y,-z
loop_
_atom_site_type_symbol
_atom_site_label
_atom_site_fract_x
_atom_site_fract_y
_atom_site_fract_z
Si Si1 0.113505 0.591536 0.236758
Si Si2 0.331830 0.720445 0.351244
Si Si3 0.889174 0.554780 0.222670
Si Si4 0.185668 0.899896 0.674834
Si Si5 0.682380 0.575128 0.516905
Si Si6 0.785545 0.923782 0.643627
Si Si7 0.413931 0.037995 0.796959
Si Si8 0.616064 0.297963 0.019083
O O1 0.444296 0.326802 0.079931
O O2 0.040790 0.527583 0.213947
O O3 0.948101 0.752110 0.440933
O O4 0.984827 0.817725 0.241197
O O5 0.325129 0.745213 0.482228
O O6 0.505106 0.455397 0.194780
O O7 0.413345 0.779134 0.260400
O O8 0.000000 0.000000 0.500000
O O9 0.734701 0.602098 0.382661
O O10 0.677069 0.809402 0.258341
O O11 0.127974 0.271636 0.018089
O O12 0.430720 0.706930 0.625740
O O13 0.955126 0.003619 0.828092
O O14 0.977602 0.259081 0.396556
O O15 0.577625 0.769343 0.666607
O O16 0.613165 0.954934 0.756972
O O17 0.500000 0.500000 0.000000
#
# Coordination Sequence:
#
# PCOD9091122 Si02
#       8
#     2   2   2   2   2   2   2   2
#     4  10  19  39  63  93 119 156 209 253 302 364
#     4  11  20  39  67  90 119 154 217 259 297 365
#     4  11  23  39  66  97 118 161 217 255 303 361
#     4  10  22  37  64  88 122 165 199 262 299 360
#     4  12  24  44  57  90 138 164 200 252 318 365
#     4  11  24  39  63  92 126 172 196 252 320 372
#     4  11  24  39  66  92 123 165 211 255 300 373
#     4  10  20  36  67  94 116 154 211 260 306 353
#
# _framework density 25.255587999999999
#
# number of rings (size 3 to 8) (size 9 to 14) (size 15 to 20)
#    0.000    1.250    6.250    2.250    3.500    1.500 
#    0.000    1.250    0.000    0.000    0.000    0.000 
#    0.000    0.000    0.000    0.000    0.000    0.000 
#
# Total GULP energy -89764.977829 kJ/mol
# GULP energy per Si atom -5610.311114 kJ/mol
# Density = 2.519811 g / cm^3
# Si number density = 25.255588 Si / 1000 Ang^3
#
#
#
# Elastic Constant Matrix: (Units=GPa)
#
#
# Indices 1 2 3 4 5 6 
#
# 1 132.6896 28.7760 38.7802 11.4885 -17.7476 -20.9283
# 2 28.7760 72.1001 32.4400 8.0000 2.6277 -7.0492
# 3 38.7802 32.4400 95.8203 0.7596 -2.6274 -6.7027
# 4 11.4885 8.0000 0.7596 18.8875 -13.4203 0.9192
# 5 -17.7476 2.6277 -2.6274 -13.4203 37.0447 8.7090
# 6 -20.9283 -7.0492 -6.7027 0.9192 8.7090 35.8127
#
#
#
# Elastic Compliance Matrix: (Units=1/GPa)
#
#
# Indices 1 2 3 4 5 6 
#
# 1 0.010212 -0.001910 -0.003074 -0.003826 0.002356 0.004541
# 2 -0.001910 0.019262 -0.005596 -0.012834 -0.008260 0.003966
# 3 -0.003074 -0.005596 0.013519 0.005150 0.001980 -0.000981
# 4 -0.003826 -0.012834 0.005150 0.085049 0.033580 -0.014147
# 5 0.002356 -0.008260 0.001980 0.033580 0.043686 -0.011364
# 6 0.004541 0.003966 -0.000981 -0.014147 -0.011364 0.034301
#
#
# Mechanical properties :
#
#
# Convention : Reuss Voigt Hill
#
# Bulk Modulus (GPa) = 45.79810 55.62249 50.71029
# Shear Modulus (GPa) = 21.32502 31.72322 26.52412
#
# Velocity S-wave (km/s) = 2.90895 3.54798 3.24424
# Velocity P-wave (km/s) = 5.42733 6.23344 5.84430
#
# Compressibility (1/GPa) = 0.02183497
#
# Stress axis : x y z
#
# Youngs Moduli (GPa) = 97.92825 51.91450 73.96803
#
# Poissons Ratio (x) = 0.09916 0.22734
# Poissons Ratio (y) = 0.18705 0.41389
# Poissons Ratio (z) = 0.30099 0.29049
#
# Static dielectric constant tensor:
#      x y z
#    x 1.977600 0.025210 -0.006620 
#    y 0.025210 1.989780 -0.003120 
#    z -0.006620 -0.003120 1.978750 
# 
# From -- ./inp_files/428372.got.cif
#   From: 2010.05.17/outbox.cif.g08.bks.cpg/sg2_215_cif.got.tgz:428372.got - 2010.06.03 11:33:40.
