data_PCOD9091716
_publ_section_title
;
Structure prediction by ZEFSAII (Michael W. Deem and Ramdas Pophale) SiO2 
 PCOD9091716
Probable space group: P -1
;
_chemical_formula_sum "Si O2"
_cell_formula_units_Z 14
_cell_length_a 10.655993
_cell_length_b 9.985702
_cell_length_c 9.180367
_cell_angle_alpha 105.975216
_cell_angle_beta 112.010086
_cell_angle_gamma 126.213632
_cell_volume 546.416654
_symmetry_space_group_name_H-M "P -1"
_symmetry_group_IT_number 2
_symmetry_cell_setting 'triclinic'
loop_
_space_group_symop_operation_xyz
x,y,z
-x,-y,-z
loop_
_atom_site_type_symbol
_atom_site_label
_atom_site_fract_x
_atom_site_fract_y
_atom_site_fract_z
Si Si1 0.232002 0.244311 0.858732
Si Si2 0.171269 0.508264 0.018598
Si Si3 0.546476 0.015061 0.854334
Si Si4 0.244739 0.151309 0.517890
Si Si5 0.725626 0.149537 0.559007
Si Si6 0.305788 0.463896 0.335981
Si Si7 0.598703 0.746483 0.792447
O O1 0.984081 0.996845 0.696216
O O2 0.273243 0.255801 0.710603
O O3 0.241792 0.414178 0.955823
O O4 0.380186 0.267609 0.031791
O O5 0.324098 0.750077 0.087885
O O6 0.069656 0.655882 0.192316
O O7 0.181932 0.476069 0.186767
O O8 0.321490 0.820845 0.608916
O O9 0.662344 0.958203 0.859956
O O10 0.500000 0.000000 0.000000
O O11 0.239452 0.984030 0.501745
O O12 0.451729 0.326927 0.560016
O O13 0.500000 0.000000 0.500000
O O14 0.361210 0.536265 0.550876
O O15 0.254496 0.263446 0.209936
#
# Coordination Sequence:
#
# PCOD9091716 Si02
#       7
#     2   2   2   2   2   2   2
#     4   9  21  40  69  99 133 178 230 285 332 412
#     4  10  24  44  73 102 133 187 235 274 350 412
#     4  12  26  43  67 103 145 178 223 289 349 412
#     4  10  19  39  70  97 129 181 233 274 335 407
#     4  11  24  46  71 100 138 182 234 284 339 422
#     4  10  21  42  69  94 132 182 228 284 337 406
#     4  10  23  40  60 102 139 172 223 286 341 399
#
# _framework density 25.621476999999999
#
# number of rings (size 3 to 8) (size 9 to 14) (size 15 to 20)
#    0.000    1.714    1.429    1.714    2.000    2.857 
#    2.571    1.429    0.000    0.000    0.000    0.000 
#    0.000    0.000    0.000    0.000    0.000    0.000 
#
# Total GULP energy -78228.868714 kJ/mol
# GULP energy per Si atom -5587.776337 kJ/mol
# Density = 2.556316 g / cm^3
# Si number density = 25.621477 Si / 1000 Ang^3
#
#
#
# Elastic Constant Matrix: (Units=GPa)
#
#
# Indices 1 2 3 4 5 6 
#
# 1 75.4077 33.4683 49.5254 -9.4303 24.3640 -18.0357
# 2 33.4683 128.5926 82.3539 -11.9231 14.3923 -42.4248
# 3 49.5254 82.3539 185.6963 -31.5256 28.7274 -19.2887
# 4 -9.4303 -11.9231 -31.5256 40.7618 -4.2789 0.1679
# 5 24.3640 14.3923 28.7274 -4.2789 44.8617 8.0079
# 6 -18.0357 -42.4248 -19.2887 0.1679 8.0079 52.9199
#
#
#
# Elastic Compliance Matrix: (Units=1/GPa)
#
#
# Indices 1 2 3 4 5 6 
#
# 1 0.020516 0.000512 -0.002980 0.001439 -0.010677 0.007928
# 2 0.000512 0.014844 -0.004985 0.000166 -0.003766 0.010828
# 3 -0.002980 -0.004985 0.009422 0.004922 -0.002119 -0.001272
# 4 0.001439 0.000166 0.004922 0.028529 -0.001727 0.002588
# 5 -0.010677 -0.003766 -0.002119 -0.001727 0.032698 -0.012372
# 6 0.007928 0.010828 -0.001272 0.002588 -0.012372 0.031679
#
#
# Mechanical properties :
#
#
# Convention : Reuss Voigt Hill
#
# Bulk Modulus (GPa) = 33.46841 80.04354 56.75597
# Shear Modulus (GPa) = 30.75942 42.66527 36.71235
#
# Velocity S-wave (km/s) = 3.46863 4.08513 3.78944
# Velocity P-wave (km/s) = 5.39749 7.31845 6.43011
#
# Compressibility (1/GPa) = 0.02987892
#
# Stress axis : x y z
#
# Youngs Moduli (GPa) = 48.74144 67.36551 106.13718
#
# Poissons Ratio (x) = -0.03452 0.31624
# Poissons Ratio (y) = -0.02497 0.52905
# Poissons Ratio (z) = 0.14523 0.33579
#
# Static dielectric constant tensor:
#      x y z
#    x 2.071650 -0.016280 -0.010260 
#    y -0.016280 2.085710 0.028750 
#    z -0.010260 0.028750 2.159300 
# 
# From -- ./inp_files/154235.got.cif
#   From: 2010.05.17/outbox.cif.g08.bks.cpg/sg2_78_cif.got.tgz:154235.got - 2010.06.03 11:33:40.
