data_PCOD9091323
_publ_section_title
;
Structure prediction by ZEFSAII (Michael W. Deem and Ramdas Pophale) SiO2 
 PCOD9091323
Probable space group: P -1
;
_chemical_formula_sum "Si O2"
_cell_formula_units_Z 16
_cell_length_a 27.958811
_cell_length_b 12.804359
_cell_length_c 9.103630
_cell_angle_alpha 150.302541
_cell_angle_beta 34.293082
_cell_angle_gamma 152.040257
_cell_volume 732.260612
_symmetry_space_group_name_H-M "P -1"
_symmetry_group_IT_number 2
_symmetry_cell_setting 'triclinic'
loop_
_space_group_symop_operation_xyz
x,y,z
-x,-y,-z
loop_
_atom_site_type_symbol
_atom_site_label
_atom_site_fract_x
_atom_site_fract_y
_atom_site_fract_z
Si Si1 0.278211 0.451542 0.071085
Si Si2 0.076718 0.046951 0.495147
Si Si3 0.589177 0.951797 0.620607
Si Si4 0.943831 0.748588 0.727787
Si Si5 0.346131 0.126800 0.342553
Si Si6 0.697731 0.720090 0.905410
Si Si7 0.816564 0.476866 0.984345
Si Si8 0.376925 0.497254 0.484551
O O1 0.155644 0.313779 0.187517
O O2 0.306053 0.464799 0.186897
O O3 0.348140 0.740010 0.179006
O O4 0.300188 0.261901 0.707281
O O5 0.180819 0.089093 0.220029
O O6 0.112511 0.316895 0.816262
O O7 0.000000 0.000000 0.500000
O O8 0.026743 0.827970 0.484341
O O9 0.581662 0.870397 0.711019
O O10 0.475623 0.783606 0.628549
O O11 0.656740 0.873883 0.269164
O O12 0.886954 0.519217 0.714915
O O13 0.000000 0.000000 0.000000
O O14 0.393815 0.303009 0.292167
O O15 0.255817 0.827527 0.164024
O O16 0.631035 0.560112 0.737017
O O17 0.732866 0.544634 0.247322
#
# Coordination Sequence:
#
# PCOD9091323 Si02
#       8
#     2   2   2   2   2   2   2   2
#     4  11  22  42  64  89 133 162 208 263 301 374
#     4  10  20  39  68  92 124 162 207 256 312 369
#     4  11  24  41  65  92 125 171 209 253 316 362
#     4  10  19  39  65  88 126 162 200 261 313 361
#     4  11  22  40  64  93 129 159 210 255 312 364
#     4  10  24  41  63  91 127 166 207 259 306 378
#     4  10  22  40  65  95 126 162 204 257 313 370
#     4  11  23  41  64  93 130 163 207 259 309 375
#
# _framework density 21.850142999999999
#
# number of rings (size 3 to 8) (size 9 to 14) (size 15 to 20)
#    0.000    1.500    3.750    0.750    0.000    6.500 
#    0.000    4.375    2.750    0.000    0.000    0.000 
#    0.000    0.000    0.000    0.000    0.000    0.000 
#
# Total GULP energy -89347.791696 kJ/mol
# GULP energy per Si atom -5584.236981 kJ/mol
# Density = 2.180041 g / cm^3
# Si number density = 21.850143 Si / 1000 Ang^3
#
#
#
# Elastic Constant Matrix: (Units=GPa)
#
#
# Indices 1 2 3 4 5 6 
#
# 1 162.1212 48.2253 8.2978 44.1872 38.7548 -6.6473
# 2 48.2253 59.3979 40.1953 -1.7489 4.5331 11.6776
# 3 8.2978 40.1953 167.0037 -88.6570 1.8712 27.3007
# 4 44.1872 -1.7489 -88.6570 131.1472 7.9495 -22.7905
# 5 38.7548 4.5331 1.8712 7.9495 28.1907 -1.1805
# 6 -6.6473 11.6776 27.3007 -22.7905 -1.1805 45.7642
#
#
#
# Elastic Compliance Matrix: (Units=1/GPa)
#
#
# Indices 1 2 3 4 5 6 
#
# 1 0.014800 -0.011117 -0.000369 -0.003839 -0.017333 0.002848
# 2 -0.011117 0.031196 -0.007483 -0.002646 0.011252 -0.006138
# 3 -0.000369 -0.007483 0.012466 0.008284 -0.001516 -0.001495
# 4 -0.003839 -0.002646 0.008284 0.014872 0.001068 0.002609
# 5 -0.017333 0.011252 -0.001516 0.001068 0.057187 -0.002478
# 6 0.002848 -0.006138 -0.001495 0.002609 -0.002478 0.025958
#
#
# Mechanical properties :
#
#
# Convention : Reuss Voigt Hill
#
# Bulk Modulus (GPa) = 48.72290 64.66216 56.69253
# Shear Modulus (GPa) = 24.84363 60.47406 42.65885
#
# Velocity S-wave (km/s) = 3.37560 5.26658 4.42332
# Velocity P-wave (km/s) = 6.12699 8.16334 7.21734
#
# Compressibility (1/GPa) = 0.02052423
#
# Stress axis : x y z
#
# Youngs Moduli (GPa) = 67.56569 32.05590 80.21576
#
# Poissons Ratio (x) = 0.35636 0.02959
# Poissons Ratio (y) = 0.75112 0.60027
# Poissons Ratio (z) = 0.02493 0.23988
#
# Static dielectric constant tensor:
#      x y z
#    x 1.834960 -0.029730 -0.003150 
#    y -0.029730 1.817570 -0.034460 
#    z -0.003150 -0.034460 1.778700 
# 
# From -- ./inp_files/107068.got.cif
#   From: 2010.05.17/outbox.cif.g08.bks.cpg/sg2_54_cif.got.tgz:107068.got - 2010.06.03 11:33:40.
