data_PCOD9091187
_publ_section_title
;
Structure prediction by ZEFSAII (Michael W. Deem and Ramdas Pophale) SiO2 
 PCOD9091187
Probable space group: P -1
;
_chemical_formula_sum "Si O2"
_cell_formula_units_Z 16
_cell_length_a 9.040361
_cell_length_b 11.591734
_cell_length_c 8.550614
_cell_angle_alpha 120.734040
_cell_angle_beta 70.104909
_cell_angle_gamma 106.218183
_cell_volume 718.047297
_symmetry_space_group_name_H-M "P -1"
_symmetry_group_IT_number 2
_symmetry_cell_setting 'triclinic'
loop_
_space_group_symop_operation_xyz
x,y,z
-x,-y,-z
loop_
_atom_site_type_symbol
_atom_site_label
_atom_site_fract_x
_atom_site_fract_y
_atom_site_fract_z
Si Si1 0.264824 0.100038 0.888815
Si Si2 0.036976 0.820816 0.061416
Si Si3 0.580004 0.631695 0.158500
Si Si4 0.049614 0.566274 0.693710
Si Si5 0.619310 0.447683 0.545184
Si Si6 0.391907 0.886366 0.861865
Si Si7 0.689800 0.745323 0.708460
Si Si8 0.880970 0.668542 0.288971
O O1 0.249169 0.146971 0.107079
O O2 0.089831 0.077063 0.860359
O O3 0.370570 0.227692 0.854725
O O4 0.347125 0.963370 0.773657
O O5 0.982486 0.695483 0.875293
O O6 0.223509 0.853775 0.988116
O O7 0.999831 0.769211 0.213932
O O8 0.455253 0.642982 0.350718
O O9 0.739107 0.607723 0.180637
O O10 0.500000 0.500000 0.000000
O O11 0.237214 0.609439 0.630250
O O12 0.034026 0.449828 0.748642
O O13 0.000000 0.500000 0.500000
O O14 0.500000 0.500000 0.500000
O O15 0.685599 0.598481 0.690137
O O16 0.514658 0.775389 0.736934
O O17 0.500000 0.000000 0.000000
O O18 0.798917 0.738542 0.511388
#
# Coordination Sequence:
#
# PCOD9091187 Si02
#       8
#     2   2   2   2   2   2   2   2
#     4  10  22  40  61  88 122 164 208 253 307 376
#     4  11  22  40  63  88 128 164 205 258 313 369
#     4  11  21  34  63  93 123 160 207 254 316 364
#     4  11  23  38  61  96 129 164 204 249 321 382
#     4  11  19  36  61  88 126 162 200 252 316 367
#     4  10  23  41  65  88 116 167 217 256 305 366
#     4  10  19  39  64  86 122 161 208 253 307 364
#     4  10  23  38  61  93 128 162 202 259 317 377
#
# _framework density 22.282654999999998
#
# number of rings (size 3 to 8) (size 9 to 14) (size 15 to 20)
#    0.000    1.500    3.750    3.000    1.750    0.000 
#    4.500    5.000    2.750    0.000    0.000    0.000 
#    0.000    0.000    0.000    0.000    0.000    0.000 
#
# Total GULP energy -89240.899614 kJ/mol
# GULP energy per Si atom -5577.556226 kJ/mol
# Density = 2.223194 g / cm^3
# Si number density = 22.282655 Si / 1000 Ang^3
#
#
#
# Elastic Constant Matrix: (Units=GPa)
#
#
# Indices 1 2 3 4 5 6 
#
# 1 93.6644 43.6050 17.8410 -14.2023 -10.2086 -10.6921
# 2 43.6050 99.4059 38.4175 -33.0481 -20.1354 -4.0994
# 3 17.8410 38.4175 72.7364 -22.9089 -6.0039 5.9903
# 4 -14.2023 -33.0481 -22.9089 34.5557 -0.3465 -6.8284
# 5 -10.2086 -20.1354 -6.0039 -0.3465 37.1983 4.2265
# 6 -10.6921 -4.0994 5.9903 -6.8284 4.2265 41.6804
#
#
#
# Elastic Compliance Matrix: (Units=1/GPa)
#
#
# Indices 1 2 3 4 5 6 
#
# 1 0.013808 -0.005352 -0.000518 0.000847 0.000455 0.003183
# 2 -0.005352 0.021475 -0.004454 0.016086 0.009237 0.003078
# 3 -0.000518 -0.004454 0.018871 0.007628 0.000804 -0.002115
# 4 0.000847 0.016086 0.007628 0.051435 0.009725 0.008143
# 5 0.000455 0.009237 0.000804 0.009725 0.032316 -0.000774
# 6 0.003183 0.003078 -0.002115 0.008143 -0.000774 0.026828
#
#
# Mechanical properties :
#
#
# Convention : Reuss Voigt Hill
#
# Bulk Modulus (GPa) = 29.84600 51.72598 40.78599
# Shear Modulus (GPa) = 25.43902 33.74975 29.59439
#
# Velocity S-wave (km/s) = 3.38250 3.89603 3.64831
# Velocity P-wave (km/s) = 5.35522 6.59566 6.00754
#
# Compressibility (1/GPa) = 0.03350533
#
# Stress axis : x y z
#
# Youngs Moduli (GPa) = 72.42231 46.56676 52.99137
#
# Poissons Ratio (x) = 0.24921 0.02745
# Poissons Ratio (y) = 0.38758 0.23604
# Poissons Ratio (z) = 0.03752 0.20742
#
# Static dielectric constant tensor:
#      x y z
#    x 1.751620 0.039800 0.003540 
#    y 0.039800 1.935280 0.062500 
#    z 0.003540 0.062500 1.825180 
# 
# From -- ./inp_files/181326.got.cif
#   From: 2010.05.17/outbox.cif.g08.bks.cpg/sg2_91_cif.got.tgz:181326.got - 2010.06.03 11:33:40.
