data_PCOD9091299
_publ_section_title
;
Structure prediction by ZEFSAII (Michael W. Deem and Ramdas Pophale) SiO2 
 PCOD9091299
Probable space group: P -1
;
_chemical_formula_sum "Si O2"
_cell_formula_units_Z 16
_cell_length_a 10.106547
_cell_length_b 11.999207
_cell_length_c 20.360836
_cell_angle_alpha 29.943123
_cell_angle_beta 147.580441
_cell_angle_gamma 134.823875
_cell_volume 657.483438
_symmetry_space_group_name_H-M "P -1"
_symmetry_group_IT_number 2
_symmetry_cell_setting 'triclinic'
loop_
_space_group_symop_operation_xyz
x,y,z
-x,-y,-z
loop_
_atom_site_type_symbol
_atom_site_label
_atom_site_fract_x
_atom_site_fract_y
_atom_site_fract_z
Si Si1 0.034868 0.610694 0.630602
Si Si2 0.531997 0.299981 0.690509
Si Si3 0.894714 0.275619 0.537286
Si Si4 0.194288 0.515010 0.014417
Si Si5 0.380907 0.996913 0.340376
Si Si6 0.907022 0.153342 0.822907
Si Si7 0.137928 0.304206 0.341183
Si Si8 0.604306 0.046377 0.090429
O O1 0.756631 0.629561 0.473798
O O2 0.088097 0.346072 0.797076
O O3 0.003399 0.712954 0.638701
O O4 0.177338 0.686056 0.588518
O O5 0.636747 0.248696 0.688570
O O6 0.695305 0.486016 0.691613
O O7 0.547554 0.082889 0.854047
O O8 0.675523 0.170064 0.538275
O O9 0.000000 0.500000 0.500000
O O10 0.117869 0.077617 0.730867
O O11 0.054035 0.626128 0.833819
O O12 0.379024 0.694970 0.020919
O O13 0.323813 0.264153 0.186952
O O14 0.000000 0.500000 0.000000
O O15 0.161357 0.948251 0.222054
O O16 0.660157 0.908769 0.478863
O O17 0.000000 0.000000 0.000000
O O18 0.500000 0.000000 0.000000
#
# Coordination Sequence:
#
# PCOD9091299 Si02
#       8
#     2   2   2   2   2   2   2   2
#     4  10  19  39  65 101 146 182 239 290 348 411
#     4  10  19  39  68  97 136 184 233 284 347 409
#     4  11  22  40  70 107 140 182 246 290 342 427
#     4  12  27  47  68 105 147 184 237 299 371 431
#     4  12  22  43  73 103 145 190 240 288 362 432
#     4  11  20  33  65 104 138 179 237 295 338 416
#     4  11  22  44  76 103 143 190 233 301 360 420
#     4  11  25  46  68  95 140 183 228 298 362 425
#
# _framework density 24.335213
#
# number of rings (size 3 to 8) (size 9 to 14) (size 15 to 20)
#    0.000    1.000    5.000    3.750    1.750    0.500 
#    2.250    3.125    0.000    0.000    0.000    0.000 
#    0.000    0.000    0.000    0.000    0.000    0.000 
#
# Total GULP energy -89478.161104 kJ/mol
# GULP energy per Si atom -5592.385069 kJ/mol
# Density = 2.427982 g / cm^3
# Si number density = 24.335213 Si / 1000 Ang^3
#
#
#
# Elastic Constant Matrix: (Units=GPa)
#
#
# Indices 1 2 3 4 5 6 
#
# 1 145.1131 59.1254 71.4339 -2.5398 -33.9435 -19.9292
# 2 59.1254 132.3139 51.9827 -24.8849 -11.4444 -23.5321
# 3 71.4339 51.9827 135.5583 -17.6807 -17.6159 -13.9226
# 4 -2.5398 -24.8849 -17.6807 49.2168 -5.1481 3.6729
# 5 -33.9435 -11.4444 -17.6159 -5.1481 55.0789 -0.9357
# 6 -19.9292 -23.5321 -13.9226 3.6729 -0.9357 25.2991
#
#
#
# Elastic Compliance Matrix: (Units=1/GPa)
#
#
# Indices 1 2 3 4 5 6 
#
# 1 0.012063 -0.002704 -0.004380 -0.002137 0.005358 0.005086
# 2 -0.002704 0.011613 -0.001574 0.004717 0.000806 0.007151
# 3 -0.004380 -0.001574 0.010826 0.002894 0.000718 0.000650
# 4 -0.002137 0.004717 0.002894 0.023859 0.002835 0.000938
# 5 0.005358 0.000806 0.000718 0.002835 0.022218 0.005775
# 6 0.005086 0.007151 0.000650 0.000938 0.005775 0.050620
#
#
# Mechanical properties :
#
#
# Convention : Reuss Voigt Hill
#
# Bulk Modulus (GPa) = 58.18506 86.45214 72.31860
# Shear Modulus (GPa) = 32.41603 41.28185 36.84894
#
# Velocity S-wave (km/s) = 3.65370 4.12319 3.89552
# Velocity P-wave (km/s) = 6.46228 7.63349 7.07218
#
# Compressibility (1/GPa) = 0.01718654
#
# Stress axis : x y z
#
# Youngs Moduli (GPa) = 82.89492 86.10981 92.36888
#
# Poissons Ratio (x) = 0.23282 0.40460
# Poissons Ratio (y) = 0.22412 0.14540
# Poissons Ratio (z) = 0.36310 0.13555
#
# Static dielectric constant tensor:
#      x y z
#    x 2.025010 0.035770 0.053130 
#    y 0.035770 2.043600 -0.006130 
#    z 0.053130 -0.006130 2.172320 
# 
# From -- ./inp_files/595081.got.cif
#   From: 2010.05.17/outbox.cif.g08.bks.cpg/sg2_298_cif.got.tgz:595081.got - 2010.06.03 11:33:40.
