data_PCOD9091332
_publ_section_title
;
Structure prediction by ZEFSAII (Michael W. Deem and Ramdas Pophale) SiO2 
 PCOD9091332
Probable space group: P -1
;
_chemical_formula_sum "Si O2"
_cell_formula_units_Z 16
_cell_length_a 5.486617
_cell_length_b 20.537114
_cell_length_c 12.060542
_cell_angle_alpha 150.183350
_cell_angle_beta 107.433369
_cell_angle_gamma 73.950614
_cell_volume 644.287091
_symmetry_space_group_name_H-M "P -1"
_symmetry_group_IT_number 2
_symmetry_cell_setting 'triclinic'
loop_
_space_group_symop_operation_xyz
x,y,z
-x,-y,-z
loop_
_atom_site_type_symbol
_atom_site_label
_atom_site_fract_x
_atom_site_fract_y
_atom_site_fract_z
Si Si1 0.168779 0.236897 0.494869
Si Si2 0.132596 0.027885 0.744664
Si Si3 0.696747 0.348877 0.528895
Si Si4 0.867205 0.373928 0.344990
Si Si5 0.264612 0.148970 0.147825
Si Si6 0.621524 0.206324 0.688121
Si Si7 0.426204 0.833100 0.125983
Si Si8 0.376252 0.508115 0.874580
O O1 0.190813 0.134480 0.245414
O O2 0.377768 0.214529 0.583936
O O3 0.217443 0.378218 0.651512
O O4 0.878037 0.275224 0.538168
O O5 0.330857 0.119919 0.841269
O O6 0.835150 0.074059 0.780511
O O7 0.173537 0.893603 0.485328
O O8 0.243045 0.025914 0.882609
O O9 0.763454 0.400981 0.493396
O O10 0.524482 0.225350 0.293314
O O11 0.586011 0.477048 0.765057
O O12 0.000000 0.500000 0.500000
O O13 0.071506 0.255505 0.221711
O O14 0.659543 0.307580 0.140010
O O15 0.521398 0.166757 0.736164
O O16 0.742696 0.347511 0.933542
O O17 0.500000 0.500000 0.000000
#
# Coordination Sequence:
#
# PCOD9091332 Si02
#       8
#     2   2   2   2   2   2   2   2
#     4   9  21  42  64 100 129 169 220 278 344 393
#     4  11  24  49  67  96 135 180 228 282 328 392
#     4  10  19  39  65  89 138 165 211 288 340 385
#     4  10  22  37  66 100 127 173 224 275 345 398
#     4   9  20  40  66  90 136 162 217 290 327 389
#     4  11  24  42  65  93 132 182 225 266 336 412
#     4  11  25  46  67 100 137 175 226 281 332 397
#     4   9  21  40  59  94 131 165 217 269 336 401
#
# _framework density 24.833649000000001
#
# number of rings (size 3 to 8) (size 9 to 14) (size 15 to 20)
#    0.000    2.000    1.250    0.750    5.250    5.000 
#   15.750    0.625    0.000    0.000    0.000    0.000 
#    0.000    0.000    0.000    0.000    0.000    0.000 
#
# Total GULP energy -89323.152534 kJ/mol
# GULP energy per Si atom -5582.697033 kJ/mol
# Density = 2.477713 g / cm^3
# Si number density = 24.833649 Si / 1000 Ang^3
#
#
#
# Elastic Constant Matrix: (Units=GPa)
#
#
# Indices 1 2 3 4 5 6 
#
# 1 40.1756 25.3086 13.9446 0.3532 -1.8821 9.9451
# 2 25.3086 80.5491 47.5760 -19.8868 2.5532 2.6779
# 3 13.9446 47.5760 124.0690 -11.8651 -23.2210 20.3005
# 4 0.3532 -19.8868 -11.8651 40.8756 2.6554 5.8314
# 5 -1.8821 2.5532 -23.2210 2.6554 23.1015 -4.9056
# 6 9.9451 2.6779 20.3005 5.8314 -4.9056 33.3218
#
#
#
# Elastic Compliance Matrix: (Units=1/GPa)
#
#
# Indices 1 2 3 4 5 6 
#
# 1 0.035698 -0.014921 0.004188 -0.005399 0.007266 -0.009992
# 2 -0.014921 0.026598 -0.011323 0.010060 -0.015598 0.005157
# 3 0.004188 -0.011323 0.016153 -0.000826 0.016303 -0.007636
# 4 -0.005399 0.010060 -0.000826 0.030333 -0.006935 -0.005023
# 5 0.007266 -0.015598 0.016303 -0.006935 0.062702 -0.000402
# 6 -0.009992 0.005157 -0.007636 -0.005023 -0.000402 0.038050
#
#
# Mechanical properties :
#
#
# Convention : Reuss Voigt Hill
#
# Bulk Modulus (GPa) = 29.12404 46.49467 37.80936
# Shear Modulus (GPa) = 18.86137 29.99074 24.42606
#
# Velocity S-wave (km/s) = 2.75891 3.47892 3.13962
# Velocity P-wave (km/s) = 4.67994 5.90764 5.32927
#
# Compressibility (1/GPa) = 0.03433590
#
# Stress axis : x y z
#
# Youngs Moduli (GPa) = 28.01294 37.59719 61.90719
#
# Poissons Ratio (x) = 0.56098 -0.25926
# Poissons Ratio (y) = 0.41797 0.70101
# Poissons Ratio (z) = -0.11731 0.42573
#
# Static dielectric constant tensor:
#      x y z
#    x 2.316350 -0.005780 -0.001520 
#    y -0.005780 2.038160 0.036220 
#    z -0.001520 0.036220 1.982700 
# 
# From -- ./inp_files/370551.got.cif
#   From: 2010.05.17/outbox.cif.g08.bks.cpg/sg2_186_cif.got.tgz:370551.got - 2010.06.03 11:33:40.
