data_PCOD9091134
_publ_section_title
;
Structure prediction by ZEFSAII (Michael W. Deem and Ramdas Pophale) SiO2 
 PCOD9091134
Probable space group: P -1
;
_chemical_formula_sum "Si O2"
_cell_formula_units_Z 16
_cell_length_a 14.232810
_cell_length_b 13.235318
_cell_length_c 8.815909
_cell_angle_alpha 114.374635
_cell_angle_beta 54.022210
_cell_angle_gamma 150.918069
_cell_volume 631.451583
_symmetry_space_group_name_H-M "P -1"
_symmetry_group_IT_number 2
_symmetry_cell_setting 'triclinic'
loop_
_space_group_symop_operation_xyz
x,y,z
-x,-y,-z
loop_
_atom_site_type_symbol
_atom_site_label
_atom_site_fract_x
_atom_site_fract_y
_atom_site_fract_z
Si Si1 0.635716 0.856007 0.066472
Si Si2 0.688615 0.458891 0.187215
Si Si3 0.735962 0.784834 0.639428
Si Si4 0.670673 0.562011 0.782877
Si Si5 0.001691 0.793011 0.841921
Si Si6 0.003979 0.595760 0.186791
Si Si7 0.609447 0.176176 0.877272
Si Si8 0.757478 0.245670 0.449786
O O1 0.403734 0.621821 0.213251
O O2 0.614098 0.962313 0.086358
O O3 0.803170 0.980493 0.122690
O O4 0.703565 0.835574 0.849894
O O5 0.444880 0.310957 0.363948
O O6 0.865962 0.582403 0.230526
O O7 0.649832 0.312106 0.038633
O O8 0.804519 0.629127 0.053472
O O9 0.667172 0.604704 0.644394
O O10 0.000000 0.000000 0.500000
O O11 0.915933 0.773081 0.754868
O O12 0.500000 0.500000 0.000000
O O13 0.094265 0.744321 0.703173
O O14 0.266077 0.819806 0.138361
O O15 0.850892 0.415466 0.352094
O O16 0.000000 0.500000 0.000000
O O17 0.754634 0.279161 0.648630
O O18 0.500000 0.000000 0.500000
#
# Coordination Sequence:
#
# PCOD9091134 Si02
#       8
#     2   2   2   2   2   2   2   2
#     4  10  21  40  68  98 126 171 216 265 330 396
#     4  10  21  42  66  95 134 176 218 270 335 397
#     4  10  22  44  70  92 131 162 216 282 333 386
#     4  10  20  41  68  92 122 170 214 275 328 384
#     4  12  21  39  68  96 130 171 225 262 325 389
#     4  10  20  37  62  87 132 179 208 261 332 382
#     4  10  19  39  63  94 134 172 214 267 320 378
#     4  12  23  36  62 101 131 168 227 270 303 395
#
# _framework density 25.338442000000001
#
# number of rings (size 3 to 8) (size 9 to 14) (size 15 to 20)
#    0.000    1.500    7.500    0.375    0.000    3.000 
#    0.000   10.000    2.750    0.000    0.000    0.000 
#    0.000    0.000    0.000    0.000    0.000    0.000 
#
# Total GULP energy -89231.517601 kJ/mol
# GULP energy per Si atom -5576.969850 kJ/mol
# Density = 2.528077 g / cm^3
# Si number density = 25.338442 Si / 1000 Ang^3
#
#
#
# Elastic Constant Matrix: (Units=GPa)
#
#
# Indices 1 2 3 4 5 6 
#
# 1 170.6262 35.5265 30.9937 -12.3059 -1.8393 39.4565
# 2 35.5265 43.5771 -27.5946 13.9533 -19.5030 32.1789
# 3 30.9937 -27.5946 26.6211 22.4037 -39.1285 -6.2422
# 4 -12.3059 13.9533 22.4037 24.0286 22.2072 3.0236
# 5 -1.8393 -19.5030 -39.1285 22.2072 19.8308 -14.8978
# 6 39.4565 32.1789 -6.2422 3.0236 -14.8978 52.4855
#
#
#
# Elastic Compliance Matrix: (Units=1/GPa)
#
#
# Indices 1 2 3 4 5 6 
#
# 1 0.006130 0.001387 0.001358 -0.002260 0.004144 -0.003991
# 2 0.001387 0.024869 -0.006788 0.007586 -0.013314 -0.021314
# 3 0.001358 -0.006788 0.004032 0.010818 -0.010748 -0.000053
# 4 -0.002260 0.007586 0.010818 0.016851 0.009844 0.000158
# 5 0.004144 -0.013314 -0.010748 0.009844 0.010031 0.006050
# 6 -0.003991 -0.021314 -0.000053 0.000158 0.006050 0.036822
#
#
# Mechanical properties :
#
#
# Convention : Reuss Voigt Hill
#
# Bulk Modulus (GPa) = 37.11375 35.40841 36.26108
# Shear Modulus (GPa) = 43.17642 32.72891 37.95266
#
# Velocity S-wave (km/s) = 4.13242 3.59788 3.87438
# Velocity P-wave (km/s) = 6.11949 5.59144 5.86141
#
# Compressibility (1/GPa) = 0.02694420
#
# Stress axis : x y z
#
# Youngs Moduli (GPa) = 163.13462 40.21053 247.99801
#
# Poissons Ratio (x) = -0.05579 -0.33668
# Poissons Ratio (y) = -0.22632 1.68353
# Poissons Ratio (z) = -0.22147 0.27297
#
# Static dielectric constant tensor:
#      x y z
#    x 2.054130 -0.013260 -0.010990 
#    y -0.013260 2.100140 -0.051790 
#    z -0.010990 -0.051790 1.999080 
# 
# From -- ./inp_files/313665.got.cif
#   From: 2010.05.17/outbox.cif.g08.bks.cpg/sg2_157_cif.got.tgz:313665.got - 2010.06.03 11:33:40.
