data_PCOD9091305
_publ_section_title
;
Structure prediction by ZEFSAII (Michael W. Deem and Ramdas Pophale) SiO2 
 PCOD9091305
Probable space group: P -1
;
_chemical_formula_sum "Si O2"
_cell_formula_units_Z 14
_cell_length_a 17.635688
_cell_length_b 20.587288
_cell_length_c 9.284949
_cell_angle_alpha 142.618338
_cell_angle_beta 46.985865
_cell_angle_gamma 161.289074
_cell_volume 612.118261
_symmetry_space_group_name_H-M "P -1"
_symmetry_group_IT_number 2
_symmetry_cell_setting 'triclinic'
loop_
_space_group_symop_operation_xyz
x,y,z
-x,-y,-z
loop_
_atom_site_type_symbol
_atom_site_label
_atom_site_fract_x
_atom_site_fract_y
_atom_site_fract_z
Si Si1 0.742874 0.226895 0.984772
Si Si2 0.933489 0.625653 0.006538
Si Si3 0.898495 0.643750 0.764365
Si Si4 0.256608 0.412356 0.580046
Si Si5 0.069467 0.733565 0.420195
Si Si6 0.406425 0.231978 0.499357
Si Si7 0.024216 0.036895 0.705558
O O1 0.830835 0.426680 0.174131
O O2 0.975917 0.397437 0.076419
O O3 0.718523 0.126395 0.701083
O O4 0.500000 0.000000 0.000000
O O5 0.725021 0.492304 0.136969
O O6 0.182051 0.936309 0.244471
O O7 0.874956 0.563173 0.804838
O O8 0.631914 0.395234 0.588204
O O9 0.097883 0.780761 0.635238
O O10 0.966917 0.831737 0.034573
O O11 0.481523 0.628360 0.554830
O O12 0.018427 0.239977 0.496413
O O13 0.186640 0.229350 0.405134
O O14 0.285711 0.219255 0.715365
O O15 0.000000 0.000000 0.500000
#
# Coordination Sequence:
#
# PCOD9091305 Si02
#       7
#     2   2   2   2   2   2   2
#     4  10  19  39  65  84 117 156 192 244 306 351
#     4  10  21  40  61  88 125 152 195 254 290 347
#     4  11  21  40  60  89 124 154 203 245 286 355
#     4   9  19  38  60  83 121 160 195 240 296 343
#     4   9  21  36  59  89 115 153 198 243 294 352
#     4  10  21  38  61  85 121 164 199 234 298 346
#     4  11  21  39  60  88 124 158 198 246 288 346
#
# _framework density 22.871397999999999
#
# number of rings (size 3 to 8) (size 9 to 14) (size 15 to 20)
#    0.000    2.000    2.857    2.143    0.000    3.429 
#    0.000   12.143    0.000    0.000    0.000    0.000 
#    0.000    0.000    0.000    0.000    0.000    0.000 
#
# Total GULP energy -78249.553316 kJ/mol
# GULP energy per Si atom -5589.253808 kJ/mol
# Density = 2.281934 g / cm^3
# Si number density = 22.871398 Si / 1000 Ang^3
#
#
#
# Elastic Constant Matrix: (Units=GPa)
#
#
# Indices 1 2 3 4 5 6 
#
# 1 96.3204 14.9725 21.9031 -2.2275 9.0170 -23.4849
# 2 14.9725 120.2357 36.5365 -24.1747 5.1731 -24.4072
# 3 21.9031 36.5365 83.4959 -26.3875 7.7533 -5.4499
# 4 -2.2275 -24.1747 -26.3875 45.3989 -9.8544 1.9157
# 5 9.0170 5.1731 7.7533 -9.8544 37.9833 -7.3797
# 6 -23.4849 -24.4072 -5.4499 1.9157 -7.3797 38.9507
#
#
#
# Elastic Compliance Matrix: (Units=1/GPa)
#
#
# Indices 1 2 3 4 5 6 
#
# 1 0.013056 0.000757 -0.003669 -0.001718 -0.001413 0.007650
# 2 0.000757 0.011560 -0.003624 0.004097 0.001461 0.007269
# 3 -0.003669 -0.003624 0.016828 0.007653 -0.000593 -0.002617
# 4 -0.001718 0.004097 0.007653 0.029884 0.006500 0.002364
# 5 -0.001413 0.001461 -0.000593 0.006500 0.029283 0.005209
# 6 0.007650 0.007269 -0.002617 0.002364 0.005209 0.035345
#
#
# Mechanical properties :
#
#
# Convention : Reuss Voigt Hill
#
# Bulk Modulus (GPa) = 35.24367 49.65290 42.44828
# Shear Modulus (GPa) = 31.54877 39.57590 35.56234
#
# Velocity S-wave (km/s) = 3.71805 4.16428 3.94748
# Velocity P-wave (km/s) = 5.82021 6.69913 6.27508
#
# Compressibility (1/GPa) = 0.02837389
#
# Stress axis : x y z
#
# Youngs Moduli (GPa) = 76.59068 86.50339 59.42636
#
# Poissons Ratio (x) = -0.06551 0.21803
# Poissons Ratio (y) = -0.05800 0.21534
# Poissons Ratio (z) = 0.28100 0.31345
#
# Static dielectric constant tensor:
#      x y z
#    x 1.882230 0.027010 0.005000 
#    y 0.027010 1.896520 -0.026160 
#    z 0.005000 -0.026160 1.852460 
# 
# From -- ./inp_files/216014.got.cif
#   From: 2010.05.17/outbox.cif.g08.bks.cpg/sg2_109_cif.got.tgz:216014.got - 2010.06.03 11:33:40.
