data_PCOD9091012
_publ_section_title
;
Structure prediction by ZEFSAII (Michael W. Deem and Ramdas Pophale) SiO2 
 PCOD9091012
Probable space group: P -1
;
_chemical_formula_sum "Si O2"
_cell_formula_units_Z 16
_cell_length_a 14.915476
_cell_length_b 15.788273
_cell_length_c 7.738668
_cell_angle_alpha 94.834592
_cell_angle_beta 63.265736
_cell_angle_gamma 40.931166
_cell_volume 734.546698
_symmetry_space_group_name_H-M "P -1"
_symmetry_group_IT_number 2
_symmetry_cell_setting 'triclinic'
loop_
_space_group_symop_operation_xyz
x,y,z
-x,-y,-z
loop_
_atom_site_type_symbol
_atom_site_label
_atom_site_fract_x
_atom_site_fract_y
_atom_site_fract_z
Si Si1 0.034525 0.540107 0.130625
Si Si2 0.569833 0.692492 0.073005
Si Si3 0.427230 0.460928 0.509632
Si Si4 0.184484 0.440666 0.514004
Si Si5 0.646089 0.133533 0.227728
Si Si6 0.042321 0.253131 0.993386
Si Si7 0.332759 0.552976 0.201258
Si Si8 0.890443 0.989067 0.631662
O O1 0.294157 0.363262 0.905807
O O2 0.919339 0.574799 0.389612
O O3 0.918333 0.714252 0.197290
O O4 0.000000 0.500000 0.000000
O O5 0.707788 0.620905 0.773713
O O6 0.625452 0.551675 0.990300
O O7 0.305384 0.893471 0.308909
O O8 0.500000 0.500000 0.500000
O O9 0.597266 0.259357 0.389624
O O10 0.186759 0.622623 0.819777
O O11 0.391435 0.481521 0.334977
O O12 0.402478 0.283436 0.417344
O O13 0.013013 0.641072 0.776334
O O14 0.775134 0.068856 0.933171
O O15 0.779824 0.954000 0.160013
O O16 0.087732 0.773128 0.432923
O O17 0.500000 0.500000 0.000000
O O18 0.000000 0.000000 0.500000
#
# Coordination Sequence:
#
# PCOD9091012 Si02
#       8
#     2   2   2   2   2   2   2   2
#     4  10  23  41  66  93 126 168 214 272 326 377
#     4  11  21  40  66  92 127 169 213 262 320 378
#     4  11  23  38  61  90 132 172 206 259 319 379
#     4   9  19  40  64  89 118 166 213 268 319 370
#     4  10  19  39  62  92 123 171 211 260 317 383
#     4  10  20  39  60  88 129 163 211 261 322 381
#     4  12  22  40  63  93 130 166 213 260 315 384
#     4  11  20  37  64  95 129 166 209 262 309 381
#
# _framework density 21.782139999999998
#
# number of rings (size 3 to 8) (size 9 to 14) (size 15 to 20)
#    0.000    1.500    6.250    0.375    1.750    1.000 
#    0.000    6.250    0.000    9.000    0.000    0.000 
#    0.000    0.000    0.000    0.000    0.000    0.000 
#
# Total GULP energy -89268.944272 kJ/mol
# GULP energy per Si atom -5579.309017 kJ/mol
# Density = 2.173256 g / cm^3
# Si number density = 21.782140 Si / 1000 Ang^3
#
#
#
# Elastic Constant Matrix: (Units=GPa)
#
#
# Indices 1 2 3 4 5 6 
#
# 1 133.4698 59.0243 40.8972 8.2126 -27.9394 7.2801
# 2 59.0243 134.1112 45.5567 29.0040 -5.6320 24.8510
# 3 40.8972 45.5567 81.3847 24.0956 -15.0278 6.1798
# 4 8.2126 29.0040 24.0956 55.2511 10.1125 1.4194
# 5 -27.9394 -5.6320 -15.0278 10.1125 32.3775 -8.6339
# 6 7.2801 24.8510 6.1798 1.4194 -8.6339 38.4628
#
#
#
# Elastic Compliance Matrix: (Units=1/GPa)
#
#
# Indices 1 2 3 4 5 6 
#
# 1 0.012040 -0.004857 -0.001662 -0.000392 0.009786 0.003338
# 2 -0.004857 0.012925 -0.004203 -0.003117 -0.004990 -0.007761
# 3 -0.001662 -0.004203 0.019490 -0.007941 0.010012 0.002439
# 4 -0.000392 -0.003117 -0.007941 0.025587 -0.012671 -0.000425
# 5 0.009786 -0.004990 0.010012 -0.012671 0.050129 0.011484
# 6 0.003338 -0.007761 0.002439 -0.000425 0.011484 0.032584
#
#
# Mechanical properties :
#
#
# Convention : Reuss Voigt Hill
#
# Bulk Modulus (GPa) = 43.45925 71.10245 57.28085
# Shear Modulus (GPa) = 27.49233 38.78413 33.13823
#
# Velocity S-wave (km/s) = 3.55653 4.22423 3.90468
# Velocity P-wave (km/s) = 6.07127 7.51702 6.83249
#
# Compressibility (1/GPa) = 0.02301006
#
# Stress axis : x y z
#
# Youngs Moduli (GPa) = 83.05572 77.37072 51.30856
#
# Poissons Ratio (x) = 0.37581 0.08527
# Poissons Ratio (y) = 0.40342 0.21567
# Poissons Ratio (z) = 0.13803 0.32521
#
# Static dielectric constant tensor:
#      x y z
#    x 1.791110 -0.034330 0.037170 
#    y -0.034330 1.938630 -0.111840 
#    z 0.037170 -0.111840 1.862250 
# 
# From -- ./inp_files/313287.got.cif
#   From: 2010.05.17/outbox.cif.g08.bks.cpg/sg2_157_cif.got.tgz:313287.got - 2010.06.03 11:33:40.
