data_PCOD9091697
_publ_section_title
;
Structure prediction by ZEFSAII (Michael W. Deem and Ramdas Pophale) SiO2 
 PCOD9091697
Probable space group: P -1
;
_chemical_formula_sum "Si O2"
_cell_formula_units_Z 14
_cell_length_a 11.364021
_cell_length_b 11.040003
_cell_length_c 11.390080
_cell_angle_alpha 39.283333
_cell_angle_beta 59.889107
_cell_angle_gamma 90.141824
_cell_volume 548.402501
_symmetry_space_group_name_H-M "P -1"
_symmetry_group_IT_number 2
_symmetry_cell_setting 'triclinic'
loop_
_space_group_symop_operation_xyz
x,y,z
-x,-y,-z
loop_
_atom_site_type_symbol
_atom_site_label
_atom_site_fract_x
_atom_site_fract_y
_atom_site_fract_z
Si Si1 0.493977 0.401922 0.346467
Si Si2 0.898709 0.847761 0.287759
Si Si3 0.859418 0.247167 0.641166
Si Si4 0.094008 0.304102 0.029267
Si Si5 0.838513 0.179242 0.441420
Si Si6 0.524569 0.213795 0.245834
Si Si7 0.749839 0.198922 0.975786
O O1 0.332245 0.404354 0.429187
O O2 0.702487 0.604610 0.152698
O O3 0.543654 0.403662 0.185094
O O4 0.371669 0.100885 0.688998
O O5 0.012397 0.788645 0.335034
O O6 0.000000 0.000000 0.000000
O O7 0.936701 0.054555 0.208729
O O8 0.789702 0.104333 0.657969
O O9 0.715595 0.168221 0.875583
O O10 0.017750 0.572675 0.294502
O O11 0.126814 0.558792 0.789163
O O12 0.018180 0.243405 0.247331
O O13 0.662427 0.951051 0.616838
O O14 0.500000 0.000000 0.500000
O O15 0.690531 0.322709 0.989932
#
# Coordination Sequence:
#
# PCOD9091697 Si02
#       7
#     2   2   2   2   2   2   2
#     4  11  21  45  71  98 128 177 227 271 324 402
#     4  12  26  46  66  94 142 182 213 267 342 402
#     4  11  25  40  63  98 137 177 215 277 336 388
#     4  11  24  42  73 100 128 176 228 271 327 400
#     4  11  22  40  70 102 130 167 228 284 320 383
#     4  10  19  39  69  99 128 166 228 279 319 386
#     4  10  21  42  64  95 131 169 231 269 325 388
#
# _framework density 25.528696
#
# number of rings (size 3 to 8) (size 9 to 14) (size 15 to 20)
#    0.000    1.143    5.714    1.714    6.000    1.714 
#    2.571    1.429    0.000    0.000    0.000    0.000 
#    0.000    0.000    0.000    0.000    0.000    0.000 
#
# Total GULP energy -78322.376755 kJ/mol
# GULP energy per Si atom -5594.455482 kJ/mol
# Density = 2.547059 g / cm^3
# Si number density = 25.528696 Si / 1000 Ang^3
#
#
#
# Elastic Constant Matrix: (Units=GPa)
#
#
# Indices 1 2 3 4 5 6 
#
# 1 107.9637 34.0144 36.3791 18.2592 -7.5006 15.0294
# 2 34.0144 96.0779 44.2907 47.5883 5.7055 17.8396
# 3 36.3791 44.2907 78.8195 24.1676 5.0567 7.1784
# 4 18.2592 47.5883 24.1676 55.6146 -0.5992 5.8540
# 5 -7.5006 5.7055 5.0567 -0.5992 38.6949 -1.4133
# 6 15.0294 17.8396 7.1784 5.8540 -1.4133 45.5253
#
#
#
# Elastic Compliance Matrix: (Units=1/GPa)
#
#
# Indices 1 2 3 4 5 6 
#
# 1 0.011894 -0.001872 -0.004381 -0.000114 0.003065 -0.002392
# 2 -0.001872 0.023144 -0.006586 -0.015786 -0.003360 -0.005487
# 3 -0.004381 -0.006586 0.018840 -0.001259 -0.002318 0.001146
# 4 -0.000114 -0.015786 -0.001259 0.031852 0.003052 0.002421
# 5 0.003065 -0.003360 -0.002318 0.003052 0.027324 0.001126
# 6 -0.002392 -0.005487 0.001146 0.002421 0.001126 0.024449
#
#
# Mechanical properties :
#
#
# Convention : Reuss Voigt Hill
#
# Bulk Modulus (GPa) = 35.46064 56.91438 46.18751
# Shear Modulus (GPa) = 28.97181 39.17874 34.07527
#
# Velocity S-wave (km/s) = 3.37244 3.92177 3.65743
# Velocity P-wave (km/s) = 5.39306 6.54597 5.99728
#
# Compressibility (1/GPa) = 0.02820028
#
# Stress axis : x y z
#
# Youngs Moduli (GPa) = 84.07737 43.20682 53.07743
#
# Poissons Ratio (x) = 0.08090 0.23254
# Poissons Ratio (y) = 0.15743 0.34954
# Poissons Ratio (z) = 0.36836 0.28454
#
# Static dielectric constant tensor:
#      x y z
#    x 2.077190 -0.089280 0.002570 
#    y -0.089280 2.061160 0.004400 
#    z 0.002570 0.004400 2.070900 
# 
# From -- ./inp_files/424956.got.cif
#   From: 2010.05.17/outbox.cif.g08.bks.cpg/sg2_213_cif.got.tgz:424956.got - 2010.06.03 11:33:40.
