data_PCOD9091907
_publ_section_title
;
Structure prediction by ZEFSAII (Michael W. Deem and Ramdas Pophale) SiO2 
 PCOD9091907
Probable space group: P -1
;
_chemical_formula_sum "Si O2"
_cell_formula_units_Z 14
_cell_length_a 11.507648
_cell_length_b 9.340600
_cell_length_c 15.529901
_cell_angle_alpha 54.288319
_cell_angle_beta 28.834693
_cell_angle_gamma 56.707227
_cell_volume 650.670146
_symmetry_space_group_name_H-M "P -1"
_symmetry_group_IT_number 2
_symmetry_cell_setting 'triclinic'
loop_
_space_group_symop_operation_xyz
x,y,z
-x,-y,-z
loop_
_atom_site_type_symbol
_atom_site_label
_atom_site_fract_x
_atom_site_fract_y
_atom_site_fract_z
Si Si1 0.451587 0.092811 0.275147
Si Si2 0.891995 0.697893 0.975212
Si Si3 0.862505 0.210849 0.837467
Si Si4 0.165955 0.964309 0.820596
Si Si5 0.211807 0.026314 0.189391
Si Si6 0.060959 0.421544 0.392894
Si Si7 0.673370 0.199874 0.647894
O O1 0.574442 0.092348 0.289015
O O2 0.249790 0.252458 0.340584
O O3 0.353680 0.902536 0.388228
O O4 0.652630 0.128838 0.058297
O O5 0.605386 0.731357 0.171898
O O6 0.000000 0.500000 0.000000
O O7 0.049118 0.821820 0.887558
O O8 0.893075 0.782725 0.847403
O O9 0.872760 0.121563 0.768434
O O10 0.822963 0.420042 0.786409
O O11 0.120793 0.147780 0.734605
O O12 0.000000 0.000000 0.000000
O O13 0.202398 0.960379 0.315901
O O14 0.500000 0.000000 0.000000
O O15 0.000000 0.500000 0.500000
O O16 0.836434 0.358025 0.506752
#
# Coordination Sequence:
#
# PCOD9091907 Si02
#       7
#     2   2   2   2   2   2   2
#     4  11  22  41  66  84 118 171 201 240 298 371
#     4  10  20  34  63  94 116 154 208 251 288 354
#     4  10  19  40  63  90 115 159 207 247 290 359
#     4   9  18  39  63  85 117 155 205 244 295 347
#     4   9  16  34  61  84 118 156 194 245 293 347
#     4  12  26  38  59  94 127 153 202 256 303 347
#     4  11  21  41  59  87 130 156 196 247 311 354
#
# _framework density 21.516276999999999
#
# number of rings (size 3 to 8) (size 9 to 14) (size 15 to 20)
#    0.000    1.714    7.143    0.857    2.000    0.000 
#    5.143    2.857    0.000    0.000    0.000    0.000 
#    0.000    0.000    0.000    0.000    0.000    0.000 
#
# Total GULP energy -78019.969482 kJ/mol
# GULP energy per Si atom -5572.854963 kJ/mol
# Density = 2.146731 g / cm^3
# Si number density = 21.516277 Si / 1000 Ang^3
#
#
#
# Elastic Constant Matrix: (Units=GPa)
#
#
# Indices 1 2 3 4 5 6 
#
# 1 116.6442 36.8198 25.6911 -0.4257 -29.1837 -13.2144
# 2 36.8198 129.5310 28.6820 1.1814 -16.6194 -17.9672
# 3 25.6911 28.6820 52.6832 -1.3961 -17.0993 -4.0070
# 4 -0.4257 1.1814 -1.3961 24.2222 2.0501 -6.7155
# 5 -29.1837 -16.6194 -17.0993 2.0501 30.7563 2.5313
# 6 -13.2144 -17.9672 -4.0070 -6.7155 2.5313 33.1756
#
#
#
# Elastic Compliance Matrix: (Units=1/GPa)
#
#
# Indices 1 2 3 4 5 6 
#
# 1 0.012151 -0.001389 -0.001845 0.000259 0.009473 0.003194
# 2 -0.001389 0.009727 -0.003820 0.000325 0.001446 0.004209
# 3 -0.001845 -0.003820 0.025265 0.000633 0.010223 -0.000404
# 4 0.000259 0.000325 0.000633 0.044202 -0.002957 0.009529
# 5 0.009473 0.001446 0.010223 -0.002957 0.048039 0.001527
# 6 0.003194 0.004209 -0.000404 0.009529 0.001527 0.035458
#
#
# Mechanical properties :
#
#
# Convention : Reuss Voigt Hill
#
# Bulk Modulus (GPa) = 30.27116 53.47159 41.87137
# Shear Modulus (GPa) = 25.00486 31.47517 28.24002
#
# Velocity S-wave (km/s) = 3.41271 3.82888 3.62677
# Velocity P-wave (km/s) = 5.44319 6.66729 6.08609
#
# Compressibility (1/GPa) = 0.03303474
#
# Stress axis : x y z
#
# Youngs Moduli (GPa) = 82.29890 102.80267 39.58087
#
# Poissons Ratio (x) = 0.14283 0.07301
# Poissons Ratio (y) = 0.11434 0.15121
# Poissons Ratio (z) = 0.15180 0.39273
#
# Static dielectric constant tensor:
#      x y z
#    x -0.178130 0.016830 -0.034640 
#    y 0.016830 1.769030 -0.002880 
#    z -0.034640 -0.002880 1.904970 
# 
# From -- ./inp_files/189435.got.cif
#   From: 2010.05.17/outbox.cif.g08.bks.cpg/sg2_95_cif.got.tgz:189435.got - 2010.06.03 11:33:40.
