data_PCOD9091024
_publ_section_title
;
Structure prediction by ZEFSAII (Michael W. Deem and Ramdas Pophale) SiO2 
 PCOD9091024
Probable space group: P -1
;
_chemical_formula_sum "Si O2"
_cell_formula_units_Z 14
_cell_length_a 9.680721
_cell_length_b 5.150837
_cell_length_c 17.677223
_cell_angle_alpha 111.045034
_cell_angle_beta 39.982480
_cell_angle_gamma 114.540267
_cell_volume 513.959461
_symmetry_space_group_name_H-M "P -1"
_symmetry_group_IT_number 2
_symmetry_cell_setting 'triclinic'
loop_
_space_group_symop_operation_xyz
x,y,z
-x,-y,-z
loop_
_atom_site_type_symbol
_atom_site_label
_atom_site_fract_x
_atom_site_fract_y
_atom_site_fract_z
Si Si1 0.330572 0.621047 0.316551
Si Si2 0.087191 0.869857 0.707045
Si Si3 0.201942 0.784924 0.108363
Si Si4 0.149481 0.940383 0.298642
Si Si5 0.386011 0.695297 0.474821
Si Si6 0.272711 0.680343 0.742709
Si Si7 0.267687 0.587883 0.902266
O O1 0.235435 0.281493 0.310099
O O2 0.317608 0.708454 0.418079
O O3 0.586660 0.646892 0.188346
O O4 0.196035 0.798207 0.341593
O O5 0.166573 0.606335 0.609613
O O6 0.456532 0.525374 0.616488
O O7 0.235422 0.923109 0.726142
O O8 0.072933 0.053628 0.655930
O O9 0.965139 0.549928 0.180571
O O10 0.277490 0.795152 0.164676
O O11 0.321979 0.729282 0.976627
O O12 0.145407 0.098765 0.158145
O O13 0.500000 0.000000 0.500000
O O14 0.328457 0.752475 0.814170
O O15 0.000000 0.500000 0.000000
#
# Coordination Sequence:
#
# PCOD9091024 Si02
#       7
#     2   2   2   2   2   2   2
#     4  11  25  45  66  97 128 168 215 265 314 386
#     4  10  22  37  63  91 126 171 209 263 316 379
#     4   9  20  40  61  90 127 170 206 267 313 378
#     4  10  24  44  64  95 133 169 218 254 318 382
#     4  11  22  40  65  93 127 165 212 269 323 377
#     4  10  19  39  62  94 127 164 218 265 324 374
#     4   9  21  42  64  96 127 167 212 269 323 377
#
# _framework density 27.2395
#
# number of rings (size 3 to 8) (size 9 to 14) (size 15 to 20)
#    0.857    1.143    1.429    1.286    0.000    6.286 
#    5.143    0.000    0.000    0.000    0.000    0.000 
#    0.000    0.000    0.000    0.000    0.000    0.000 
#
# Total GULP energy -77944.454511 kJ/mol
# GULP energy per Si atom -5567.461037 kJ/mol
# Density = 2.717750 g / cm^3
# Si number density = 27.239500 Si / 1000 Ang^3
#
#
#
# Elastic Constant Matrix: (Units=GPa)
#
#
# Indices 1 2 3 4 5 6 
#
# 1 183.8409 66.8100 33.7506 3.4184 39.0706 -41.8605
# 2 66.8100 122.9493 11.6413 16.6132 7.4010 -22.0194
# 3 33.7506 11.6413 160.5371 20.4664 44.5218 -3.6156
# 4 3.4184 16.6132 20.4664 18.0295 15.1470 -3.6120
# 5 39.0706 7.4010 44.5218 15.1470 61.6919 5.0220
# 6 -41.8605 -22.0194 -3.6156 -3.6120 5.0220 62.4764
#
#
#
# Elastic Compliance Matrix: (Units=1/GPa)
#
#
# Indices 1 2 3 4 5 6 
#
# 1 0.011176 -0.006062 -0.000835 0.013981 -0.009742 0.006895
# 2 -0.006062 0.013145 0.000836 -0.017048 0.005913 -0.000841
# 3 -0.000835 0.000836 0.008288 -0.006699 -0.003919 0.000142
# 4 0.013981 -0.017048 -0.006699 0.101757 -0.027861 0.011093
# 5 -0.009742 0.005913 -0.003919 -0.027861 0.032060 -0.008858
# 6 0.006895 -0.000841 0.000142 0.011093 -0.008858 0.021691
#
#
# Mechanical properties :
#
#
# Convention : Reuss Voigt Hill
#
# Bulk Modulus (GPa) = 48.81170 76.85902 62.83536
# Shear Modulus (GPa) = 24.14645 52.11460 38.13053
#
# Velocity S-wave (km/s) = 2.98056 4.37876 3.74548
# Velocity P-wave (km/s) = 5.45924 7.33771 6.46704
#
# Compressibility (1/GPa) = 0.02048689
#
# Stress axis : x y z
#
# Youngs Moduli (GPa) = 89.47627 76.07277 120.65116
#
# Poissons Ratio (x) = 0.46114 0.10080
# Poissons Ratio (y) = 0.54239 -0.10084
# Poissons Ratio (z) = 0.07475 -0.06358
#
# Static dielectric constant tensor:
#      x y z
#    x 2.121340 0.138200 -0.081860 
#    y 0.138200 2.376920 -0.123830 
#    z -0.081860 -0.123830 2.181870 
# 
# From -- ./inp_files/552882.got.cif
#   From: 2010.05.17/outbox.cif.g08.bks.cpg/sg2_277_cif.got.tgz:552882.got - 2010.06.03 11:33:40.
