data_PCOD9091411
_publ_section_title
;
Structure prediction by ZEFSAII (Michael W. Deem and Ramdas Pophale) SiO2 
 PCOD9091411
Probable space group: P -1
;
_chemical_formula_sum "Si O2"
_cell_formula_units_Z 14
_cell_length_a 16.345734
_cell_length_b 10.927683
_cell_length_c 11.665252
_cell_angle_alpha 47.930171
_cell_angle_beta 159.193087
_cell_angle_gamma 134.782757
_cell_volume 524.798501
_symmetry_space_group_name_H-M "P -1"
_symmetry_group_IT_number 2
_symmetry_cell_setting 'triclinic'
loop_
_space_group_symop_operation_xyz
x,y,z
-x,-y,-z
loop_
_atom_site_type_symbol
_atom_site_label
_atom_site_fract_x
_atom_site_fract_y
_atom_site_fract_z
Si Si1 0.458206 0.637294 0.950895
Si Si2 0.210734 0.987732 0.904877
Si Si3 0.295727 0.652023 0.120826
Si Si4 0.690065 0.933430 0.367936
Si Si5 0.474612 0.608702 0.629160
Si Si6 0.098701 0.667602 0.286252
Si Si7 0.300749 0.026503 0.373369
O O1 0.282530 0.639906 0.448219
O O2 0.212294 0.659407 0.565147
O O3 0.500000 0.500000 0.000000
O O4 0.670421 0.820088 0.113667
O O5 0.051071 0.030213 0.375155
O O6 0.193382 0.816491 0.911465
O O7 0.424339 0.985447 0.275378
O O8 0.131332 0.491150 0.938688
O O9 0.543225 0.736330 0.325481
O O10 0.347393 0.586717 0.353526
O O11 0.718879 0.994347 0.500506
O O12 0.500000 0.000000 0.000000
O O13 0.558291 0.458665 0.891208
O O14 0.684999 0.788330 0.775971
O O15 0.109786 0.866940 0.164228
#
# Coordination Sequence:
#
# PCOD9091411 Si02
#       7
#     2   2   2   2   2   2   2
#     4   9  19  35  65  99 130 170 223 273 330 397
#     4   9  20  42  66  94 133 177 221 266 337 398
#     4  10  23  41  70  98 132 180 221 274 334 400
#     4  10  22  40  65  98 135 175 228 272 327 408
#     4   9  18  37  64  97 132 174 223 268 334 404
#     4  10  19  39  66 103 132 169 229 274 333 399
#     4   9  21  41  70  94 128 180 220 275 340 390
#
# _framework density 26.676905000000001
#
# number of rings (size 3 to 8) (size 9 to 14) (size 15 to 20)
#    0.000    2.857    0.000    0.857    4.000    3.429 
#    7.714    5.000    0.000   89.143    0.000    0.000 
#    0.000    0.000    0.000    0.000    0.000    0.000 
#
# Total GULP energy -78315.049801 kJ/mol
# GULP energy per Si atom -5593.932129 kJ/mol
# Density = 2.661619 g / cm^3
# Si number density = 26.676905 Si / 1000 Ang^3
#
#
#
# Elastic Constant Matrix: (Units=GPa)
#
#
# Indices 1 2 3 4 5 6 
#
# 1 148.9445 93.0303 86.3220 1.2026 3.8165 38.0829
# 2 93.0303 269.1824 105.3668 27.6610 -16.0418 18.1040
# 3 86.3220 105.3668 166.1103 2.1161 -8.0598 29.7605
# 4 1.2026 27.6610 2.1161 60.8246 14.8470 -3.3788
# 5 3.8165 -16.0418 -8.0598 14.8470 52.6475 4.0664
# 6 38.0829 18.1040 29.7605 -3.3788 4.0664 43.9838
#
#
#
# Elastic Compliance Matrix: (Units=1/GPa)
#
#
# Indices 1 2 3 4 5 6 
#
# 1 0.012191 -0.002596 -0.003588 0.001184 -0.002034 -0.006780
# 2 -0.002596 0.005974 -0.002460 -0.003119 0.002435 0.000988
# 3 -0.003588 -0.002460 0.009979 0.000416 0.001130 -0.002706
# 4 0.001184 -0.003119 0.000416 0.019561 -0.006651 0.002095
# 5 -0.002034 0.002435 0.001130 -0.006651 0.022130 -0.002563
# 6 -0.006780 0.000988 -0.002706 0.002095 -0.002563 0.030428
#
#
# Mechanical properties :
#
#
# Convention : Reuss Voigt Hill
#
# Bulk Modulus (GPa) = 92.10042 128.18614 110.14328
# Shear Modulus (GPa) = 41.26493 51.45906 46.36200
#
# Velocity S-wave (km/s) = 3.93726 4.39677 4.17334
# Velocity P-wave (km/s) = 7.43429 8.59832 8.03741
#
# Compressibility (1/GPa) = 0.01085771
#
# Stress axis : x y z
#
# Youngs Moduli (GPa) = 82.03100 167.39008 100.21109
#
# Poissons Ratio (x) = 0.43449 0.35951
# Poissons Ratio (y) = 0.21293 0.24649
# Poissons Ratio (z) = 0.29429 0.41172
#
# Static dielectric constant tensor:
#      x y z
#    x 2.210620 -0.202390 -0.277440 
#    y -0.202390 2.368570 0.466610 
#    z -0.277440 0.466610 3.244870 
# 
# From -- ./inp_files/470676.got.cif
#   From: 2010.05.17/outbox.cif.g08.bks.cpg/sg2_236_cif.got.tgz:470676.got - 2010.06.03 11:33:40.
