data_PCOD9091080
_publ_section_title
;
Structure prediction by ZEFSAII (Michael W. Deem and Ramdas Pophale) SiO2 
 PCOD9091080
Probable space group: P -1
;
_chemical_formula_sum "Si O2"
_cell_formula_units_Z 16
_cell_length_a 15.738631
_cell_length_b 15.702541
_cell_length_c 15.246071
_cell_angle_alpha 140.894052
_cell_angle_beta 142.133264
_cell_angle_gamma 18.683884
_cell_volume 733.274378
_symmetry_space_group_name_H-M "P -1"
_symmetry_group_IT_number 2
_symmetry_cell_setting 'triclinic'
loop_
_space_group_symop_operation_xyz
x,y,z
-x,-y,-z
loop_
_atom_site_type_symbol
_atom_site_label
_atom_site_fract_x
_atom_site_fract_y
_atom_site_fract_z
Si Si1 0.932491 0.897449 0.287098
Si Si2 0.523384 0.480692 0.385156
Si Si3 0.491534 0.137906 0.474966
Si Si4 0.556825 0.373603 0.755256
Si Si5 0.088366 0.834723 0.859318
Si Si6 0.133975 0.257684 0.371771
Si Si7 0.233844 0.224599 0.023644
Si Si8 0.564443 0.134593 0.341450
O O1 0.258074 0.645304 0.351021
O O2 0.783292 0.165840 0.362044
O O3 0.801545 0.949486 0.312516
O O4 0.860125 0.851989 0.114207
O O5 0.444814 0.541661 0.267296
O O6 0.545068 0.620933 0.537098
O O7 0.385126 0.380243 0.598475
O O8 0.273749 0.199434 0.351669
O O9 0.646721 0.013272 0.408742
O O10 0.660296 0.967495 0.564857
O O11 0.390372 0.590555 0.868718
O O12 0.860054 0.067925 0.785894
O O13 0.061541 0.704247 0.768543
O O14 0.000000 0.000000 0.000000
O O15 0.000000 0.500000 0.500000
O O16 0.331128 0.229127 0.190187
O O17 0.000000 0.500000 0.000000
O O18 0.500000 0.000000 0.000000
#
# Coordination Sequence:
#
# PCOD9091080 Si02
#       8
#     2   2   2   2   2   2   2   2
#     4  11  22  41  63  92 130 169 206 266 317 365
#     4  11  23  40  65  93 126 165 215 264 305 371
#     4   9  20  39  62  90 122 162 210 262 306 374
#     4  10  21  40  61  89 124 163 202 252 317 367
#     4  11  22  39  64  89 123 162 200 252 316 378
#     4  10  19  39  63  88 125 159 204 259 320 364
#     4  10  22  42  62  85 127 168 201 257 323 369
#     4  10  22  41  64  93 122 169 222 257 314 381
#
# _framework density 21.819936999999999
#
# number of rings (size 3 to 8) (size 9 to 14) (size 15 to 20)
#    0.000    1.750    1.250    3.375    0.000    2.000 
#   11.250    0.000    0.000    0.000    0.000    0.000 
#    0.000    0.000    0.000    0.000    0.000    0.000 
#
# Total GULP energy -89253.496832 kJ/mol
# GULP energy per Si atom -5578.343552 kJ/mol
# Density = 2.177027 g / cm^3
# Si number density = 21.819937 Si / 1000 Ang^3
#
#
#
# Elastic Constant Matrix: (Units=GPa)
#
#
# Indices 1 2 3 4 5 6 
#
# 1 114.4282 8.5003 6.7869 6.1921 -11.6150 10.0005
# 2 8.5003 74.7479 -11.1452 9.1634 1.9290 -6.1663
# 3 6.7869 -11.1452 100.3360 13.4167 5.6694 -6.1473
# 4 6.1921 9.1634 13.4167 26.4846 1.2965 -5.1979
# 5 -11.6150 1.9290 5.6694 1.2965 24.4734 -0.3433
# 6 10.0005 -6.1663 -6.1473 -5.1979 -0.3433 15.1216
#
#
#
# Elastic Compliance Matrix: (Units=1/GPa)
#
#
# Indices 1 2 3 4 5 6 
#
# 1 0.010501 -0.001914 -0.001375 -0.003181 0.005492 -0.009253
# 2 -0.001914 0.015292 0.003051 -0.004894 -0.002463 0.007004
# 3 -0.001375 0.003051 0.011617 -0.005497 -0.003224 0.004913
# 4 -0.003181 -0.004894 -0.005497 0.045740 -0.002084 0.013549
# 5 0.005492 -0.002463 -0.003224 -0.002084 0.044439 -0.005654
# 6 -0.009253 0.007004 0.004913 0.013549 -0.005654 0.081633
#
#
# Mechanical properties :
#
#
# Convention : Reuss Voigt Hill
#
# Bulk Modulus (GPa) = 27.07578 33.08845 30.08212
# Shear Modulus (GPa) = 22.52155 32.24060 27.38108
#
# Velocity S-wave (km/s) = 3.21620 3.84809 3.54625
# Velocity P-wave (km/s) = 5.12129 5.91109 5.53031
#
# Compressibility (1/GPa) = 0.03693338
#
# Stress axis : x y z
#
# Youngs Moduli (GPa) = 95.22787 65.39299 86.08390
#
# Poissons Ratio (x) = 0.12518 0.11835
# Poissons Ratio (y) = 0.18229 -0.26262
# Poissons Ratio (z) = 0.13092 -0.19950
#
# Static dielectric constant tensor:
#      x y z
#    x 1.793880 -0.048170 -0.033950 
#    y -0.048170 1.804880 -0.068390 
#    z -0.033950 -0.068390 1.871440 
# 
# From -- ./inp_files/534458.got.cif
#   From: 2010.05.17/outbox.cif.g08.bks.cpg/sg2_268_cif.got.tgz:534458.got - 2010.06.03 11:33:40.
