data_PCOD9091192
_publ_section_title
;
Structure prediction by ZEFSAII (Michael W. Deem and Ramdas Pophale) SiO2 
 PCOD9091192
Probable space group: P -1
;
_chemical_formula_sum "Si O2"
_cell_formula_units_Z 16
_cell_length_a 8.704367
_cell_length_b 15.219795
_cell_length_c 12.289851
_cell_angle_alpha 95.570609
_cell_angle_beta 146.754348
_cell_angle_gamma 70.507392
_cell_volume 787.535106
_symmetry_space_group_name_H-M "P -1"
_symmetry_group_IT_number 2
_symmetry_cell_setting 'triclinic'
loop_
_space_group_symop_operation_xyz
x,y,z
-x,-y,-z
loop_
_atom_site_type_symbol
_atom_site_label
_atom_site_fract_x
_atom_site_fract_y
_atom_site_fract_z
Si Si1 0.002776 0.651658 0.273577
Si Si2 0.219453 0.876522 0.544842
Si Si3 0.186650 0.563942 0.605840
Si Si4 0.889324 0.494630 0.056012
Si Si5 0.534434 0.703744 0.545206
Si Si6 0.756587 0.778255 0.484143
Si Si7 0.933695 0.080187 0.302080
Si Si8 0.418858 0.142696 0.840427
O O1 0.186743 0.590176 0.482026
O O2 0.251454 0.675242 0.358530
O O3 0.878561 0.588299 0.124520
O O4 0.722511 0.753026 0.165499
O O5 0.443425 0.774965 0.605509
O O6 0.277238 0.880041 0.707684
O O7 0.863239 0.887814 0.327668
O O8 0.203495 0.971729 0.484865
O O9 0.000000 0.500000 0.500000
O O10 0.008454 0.669479 0.575388
O O11 0.542929 0.503229 0.850250
O O12 0.144130 0.395173 0.252804
O O13 0.000000 0.500000 0.000000
O O14 0.571993 0.760800 0.470972
O O15 0.545469 0.835016 0.261190
O O16 0.929514 0.842940 0.630783
O O17 0.732800 0.072065 0.082075
#
# Coordination Sequence:
#
# PCOD9091192 Si02
#       8
#     2   2   2   2   2   2   2   2
#     4  10  22  40  59  87 123 161 204 260 298 363
#     4   9  21  38  62  91 118 157 201 264 308 357
#     4  11  24  42  62  89 125 163 210 255 306 368
#     4  12  25  38  66  91 119 167 212 246 312 372
#     4  11  23  41  59  90 132 159 206 262 312 363
#     4  10  23  38  58  88 125 161 201 255 312 358
#     4  10  19  39  64  87 119 158 210 250 305 376
#     4   9  19  37  63  84 116 160 208 246 306 371
#
# _framework density 20.316552999999999
#
# number of rings (size 3 to 8) (size 9 to 14) (size 15 to 20)
#    0.000    1.750    1.250    3.000    3.500    4.500 
#    0.000    0.625    0.000    0.000    0.000    0.000 
#    0.000    0.000    0.000    0.000    0.000    0.000 
#
# Total GULP energy -89439.758855 kJ/mol
# GULP energy per Si atom -5589.984928 kJ/mol
# Density = 2.027031 g / cm^3
# Si number density = 20.316553 Si / 1000 Ang^3
#
#
#
# Elastic Constant Matrix: (Units=GPa)
#
#
# Indices 1 2 3 4 5 6 
#
# 1 68.6421 7.3795 13.3521 6.6183 -4.0503 27.1104
# 2 7.3795 75.1620 -11.1541 13.3795 5.8251 13.6451
# 3 13.3521 -11.1541 41.4110 3.2950 -5.8761 5.0836
# 4 6.6183 13.3795 3.2950 21.4781 2.7834 -8.5208
# 5 -4.0503 5.8251 -5.8761 2.7834 22.2377 0.6989
# 6 27.1104 13.6451 5.0836 -8.5208 0.6989 32.9137
#
#
#
# Elastic Compliance Matrix: (Units=1/GPa)
#
#
# Indices 1 2 3 4 5 6 
#
# 1 0.032820 0.009229 0.000682 -0.032885 0.009103 -0.039671
# 2 0.009229 0.023834 0.009492 -0.030110 0.002557 -0.026798
# 3 0.000682 0.009492 0.030779 -0.017468 0.008396 -0.013952
# 4 -0.032885 -0.030110 -0.017468 0.108611 -0.018537 0.070779
# 5 0.009103 0.002557 0.008396 -0.018537 0.050990 -0.015736
# 6 -0.039671 -0.026798 -0.013952 0.070779 -0.015736 0.094981
#
#
# Mechanical properties :
#
#
# Convention : Reuss Voigt Hill
#
# Bulk Modulus (GPa) = 7.92142 22.70779 15.31460
# Shear Modulus (GPa) = 14.48073 27.03507 20.75790
#
# Velocity S-wave (km/s) = 2.67264 3.65182 3.19991
# Velocity P-wave (km/s) = 3.66490 5.38352 4.60510
#
# Compressibility (1/GPa) = 0.12624001
#
# Stress axis : x y z
#
# Youngs Moduli (GPa) = 30.46963 41.95719 32.48993
#
# Poissons Ratio (x) = -0.38724 -0.02217
# Poissons Ratio (y) = -0.28122 -0.30840
# Poissons Ratio (z) = -0.02079 -0.39827
#
# Static dielectric constant tensor:
#      x y z
#    x 1.714670 0.001440 -0.007200 
#    y 0.001440 1.720830 -0.006970 
#    z -0.007200 -0.006970 1.714090 
# 
# From -- ./inp_files/90502.got.cif
#   From: 2010.05.17/outbox.cif.g08.bks.cpg/sg2_46_cif.got.tgz:90502.got - 2010.06.03 11:33:40.
