data_PCOD9091030
_publ_section_title
;
Structure prediction by ZEFSAII (Michael W. Deem and Ramdas Pophale) SiO2 
 PCOD9091030
Probable space group: P -1
;
_chemical_formula_sum "Si O2"
_cell_formula_units_Z 16
_cell_length_a 9.021710
_cell_length_b 17.334430
_cell_length_c 8.617160
_cell_angle_alpha 119.603809
_cell_angle_beta 83.706444
_cell_angle_gamma 135.422893
_cell_volume 754.796376
_symmetry_space_group_name_H-M "P -1"
_symmetry_group_IT_number 2
_symmetry_cell_setting 'triclinic'
loop_
_space_group_symop_operation_xyz
x,y,z
-x,-y,-z
loop_
_atom_site_type_symbol
_atom_site_label
_atom_site_fract_x
_atom_site_fract_y
_atom_site_fract_z
Si Si1 0.884129 0.086002 0.652279
Si Si2 0.279955 0.143832 0.789735
Si Si3 0.527708 0.237164 0.157592
Si Si4 0.030743 0.443078 0.300272
Si Si5 0.921478 0.259013 0.585083
Si Si6 0.760262 0.370520 0.817957
Si Si7 0.517242 0.071041 0.216430
Si Si8 0.316058 0.490885 0.546267
O O1 0.964530 0.203093 0.650571
O O2 0.086727 0.130481 0.770547
O O3 0.785547 0.967230 0.426230
O O4 0.687147 0.029597 0.735966
O O5 0.529417 0.291703 0.852808
O O6 0.325915 0.135521 0.953724
O O7 0.504807 0.165656 0.241438
O O8 0.562293 0.357485 0.306981
O O9 0.774892 0.316510 0.137613
O O10 0.212032 0.564840 0.281797
O O11 0.138953 0.409550 0.340954
O O12 0.000000 0.500000 0.500000
O O13 0.774601 0.272467 0.688921
O O14 0.754520 0.155530 0.360661
O O15 0.158205 0.403228 0.628311
O O16 0.000000 0.500000 0.000000
O O17 0.500000 0.000000 0.000000
O O18 0.500000 0.500000 0.500000
#
# Coordination Sequence:
#
# PCOD9091030 Si02
#       8
#     2   2   2   2   2   2   2   2
#     4  11  28  44  67  99 140 186 224 284 348 397
#     4  11  25  46  67  99 136 182 228 283 348 402
#     4  11  22  45  69  99 134 172 239 281 340 413
#     4  10  19  39  62  96 125 172 219 268 340 402
#     4  12  23  46  64 100 139 170 233 278 336 419
#     4  12  22  40  72  96 126 178 222 276 340 408
#     4  12  26  43  73  99 129 185 240 282 333 410
#     4  11  24  40  69 105 138 179 218 291 362 399
#
# _framework density 21.197770999999999
#
# number of rings (size 3 to 8) (size 9 to 14) (size 15 to 20)
#    0.000    0.750    6.250    1.875    3.500    2.500 
#    2.250    1.250    0.000    0.000    0.000    0.000 
#    0.000    0.000    0.000    0.000    0.000    0.000 
#
# Total GULP energy -89392.106209 kJ/mol
# GULP energy per Si atom -5587.006638 kJ/mol
# Density = 2.114952 g / cm^3
# Si number density = 21.197771 Si / 1000 Ang^3
#
#
#
# Elastic Constant Matrix: (Units=GPa)
#
#
# Indices 1 2 3 4 5 6 
#
# 1 114.7783 24.5265 15.8106 0.2453 15.3011 -3.9887
# 2 24.5265 80.4900 -4.4490 -7.0455 -0.2545 -21.0816
# 3 15.8106 -4.4490 69.9228 3.0232 11.7624 -1.3274
# 4 0.2453 -7.0455 3.0232 24.4837 -0.8307 6.9984
# 5 15.3011 -0.2545 11.7624 -0.8307 35.5950 -2.8587
# 6 -3.9887 -21.0816 -1.3274 6.9984 -2.8587 35.8926
#
#
#
# Elastic Compliance Matrix: (Units=1/GPa)
#
#
# Indices 1 2 3 4 5 6 
#
# 1 0.010224 -0.003615 -0.001877 -0.000691 -0.003916 -0.001234
# 2 -0.003615 0.016124 0.001606 0.002001 0.001899 0.008889
# 3 -0.001877 0.001606 0.015662 -0.001987 -0.004295 0.001359
# 4 -0.000691 0.002001 -0.001987 0.043838 0.001396 -0.007411
# 5 -0.003916 0.001899 -0.004295 0.001396 0.031464 0.002755
# 6 -0.001234 0.008889 0.001359 -0.007411 0.002755 0.034659
#
#
# Mechanical properties :
#
#
# Convention : Reuss Voigt Hill
#
# Bulk Modulus (GPa) = 29.20695 37.44082 33.32389
# Shear Modulus (GPa) = 29.21330 34.48113 31.84721
#
# Velocity S-wave (km/s) = 3.71635 4.03754 3.88027
# Velocity P-wave (km/s) = 5.67655 6.27985 5.98581
#
# Compressibility (1/GPa) = 0.03423842
#
# Stress axis : x y z
#
# Youngs Moduli (GPa) = 97.80812 62.02082 63.84805
#
# Poissons Ratio (x) = 0.22422 0.11982
# Poissons Ratio (y) = 0.35359 -0.10255
# Poissons Ratio (z) = 0.18355 -0.09961
#
# Static dielectric constant tensor:
#      x y z
#    x 1.750590 -0.012360 0.085210 
#    y -0.012360 1.781350 -0.004620 
#    z 0.085210 -0.004620 1.761720 
# 
# From -- ./inp_files/218251.got.cif
#   From: 2010.05.17/outbox.cif.g08.bks.cpg/sg2_110_cif.got.tgz:218251.got - 2010.06.03 11:33:40.
