data_PCOD9091920
_publ_section_title
;
Structure prediction by ZEFSAII (Michael W. Deem and Ramdas Pophale) SiO2 
 PCOD9091920
Probable space group: P -1
;
_chemical_formula_sum "Si O2"
_cell_formula_units_Z 15
_cell_length_a 7.334445
_cell_length_b 13.977462
_cell_length_c 17.722327
_cell_angle_alpha 21.406988
_cell_angle_beta 116.468839
_cell_angle_gamma 107.157595
_cell_volume 552.158830
_symmetry_space_group_name_H-M "P -1"
_symmetry_group_IT_number 2
_symmetry_cell_setting 'triclinic'
loop_
_space_group_symop_operation_xyz
x,y,z
-x,-y,-z
loop_
_atom_site_type_symbol
_atom_site_label
_atom_site_fract_x
_atom_site_fract_y
_atom_site_fract_z
Si Si1 0.568329 0.799700 0.804205
Si Si2 0.806576 0.347488 0.917025
Si Si3 0.900935 0.557617 0.619511
Si Si4 0.790036 0.226116 0.553542
Si Si5 0.000000 0.500000 0.000000
Si Si6 0.260720 0.091836 0.423969
Si Si7 0.274942 0.709329 0.338689
Si Si8 0.514264 0.861604 0.915627
O O1 0.603624 0.101042 0.593768
O O2 0.325972 0.894968 0.652576
O O3 0.574410 0.704461 0.961682
O O4 0.765460 0.597197 0.939036
O O5 0.847998 0.457546 0.763666
O O6 0.822797 0.565242 0.825556
O O7 0.580250 0.300432 0.922651
O O8 0.001812 0.054455 0.180747
O O9 0.500000 0.500000 0.500000
O O10 0.699693 0.853874 0.349701
O O11 0.898103 0.341996 0.710712
O O12 0.740825 0.379604 0.512828
O O13 0.873940 0.389245 0.387189
O O14 0.066825 0.145437 0.291127
O O15 0.500000 0.000000 0.500000
O O16 0.301398 0.011736 0.122378
#
# Coordination Sequence:
#
# PCOD9091920 Si02
#       8
#     2   2   2   2   1   2   2   2
#     4  10  19  40  63  92 130 164 210 257 323 374
#     4  11  21  39  62  91 128 166 213 263 312 376
#     4  10  20  37  62  89 128 168 214 260 310 373
#     4  10  21  38  62  92 126 169 211 260 316 369
#     4  10  20  38  68  98 126 156 208 270 308 390
#     4  10  21  39  66  93 128 166 204 260 319 380
#     4   9  19  38  60  89 127 169 211 262 314 365
#     4   9  20  37  62  90 128 171 206 260 318 367
#
# _framework density 27.166096
#
# number of rings (size 3 to 8) (size 9 to 14) (size 15 to 20)
#    0.000    2.133    2.667    0.400    0.000    1.067 
#    4.800    4.000    0.000    5.600    0.000    0.000 
#    0.000    0.000    0.000    0.000    0.000    0.000 
#
# Total GULP energy -83747.396894 kJ/mol
# GULP energy per Si atom -5583.159793 kJ/mol
# Density = 2.710426 g / cm^3
# Si number density = 27.166096 Si / 1000 Ang^3
#
#
#
# Elastic Constant Matrix: (Units=GPa)
#
#
# Indices 1 2 3 4 5 6 
#
# 1 148.8262 50.6890 71.0913 14.7776 -28.1057 -20.1749
# 2 50.6890 144.3286 41.1976 9.5955 -20.1655 -30.3077
# 3 71.0913 41.1976 100.8332 14.0153 -5.2305 -7.9034
# 4 14.7776 9.5955 14.0153 38.6013 -4.5365 -0.8077
# 5 -28.1057 -20.1655 -5.2305 -4.5365 76.0155 6.5120
# 6 -20.1749 -30.3077 -7.9034 -0.8077 6.5120 51.1921
#
#
#
# Elastic Compliance Matrix: (Units=1/GPa)
#
#
# Indices 1 2 3 4 5 6 
#
# 1 0.011560 -0.000950 -0.007246 -0.001126 0.003247 0.002444
# 2 -0.000950 0.009186 -0.002555 -0.000724 0.001484 0.004469
# 3 -0.007246 -0.002555 0.016211 -0.002777 -0.002268 -0.001621
# 4 -0.001126 -0.000724 -0.002777 0.027614 0.000933 -0.000984
# 5 0.003247 0.001484 -0.002268 0.000933 0.014652 -0.000041
# 6 0.002444 0.004469 -0.001621 -0.000984 -0.000041 0.022883
#
#
# Mechanical properties :
#
#
# Convention : Reuss Voigt Hill
#
# Bulk Modulus (GPa) = 64.70416 79.99375 72.34895
# Shear Modulus (GPa) = 38.83171 48.56247 43.69709
#
# Velocity S-wave (km/s) = 3.78487 4.23260 4.01498
# Velocity P-wave (km/s) = 6.55515 7.30730 6.94142
#
# Compressibility (1/GPa) = 0.01545496
#
# Stress axis : x y z
#
# Youngs Moduli (GPa) = 86.50276 108.86633 61.68532
#
# Poissons Ratio (x) = 0.10343 0.44696
# Poissons Ratio (y) = 0.08218 0.15762
# Poissons Ratio (z) = 0.62678 0.27818
#
# Static dielectric constant tensor:
#      x y z
#    x 2.172630 0.120170 0.058490 
#    y 0.120170 2.442120 0.203250 
#    z 0.058490 0.203250 2.417950 
# 
# From -- ./inp_files/561097.got.cif
#   From: 2010.05.17/outbox.cif.g08.bks.cpg/sg2_281_cif.got.tgz:561097.got - 2010.06.03 11:33:40.
