data_PCOD9091221
_publ_section_title
;
Structure prediction by ZEFSAII (Michael W. Deem and Ramdas Pophale) SiO2 
 PCOD9091221
Probable space group: P -1
;
_chemical_formula_sum "Si O2"
_cell_formula_units_Z 16
_cell_length_a 7.541226
_cell_length_b 6.398102
_cell_length_c 25.583312
_cell_angle_alpha 118.351268
_cell_angle_beta 40.209689
_cell_angle_gamma 110.926720
_cell_volume 701.282582
_symmetry_space_group_name_H-M "P -1"
_symmetry_group_IT_number 2
_symmetry_cell_setting 'triclinic'
loop_
_space_group_symop_operation_xyz
x,y,z
-x,-y,-z
loop_
_atom_site_type_symbol
_atom_site_label
_atom_site_fract_x
_atom_site_fract_y
_atom_site_fract_z
Si Si1 0.909317 0.533323 0.890570
Si Si2 0.417610 0.276917 0.720337
Si Si3 0.198041 0.366016 0.195157
Si Si4 0.856941 0.138130 0.331995
Si Si5 0.153034 0.664647 0.446196
Si Si6 0.165982 0.857115 0.307177
Si Si7 0.699169 0.842122 0.488340
Si Si8 0.498942 0.093139 0.951503
O O1 0.886884 0.607542 0.843208
O O2 0.723624 0.300737 0.916567
O O3 0.218380 0.443914 0.818341
O O4 0.784402 0.760057 0.976382
O O5 0.611829 0.427863 0.656557
O O6 0.621875 0.111871 0.689358
O O7 0.239065 0.103997 0.703680
O O8 0.284300 0.628344 0.223429
O O9 0.954353 0.299991 0.281916
O O10 0.413294 0.146550 0.126747
O O11 0.604189 0.235766 0.435652
O O12 0.104716 0.070650 0.307098
O O13 0.000000 0.500000 0.500000
O O14 0.909220 0.755126 0.474772
O O15 0.291935 0.873468 0.472865
O O16 0.865073 0.797357 0.392376
O O17 0.500000 0.000000 0.000000
#
# Coordination Sequence:
#
# PCOD9091221 Si02
#       8
#     2   2   2   2   2   2   2   2
#     4  10  19  39  64  91 123 153 201 253 303 371
#     4  10  21  40  60  88 120 163 200 249 309 351
#     4  11  21  37  62  92 118 159 203 250 305 363
#     4  11  22  40  61  83 122 166 210 248 301 358
#     4   9  19  35  57  85 122 159 206 255 294 353
#     4  11  23  39  56  89 129 155 206 259 294 357
#     4   9  21  36  53  84 119 166 206 250 303 347
#     4   9  19  36  65  94 118 156 199 246 312 370
#
# _framework density 22.815338000000001
#
# number of rings (size 3 to 8) (size 9 to 14) (size 15 to 20)
#    0.000    2.000    2.500    1.125    1.750    2.500 
#    2.250    0.625    0.000   10.500    0.000    0.000 
#    0.000    0.000    0.000    0.000    0.000    0.000 
#
# Total GULP energy -89272.726883 kJ/mol
# GULP energy per Si atom -5579.545430 kJ/mol
# Density = 2.276341 g / cm^3
# Si number density = 22.815338 Si / 1000 Ang^3
#
#
#
# Elastic Constant Matrix: (Units=GPa)
#
#
# Indices 1 2 3 4 5 6 
#
# 1 59.8119 11.7447 19.5227 -0.4985 -10.0191 -18.4224
# 2 11.7447 87.0892 34.6261 -15.7256 -3.6517 -11.6398
# 3 19.5227 34.6261 119.3643 7.7577 -24.1401 -3.2108
# 4 -0.4985 -15.7256 7.7577 46.8650 -6.9219 10.4142
# 5 -10.0191 -3.6517 -24.1401 -6.9219 29.5896 3.2881
# 6 -18.4224 -11.6398 -3.2108 10.4142 3.2881 19.6782
#
#
#
# Elastic Compliance Matrix: (Units=1/GPa)
#
#
# Indices 1 2 3 4 5 6 
#
# 1 0.025996 0.000404 -0.002854 -0.004532 0.002565 0.026080
# 2 0.000404 0.014884 -0.004824 0.004094 -0.001729 0.006517
# 3 -0.002854 -0.004824 0.011899 -0.001467 0.008268 -0.004189
# 4 -0.004532 0.004094 -0.001467 0.027788 0.006254 -0.017812
# 5 0.002565 -0.001729 0.008268 0.006254 0.043532 -0.007855
# 6 0.026080 0.006517 -0.004189 -0.017812 -0.007855 0.089144
#
#
# Mechanical properties :
#
#
# Convention : Reuss Voigt Hill
#
# Bulk Modulus (GPa) = 26.15726 44.22804 35.19265
# Shear Modulus (GPa) = 20.78707 32.58469 26.68588
#
# Velocity S-wave (km/s) = 3.02172 3.78324 3.42372
# Velocity P-wave (km/s) = 4.86457 6.20574 5.57563
#
# Compressibility (1/GPa) = 0.03823031
#
# Stress axis : x y z
#
# Youngs Moduli (GPa) = 38.46719 67.18745 84.04336
#
# Poissons Ratio (x) = -0.02714 0.23986
# Poissons Ratio (y) = -0.01554 0.40542
# Poissons Ratio (z) = 0.10979 0.32411
#
# Static dielectric constant tensor:
#      x y z
#    x 1.834670 -0.018850 -0.008890 
#    y -0.018850 1.910700 0.022090 
#    z -0.008890 0.022090 1.910280 
# 
# From -- ./inp_files/105053.got.cif
#   From: 2010.05.17/outbox.cif.g08.bks.cpg/sg2_53_cif.got.tgz:105053.got - 2010.06.03 11:33:40.
