data_PCOD9091736
_publ_section_title
;
Structure prediction by ZEFSAII (Michael W. Deem and Ramdas Pophale) SiO2 
 PCOD9091736
Probable space group: P -1
;
_chemical_formula_sum "Si O2"
_cell_formula_units_Z 16
_cell_length_a 13.144715
_cell_length_b 19.770308
_cell_length_c 16.123485
_cell_angle_alpha 25.787229
_cell_angle_beta 135.600151
_cell_angle_gamma 153.022789
_cell_volume 740.206943
_symmetry_space_group_name_H-M "P -1"
_symmetry_group_IT_number 2
_symmetry_cell_setting 'triclinic'
loop_
_space_group_symop_operation_xyz
x,y,z
-x,-y,-z
loop_
_atom_site_type_symbol
_atom_site_label
_atom_site_fract_x
_atom_site_fract_y
_atom_site_fract_z
Si Si1 0.745913 0.937814 0.463758
Si Si2 0.824548 0.005992 0.876282
Si Si3 0.431701 0.783402 0.753143
Si Si4 0.987497 0.403133 0.186012
Si Si5 0.610786 0.732698 0.364670
Si Si6 0.432920 0.091945 0.001799
Si Si7 0.299457 0.619220 0.456921
Si Si8 0.082433 0.215530 0.197974
O O1 0.461185 0.730896 0.510288
O O2 0.757133 0.764516 0.676066
O O3 0.868858 0.132821 0.396382
O O4 0.897353 0.122218 0.265258
O O5 0.023563 0.318222 0.641480
O O6 0.647118 0.888106 0.821306
O O7 0.656160 0.890193 0.988239
O O8 0.000000 0.000000 0.000000
O O9 0.217556 0.676757 0.799489
O O10 0.500000 0.000000 0.500000
O O11 0.263338 0.487339 0.951471
O O12 0.264839 0.639551 0.122624
O O13 0.000000 0.500000 0.000000
O O14 0.500000 0.500000 0.500000
O O15 0.424093 0.627330 0.445278
O O16 0.659020 0.913196 0.130252
O O17 0.883168 0.943144 0.329753
O O18 0.331599 0.829404 0.231213
#
# Coordination Sequence:
#
# PCOD9091736 Si02
#       8
#     2   2   2   2   2   2   2   2
#     4  10  19  39  71  98 129 177 236 283 339 407
#     4  12  26  46  69  99 145 188 229 285 355 426
#     4  12  27  45  71 104 143 186 230 292 355 412
#     4  12  20  43  71 100 131 178 240 287 335 419
#     4  11  24  41  65 102 138 179 228 294 354 409
#     4  12  24  42  71 100 136 182 237 284 347 420
#     4  11  23  40  67  98 135 177 230 292 348 413
#     4  10  21  41  66 100 137 178 228 286 341 414
#
# _framework density 21.615576999999998
#
# number of rings (size 3 to 8) (size 9 to 14) (size 15 to 20)
#    0.000    0.750    3.750    3.750    3.500    2.000 
#    2.250    0.625    0.000    0.000    0.000    0.000 
#    0.000    0.000    0.000    0.000    0.000    0.000 
#
# Total GULP energy -89097.022373 kJ/mol
# GULP energy per Si atom -5568.563898 kJ/mol
# Density = 2.156638 g / cm^3
# Si number density = 21.615577 Si / 1000 Ang^3
#
#
#
# Elastic Constant Matrix: (Units=GPa)
#
#
# Indices 1 2 3 4 5 6 
#
# 1 42.5433 13.3866 31.1632 1.7995 14.5832 17.0117
# 2 13.3866 91.7441 63.9549 0.4979 16.0799 23.6779
# 3 31.1632 63.9549 -9.1031 -31.2689 -13.7149 -25.3767
# 4 1.7995 0.4979 -31.2689 33.9031 -11.4174 -0.5040
# 5 14.5832 16.0799 -13.7149 -11.4174 28.6447 -8.4008
# 6 17.0117 23.6779 -25.3767 -0.5040 -8.4008 16.0122
#
#
#
# Elastic Compliance Matrix: (Units=1/GPa)
#
#
# Indices 1 2 3 4 5 6 
#
# 1 0.021343 -0.007598 0.007074 0.004996 -0.001468 -0.000841
# 2 -0.007598 0.008310 0.003299 0.004534 0.003462 0.002972
# 3 0.007074 0.003299 0.001780 -0.002330 -0.009880 -0.014831
# 4 0.004996 0.004534 -0.002330 0.026850 0.000164 -0.014775
# 5 -0.001468 0.003462 -0.009880 0.000164 0.027673 -0.004693
# 6 -0.000841 0.002972 -0.014831 -0.014775 -0.004693 0.032519
#
#
# Mechanical properties :
#
#
# Convention : Reuss Voigt Hill
#
# Bulk Modulus (GPa) = 27.03965 38.02152 32.53059
# Shear Modulus (GPa) = 39.91936 16.82398 28.37167
#
# Velocity S-wave (km/s) = 4.30209 2.79288 3.62685
# Velocity P-wave (km/s) = 6.10031 5.29417 5.71148
#
# Compressibility (1/GPa) = 0.03698272
#
# Stress axis : x y z
#
# Youngs Moduli (GPa) = 46.85455 120.33168 561.94375
#
# Poissons Ratio (x) = 0.91432 -3.97526
# Poissons Ratio (y) = 0.35602 -1.85403
# Poissons Ratio (z) = -0.33145 -0.39701
#
# Static dielectric constant tensor:
#      x y z
#    x 1.920610 -0.219550 0.156400 
#    y -0.219550 2.186370 -0.143770 
#    z 0.156400 -0.143770 1.908760 
# 
# From -- ./inp_files/523436.got.cif
#   From: 2010.05.17/outbox.cif.g08.bks.cpg/sg2_262_cif.got.tgz:523436.got - 2010.06.03 11:33:40.
