data_PCOD9091586
_publ_section_title
;
Structure prediction by ZEFSAII (Michael W. Deem and Ramdas Pophale) SiO2 
 PCOD9091586
Probable space group: P -1
;
_chemical_formula_sum "Si O2"
_cell_formula_units_Z 16
_cell_length_a 9.410586
_cell_length_b 12.638114
_cell_length_c 8.282692
_cell_angle_alpha 92.883988
_cell_angle_beta 48.471170
_cell_angle_gamma 109.807628
_cell_volume 672.226527
_symmetry_space_group_name_H-M "P -1"
_symmetry_group_IT_number 2
_symmetry_cell_setting 'triclinic'
loop_
_space_group_symop_operation_xyz
x,y,z
-x,-y,-z
loop_
_atom_site_type_symbol
_atom_site_label
_atom_site_fract_x
_atom_site_fract_y
_atom_site_fract_z
Si Si1 0.333816 0.329781 0.467524
Si Si2 0.952981 0.244007 0.164207
Si Si3 0.589807 0.864309 0.782193
Si Si4 0.008620 0.480415 0.183673
Si Si5 0.544631 0.416041 0.658925
Si Si6 0.582012 0.068629 0.608396
Si Si7 0.138485 0.733319 0.137947
Si Si8 0.699150 0.820859 0.022754
O O1 0.421103 0.236422 0.341860
O O2 0.393828 0.366299 0.612153
O O3 0.434698 0.453906 0.309443
O O4 0.083324 0.274701 0.633616
O O5 0.080567 0.376389 0.137032
O O6 0.771903 0.185743 0.423991
O O7 0.869121 0.248257 0.048766
O O8 0.092031 0.171689 0.051209
O O9 0.648369 0.986526 0.664188
O O10 0.359814 0.828527 0.030981
O O11 0.737226 0.857147 0.811532
O O12 0.775748 0.437515 0.425583
O O13 0.136828 0.607295 0.166549
O O14 0.000000 0.500000 0.000000
O O15 0.461168 0.313866 0.844122
O O16 0.399223 0.098230 0.818794
O O17 0.500000 0.000000 0.500000
#
# Coordination Sequence:
#
# PCOD9091586 Si02
#       8
#     2   2   2   2   2   2   2   2
#     4  10  21  39  67  98 130 173 223 268 319 391
#     4  11  22  41  71  99 126 173 227 272 322 391
#     4  12  27  44  64  98 141 176 212 277 341 387
#     4   9  18  35  65 101 131 166 216 271 322 374
#     4  10  19  39  67  98 134 169 223 274 315 391
#     4  12  26  47  72  93 128 177 231 276 321 397
#     4  10  21  39  67  99 132 172 220 268 319 400
#     4  12  27  43  66 102 135 173 219 276 339 391
#
# _framework density 23.801500999999998
#
# number of rings (size 3 to 8) (size 9 to 14) (size 15 to 20)
#    0.000    1.250    3.750    2.625    3.500    3.500 
#    0.000    1.250    0.000    0.000    0.000    0.000 
#    0.000    0.000    0.000    0.000    0.000    0.000 
#
# Total GULP energy -89519.103225 kJ/mol
# GULP energy per Si atom -5594.943952 kJ/mol
# Density = 2.374733 g / cm^3
# Si number density = 23.801501 Si / 1000 Ang^3
#
#
#
# Elastic Constant Matrix: (Units=GPa)
#
#
# Indices 1 2 3 4 5 6 
#
# 1 41.2580 27.3576 -4.1259 6.2578 4.3090 -10.9880
# 2 27.3576 127.9220 27.2643 3.6993 12.2026 -34.4865
# 3 -4.1259 27.2643 37.3425 9.2845 -4.6194 -3.8101
# 4 6.2578 3.6993 9.2845 34.8909 -11.5913 -3.9654
# 5 4.3090 12.2026 -4.6194 -11.5913 21.4850 -6.6541
# 6 -10.9880 -34.4865 -3.8101 -3.9654 -6.6541 26.4853
#
#
#
# Elastic Compliance Matrix: (Units=1/GPa)
#
#
# Indices 1 2 3 4 5 6 
#
# 1 0.033433 -0.008480 0.011964 -0.009214 -0.003585 0.002270
# 2 -0.008480 0.017143 -0.013178 0.003884 -0.003640 0.016575
# 3 0.011964 -0.013178 0.040377 -0.010092 0.006371 -0.006297
# 4 -0.009214 0.003884 -0.010092 0.041852 0.023775 0.012023
# 5 -0.003585 -0.003640 0.006371 0.023775 0.068299 0.015408
# 6 0.002270 0.016575 -0.006297 0.012023 0.015408 0.065046
#
#
# Mechanical properties :
#
#
# Convention : Reuss Voigt Hill
#
# Bulk Modulus (GPa) = 13.97301 34.16828 24.07064
# Shear Modulus (GPa) = 16.16074 26.97402 21.56738
#
# Velocity S-wave (km/s) = 2.60855 3.37009 3.01347
# Velocity P-wave (km/s) = 3.86731 5.43415 4.71626
#
# Compressibility (1/GPa) = 0.07156656
#
# Stress axis : x y z
#
# Youngs Moduli (GPa) = 29.91017 58.33420 24.76647
#
# Poissons Ratio (x) = 0.49465 -0.29631
# Poissons Ratio (y) = 0.25363 0.32637
# Poissons Ratio (z) = -0.35785 0.76872
#
# Static dielectric constant tensor:
#      x y z
#    x 1.894580 0.031240 -0.020100 
#    y 0.031240 1.901660 -0.029830 
#    z -0.020100 -0.029830 1.957330 
# 
# From -- ./inp_files/186448.got.cif
#   From: 2010.05.17/outbox.cif.g08.bks.cpg/sg2_94_cif.got.tgz:186448.got - 2010.06.03 11:33:40.
