data_PCOD9091623
_publ_section_title
;
Structure prediction by ZEFSAII (Michael W. Deem and Ramdas Pophale) SiO2 
 PCOD9091623
Probable space group: P -1
;
_chemical_formula_sum "Si O2"
_cell_formula_units_Z 12
_cell_length_a 11.079263
_cell_length_b 7.896561
_cell_length_c 10.956397
_cell_angle_alpha 59.131587
_cell_angle_beta 130.541461
_cell_angle_gamma 122.295290
_cell_volume 594.894522
_symmetry_space_group_name_H-M "P -1"
_symmetry_group_IT_number 2
_symmetry_cell_setting 'triclinic'
loop_
_space_group_symop_operation_xyz
x,y,z
-x,-y,-z
loop_
_atom_site_type_symbol
_atom_site_label
_atom_site_fract_x
_atom_site_fract_y
_atom_site_fract_z
Si Si1 0.179217 0.452263 0.237976
Si Si2 0.973143 0.092553 0.792035
Si Si3 0.428586 0.878445 0.873902
Si Si4 0.161890 0.481197 0.938033
Si Si5 0.159211 0.042586 0.501567
Si Si6 0.750384 0.067454 0.874513
O O1 0.226990 0.281551 0.412458
O O2 0.263694 0.700070 0.219691
O O3 0.987292 0.423185 0.162039
O O4 0.202047 0.413519 0.124174
O O5 0.083623 0.303517 0.852712
O O6 0.811346 0.022814 0.798516
O O7 0.910032 0.094626 0.613716
O O8 0.094263 0.948243 0.934161
O O9 0.321961 0.647826 0.926111
O O10 0.301951 0.978409 0.687749
O O11 0.584356 0.906861 0.876088
O O12 0.500000 0.000000 0.000000
O O13 0.000000 0.000000 0.500000
#
# Coordination Sequence:
#
# PCOD9091623 Si02
#       6
#     2   2   2   2   2   2
#     4  10  19  39  68  93 121 171 211 244 313 381
#     4  10  22  41  67  92 123 172 210 251 313 379
#     4  12  24  41  64  97 130 161 209 266 311 363
#     4  10  20  39  69  94 125 166 208 252 312 377
#     4  12  24  41  66  94 124 164 218 261 307 372
#     4  10  21  41  67  94 130 164 205 259 315 372
#
# _framework density 20.171641999999999
#
# number of rings (size 3 to 8) (size 9 to 14) (size 15 to 20)
#    0.000    1.333    3.333    5.000    0.000    2.667 
#    0.000    0.000    0.000    0.000    0.000    0.000 
#    0.000    0.000    0.000    0.000    0.000    0.000 
#
# Total GULP energy -66986.928894 kJ/mol
# GULP energy per Si atom -5582.244075 kJ/mol
# Density = 2.012573 g / cm^3
# Si number density = 20.171642 Si / 1000 Ang^3
#
#
#
# Elastic Constant Matrix: (Units=GPa)
#
#
# Indices 1 2 3 4 5 6 
#
# 1 137.5180 58.3782 49.9598 2.6075 -18.5592 35.9947
# 2 58.3782 126.7740 34.0641 -6.5737 -21.1125 3.3817
# 3 49.9598 34.0641 145.5653 0.7246 -12.1075 -5.0776
# 4 2.6075 -6.5737 0.7246 28.2991 -5.6222 -9.7398
# 5 -18.5592 -21.1125 -12.1075 -5.6222 23.0745 -6.7527
# 6 35.9947 3.3817 -5.0776 -9.7398 -6.7527 40.9367
#
#
#
# Elastic Compliance Matrix: (Units=1/GPa)
#
#
# Indices 1 2 3 4 5 6 
#
# 1 0.015936 -0.006568 -0.004700 -0.009171 -0.002778 -0.016692
# 2 -0.006568 0.012942 0.000447 0.008916 0.011537 0.008786
# 3 -0.004700 0.000447 0.008937 0.003431 0.004115 0.006699
# 4 -0.009171 0.008916 0.003431 0.050520 0.021727 0.023357
# 5 -0.002778 0.011537 0.004115 0.021727 0.064315 0.017779
# 6 -0.016692 0.008786 0.006699 0.023357 0.017779 0.047700
#
#
# Mechanical properties :
#
#
# Convention : Reuss Voigt Hill
#
# Bulk Modulus (GPa) = 61.83186 77.18461 69.50823
# Shear Modulus (GPa) = 21.98933 36.29240 29.14086
#
# Velocity S-wave (km/s) = 3.30526 4.24627 3.80497
# Velocity P-wave (km/s) = 6.72947 7.89861 7.33737
#
# Compressibility (1/GPa) = 0.01617289
#
# Stress axis : x y z
#
# Youngs Moduli (GPa) = 62.75211 77.26957 111.89393
#
# Poissons Ratio (x) = 0.50753 0.52590
# Poissons Ratio (y) = 0.41217 -0.05007
# Poissons Ratio (z) = 0.29493 -0.03458
#
# Static dielectric constant tensor:
#      x y z
#    x 1.701970 -0.001880 -0.002040 
#    y -0.001880 1.781940 -0.017200 
#    z -0.002040 -0.017200 1.715440 
# 
# From -- ./inp_files/147403.got.cif
#   From: 2010.05.17/outbox.cif.g08.bks.cpg/sg2_74_cif.got.tgz:147403.got - 2010.06.03 11:33:40.
