data_PCOD9091442
_publ_section_title
;
Structure prediction by ZEFSAII (Michael W. Deem and Ramdas Pophale) SiO2 
 PCOD9091442
Probable space group: P -1
;
_chemical_formula_sum "Si O2"
_cell_formula_units_Z 14
_cell_length_a 9.602450
_cell_length_b 15.434392
_cell_length_c 10.715342
_cell_angle_alpha 45.509819
_cell_angle_beta 45.117935
_cell_angle_gamma 78.525151
_cell_volume 651.184915
_symmetry_space_group_name_H-M "P -1"
_symmetry_group_IT_number 2
_symmetry_cell_setting 'triclinic'
loop_
_space_group_symop_operation_xyz
x,y,z
-x,-y,-z
loop_
_atom_site_type_symbol
_atom_site_label
_atom_site_fract_x
_atom_site_fract_y
_atom_site_fract_z
Si Si1 0.373135 0.342765 0.083776
Si Si2 0.112044 0.518181 0.275432
Si Si3 0.808383 0.847548 0.844847
Si Si4 0.444400 0.587933 0.631912
Si Si5 0.878580 0.634980 0.155311
Si Si6 0.126908 0.806342 0.355751
Si Si7 0.516694 0.870837 0.231517
O O1 0.375494 0.270574 0.024280
O O2 0.125613 0.217305 0.435108
O O3 0.608536 0.411019 0.948050
O O4 0.352778 0.475785 0.918214
O O5 0.000000 0.500000 0.500000
O O6 0.077186 0.623961 0.105224
O O7 0.954240 0.349742 0.492769
O O8 0.938743 0.778437 0.895700
O O9 0.660569 0.863614 0.029363
O O10 0.000000 0.000000 0.500000
O O11 0.694057 0.616339 0.397904
O O12 0.265620 0.501331 0.715046
O O13 0.473532 0.741451 0.479230
O O14 0.268152 0.831575 0.370609
O O15 0.312871 0.956809 0.008167
#
# Coordination Sequence:
#
# PCOD9091442 Si02
#       7
#     2   2   2   2   2   2   2
#     4  11  22  36  62  92 120 155 198 242 298 350
#     4  12  22  40  60  85 122 164 199 236 297 364
#     4  10  19  39  66  90 113 153 199 250 291 348
#     4   9  17  36  62  89 112 151 203 247 283 352
#     4   9  18  34  62  89 113 152 204 239 286 350
#     4  11  23  37  57  92 120 158 192 252 296 349
#     4  10  20  38  62  85 125 149 199 241 304 341
#
# _framework density 21.499272000000001
#
# number of rings (size 3 to 8) (size 9 to 14) (size 15 to 20)
#    0.000    1.714    4.286    2.143    0.000    0.571 
#    0.000    1.429    0.000    0.000    0.000    0.000 
#    0.000    0.000    0.000    0.000    0.000    0.000 
#
# Total GULP energy -78254.931117 kJ/mol
# GULP energy per Si atom -5589.637937 kJ/mol
# Density = 2.145034 g / cm^3
# Si number density = 21.499272 Si / 1000 Ang^3
#
#
#
# Elastic Constant Matrix: (Units=GPa)
#
#
# Indices 1 2 3 4 5 6 
#
# 1 113.1039 27.1442 46.1747 -18.4384 -15.5547 -19.7151
# 2 27.1442 53.7561 21.3887 -14.0555 2.2543 -0.8952
# 3 46.1747 21.3887 108.9394 -25.0763 -7.4549 -6.8114
# 4 -18.4384 -14.0555 -25.0763 33.8543 -6.5077 7.6815
# 5 -15.5547 2.2543 -7.4549 -6.5077 30.6542 0.0901
# 6 -19.7151 -0.8952 -6.8114 7.6815 0.0901 25.1926
#
#
#
# Elastic Compliance Matrix: (Units=1/GPa)
#
#
# Indices 1 2 3 4 5 6 
#
# 1 0.014688 -0.005568 -0.003472 0.002377 0.007495 0.009606
# 2 -0.005568 0.023706 -0.001430 0.006395 -0.003542 -0.005839
# 3 -0.003472 -0.001430 0.012902 0.008087 0.003203 -0.001756
# 4 0.002377 0.006395 0.008087 0.043868 0.012043 -0.009145
# 5 0.007495 -0.003542 0.003203 0.012043 0.040013 0.002790
# 6 0.009606 -0.005839 -0.001756 -0.009145 0.002790 0.049308
#
#
# Mechanical properties :
#
#
# Convention : Reuss Voigt Hill
#
# Bulk Modulus (GPa) = 32.94059 51.69052 42.31555
# Shear Modulus (GPa) = 23.19727 30.01303 26.60515
#
# Velocity S-wave (km/s) = 3.28835 3.74036 3.52161
# Velocity P-wave (km/s) = 5.45643 6.53826 6.02169
#
# Compressibility (1/GPa) = 0.03035769
#
# Stress axis : x y z
#
# Youngs Moduli (GPa) = 68.08442 42.18287 77.50444
#
# Poissons Ratio (x) = 0.23487 0.26906
# Poissons Ratio (y) = 0.37909 0.11082
# Poissons Ratio (z) = 0.23636 0.06032
#
# Static dielectric constant tensor:
#      x y z
#    x 1.742930 -0.015260 0.015760 
#    y -0.015260 1.841220 0.009670 
#    z 0.015760 0.009670 1.793900 
# 
# From -- ./inp_files/181891.got.cif
#   From: 2010.05.17/outbox.cif.g08.bks.cpg/sg2_91_cif.got.tgz:181891.got - 2010.06.03 11:33:40.
