data_PCOD9091031
_publ_section_title
;
Structure prediction by ZEFSAII (Michael W. Deem and Ramdas Pophale) SiO2 
 PCOD9091031
Probable space group: P -1
;
_chemical_formula_sum "Si O2"
_cell_formula_units_Z 16
_cell_length_a 11.067365
_cell_length_b 14.114388
_cell_length_c 11.322222
_cell_angle_alpha 43.537687
_cell_angle_beta 89.209248
_cell_angle_gamma 57.310630
_cell_volume 777.825102
_symmetry_space_group_name_H-M "P -1"
_symmetry_group_IT_number 2
_symmetry_cell_setting 'triclinic'
loop_
_space_group_symop_operation_xyz
x,y,z
-x,-y,-z
loop_
_atom_site_type_symbol
_atom_site_label
_atom_site_fract_x
_atom_site_fract_y
_atom_site_fract_z
Si Si1 0.650197 0.590956 0.761765
Si Si2 0.391510 0.335923 0.029118
Si Si3 0.287068 0.809390 0.212734
Si Si4 0.643865 0.697593 0.332571
Si Si5 0.876724 0.569204 0.217697
Si Si6 0.686312 0.850548 0.398277
Si Si7 0.037538 0.719583 0.128580
Si Si8 0.467804 0.518143 0.688640
O O1 0.647728 0.751493 0.572140
O O2 0.497784 0.632739 0.656216
O O3 0.849444 0.352871 0.928781
O O4 0.624742 0.608128 0.885578
O O5 0.214017 0.399233 0.931930
O O6 0.406156 0.454811 0.836625
O O7 0.573467 0.080494 0.235596
O O8 0.451340 0.781333 0.251187
O O9 0.325008 0.669480 0.445254
O O10 0.339394 0.695842 0.189297
O O11 0.086612 0.055287 0.012855
O O12 0.738265 0.638977 0.258780
O O13 0.620199 0.858949 0.261481
O O14 0.801338 0.477696 0.606251
O O15 0.901966 0.709750 0.108131
O O16 0.088515 0.324876 0.450268
#
# Coordination Sequence:
#
# PCOD9091031 Si02
#       8
#     2   2   2   2   2   2   2   2
#     4  10  23  47  60  90 127 166 208 252 297 370
#     4  12  24  41  66  88 128 168 204 252 304 361
#     4  11  22  41  64  91 122 165 203 251 317 365
#     4  10  19  39  62  96 131 146 207 262 307 369
#     4  10  22  36  62 101 123 153 209 258 303 373
#     4  10  22  40  66  93 121 163 203 257 310 361
#     4  10  22  39  67  90 123 164 199 256 317 359
#     4  11  24  42  62  93 125 160 211 254 302 372
#
# _framework density 20.570177000000001
#
# number of rings (size 3 to 8) (size 9 to 14) (size 15 to 20)
#    0.000    1.750    3.750    3.000    3.500    3.500 
#    4.500    0.625    0.000    0.000    0.000    0.000 
#    0.000    0.000    0.000    0.000    0.000    0.000 
#
# Total GULP energy -89437.823864 kJ/mol
# GULP energy per Si atom -5589.863991 kJ/mol
# Density = 2.052336 g / cm^3
# Si number density = 20.570177 Si / 1000 Ang^3
#
#
#
# Elastic Constant Matrix: (Units=GPa)
#
#
# Indices 1 2 3 4 5 6 
#
# 1 60.4673 23.5215 20.0844 6.0508 -3.0644 0.8371
# 2 23.5215 129.9178 35.0584 10.0940 3.6297 11.9142
# 3 20.0844 35.0584 48.9985 -10.1104 -1.0668 -6.2202
# 4 6.0508 10.0940 -10.1104 40.6249 -2.9946 4.1682
# 5 -3.0644 3.6297 -1.0668 -2.9946 20.8933 4.3660
# 6 0.8371 11.9142 -6.2202 4.1682 4.3660 23.0053
#
#
#
# Elastic Compliance Matrix: (Units=1/GPa)
#
#
# Indices 1 2 3 4 5 6 
#
# 1 0.020474 -0.000734 -0.009092 -0.004694 0.002505 -0.002448
# 2 -0.000734 0.011610 -0.009948 -0.004607 -0.001723 -0.007514
# 3 -0.009092 -0.009948 0.035242 0.011376 0.001165 0.012729
# 4 -0.004694 -0.004607 0.011376 0.029741 0.005107 -0.000725
# 5 0.002505 -0.001723 0.001165 0.005107 0.051316 -0.009548
# 6 -0.002448 -0.007514 0.012729 -0.000725 -0.009548 0.052834
#
#
# Mechanical properties :
#
#
# Convention : Reuss Voigt Hill
#
# Bulk Modulus (GPa) = 35.99962 44.07915 40.03939
# Shear Modulus (GPa) = 19.99821 27.61932 23.80877
#
# Velocity S-wave (km/s) = 3.12139 3.66825 3.40581
# Velocity P-wave (km/s) = 5.52536 6.27826 5.91380
#
# Compressibility (1/GPa) = 0.02777807
#
# Stress axis : x y z
#
# Youngs Moduli (GPa) = 48.84295 86.13547 28.37551
#
# Poissons Ratio (x) = 0.06324 0.25798
# Poissons Ratio (y) = 0.03586 0.28227
# Poissons Ratio (z) = 0.44406 0.85685
#
# Static dielectric constant tensor:
#      x y z
#    x 1.776880 0.020560 -0.009800 
#    y 0.020560 1.725680 -0.012140 
#    z -0.009800 -0.012140 1.747150 
# 
# From -- ./inp_files/433727.got.cif
#   From: 2010.05.17/outbox.cif.g08.bks.cpg/sg2_217_cif.got.tgz:433727.got - 2010.06.03 11:33:40.
