data_PCOD9091250
_publ_section_title
;
Structure prediction by ZEFSAII (Michael W. Deem and Ramdas Pophale) SiO2 
 PCOD9091250
Probable space group: P -1
;
_chemical_formula_sum "Si O2"
_cell_formula_units_Z 16
_cell_length_a 9.809771
_cell_length_b 12.196407
_cell_length_c 17.262252
_cell_angle_alpha 36.623769
_cell_angle_beta 44.332185
_cell_angle_gamma 32.638624
_cell_volume 659.493439
_symmetry_space_group_name_H-M "P -1"
_symmetry_group_IT_number 2
_symmetry_cell_setting 'triclinic'
loop_
_space_group_symop_operation_xyz
x,y,z
-x,-y,-z
loop_
_atom_site_type_symbol
_atom_site_label
_atom_site_fract_x
_atom_site_fract_y
_atom_site_fract_z
Si Si1 0.652321 0.511221 0.362947
Si Si2 0.329188 0.494822 0.969736
Si Si3 0.392289 0.020062 0.225617
Si Si4 0.899094 0.525824 0.645871
Si Si5 0.910498 0.130270 0.277761
Si Si6 0.231749 0.089157 0.419797
Si Si7 0.885721 0.262599 0.923163
Si Si8 0.764504 0.383178 0.633306
O O1 0.500000 0.500000 0.500000
O O2 0.946131 0.290413 0.386308
O O3 0.508510 0.519598 0.341326
O O4 0.586816 0.766359 0.247287
O O5 0.239077 0.632364 0.847277
O O6 0.590263 0.436175 0.919927
O O7 0.390343 0.239847 0.088387
O O8 0.125312 0.667804 0.022527
O O9 0.123146 0.108006 0.253034
O O10 0.402226 0.974685 0.339521
O O11 0.016659 0.326536 0.776417
O O12 0.779879 0.468265 0.662037
O O13 0.104563 0.540170 0.517646
O O14 0.703457 0.774246 0.631178
O O15 0.776191 0.073325 0.425206
O O16 0.052659 0.904226 0.288367
O O17 0.000000 0.000000 0.000000
#
# Coordination Sequence:
#
# PCOD9091250 Si02
#       8
#     2   2   2   2   2   2   2   2
#     4  11  21  39  66  99 131 174 215 269 337 387
#     4  11  25  43  65  97 131 177 222 264 333 396
#     4  11  23  41  68  97 133 173 219 273 325 400
#     4  10  19  39  64  93 128 169 217 276 322 384
#     4  10  21  41  64  97 136 168 210 278 331 383
#     4  11  22  42  68 100 132 170 221 276 330 390
#     4  11  25  44  66  88 133 182 221 267 325 397
#     4   9  20  37  65  99 131 167 219 274 328 387
#
# _framework density 24.261046
#
# number of rings (size 3 to 8) (size 9 to 14) (size 15 to 20)
#    0.000    1.500    5.000    1.500    1.750    1.000 
#    0.000    2.500    0.000    5.250    0.000    0.000 
#    0.000    0.000    0.000    0.000    0.000    0.000 
#
# Total GULP energy -89537.279474 kJ/mol
# GULP energy per Si atom -5596.079967 kJ/mol
# Density = 2.420583 g / cm^3
# Si number density = 24.261046 Si / 1000 Ang^3
#
#
#
# Elastic Constant Matrix: (Units=GPa)
#
#
# Indices 1 2 3 4 5 6 
#
# 1 123.5774 52.4523 50.9550 -0.5886 -0.8303 46.9203
# 2 52.4523 105.9033 31.8949 -14.1248 2.2098 21.5697
# 3 50.9550 31.8949 148.8937 -12.7594 2.7867 14.1727
# 4 -0.5886 -14.1248 -12.7594 37.4825 6.0628 -1.9384
# 5 -0.8303 2.2098 2.7867 6.0628 40.1934 -6.4601
# 6 46.9203 21.5697 14.1727 -1.9384 -6.4601 35.4194
#
#
#
# Elastic Compliance Matrix: (Units=1/GPa)
#
#
# Indices 1 2 3 4 5 6 
#
# 1 0.020640 -0.004647 -0.004106 -0.003675 -0.002253 -0.023482
# 2 -0.004647 0.012906 -0.000586 0.004792 -0.001733 -0.001523
# 3 -0.004106 -0.000586 0.008254 0.002758 -0.000635 0.002528
# 4 -0.003675 0.004792 0.002758 0.030231 -0.004831 0.001619
# 5 -0.002253 -0.001733 -0.000635 -0.004831 0.027144 0.008980
# 6 -0.023482 -0.001523 0.002528 0.001619 0.008980 0.060982
#
#
# Mechanical properties :
#
#
# Convention : Reuss Voigt Hill
#
# Bulk Modulus (GPa) = 43.24650 72.10877 57.67764
# Shear Modulus (GPa) = 26.80326 38.82387 32.81357
#
# Velocity S-wave (km/s) = 3.32744 4.00466 3.68165
# Velocity P-wave (km/s) = 5.71197 7.15329 6.47288
#
# Compressibility (1/GPa) = 0.02312326
#
# Stress axis : x y z
#
# Youngs Moduli (GPa) = 48.44862 77.48204 121.14674
#
# Poissons Ratio (x) = 0.36004 0.49740
# Poissons Ratio (y) = 0.22513 0.07103
# Poissons Ratio (z) = 0.19892 0.04543
#
# Static dielectric constant tensor:
#      x y z
#    x 1.931440 0.012710 -0.033090 
#    y 0.012710 2.045040 -0.049640 
#    z -0.033090 -0.049640 1.950060 
# 
# From -- ./inp_files/568454.got.cif
#   From: 2010.05.17/outbox.cif.g08.bks.cpg/sg2_285_cif.got.tgz:568454.got - 2010.06.03 11:33:40.
