data_PCOD9091337
_publ_section_title
;
Structure prediction by ZEFSAII (Michael W. Deem and Ramdas Pophale) SiO2 
 PCOD9091337
Probable space group: P -1
;
_chemical_formula_sum "Si O2"
_cell_formula_units_Z 16
_cell_length_a 22.207456
_cell_length_b 12.727890
_cell_length_c 9.093402
_cell_angle_alpha 115.210220
_cell_angle_beta 113.034651
_cell_angle_gamma 19.729716
_cell_volume 784.648489
_symmetry_space_group_name_H-M "P -1"
_symmetry_group_IT_number 2
_symmetry_cell_setting 'triclinic'
loop_
_space_group_symop_operation_xyz
x,y,z
-x,-y,-z
loop_
_atom_site_type_symbol
_atom_site_label
_atom_site_fract_x
_atom_site_fract_y
_atom_site_fract_z
Si Si1 0.939910 0.122062 0.786905
Si Si2 0.685805 0.221603 0.589290
Si Si3 0.677452 0.443116 0.539718
Si Si4 0.387301 0.101853 0.559968
Si Si5 0.961503 0.431772 0.646264
Si Si6 0.145582 0.594139 0.860419
Si Si7 0.839347 0.030226 0.198295
Si Si8 0.142187 0.127927 0.165023
O O1 0.842259 0.256237 0.620200
O O2 0.818975 0.387717 0.950256
O O3 0.028360 0.865972 0.798485
O O4 0.092728 0.963928 0.807644
O O5 0.500000 0.500000 0.500000
O O6 0.680609 0.369156 0.653059
O O7 0.710602 0.138265 0.728263
O O8 0.861059 0.880053 0.470438
O O9 0.710212 0.292017 0.357125
O O10 0.508187 0.794851 0.541844
O O11 0.207917 0.350710 0.459664
O O12 0.321169 0.272895 0.746928
O O13 0.500000 0.000000 0.500000
O O14 0.920032 0.635994 0.750119
O O15 0.006386 0.292477 0.757995
O O16 0.026753 0.677532 0.840383
O O17 0.782872 0.037393 0.019141
#
# Coordination Sequence:
#
# PCOD9091337 Si02
#       8
#     2   2   2   2   2   2   2   2
#     4  10  19  39  65  90 127 164 222 265 315 377
#     4  11  23  40  65  95 121 170 214 262 323 380
#     4  11  22  38  60  91 128 168 215 262 314 385
#     4  12  24  40  64  95 134 172 214 261 325 381
#     4  11  23  42  65  93 130 169 215 262 325 385
#     4  10  21  37  65  97 123 170 212 270 319 374
#     4  10  22  39  65  93 128 173 215 262 320 379
#     4  11  21  41  67  96 131 166 215 269 318 380
#
# _framework density 20.391296000000001
#
# number of rings (size 3 to 8) (size 9 to 14) (size 15 to 20)
#    0.000    1.250    2.500    4.125    1.750    0.500 
#    0.000    6.875    0.000    0.000    0.000    0.000 
#    0.000    0.000    0.000    0.000    0.000    0.000 
#
# Total GULP energy -89278.209973 kJ/mol
# GULP energy per Si atom -5579.888123 kJ/mol
# Density = 2.034488 g / cm^3
# Si number density = 20.391296 Si / 1000 Ang^3
#
#
#
# Elastic Constant Matrix: (Units=GPa)
#
#
# Indices 1 2 3 4 5 6 
#
# 1 78.6217 34.9461 21.6345 14.4686 9.4871 17.5991
# 2 34.9461 118.5560 63.2978 3.4533 7.2746 15.1402
# 3 21.6345 63.2978 117.8072 6.1367 1.7619 7.0525
# 4 14.4686 3.4533 6.1367 29.8650 1.3967 3.3139
# 5 9.4871 7.2746 1.7619 1.3967 25.1638 -2.2330
# 6 17.5991 15.1402 7.0525 3.3139 -2.2330 37.7568
#
#
#
# Elastic Compliance Matrix: (Units=1/GPa)
#
#
# Indices 1 2 3 4 5 6 
#
# 1 0.017961 -0.003623 -0.000498 -0.007180 -0.005871 -0.006543
# 2 -0.003623 0.013379 -0.006421 0.001950 -0.002408 -0.002790
# 3 -0.000498 -0.006421 0.012049 -0.001642 0.001361 0.000781
# 4 -0.007180 0.001950 -0.001642 0.037108 0.000165 -0.000376
# 5 -0.005871 -0.002408 0.001361 0.000165 0.043076 0.005981
# 6 -0.006543 -0.002790 0.000781 -0.000376 0.005981 0.030895
#
#
# Mechanical properties :
#
#
# Convention : Reuss Voigt Hill
#
# Bulk Modulus (GPa) = 44.83822 61.63797 53.23810
# Shear Modulus (GPa) = 27.32438 31.56421 29.44429
#
# Velocity S-wave (km/s) = 3.66458 3.93864 3.80407
# Velocity P-wave (km/s) = 6.31998 7.13982 6.74237
#
# Compressibility (1/GPa) = 0.02230240
#
# Stress axis : x y z
#
# Youngs Moduli (GPa) = 55.67584 74.74649 82.99731
#
# Poissons Ratio (x) = 0.27084 0.04134
# Poissons Ratio (y) = 0.20174 0.53296
# Poissons Ratio (z) = 0.02773 0.47998
#
# Static dielectric constant tensor:
#      x y z
#    x 1.841040 -0.074700 0.033040 
#    y -0.074700 1.725240 -0.017860 
#    z 0.033040 -0.017860 1.798430 
# 
# From -- ./inp_files/263522.got.cif
#   From: 2010.05.17/outbox.cif.g08.bks.cpg/sg2_132_cif.got.tgz:263522.got - 2010.06.03 11:33:40.
