data_PCOD9091048
_publ_section_title
;
Structure prediction by ZEFSAII (Michael W. Deem and Ramdas Pophale) SiO2 
 PCOD9091048
Probable space group: P -1
;
_chemical_formula_sum "Si O2"
_cell_formula_units_Z 14
_cell_length_a 14.596695
_cell_length_b 10.937573
_cell_length_c 20.887920
_cell_angle_alpha 29.904941
_cell_angle_beta 158.345917
_cell_angle_gamma 147.199222
_cell_volume 602.378355
_symmetry_space_group_name_H-M "P -1"
_symmetry_group_IT_number 2
_symmetry_cell_setting 'triclinic'
loop_
_space_group_symop_operation_xyz
x,y,z
-x,-y,-z
loop_
_atom_site_type_symbol
_atom_site_label
_atom_site_fract_x
_atom_site_fract_y
_atom_site_fract_z
Si Si1 0.693693 0.669785 0.960476
Si Si2 0.219136 0.189158 0.409831
Si Si3 0.555505 0.318721 0.340647
Si Si4 0.785946 0.440115 0.644838
Si Si5 0.114867 0.121087 0.233292
Si Si6 0.034265 0.361597 0.465645
Si Si7 0.674440 0.774790 0.040287
O O1 0.558666 0.723697 0.784310
O O2 0.592322 0.367447 0.040872
O O3 0.632520 0.804234 0.924487
O O4 0.993813 0.715766 0.132870
O O5 0.514253 0.263499 0.549525
O O6 0.186764 0.376268 0.360590
O O7 0.084274 0.213758 0.243005
O O8 0.115037 0.913521 0.493678
O O9 0.312830 0.306853 0.234279
O O10 0.755814 0.567720 0.374389
O O11 0.726509 0.107089 0.557441
O O12 0.831880 0.585111 0.540875
O O13 0.843943 0.015531 0.072969
O O14 0.844894 0.558872 0.255546
#
# Coordination Sequence:
#
# PCOD9091048 Si02
#       7
#     2   2   2   2   2   2   2
#     4  10  20  38  54  85 122 144 181 245 285 336
#     4  11  21  38  65  80 112 157 196 231 276 336
#     4  10  20  35  61  85 117 145 190 236 290 332
#     4  10  23  40  57  86 116 148 198 235 274 341
#     4  10  20  37  58  86 113 153 191 233 274 350
#     4  10  19  39  63  85 109 153 192 235 278 342
#     4   9  20  37  58  85 118 143 189 233 292 343
#
# _framework density 23.241206999999999
#
# number of rings (size 3 to 8) (size 9 to 14) (size 15 to 20)
#    0.000    2.000    1.429    2.143    2.000    2.857 
#    7.714    3.571    0.000    0.000    0.000    0.000 
#    0.000    0.000    0.000    0.000    0.000    0.000 
#
# Total GULP energy -78278.682470 kJ/mol
# GULP energy per Si atom -5591.334462 kJ/mol
# Density = 2.318831 g / cm^3
# Si number density = 23.241207 Si / 1000 Ang^3
#
#
#
# Elastic Constant Matrix: (Units=GPa)
#
#
# Indices 1 2 3 4 5 6 
#
# 1 98.8596 36.6892 18.9132 6.1960 -19.7008 0.4586
# 2 36.6892 109.5482 13.3619 19.5292 -13.7540 -5.5357
# 3 18.9132 13.3619 51.3711 25.7089 -26.3180 -5.3604
# 4 6.1960 19.5292 25.7089 28.4594 -7.8224 -12.3013
# 5 -19.7008 -13.7540 -26.3180 -7.8224 32.9273 13.1611
# 6 0.4586 -5.5357 -5.3604 -12.3013 13.1611 36.5262
#
#
#
# Elastic Compliance Matrix: (Units=1/GPa)
#
#
# Indices 1 2 3 4 5 6 
#
# 1 0.013028 -0.003903 -0.002204 0.002427 0.005940 -0.002401
# 2 -0.003903 0.013663 0.014041 -0.020956 0.012578 -0.007409
# 3 -0.002204 0.014041 0.104865 -0.101156 0.082871 -0.046382
# 4 0.002427 -0.020956 -0.101156 0.144391 -0.077189 0.058389
# 5 0.005940 0.012578 0.082871 -0.077189 0.107332 -0.050676
# 6 -0.002401 -0.007409 -0.046382 0.058389 -0.050676 0.057402
#
#
# Mechanical properties :
#
#
# Convention : Reuss Voigt Hill
#
# Bulk Modulus (GPa) = 6.78304 44.18972 25.48638
# Shear Modulus (GPa) = 10.54954 32.30356 21.42655
#
# Velocity S-wave (km/s) = 2.13284 3.73222 3.03961
# Velocity P-wave (km/s) = 2.99837 6.13412 4.82792
#
# Compressibility (1/GPa) = 0.14742644
#
# Stress axis : x y z
#
# Youngs Moduli (GPa) = 76.75756 73.18791 9.53605
#
# Poissons Ratio (x) = 0.28563 0.02101
# Poissons Ratio (y) = 0.29957 -0.13390
# Poissons Ratio (z) = 0.16914 -1.02765
#
# Static dielectric constant tensor:
#      x y z
#    x 1.882790 0.038560 -0.008080 
#    y 0.038560 1.885950 -0.015160 
#    z -0.008080 -0.015160 1.873860 
# 
# From -- ./inp_files/214989.got.cif
#   From: 2010.05.17/outbox.cif.g08.bks.cpg/sg2_108_cif.got.tgz:214989.got - 2010.06.03 11:33:40.
