data_PCOD9091008
_publ_section_title
;
Structure prediction by ZEFSAII (Michael W. Deem and Ramdas Pophale) SiO2 
 PCOD9091008
Probable space group: P -1
;
_chemical_formula_sum "Si O2"
_cell_formula_units_Z 16
_cell_length_a 9.027334
_cell_length_b 8.355268
_cell_length_c 14.807386
_cell_angle_alpha 40.357132
_cell_angle_beta 73.898707
_cell_angle_gamma 90.396029
_cell_volume 650.694869
_symmetry_space_group_name_H-M "P -1"
_symmetry_group_IT_number 2
_symmetry_cell_setting 'triclinic'
loop_
_space_group_symop_operation_xyz
x,y,z
-x,-y,-z
loop_
_atom_site_type_symbol
_atom_site_label
_atom_site_fract_x
_atom_site_fract_y
_atom_site_fract_z
Si Si1 0.483401 0.410658 0.321922
Si Si2 0.454685 0.159560 0.242704
Si Si3 0.001543 0.395088 0.784695
Si Si4 0.299606 0.586995 0.540857
Si Si5 0.199409 0.136526 0.608173
Si Si6 0.230309 0.159929 0.967844
Si Si7 0.089978 0.141753 0.330733
Si Si8 0.197758 0.588648 0.916102
O O1 0.586599 0.384001 0.403279
O O2 0.578678 0.712479 0.147074
O O3 0.495512 0.233330 0.311241
O O4 0.299155 0.303367 0.434809
O O5 0.281868 0.208930 0.251113
O O6 0.628969 0.308341 0.100020
O O7 0.395350 0.852662 0.357571
O O8 0.942894 0.581088 0.778917
O O9 0.121580 0.573787 0.611745
O O10 0.120090 0.261413 0.871926
O O11 0.849016 0.151696 0.879021
O O12 0.261807 0.322386 0.604004
O O13 0.228894 0.862726 0.737127
O O14 0.009685 0.042627 0.654318
O O15 0.212223 0.322826 0.987130
O O16 0.000000 0.000000 0.500000
O O17 0.000000 0.500000 0.000000
#
# Coordination Sequence:
#
# PCOD9091008 Si02
#       8
#     2   2   2   2   2   2   2   2
#     4  10  20  37  63  95 124 163 221 276 318 373
#     4  11  23  40  65  94 130 171 218 261 323 394
#     4  10  19  39  62  91 127 167 220 261 317 386
#     4  11  21  35  63  98 128 162 216 280 316 369
#     4  12  23  38  65  97 132 166 220 273 323 376
#     4   9  20  36  65  93 119 166 224 274 310 372
#     4  12  23  41  66  96 132 179 212 260 325 396
#     4  11  23  41  64  95 128 168 219 275 331 372
#
# _framework density 24.589099000000001
#
# number of rings (size 3 to 8) (size 9 to 14) (size 15 to 20)
#    0.000    1.250    5.000    1.500    1.750    0.500 
#    0.000    3.125    0.000    0.000    0.000    0.000 
#    0.000    0.000    0.000    0.000    0.000    0.000 
#
# Total GULP energy -89144.359455 kJ/mol
# GULP energy per Si atom -5571.522466 kJ/mol
# Density = 2.453313 g / cm^3
# Si number density = 24.589099 Si / 1000 Ang^3
#
#
#
# Elastic Constant Matrix: (Units=GPa)
#
#
# Indices 1 2 3 4 5 6 
#
# 1 109.4531 44.5653 66.4576 -4.8691 -51.3168 -5.1809
# 2 44.5653 74.3312 33.3483 -36.2483 -15.5397 14.9604
# 3 66.4576 33.3483 127.9522 -21.0189 -55.3550 6.9068
# 4 -4.8691 -36.2483 -21.0189 37.2530 6.8240 -13.5578
# 5 -51.3168 -15.5397 -55.3550 6.8240 50.8215 4.7249
# 6 -5.1809 14.9604 6.9068 -13.5578 4.7249 28.3594
#
#
#
# Elastic Compliance Matrix: (Units=1/GPa)
#
#
# Indices 1 2 3 4 5 6 
#
# 1 0.032561 -0.026650 -0.004826 -0.026893 0.022661 0.004550
# 2 -0.026650 0.048897 0.002730 0.045714 -0.014466 -0.007063
# 3 -0.004826 0.002730 0.017287 0.007149 0.014342 -0.005504
# 4 -0.026893 0.045714 0.007149 0.078378 -0.016798 0.009499
# 5 0.022661 -0.014466 0.014342 -0.016798 0.056871 -0.009227
# 6 0.004550 -0.007063 -0.005504 0.009499 -0.009227 0.047238
#
#
# Mechanical properties :
#
#
# Convention : Reuss Voigt Hill
#
# Bulk Modulus (GPa) = 24.24038 66.71990 45.48014
# Shear Modulus (GPa) = 14.18553 34.44448 24.31500
#
# Velocity S-wave (km/s) = 2.40449 3.74679 3.14801
# Velocity P-wave (km/s) = 4.19384 6.77575 5.63467
#
# Compressibility (1/GPa) = 0.04125347
#
# Stress axis : x y z
#
# Youngs Moduli (GPa) = 30.71167 20.45135 57.84806
#
# Poissons Ratio (x) = 0.54502 0.27916
# Poissons Ratio (y) = 0.81846 -0.15793
# Poissons Ratio (z) = 0.14821 -0.05583
#
# Static dielectric constant tensor:
#      x y z
#    x 2.080550 0.033790 0.007730 
#    y 0.033790 1.962740 0.099530 
#    z 0.007730 0.099530 2.057610 
# 
# From -- ./inp_files/554879.got.cif
#   From: 2010.05.17/outbox.cif.g08.bks.cpg/sg2_278_cif.got.tgz:554879.got - 2010.06.03 11:33:40.
