data_PCOD9091852
_publ_section_title
;
Structure prediction by ZEFSAII (Michael W. Deem and Ramdas Pophale) SiO2 
 PCOD9091852
Probable space group: P -1
;
_chemical_formula_sum "Si O2"
_cell_formula_units_Z 14
_cell_length_a 8.997693
_cell_length_b 9.098190
_cell_length_c 14.031202
_cell_angle_alpha 116.877919
_cell_angle_beta 54.043619
_cell_angle_gamma 76.061456
_cell_volume 591.224216
_symmetry_space_group_name_H-M "P -1"
_symmetry_group_IT_number 2
_symmetry_cell_setting 'triclinic'
loop_
_space_group_symop_operation_xyz
x,y,z
-x,-y,-z
loop_
_atom_site_type_symbol
_atom_site_label
_atom_site_fract_x
_atom_site_fract_y
_atom_site_fract_z
Si Si1 0.721879 0.958204 0.458086
Si Si2 0.149537 0.073871 0.194305
Si Si3 0.476794 0.027437 0.760688
Si Si4 0.506046 0.386823 0.870719
Si Si5 0.668038 0.713126 0.781911
Si Si6 0.154040 0.767955 0.459647
Si Si7 0.999203 0.829414 0.129831
O O1 0.699575 0.901391 0.557386
O O2 0.679066 0.182526 0.547068
O O3 0.500000 0.000000 0.500000
O O4 0.950009 0.801308 0.249598
O O5 0.123842 0.287077 0.254279
O O6 0.080754 0.086797 0.334425
O O7 0.984280 0.038382 0.192182
O O8 0.439246 0.852562 0.986431
O O9 0.425900 0.248501 0.872144
O O10 0.217822 0.115322 0.837270
O O11 0.556650 0.870598 0.775212
O O12 0.793699 0.223702 0.669213
O O13 0.500000 0.500000 0.000000
O O14 0.294737 0.591345 0.935138
O O15 0.761405 0.476287 0.645789
#
# Coordination Sequence:
#
# PCOD9091852 Si02
#       7
#     2   2   2   2   2   2   2
#     4   8  18  38  61  87 122 156 198 251 301 358
#     4  10  22  39  63  86 125 163 200 252 298 356
#     4  10  22  37  61  91 122 158 202 252 302 360
#     4  11  22  38  63  91 119 158 207 248 303 362
#     4  11  22  40  62  89 126 160 205 247 304 359
#     4  10  21  40  64  87 124 160 201 250 304 356
#     4  10  19  40  62  85 123 160 201 251 303 355
#
# _framework density 23.679680000000001
#
# number of rings (size 3 to 8) (size 9 to 14) (size 15 to 20)
#    0.000    2.000    1.429    1.714    2.000    1.714 
#    2.571   10.714    0.000    0.000    0.000    0.000 
#    0.000    0.000    0.000    0.000    0.000    0.000 
#
# Total GULP energy -78031.216342 kJ/mol
# GULP energy per Si atom -5573.658310 kJ/mol
# Density = 2.362578 g / cm^3
# Si number density = 23.679680 Si / 1000 Ang^3
#
#
#
# Elastic Constant Matrix: (Units=GPa)
#
#
# Indices 1 2 3 4 5 6 
#
# 1 158.4299 70.7316 45.2249 6.8178 5.9032 46.6114
# 2 70.7316 133.3868 32.4738 -6.0586 10.3807 38.8050
# 3 45.2249 32.4738 153.5653 -25.6795 12.9611 13.1190
# 4 6.8178 -6.0586 -25.6795 37.6605 5.0526 4.7648
# 5 5.9032 10.3807 12.9611 5.0526 37.4813 -3.1257
# 6 46.6114 38.8050 13.1190 4.7648 -3.1257 44.8387
#
#
#
# Elastic Compliance Matrix: (Units=1/GPa)
#
#
# Indices 1 2 3 4 5 6 
#
# 1 0.010679 -0.003033 -0.002354 -0.003047 -0.000241 -0.007480
# 2 -0.003033 0.011870 0.000070 0.004041 -0.004033 -0.007850
# 3 -0.002354 0.000070 0.008794 0.007088 -0.003746 -0.001201
# 4 -0.003047 0.004041 0.007088 0.034544 -0.008302 -0.006653
# 5 -0.000241 -0.004033 -0.003746 -0.008302 0.030906 0.007873
# 6 -0.007480 -0.007850 -0.001201 -0.006653 0.007873 0.038479
#
#
# Mechanical properties :
#
#
# Convention : Reuss Voigt Hill
#
# Bulk Modulus (GPa) = 48.28814 82.47141 65.37977
# Shear Modulus (GPa) = 32.72067 43.79289 38.25678
#
# Velocity S-wave (km/s) = 3.72129 4.30512 4.02381
# Velocity P-wave (km/s) = 6.23703 7.72111 7.01841
#
# Compressibility (1/GPa) = 0.02070902
#
# Stress axis : x y z
#
# Youngs Moduli (GPa) = 93.64236 84.24880 113.70944
#
# Poissons Ratio (x) = 0.25554 0.26764
# Poissons Ratio (y) = 0.28404 -0.00796
# Poissons Ratio (z) = 0.22041 -0.00590
#
# Static dielectric constant tensor:
#      x y z
#    x 1.921590 -0.001390 -0.018480 
#    y -0.001390 1.940900 0.001630 
#    z -0.018480 0.001630 1.998630 
# 
# From -- ./inp_files/188524.got.cif
#   From: 2010.05.17/outbox.cif.g08.bks.cpg/sg2_95_cif.got.tgz:188524.got - 2010.06.03 11:33:40.
