data_PCOD9091378
_publ_section_title
;
Structure prediction by ZEFSAII (Michael W. Deem and Ramdas Pophale) SiO2 
 PCOD9091378
Probable space group: P -1
;
_chemical_formula_sum "Si O2"
_cell_formula_units_Z 16
_cell_length_a 27.109144
_cell_length_b 6.924160
_cell_length_c 5.194479
_cell_angle_alpha 107.102706
_cell_angle_beta 51.721997
_cell_angle_gamma 87.211258
_cell_volume 696.094163
_symmetry_space_group_name_H-M "P -1"
_symmetry_group_IT_number 2
_symmetry_cell_setting 'triclinic'
loop_
_space_group_symop_operation_xyz
x,y,z
-x,-y,-z
loop_
_atom_site_type_symbol
_atom_site_label
_atom_site_fract_x
_atom_site_fract_y
_atom_site_fract_z
Si Si1 0.757611 0.289491 0.310871
Si Si2 0.776134 0.027763 0.674561
Si Si3 0.017559 0.770803 0.466743
Si Si4 0.633728 0.644709 0.684800
Si Si5 0.153042 0.438501 0.690794
Si Si6 0.350179 0.088071 0.764458
Si Si7 0.940568 0.508123 0.386079
Si Si8 0.508019 0.133234 0.777723
O O1 0.756500 0.149297 0.513991
O O2 0.686245 0.416597 0.472973
O O3 0.789981 0.463940 0.380128
O O4 0.797434 0.160896 0.885651
O O5 0.828903 0.800234 0.361783
O O6 0.715200 0.972305 0.988326
O O7 0.038518 0.733891 0.679895
O O8 0.955988 0.678053 0.596533
O O9 0.085637 0.612418 0.068469
O O10 0.000000 0.000000 0.500000
O O11 0.651815 0.767747 0.427308
O O12 0.639914 0.776214 0.970129
O O13 0.556239 0.660124 0.924249
O O14 0.133458 0.422430 0.449413
O O15 0.415389 0.880774 0.464586
O O16 0.000000 0.500000 0.000000
O O17 0.500000 0.000000 0.500000
O O18 0.500000 0.000000 0.000000
#
# Coordination Sequence:
#
# PCOD9091378 Si02
#       8
#     2   2   2   2   2   2   2   2
#     4  12  28  43  68 100 135 185 230 281 336 400
#     4  12  28  44  67  99 139 179 234 279 339 401
#     4  10  23  42  74 101 133 169 219 269 335 394
#     4  10  19  39  65  94 134 173 230 280 337 405
#     4  11  27  43  70  96 141 176 224 272 335 401
#     4  10  19  39  66  91 136 177 222 284 344 395
#     4   9  22  43  67 100 133 168 209 271 327 388
#     4   8  16  30  60  95 121 174 222 273 343 401
#
# _framework density 22.985393999999999
#
# number of rings (size 3 to 8) (size 9 to 14) (size 15 to 20)
#    0.000    1.750    1.250    1.500    5.250    4.000 
#    0.000    1.250    0.000    0.000    0.000    0.000 
#    0.000    0.000    0.000    0.000    0.000    0.000 
#
# Total GULP energy -89162.358906 kJ/mol
# GULP energy per Si atom -5572.647432 kJ/mol
# Density = 2.293308 g / cm^3
# Si number density = 22.985394 Si / 1000 Ang^3
#
#
#
# Elastic Constant Matrix: (Units=GPa)
#
#
# Indices 1 2 3 4 5 6 
#
# 1 101.0521 49.5215 34.2430 -0.0259 -1.3970 -23.7218
# 2 49.5215 162.2487 60.5281 31.5791 -10.6383 -52.1001
# 3 34.2430 60.5281 106.5366 10.8873 -11.1980 -21.2996
# 4 -0.0259 31.5791 10.8873 45.4391 -28.0766 -1.8673
# 5 -1.3970 -10.6383 -11.1980 -28.0766 54.1893 2.3938
# 6 -23.7218 -52.1001 -21.2996 -1.8673 2.3938 41.3404
#
#
#
# Elastic Compliance Matrix: (Units=1/GPa)
#
#
# Indices 1 2 3 4 5 6 
#
# 1 0.012619 -0.002625 -0.002210 0.002943 0.000751 0.002884
# 2 -0.002625 0.015661 -0.004153 -0.012274 -0.004910 0.015822
# 3 -0.002210 -0.004153 0.012549 0.001382 0.002442 -0.000116
# 4 0.002943 -0.012274 0.001382 0.042321 0.020425 -0.012339
# 5 0.000751 -0.004910 0.002442 0.020425 0.028828 -0.005245
# 6 0.002884 0.015822 -0.000116 -0.012339 -0.005245 0.045471
#
#
# Mechanical properties :
#
#
# Convention : Reuss Voigt Hill
#
# Bulk Modulus (GPa) = 43.75620 73.15807 58.45714
# Shear Modulus (GPa) = 27.31608 43.23009 35.27309
#
# Velocity S-wave (km/s) = 3.45107 4.34148 3.92163
# Velocity P-wave (km/s) = 5.91251 7.55172 6.78182
#
# Compressibility (1/GPa) = 0.02285390
#
# Stress axis : x y z
#
# Youngs Moduli (GPa) = 79.24412 63.85172 79.69048
#
# Poissons Ratio (x) = 0.16759 0.17613
# Poissons Ratio (y) = 0.20799 0.33094
# Poissons Ratio (z) = 0.17514 0.26516
#
# Static dielectric constant tensor:
#      x y z
#    x 2.040300 -0.025550 0.124110 
#    y -0.025550 1.842040 0.022800 
#    z 0.124110 0.022800 2.012530 
# 
# From -- ./inp_files/127998.got.cif
#   From: 2010.05.17/outbox.cif.g08.bks.cpg/sg2_64_cif.got.tgz:127998.got - 2010.06.03 11:33:40.
