data_PCOD9091335
_publ_section_title
;
Structure prediction by ZEFSAII (Michael W. Deem and Ramdas Pophale) SiO2 
 PCOD9091335
Probable space group: P -1
;
_chemical_formula_sum "Si O2"
_cell_formula_units_Z 14
_cell_length_a 24.912633
_cell_length_b 8.569012
_cell_length_c 13.178120
_cell_angle_alpha 118.615143
_cell_angle_beta 20.597134
_cell_angle_gamma 129.043871
_cell_volume 702.700219
_symmetry_space_group_name_H-M "P -1"
_symmetry_group_IT_number 2
_symmetry_cell_setting 'triclinic'
loop_
_space_group_symop_operation_xyz
x,y,z
-x,-y,-z
loop_
_atom_site_type_symbol
_atom_site_label
_atom_site_fract_x
_atom_site_fract_y
_atom_site_fract_z
Si Si1 0.205091 0.122701 0.720690
Si Si2 0.439541 0.000776 0.783045
Si Si3 0.125572 0.959815 0.196034
Si Si4 0.414520 0.517643 0.321851
Si Si5 0.634060 0.756762 0.317697
Si Si6 0.765064 0.598728 0.607530
Si Si7 0.581729 0.088586 0.772635
O O1 0.345584 0.357351 0.489332
O O2 0.209860 0.148004 0.840639
O O3 0.284320 0.982020 0.514306
O O4 0.000000 0.000000 0.000000
O O5 0.575715 0.265060 0.604528
O O6 0.427836 0.991757 0.923905
O O7 0.526812 0.872709 0.555149
O O8 0.248526 0.911846 0.032952
O O9 0.977423 0.765195 0.321624
O O10 0.000000 0.000000 0.500000
O O11 0.269787 0.174112 0.940224
O O12 0.275705 0.375491 0.428859
O O13 0.620624 0.606132 0.939696
O O14 0.500000 0.500000 0.500000
O O15 0.695733 0.348969 0.655227
O O16 0.500000 0.000000 0.000000
#
# Coordination Sequence:
#
# PCOD9091335 Si02
#       7
#     2   2   2   2   2   2   2
#     4  11  23  38  63  93 126 160 212 263 309 371
#     4  10  23  41  64  90 126 170 205 256 320 381
#     4  12  24  41  66  96 122 164 225 259 300 380
#     4  10  19  39  65  90 123 165 204 255 320 364
#     4  11  26  44  63  89 133 172 201 260 332 372
#     4  10  21  36  65  93 123 161 210 261 303 367
#     4  10  21  39  63  91 127 167 206 254 322 369
#
# _framework density 19.923147
#
# number of rings (size 3 to 8) (size 9 to 14) (size 15 to 20)
#    0.000    1.429    2.857    2.143    0.000    3.429 
#    0.000    5.714    0.000    0.000    0.000    0.000 
#    0.000    0.000    0.000    0.000    0.000    0.000 
#
# Total GULP energy -78202.297275 kJ/mol
# GULP energy per Si atom -5585.878377 kJ/mol
# Density = 1.987780 g / cm^3
# Si number density = 19.923147 Si / 1000 Ang^3
#
#
#
# Elastic Constant Matrix: (Units=GPa)
#
#
# Indices 1 2 3 4 5 6 
#
# 1 147.0628 25.1426 59.8746 -5.5229 -15.3956 -0.5837
# 2 25.1426 108.0408 35.2788 5.9563 -1.0889 -11.1944
# 3 59.8746 35.2788 69.6543 -5.8870 -3.9159 -0.3779
# 4 -5.5229 5.9563 -5.8870 20.4248 5.3645 -5.9281
# 5 -15.3956 -1.0889 -3.9159 5.3645 48.2777 -9.3775
# 6 -0.5837 -11.1944 -0.3779 -5.9281 -9.3775 33.1669
#
#
#
# Elastic Compliance Matrix: (Units=1/GPa)
#
#
# Indices 1 2 3 4 5 6 
#
# 1 0.010878 0.000781 -0.009617 -0.000523 0.002977 0.001094
# 2 0.000781 0.012006 -0.007059 -0.004612 0.001136 0.003482
# 3 -0.009617 -0.007059 0.026682 0.007266 -0.002173 -0.001564
# 4 -0.000523 -0.004612 0.007266 0.055512 -0.004455 0.007179
# 5 0.002977 0.001136 -0.002173 -0.004455 0.023207 0.006176
# 6 0.001094 0.003482 -0.001564 0.007179 0.006176 0.034357
#
#
# Mechanical properties :
#
#
# Convention : Reuss Voigt Hill
#
# Bulk Modulus (GPa) = 56.25742 62.81667 59.53705
# Shear Modulus (GPa) = 24.95542 34.00468 29.48005
#
# Velocity S-wave (km/s) = 3.54303 4.13582 3.85084
# Velocity P-wave (km/s) = 6.71088 7.37595 7.05126
#
# Compressibility (1/GPa) = 0.01777543
#
# Stress axis : x y z
#
# Youngs Moduli (GPa) = 91.92668 83.29494 37.47799
#
# Poissons Ratio (x) = -0.06505 0.36044
# Poissons Ratio (y) = -0.07180 0.26456
# Poissons Ratio (z) = 0.88409 0.58798
#
# Static dielectric constant tensor:
#      x y z
#    x 1.731020 0.043120 -0.001190 
#    y 0.043120 1.690920 0.008150 
#    z -0.001190 0.008150 1.676070 
# 
# From -- ./inp_files/153957.got.cif
#   From: 2010.05.17/outbox.cif.g08.bks.cpg/sg2_77_cif.got.tgz:153957.got - 2010.06.03 11:33:40.
