data_PCOD9091885
_publ_section_title
;
Structure prediction by ZEFSAII (Michael W. Deem and Ramdas Pophale) SiO2 
 PCOD9091885
Probable space group: P -1
;
_chemical_formula_sum "Si O2"
_cell_formula_units_Z 16
_cell_length_a 9.333055
_cell_length_b 14.836035
_cell_length_c 9.447818
_cell_angle_alpha 78.006730
_cell_angle_beta 44.088132
_cell_angle_gamma 100.255651
_cell_volume 780.614479
_symmetry_space_group_name_H-M "P -1"
_symmetry_group_IT_number 2
_symmetry_cell_setting 'triclinic'
loop_
_space_group_symop_operation_xyz
x,y,z
-x,-y,-z
loop_
_atom_site_type_symbol
_atom_site_label
_atom_site_fract_x
_atom_site_fract_y
_atom_site_fract_z
Si Si1 0.693444 0.110564 0.398048
Si Si2 0.030505 0.616197 0.459860
Si Si3 0.543292 0.757252 0.140196
Si Si4 0.439377 0.416588 0.283745
Si Si5 0.549281 0.968791 0.125792
Si Si6 0.980450 0.104674 0.953893
Si Si7 0.502481 0.727141 0.500251
Si Si8 0.710134 0.637767 0.897321
O O1 0.666247 0.080852 0.593157
O O2 0.629344 0.204791 0.399192
O O3 0.500000 0.000000 0.500000
O O4 0.920058 0.138857 0.134612
O O5 0.301603 0.702728 0.238558
O O6 0.000000 0.500000 0.500000
O O7 0.840014 0.622061 0.486870
O O8 0.932768 0.632656 0.676021
O O9 0.616766 0.876867 0.082581
O O10 0.484464 0.702113 0.354216
O O11 0.732100 0.739094 0.925385
O O12 0.550707 0.370149 0.329575
O O13 0.446533 0.381982 0.127185
O O14 0.575417 0.542083 0.132498
O O15 0.500000 0.000000 0.000000
O O16 0.762429 0.068967 0.014913
O O17 0.223507 0.192132 0.692611
O O18 0.000000 0.000000 0.000000
#
# Coordination Sequence:
#
# PCOD9091885 Si02
#       8
#     2   2   2   2   2   2   2   2
#     4   9  19  39  60  78 120 159 195 242 294 345
#     4  10  19  40  63  81 115 159 188 238 304 349
#     4  11  21  38  59  86 123 146 196 252 290 346
#     4   9  20  40  61  86 114 155 203 232 297 363
#     4  10  23  38  60  92 120 154 201 252 291 351
#     4  11  20  43  62  79 121 168 195 237 306 348
#     4  11  23  38  60  91 117 157 202 244 291 358
#     4   9  20  39  62  83 117 154 191 242 303 350
#
# _framework density 20.496673999999999
#
# number of rings (size 3 to 8) (size 9 to 14) (size 15 to 20)
#    0.750    1.250    5.000    0.000    1.750    4.500 
#    2.250    1.250    0.000    0.000    0.000    0.000 
#    0.000    0.000    0.000    0.000    0.000    0.000 
#
# Total GULP energy -89145.415202 kJ/mol
# GULP energy per Si atom -5571.588450 kJ/mol
# Density = 2.045002 g / cm^3
# Si number density = 20.496674 Si / 1000 Ang^3
#
#
#
# Elastic Constant Matrix: (Units=GPa)
#
#
# Indices 1 2 3 4 5 6 
#
# 1 75.3791 6.0409 24.1132 5.8954 18.4910 -13.8789
# 2 6.0409 79.2770 28.6485 38.9034 5.8656 -2.7955
# 3 24.1132 28.6485 62.7381 23.8772 4.6603 -12.2583
# 4 5.8954 38.9034 23.8772 35.7774 -1.8064 -4.1595
# 5 18.4910 5.8656 4.6603 -1.8064 36.0885 -13.7935
# 6 -13.8789 -2.7955 -12.2583 -4.1595 -13.7935 27.6824
#
#
#
# Elastic Compliance Matrix: (Units=1/GPa)
#
#
# Indices 1 2 3 4 5 6 
#
# 1 0.017484 0.002163 -0.006251 -0.001197 -0.007727 0.002186
# 2 0.002163 0.029664 -0.002795 -0.032037 -0.009790 -0.006850
# 3 -0.006251 -0.002795 0.025382 -0.011888 0.002584 0.007325
# 4 -0.001197 -0.032037 -0.011888 0.072696 0.014442 0.009019
# 5 -0.007727 -0.009790 0.002584 0.014442 0.040834 0.018798
# 6 0.002186 -0.006850 0.007325 0.009019 0.018798 0.050494
#
#
# Mechanical properties :
#
#
# Convention : Reuss Voigt Hill
#
# Bulk Modulus (GPa) = 17.01742 37.22216 27.11979
# Shear Modulus (GPa) = 18.52487 30.48242 24.50365
#
# Velocity S-wave (km/s) = 3.00959 3.86059 3.46134
# Velocity P-wave (km/s) = 4.51634 6.17023 5.40690
#
# Compressibility (1/GPa) = 0.05876332
#
# Stress axis : x y z
#
# Youngs Moduli (GPa) = 57.19433 33.71143 39.39840
#
# Poissons Ratio (x) = -0.07291 0.24628
# Poissons Ratio (y) = -0.12371 0.11012
# Poissons Ratio (z) = 0.35752 0.09423
#
# Static dielectric constant tensor:
#      x y z
#    x 1.796420 0.023810 -0.046390 
#    y 0.023810 1.727300 0.002520 
#    z -0.046390 0.002520 1.763510 
# 
# From -- ./inp_files/206677.got.cif
#   From: 2010.05.17/outbox.cif.g08.bks.cpg/sg2_104_cif.got.tgz:206677.got - 2010.06.03 11:33:40.
