data_PCOD9091773
_publ_section_title
;
Structure prediction by ZEFSAII (Michael W. Deem and Ramdas Pophale) SiO2 
 PCOD9091773
Probable space group: P -1
;
_chemical_formula_sum "Si O2"
_cell_formula_units_Z 16
_cell_length_a 15.295904
_cell_length_b 14.894871
_cell_length_c 15.794254
_cell_angle_alpha 49.133592
_cell_angle_beta 152.702667
_cell_angle_gamma 148.661546
_cell_volume 771.182680
_symmetry_space_group_name_H-M "P -1"
_symmetry_group_IT_number 2
_symmetry_cell_setting 'triclinic'
loop_
_space_group_symop_operation_xyz
x,y,z
-x,-y,-z
loop_
_atom_site_type_symbol
_atom_site_label
_atom_site_fract_x
_atom_site_fract_y
_atom_site_fract_z
Si Si1 0.582999 0.638088 0.916327
Si Si2 0.168185 0.127404 0.730688
Si Si3 0.827216 0.142901 0.149410
Si Si4 0.243933 0.374817 0.520246
Si Si5 0.271609 0.605104 0.527525
Si Si6 0.164186 0.452020 0.906943
Si Si7 0.047908 0.022054 0.185230
Si Si8 0.017366 0.276794 0.050975
O O1 0.307405 0.571180 0.673292
O O2 0.500000 0.500000 0.000000
O O3 0.736252 0.633136 0.977624
O O4 0.814411 0.843404 0.031369
O O5 0.114206 0.196277 0.568066
O O6 0.969716 0.047821 0.694253
O O7 0.122204 0.972103 0.753941
O O8 0.523939 0.322456 0.945776
O O9 0.085304 0.312768 0.332002
O O10 0.848383 0.216073 0.031250
O O11 0.500000 0.000000 0.000000
O O12 0.183997 0.456456 0.479563
O O13 0.612867 0.541257 0.726454
O O14 0.025900 0.586485 0.309634
O O15 0.612018 0.813700 0.662836
O O16 0.967408 0.344698 0.889943
O O17 0.945444 0.107655 0.062443
#
# Coordination Sequence:
#
# PCOD9091773 Si02
#       8
#     2   2   2   2   2   2   2   2
#     4  12  22  42  64  88 125 160 200 244 304 356
#     4  10  20  40  61  86 124 160 197 250 306 351
#     4  11  22  35  60  92 120 153 205 252 293 358
#     4  10  19  40  59  84 118 164 201 239 303 361
#     4  11  23  38  64  90 121 157 205 247 298 353
#     4  11  22  41  62  89 124 160 200 249 296 357
#     4  10  20  39  62  87 120 161 197 248 299 355
#     4   9  21  40  60  82 123 161 196 246 302 354
#
# _framework density 20.747353
#
# number of rings (size 3 to 8) (size 9 to 14) (size 15 to 20)
#    0.000    1.500    5.000    1.875    0.000    2.000 
#    0.000    8.125    0.000    0.000    0.000    0.000 
#    0.000    0.000    0.000    0.000    0.000    0.000 
#
# Total GULP energy -89394.240383 kJ/mol
# GULP energy per Si atom -5587.140024 kJ/mol
# Density = 2.070013 g / cm^3
# Si number density = 20.747353 Si / 1000 Ang^3
#
#
#
# Elastic Constant Matrix: (Units=GPa)
#
#
# Indices 1 2 3 4 5 6 
#
# 1 65.6850 22.2926 14.4841 6.1327 -23.1023 13.3426
# 2 22.2926 73.3035 14.0680 0.6738 -20.9073 13.7068
# 3 14.4841 14.0680 77.4134 -11.2697 -20.4535 -2.5185
# 4 6.1327 0.6738 -11.2697 24.8600 -3.7298 -16.8466
# 5 -23.1023 -20.9073 -20.4535 -3.7298 30.1410 2.1084
# 6 13.3426 13.7068 -2.5185 -16.8466 2.1084 41.3874
#
#
#
# Elastic Compliance Matrix: (Units=1/GPa)
#
#
# Indices 1 2 3 4 5 6 
#
# 1 0.027202 0.000992 -0.003550 -0.017340 0.018193 -0.017299
# 2 0.000992 0.019275 -0.001476 -0.006258 0.013055 -0.010005
# 3 -0.003550 -0.001476 0.019763 0.018081 0.011230 0.009623
# 4 -0.017340 -0.006258 0.018081 0.081494 0.001796 0.041843
# 5 0.018193 0.013055 0.011230 0.001796 0.064865 -0.012078
# 6 -0.017299 -0.010005 0.009623 0.041843 -0.012078 0.051285
#
#
# Mechanical properties :
#
#
# Convention : Reuss Voigt Hill
#
# Bulk Modulus (GPa) = 17.19052 35.34347 26.26700
# Shear Modulus (GPa) = 17.16195 30.31483 23.73839
#
# Velocity S-wave (km/s) = 2.87921 3.82664 3.38622
# Velocity P-wave (km/s) = 4.39963 6.04949 5.28929
#
# Compressibility (1/GPa) = 0.05817158
#
# Stress axis : x y z
#
# Youngs Moduli (GPa) = 36.76225 51.87985 50.60087
#
# Poissons Ratio (x) = -0.05145 0.17964
# Poissons Ratio (y) = -0.03646 0.07467
# Poissons Ratio (z) = 0.13051 0.07656
#
# Static dielectric constant tensor:
#      x y z
#    x 1.763980 0.037760 -0.012440 
#    y 0.037760 1.747520 -0.016100 
#    z -0.012440 -0.016100 1.715060 
# 
# From -- ./inp_files/216039.got.cif
#   From: 2010.05.17/outbox.cif.g08.bks.cpg/sg2_109_cif.got.tgz:216039.got - 2010.06.03 11:33:40.
