data_PCOD9091451
_publ_section_title
;
Structure prediction by ZEFSAII (Michael W. Deem and Ramdas Pophale) SiO2 
 PCOD9091451
Probable space group: P -1
;
_chemical_formula_sum "Si O2"
_cell_formula_units_Z 14
_cell_length_a 10.774203
_cell_length_b 15.784057
_cell_length_c 8.671511
_cell_angle_alpha 40.154864
_cell_angle_beta 82.748849
_cell_angle_gamma 52.773877
_cell_volume 572.377277
_symmetry_space_group_name_H-M "P -1"
_symmetry_group_IT_number 2
_symmetry_cell_setting 'triclinic'
loop_
_space_group_symop_operation_xyz
x,y,z
-x,-y,-z
loop_
_atom_site_type_symbol
_atom_site_label
_atom_site_fract_x
_atom_site_fract_y
_atom_site_fract_z
Si Si1 0.619141 0.582957 0.120980
Si Si2 0.992507 0.201685 0.817816
Si Si3 0.033375 0.594206 0.164786
Si Si4 0.304283 0.119468 0.763873
Si Si5 0.204230 0.665737 0.849516
Si Si6 0.764926 0.734937 0.761441
Si Si7 0.178207 0.885441 0.835625
O O1 0.812742 0.393730 0.462890
O O2 0.639076 0.468362 0.130080
O O3 0.642978 0.707960 0.871925
O O4 0.410396 0.736070 0.034569
O O5 0.988911 0.298037 0.833498
O O6 0.211665 0.053442 0.911340
O O7 0.933259 0.108772 0.024420
O O8 0.123378 0.374855 0.481827
O O9 0.204761 0.526685 0.129453
O O10 0.819257 0.768436 0.862087
O O11 0.331168 0.116092 0.580553
O O12 0.500000 0.000000 0.000000
O O13 0.203036 0.776474 0.827483
O O14 0.979576 0.867729 0.523909
O O15 0.000000 0.500000 0.000000
#
# Coordination Sequence:
#
# PCOD9091451 Si02
#       7
#     2   2   2   2   2   2   2
#     4  12  21  42  69  91 132 179 215 267 328 386
#     4  11  23  42  62  93 142 162 213 283 314 388
#     4  10  20  43  65  90 132 175 202 274 334 366
#     4  11  22  39  65  99 127 165 220 265 331 388
#     4  10  21  44  67  88 134 169 225 273 308 392
#     4  10  19  39  66  90 125 173 218 258 332 385
#     4  10  25  41  63 101 124 175 227 259 326 388
#
# _framework density 24.459389000000002
#
# number of rings (size 3 to 8) (size 9 to 14) (size 15 to 20)
#    0.000    1.429    5.714    1.286    0.000    4.000 
#   10.286    1.429    0.000    0.000    0.000    0.000 
#    0.000    0.000    0.000    0.000    0.000    0.000 
#
# Total GULP energy -78294.120610 kJ/mol
# GULP energy per Si atom -5592.437186 kJ/mol
# Density = 2.440372 g / cm^3
# Si number density = 24.459389 Si / 1000 Ang^3
#
#
#
# Elastic Constant Matrix: (Units=GPa)
#
#
# Indices 1 2 3 4 5 6 
#
# 1 102.1984 37.1681 54.0929 11.7230 9.9692 -24.6022
# 2 37.1681 107.1252 37.1225 16.2143 5.4655 -3.6252
# 3 54.0929 37.1225 88.2081 31.8751 12.7620 -22.5099
# 4 11.7230 16.2143 31.8751 37.0533 5.3524 7.1501
# 5 9.9692 5.4655 12.7620 5.3524 44.4072 5.1914
# 6 -24.6022 -3.6252 -22.5099 7.1501 5.1914 47.3787
#
#
#
# Elastic Compliance Matrix: (Units=1/GPa)
#
#
# Indices 1 2 3 4 5 6 
#
# 1 0.016069 -0.002862 -0.008540 0.003016 -0.001607 0.003788
# 2 -0.002862 0.011543 -0.003422 -0.000866 0.000562 -0.002160
# 3 -0.008540 -0.003422 0.031593 -0.025027 -0.005442 0.014687
# 4 0.003016 -0.000866 -0.025027 0.051113 0.002611 -0.018390
# 5 -0.001607 0.000562 -0.005442 0.002611 0.024818 -0.006490
# 6 0.003788 -0.002160 0.014687 -0.018390 -0.006490 0.033373
#
#
# Mechanical properties :
#
#
# Convention : Reuss Voigt Hill
#
# Bulk Modulus (GPa) = 33.83445 61.58873 47.71159
# Shear Modulus (GPa) = 24.03717 37.04439 30.54078
#
# Velocity S-wave (km/s) = 3.13827 3.89591 3.53743
# Velocity P-wave (km/s) = 5.19563 6.74331 6.01942
#
# Compressibility (1/GPa) = 0.02955567
#
# Stress axis : x y z
#
# Youngs Moduli (GPa) = 62.23225 86.63121 31.65229
#
# Poissons Ratio (x) = 0.24795 0.27032
# Poissons Ratio (y) = 0.17811 0.10833
# Poissons Ratio (z) = 0.53148 0.29649
#
# Static dielectric constant tensor:
#      x y z
#    x 1.984150 0.025780 -0.011990 
#    y 0.025780 2.018010 0.021310 
#    z -0.011990 0.021310 1.905680 
# 
# From -- ./inp_files/208823.got.cif
#   From: 2010.05.17/outbox.cif.g08.bks.cpg/sg2_105_cif.got.tgz:208823.got - 2010.06.03 11:33:40.
