data_PCOD9091235
_publ_section_title
;
Structure prediction by ZEFSAII (Michael W. Deem and Ramdas Pophale) SiO2 
 PCOD9091235
Probable space group: P -1
;
_chemical_formula_sum "Si O2"
_cell_formula_units_Z 14
_cell_length_a 6.990131
_cell_length_b 14.418951
_cell_length_c 11.979533
_cell_angle_alpha 136.737757
_cell_angle_beta 51.852884
_cell_angle_gamma 113.335604
_cell_volume 647.525132
_symmetry_space_group_name_H-M "P -1"
_symmetry_group_IT_number 2
_symmetry_cell_setting 'triclinic'
loop_
_space_group_symop_operation_xyz
x,y,z
-x,-y,-z
loop_
_atom_site_type_symbol
_atom_site_label
_atom_site_fract_x
_atom_site_fract_y
_atom_site_fract_z
Si Si1 0.209817 0.977410 0.310747
Si Si2 0.550613 0.381599 0.468512
Si Si3 0.991685 0.561896 0.224721
Si Si4 0.498783 0.099341 0.482265
Si Si5 0.994319 0.285598 0.865943
Si Si6 0.099266 0.697512 0.537064
Si Si7 0.637279 0.858030 0.788774
O O1 0.183805 0.829243 0.141045
O O2 0.457368 0.003095 0.306996
O O3 0.184017 0.095655 0.332934
O O4 0.000000 0.000000 0.500000
O O5 0.500000 0.500000 0.500000
O O6 0.298473 0.394489 0.639565
O O7 0.776117 0.381749 0.471194
O O8 0.551431 0.238750 0.278837
O O9 0.100360 0.639905 0.149698
O O10 0.080073 0.605427 0.352241
O O11 0.021506 0.401837 0.048561
O O12 0.722855 0.186353 0.455164
O O13 0.259138 0.205422 0.678924
O O14 0.500000 0.000000 0.500000
O O15 0.826205 0.768886 0.721920
O O16 0.500000 0.000000 0.000000
#
# Coordination Sequence:
#
# PCOD9091235 Si02
#       7
#     2   2   2   2   2   2   2
#     4  10  19  39  64  91 132 168 206 271 332 385
#     4  11  24  45  66  88 131 179 223 270 330 389
#     4  10  22  40  62  93 131 171 215 270 322 390
#     4  11  19  35  61  99 126 169 211 263 340 399
#     4  10  20  38  62  96 136 164 213 272 320 389
#     4  11  21  43  67  90 133 175 219 266 333 394
#     4  11  25  43  67  99 130 171 223 281 330 395
#
# _framework density 21.620781999999998
#
# number of rings (size 3 to 8) (size 9 to 14) (size 15 to 20)
#    0.000    1.429    2.857    5.143    2.000    3.429 
#    2.571    0.000    0.000    0.000    0.000    0.000 
#    0.000    0.000    0.000    0.000    0.000    0.000 
#
# Total GULP energy -78155.506000 kJ/mol
# GULP energy per Si atom -5582.536143 kJ/mol
# Density = 2.157157 g / cm^3
# Si number density = 21.620782 Si / 1000 Ang^3
#
#
#
# Elastic Constant Matrix: (Units=GPa)
#
#
# Indices 1 2 3 4 5 6 
#
# 1 145.2565 33.0980 45.9904 16.1222 20.0839 -20.3934
# 2 33.0980 83.2137 29.7834 23.9416 17.0231 -24.5825
# 3 45.9904 29.7834 102.5085 29.1110 18.2721 3.3140
# 4 16.1222 23.9416 29.1110 31.7184 11.9037 1.3999
# 5 20.0839 17.0231 18.2721 11.9037 18.1070 5.1813
# 6 -20.3934 -24.5825 3.3140 1.3999 5.1813 37.0239
#
#
#
# Elastic Compliance Matrix: (Units=1/GPa)
#
#
# Indices 1 2 3 4 5 6 
#
# 1 0.010650 0.002591 -0.003564 0.000692 -0.013919 0.009827
# 2 0.002591 0.027299 -0.002017 -0.011445 -0.025783 0.023774
# 3 -0.003564 -0.002017 0.015165 -0.009679 -0.001940 -0.004022
# 4 0.000692 -0.011445 -0.009679 0.054263 -0.014073 -0.006434
# 5 -0.013919 -0.025783 -0.001940 -0.014073 0.117719 -0.040554
# 6 0.009827 0.023774 -0.004022 -0.006434 -0.040554 0.054486
#
#
# Mechanical properties :
#
#
# Convention : Reuss Voigt Hill
#
# Bulk Modulus (GPa) = 21.21603 60.96916 41.09259
# Shear Modulus (GPa) = 16.59628 32.17698 24.38663
#
# Velocity S-wave (km/s) = 2.77358 3.86196 3.36210
# Velocity P-wave (km/s) = 4.48231 6.93879 5.84115
#
# Compressibility (1/GPa) = 0.04713417
#
# Stress axis : x y z
#
# Youngs Moduli (GPa) = 93.89831 36.63160 65.94260
#
# Poissons Ratio (x) = -0.09492 0.23502
# Poissons Ratio (y) = -0.24330 0.13299
# Poissons Ratio (z) = 0.33466 0.07387
#
# Static dielectric constant tensor:
#      x y z
#    x 1.814680 -0.002080 0.009280 
#    y -0.002080 1.894410 -0.021650 
#    z 0.009280 -0.021650 1.832920 
# 
# From -- ./inp_files/258733.got.cif
#   From: 2010.05.17/outbox.cif.g08.bks.cpg/sg2_130_cif.got.tgz:258733.got - 2010.06.03 11:33:40.
