data_PCOD9091489
_publ_section_title
;
Structure prediction by ZEFSAII (Michael W. Deem and Ramdas Pophale) SiO2 
 PCOD9091489
Probable space group: P -1
;
_chemical_formula_sum "Si O2"
_cell_formula_units_Z 16
_cell_length_a 7.077649
_cell_length_b 23.715909
_cell_length_c 29.272073
_cell_angle_alpha 169.686208
_cell_angle_beta 129.008359
_cell_angle_gamma 50.350772
_cell_volume 677.282351
_symmetry_space_group_name_H-M "P -1"
_symmetry_group_IT_number 2
_symmetry_cell_setting 'triclinic'
loop_
_space_group_symop_operation_xyz
x,y,z
-x,-y,-z
loop_
_atom_site_type_symbol
_atom_site_label
_atom_site_fract_x
_atom_site_fract_y
_atom_site_fract_z
Si Si1 0.999155 0.244560 0.652009
Si Si2 0.427450 0.444808 0.508635
Si Si3 0.614202 0.381057 0.580885
Si Si4 0.550018 0.725001 0.940837
Si Si5 0.086635 0.173111 0.778890
Si Si6 0.876728 0.612810 0.391638
Si Si7 0.871643 0.680664 0.720182
Si Si8 0.710369 0.303736 0.904754
O O1 0.750719 0.490467 0.811374
O O2 0.000000 0.000000 0.500000
O O3 0.002518 0.069764 0.464781
O O4 0.220211 0.457162 0.855872
O O5 0.415215 0.470927 0.582356
O O6 0.601087 0.692017 0.712330
O O7 0.191381 0.429772 0.428457
O O8 0.576540 0.089905 0.241859
O O9 0.574563 0.614136 0.803551
O O10 0.879433 0.405257 0.616511
O O11 0.652288 0.017203 0.316369
O O12 0.279127 0.665610 0.867270
O O13 0.944761 0.247864 0.863424
O O14 0.000000 0.500000 0.000000
O O15 0.961683 0.570802 0.423388
O O16 0.688834 0.939842 0.621350
O O17 0.000000 0.000000 0.000000
O O18 0.500000 0.500000 0.000000
#
# Coordination Sequence:
#
# PCOD9091489 Si02
#       8
#     2   2   2   2   2   2   2   2
#     4  11  21  35  60  88 118 166 205 250 319 372
#     4  10  21  39  68  90 128 174 203 269 325 368
#     4   9  22  40  60  93 128 162 213 261 315 378
#     4  11  21  40  67  90 122 169 212 255 321 378
#     4  10  20  36  59  85 122 158 205 263 304 372
#     4  10  21  40  64  88 130 162 201 273 309 368
#     4  10  19  39  66  94 130 167 211 262 324 380
#     4  11  23  40  59  90 126 160 209 259 311 375
#
# _framework density 23.623826000000001
#
# number of rings (size 3 to 8) (size 9 to 14) (size 15 to 20)
#    0.000    1.750    2.500    3.000    1.750    0.500 
#    0.000   13.750    0.000    0.000    0.000    0.000 
#    0.000    0.000    0.000    0.000    0.000    0.000 
#
# Total GULP energy -89243.572359 kJ/mol
# GULP energy per Si atom -5577.723272 kJ/mol
# Density = 2.357006 g / cm^3
# Si number density = 23.623826 Si / 1000 Ang^3
#
#
#
# Elastic Constant Matrix: (Units=GPa)
#
#
# Indices 1 2 3 4 5 6 
#
# 1 59.7858 4.2456 11.7068 -7.5493 7.4932 4.0073
# 2 4.2456 133.0277 16.0232 -2.4210 9.7207 -0.6418
# 3 11.7068 16.0232 92.5135 -0.1927 15.6662 -4.3254
# 4 -7.5493 -2.4210 -0.1927 48.0760 -0.9948 -0.1217
# 5 7.4932 9.7207 15.6662 -0.9948 31.6695 -8.7836
# 6 4.0073 -0.6418 -4.3254 -0.1217 -8.7836 38.6821
#
#
#
# Elastic Compliance Matrix: (Units=1/GPa)
#
#
# Indices 1 2 3 4 5 6 
#
# 1 0.018137 -0.000031 -0.001717 0.002745 -0.004182 -0.003012
# 2 -0.000031 0.007791 -0.001029 0.000341 -0.001984 -0.000432
# 3 -0.001717 -0.001029 0.012097 -0.000379 -0.005181 0.000336
# 4 0.002745 0.000341 -0.000379 0.021247 0.000032 -0.000247
# 5 -0.004182 -0.001984 -0.005181 0.000032 0.038088 0.008470
# 6 -0.003012 -0.000432 0.000336 -0.000247 0.008470 0.028117
#
#
# Mechanical properties :
#
#
# Convention : Reuss Voigt Hill
#
# Bulk Modulus (GPa) = 30.79567 38.80871 34.80219
# Shear Modulus (GPa) = 35.24732 40.57560 37.91146
#
# Velocity S-wave (km/s) = 3.86686 4.14886 4.01034
# Velocity P-wave (km/s) = 5.74465 6.27807 6.01727
#
# Compressibility (1/GPa) = 0.03247209
#
# Stress axis : x y z
#
# Youngs Moduli (GPa) = 55.13451 128.34854 82.66560
#
# Poissons Ratio (x) = 0.00399 0.14191
# Poissons Ratio (y) = 0.00171 0.08506
# Poissons Ratio (z) = 0.09465 0.13207
#
# Static dielectric constant tensor:
#      x y z
#    x 1.890440 0.018370 0.043620 
#    y 0.018370 2.025030 0.111230 
#    z 0.043620 0.111230 1.951220 
# 
# From -- ./inp_files/352035.got.cif
#   From: 2010.05.17/outbox.cif.g08.bks.cpg/sg2_177_cif.got.tgz:352035.got - 2010.06.03 11:33:40.
