data_PCOD9091392
_publ_section_title
;
Structure prediction by ZEFSAII (Michael W. Deem and Ramdas Pophale) SiO2 
 PCOD9091392
Probable space group: P -1
;
_chemical_formula_sum "Si O2"
_cell_formula_units_Z 16
_cell_length_a 8.483195
_cell_length_b 12.379699
_cell_length_c 9.733436
_cell_angle_alpha 94.442416
_cell_angle_beta 99.010161
_cell_angle_gamma 132.417539
_cell_volume 721.444470
_symmetry_space_group_name_H-M "P -1"
_symmetry_group_IT_number 2
_symmetry_cell_setting 'triclinic'
loop_
_space_group_symop_operation_xyz
x,y,z
-x,-y,-z
loop_
_atom_site_type_symbol
_atom_site_label
_atom_site_fract_x
_atom_site_fract_y
_atom_site_fract_z
Si Si1 0.393900 0.458628 0.631742
Si Si2 0.597403 0.367017 0.140151
Si Si3 0.973583 0.294513 0.872506
Si Si4 0.272045 0.247771 0.836265
Si Si5 0.724632 0.319397 0.634809
Si Si6 0.111237 0.775881 0.552382
Si Si7 0.920084 0.331923 0.183817
Si Si8 0.237813 0.069943 0.591001
O O1 0.500000 0.500000 0.500000
O O2 0.455376 0.603741 0.718906
O O3 0.418070 0.387113 0.758030
O O4 0.131305 0.326924 0.555727
O O5 0.812215 0.533665 0.127598
O O6 0.689819 0.290008 0.153594
O O7 0.403746 0.296495 0.999491
O O8 0.045910 0.207716 0.831494
O O9 0.770742 0.250962 0.754345
O O10 0.950576 0.303017 0.031963
O O11 0.240910 0.116128 0.751175
O O12 0.801278 0.295510 0.504451
O O13 0.466155 0.225148 0.575431
O O14 0.880517 0.493305 0.719559
O O15 0.088916 0.762597 0.711176
O O16 0.249151 0.947707 0.553756
O O17 0.000000 0.000000 0.500000
#
# Coordination Sequence:
#
# PCOD9091392 Si02
#       8
#     2   2   2   2   2   2   2   2
#     4  11  23  37  66 103 135 161 214 283 332 364
#     4  10  21  39  63  99 132 167 220 263 322 388
#     4  10  19  39  65  97 125 169 218 268 313 386
#     4  11  22  42  65  93 131 177 224 254 319 394
#     4  11  22  43  69  92 128 176 218 264 319 392
#     4  12  25  42  62 101 135 166 214 272 327 381
#     4  11  23  39  67 102 131 162 216 273 328 372
#     4  12  25  44  65  94 130 178 221 260 323 398
#
# _framework density 22.177727999999998
#
# number of rings (size 3 to 8) (size 9 to 14) (size 15 to 20)
#    0.000    1.000    5.000    5.250    5.250    0.000 
#    0.000    3.125    0.000    0.000    0.000    0.000 
#    0.000    0.000    0.000    0.000    0.000    0.000 
#
# Total GULP energy -89357.132987 kJ/mol
# GULP energy per Si atom -5584.820812 kJ/mol
# Density = 2.212725 g / cm^3
# Si number density = 22.177728 Si / 1000 Ang^3
#
#
#
# Elastic Constant Matrix: (Units=GPa)
#
#
# Indices 1 2 3 4 5 6 
#
# 1 55.0025 20.2445 19.6792 9.9229 -13.8653 5.6446
# 2 20.2445 25.4783 16.8825 1.1822 -0.2964 5.0291
# 3 19.6792 16.8825 125.5386 -12.2719 -23.8448 7.6596
# 4 9.9229 1.1822 -12.2719 17.3307 0.0469 1.7488
# 5 -13.8653 -0.2964 -23.8448 0.0469 52.5430 3.6574
# 6 5.6446 5.0291 7.6596 1.7488 3.6574 21.4160
#
#
#
# Elastic Compliance Matrix: (Units=1/GPa)
#
#
# Indices 1 2 3 4 5 6 
#
# 1 0.033226 -0.023489 -0.002279 -0.018833 0.007772 -0.002216
# 2 -0.023489 0.062115 -0.005211 0.006117 -0.007822 -0.005695
# 3 -0.002279 -0.005211 0.011105 0.009890 0.004661 -0.003751
# 4 -0.018833 0.006117 0.009890 0.075693 -0.000085 -0.006176
# 5 0.007772 -0.007822 0.004661 -0.000085 0.023564 -0.005896
# 6 -0.002216 -0.005695 -0.003751 -0.006176 -0.005896 0.051468
#
#
# Mechanical properties :
#
#
# Convention : Reuss Voigt Hill
#
# Bulk Modulus (GPa) = 22.47844 35.51466 28.99655
# Shear Modulus (GPa) = 14.97182 28.20548 21.58865
#
# Velocity S-wave (km/s) = 2.60106 3.57009 3.12338
# Velocity P-wave (km/s) = 4.37930 5.74826 5.10983
#
# Compressibility (1/GPa) = 0.04448707
#
# Stress axis : x y z
#
# Youngs Moduli (GPa) = 30.09669 16.09906 90.05213
#
# Poissons Ratio (x) = 0.37815 0.20526
# Poissons Ratio (y) = 0.70694 0.46930
# Poissons Ratio (z) = 0.06860 0.08390
#
# Static dielectric constant tensor:
#      x y z
#    x 1.903300 -0.041700 0.003750 
#    y -0.041700 1.855370 -0.006440 
#    z 0.003750 -0.006440 1.801730 
# 
# From -- ./inp_files/207835.got.cif
#   From: 2010.05.17/outbox.cif.g08.bks.cpg/sg2_104_cif.got.tgz:207835.got - 2010.06.03 11:33:40.
