data_PCOD9091350
_publ_section_title
;
Structure prediction by ZEFSAII (Michael W. Deem and Ramdas Pophale) SiO2 
 PCOD9091350
Probable space group: P -1
;
_chemical_formula_sum "Si O2"
_cell_formula_units_Z 14
_cell_length_a 9.593601
_cell_length_b 9.279992
_cell_length_c 16.412166
_cell_angle_alpha 110.183493
_cell_angle_beta 130.323094
_cell_angle_gamma 110.075494
_cell_volume 638.773841
_symmetry_space_group_name_H-M "P -1"
_symmetry_group_IT_number 2
_symmetry_cell_setting 'triclinic'
loop_
_space_group_symop_operation_xyz
x,y,z
-x,-y,-z
loop_
_atom_site_type_symbol
_atom_site_label
_atom_site_fract_x
_atom_site_fract_y
_atom_site_fract_z
Si Si1 0.965212 0.443218 0.265552
Si Si2 0.739210 0.975394 0.079723
Si Si3 0.171644 0.633888 0.205264
Si Si4 0.221448 0.745346 0.579400
Si Si5 0.687424 0.860595 0.324751
Si Si6 0.164379 0.888240 0.048593
Si Si7 0.181408 0.308859 0.972276
O O1 0.614051 0.245257 0.076688
O O2 0.167897 0.600576 0.293394
O O3 0.098823 0.644106 0.422610
O O4 0.936628 0.245430 0.243865
O O5 0.782423 0.034150 0.009760
O O6 0.824995 0.857659 0.107432
O O7 0.469133 0.776257 0.299100
O O8 0.059322 0.729755 0.161037
O O9 0.911909 0.344047 0.020880
O O10 0.000000 0.500000 0.500000
O O11 0.236747 0.930458 0.650778
O O12 0.542955 0.885798 0.744482
O O13 0.496627 0.608523 0.153207
O O14 0.000000 0.000000 0.500000
O O15 0.894281 0.777690 0.977662
#
# Coordination Sequence:
#
# PCOD9091350 Si02
#       7
#     2   2   2   2   2   2   2
#     4  10  23  39  60  91 130 170 205 253 321 363
#     4  10  21  38  63  91 126 167 211 255 301 380
#     4  10  21  42  66  90 129 169 204 259 311 377
#     4  12  22  40  65  91 125 167 206 263 313 369
#     4  11  23  40  66  99 125 161 214 261 312 366
#     4  10  19  39  65  92 121 167 214 250 307 372
#     4  11  20  40  68  95 119 166 217 255 306 374
#
# _framework density 21.916989999999998
#
# number of rings (size 3 to 8) (size 9 to 14) (size 15 to 20)
#    0.000    1.429    4.286    2.143    0.000    1.143 
#    0.000    2.143    0.000    0.000    0.000    0.000 
#    0.000    0.000    0.000    0.000    0.000    0.000 
#
# Total GULP energy -78134.912506 kJ/mol
# GULP energy per Si atom -5581.065179 kJ/mol
# Density = 2.186711 g / cm^3
# Si number density = 21.916990 Si / 1000 Ang^3
#
#
#
# Elastic Constant Matrix: (Units=GPa)
#
#
# Indices 1 2 3 4 5 6 
#
# 1 55.6118 41.7949 2.4764 6.9946 12.3235 -17.2353
# 2 41.7949 92.0290 20.3404 26.3485 16.4860 -13.9741
# 3 2.4764 20.3404 68.9608 13.9311 16.0734 -5.8389
# 4 6.9946 26.3485 13.9311 27.9324 1.2683 -1.5238
# 5 12.3235 16.4860 16.0734 1.2683 24.1213 2.0756
# 6 -17.2353 -13.9741 -5.8389 -1.5238 2.0756 46.2013
#
#
#
# Elastic Compliance Matrix: (Units=1/GPa)
#
#
# Indices 1 2 3 4 5 6 
#
# 1 0.033388 -0.013357 0.006136 0.002306 -0.012986 0.009850
# 2 -0.013357 0.024267 -0.000767 -0.018669 -0.008442 0.002023
# 3 0.006136 -0.000767 0.020810 -0.010170 -0.016380 0.005087
# 4 0.002306 -0.018669 -0.010170 0.056922 0.015787 -0.004904
# 5 -0.012986 -0.008442 -0.016380 0.015787 0.064968 -0.011866
# 6 0.009850 0.002023 0.005087 -0.004904 -0.011866 0.026945
#
#
# Mechanical properties :
#
#
# Convention : Reuss Voigt Hill
#
# Bulk Modulus (GPa) = 16.00352 38.42501 27.21427
# Shear Modulus (GPa) = 18.93177 29.78365 24.35771
#
# Velocity S-wave (km/s) = 2.94223 3.69037 3.33733
# Velocity P-wave (km/s) = 4.34281 5.97733 5.22439
#
# Compressibility (1/GPa) = 0.06248624
#
# Stress axis : x y z
#
# Youngs Moduli (GPa) = 29.95123 41.20866 48.05337
#
# Poissons Ratio (x) = 0.55044 -0.29484
# Poissons Ratio (y) = 0.40007 0.03688
# Poissons Ratio (z) = -0.18377 0.03163
#
# Static dielectric constant tensor:
#      x y z
#    x 1.864660 0.012700 -0.009900 
#    y 0.012700 1.848380 0.063330 
#    z -0.009900 0.063330 1.500770 
# 
# From -- ./inp_files/157594.got.cif
#   From: 2010.05.17/outbox.cif.g08.bks.cpg/sg2_79_cif.got.tgz:157594.got - 2010.06.03 11:33:40.
