data_PCOD9091842
_publ_section_title
;
Structure prediction by ZEFSAII (Michael W. Deem and Ramdas Pophale) SiO2 
 PCOD9091842
Probable space group: P -1
;
_chemical_formula_sum "Si O2"
_cell_formula_units_Z 16
_cell_length_a 8.593924
_cell_length_b 15.139278
_cell_length_c 11.826528
_cell_angle_alpha 55.530255
_cell_angle_beta 102.307543
_cell_angle_gamma 58.526611
_cell_volume 746.981818
_symmetry_space_group_name_H-M "P -1"
_symmetry_group_IT_number 2
_symmetry_cell_setting 'triclinic'
loop_
_space_group_symop_operation_xyz
x,y,z
-x,-y,-z
loop_
_atom_site_type_symbol
_atom_site_label
_atom_site_fract_x
_atom_site_fract_y
_atom_site_fract_z
Si Si1 0.601197 0.810765 0.582207
Si Si2 0.967792 0.832034 0.436202
Si Si3 0.593466 0.951766 0.834651
Si Si4 0.962405 0.966577 0.670465
Si Si5 0.061772 0.694597 0.788378
Si Si6 0.458526 0.606067 0.515751
Si Si7 0.812228 0.043133 0.850537
Si Si8 0.880327 0.444014 0.878400
O O1 0.501192 0.920532 0.374307
O O2 0.339445 0.889052 0.524873
O O3 0.756765 0.818669 0.668681
O O4 0.821717 0.601412 0.746985
O O5 0.944832 0.963842 0.389557
O O6 0.069426 0.699670 0.649709
O O7 0.190376 0.720915 0.456586
O O8 0.683532 0.956267 0.248842
O O9 0.716982 0.975407 0.919711
O O10 0.824927 0.748841 0.974409
O O11 0.957621 0.956272 0.813892
O O12 0.118467 0.783317 0.777110
O O13 0.194645 0.548575 0.009379
O O14 0.500000 0.500000 0.500000
O O15 0.422886 0.745632 0.360939
O O16 0.688130 0.486955 0.730341
O O17 0.000000 0.000000 0.000000
#
# Coordination Sequence:
#
# PCOD9091842 Si02
#       8
#     2   2   2   2   2   2   2   2
#     4  10  20  39  62  92 135 177 221 255 311 396
#     4  10  23  42  64  98 139 169 209 278 327 377
#     4  10  21  40  69  95 132 169 221 264 324 382
#     4  10  19  40  61  95 131 173 214 261 326 382
#     4  11  22  36  67  95 138 174 214 265 324 393
#     4  11  24  44  69  93 129 170 223 275 323 388
#     4  10  19  40  69  91 123 173 220 263 312 391
#     4  12  21  40  68 100 126 179 221 256 326 398
#
# _framework density 21.419530999999999
#
# number of rings (size 3 to 8) (size 9 to 14) (size 15 to 20)
#    0.000    1.500    6.250    1.875    1.750    0.500 
#    0.000    8.750    0.000    0.000    0.000    0.000 
#    0.000    0.000    0.000    0.000    0.000    0.000 
#
# Total GULP energy -89165.661814 kJ/mol
# GULP energy per Si atom -5572.853863 kJ/mol
# Density = 2.137078 g / cm^3
# Si number density = 21.419531 Si / 1000 Ang^3
#
#
#
# Elastic Constant Matrix: (Units=GPa)
#
#
# Indices 1 2 3 4 5 6 
#
# 1 88.0694 18.3615 17.9557 3.0654 18.0865 5.1575
# 2 18.3615 67.2216 4.7305 -1.0894 4.6275 -0.7890
# 3 17.9557 4.7305 76.6882 -1.0815 1.3076 -6.9584
# 4 3.0654 -1.0894 -1.0815 38.0303 12.7714 5.4211
# 5 18.0865 4.6275 1.3076 12.7714 28.3985 -1.4084
# 6 5.1575 -0.7890 -6.9584 5.4211 -1.4084 21.6901
#
#
#
# Elastic Compliance Matrix: (Units=1/GPa)
#
#
# Indices 1 2 3 4 5 6 
#
# 1 0.015251 -0.003190 -0.003729 0.003090 -0.010729 -0.006408
# 2 -0.003190 0.015842 -0.000110 0.000856 -0.000879 0.001028
# 3 -0.003729 -0.000110 0.014400 -0.000958 0.002453 0.005901
# 4 0.003090 0.000856 -0.000958 0.033465 -0.017635 -0.010520
# 5 -0.010729 -0.000879 0.002453 -0.017635 0.050553 0.010996
# 6 -0.006408 0.001028 0.005901 -0.010520 0.010996 0.052901
#
#
# Mechanical properties :
#
#
# Convention : Reuss Voigt Hill
#
# Bulk Modulus (GPa) = 31.81186 34.89719 33.35453
# Shear Modulus (GPa) = 24.16074 30.35254 27.25664
#
# Velocity S-wave (km/s) = 3.36218 3.76846 3.57110
# Velocity P-wave (km/s) = 5.47324 5.93823 5.71047
#
# Compressibility (1/GPa) = 0.03143481
#
# Stress axis : x y z
#
# Youngs Moduli (GPa) = 65.56911 63.12461 69.44540
#
# Poissons Ratio (x) = 0.20136 0.25896
# Poissons Ratio (y) = 0.20916 0.00763
# Poissons Ratio (z) = 0.24451 0.00694
#
# Static dielectric constant tensor:
#      x y z
#    x 1.849530 0.022100 0.004750 
#    y 0.022100 1.810940 0.005130 
#    z 0.004750 0.005130 1.855290 
# 
# From -- ./inp_files/398805.got.cif
#   From: 2010.05.17/outbox.cif.g08.bks.cpg/sg2_200_cif.got.tgz:398805.got - 2010.06.03 11:33:40.
