data_PCOD9091056
_publ_section_title
;
Structure prediction by ZEFSAII (Michael W. Deem and Ramdas Pophale) SiO2 
 PCOD9091056
Probable space group: P -1
;
_chemical_formula_sum "Si O2"
_cell_formula_units_Z 16
_cell_length_a 12.196989
_cell_length_b 11.344201
_cell_length_c 9.135381
_cell_angle_alpha 69.760333
_cell_angle_beta 52.749287
_cell_angle_gamma 57.428807
_cell_volume 847.526819
_symmetry_space_group_name_H-M "P -1"
_symmetry_group_IT_number 2
_symmetry_cell_setting 'triclinic'
loop_
_space_group_symop_operation_xyz
x,y,z
-x,-y,-z
loop_
_atom_site_type_symbol
_atom_site_label
_atom_site_fract_x
_atom_site_fract_y
_atom_site_fract_z
Si Si1 0.952868 0.813523 0.582831
Si Si2 0.514602 0.619003 0.841600
Si Si3 0.135415 0.515947 0.469803
Si Si4 0.202401 0.884443 0.477557
Si Si5 0.606357 0.126290 0.956079
Si Si6 0.834967 0.538589 0.184522
Si Si7 0.634419 0.381679 0.348906
Si Si8 0.297193 0.188132 0.004449
O O1 0.844767 0.767123 0.786737
O O2 0.075823 0.683758 0.449941
O O3 0.049574 0.862995 0.592302
O O4 0.846754 0.952761 0.518116
O O5 0.696640 0.570724 0.696539
O O6 0.434504 0.622522 0.750605
O O7 0.500000 0.500000 0.000000
O O8 0.428932 0.766241 0.930060
O O9 0.152592 0.471990 0.645711
O O10 0.000000 0.500000 0.500000
O O11 0.284534 0.859212 0.263647
O O12 0.308395 0.767922 0.554415
O O13 0.675330 0.963233 0.014205
O O14 0.445907 0.164376 0.987900
O O15 0.767709 0.433815 0.223493
O O16 0.730606 0.695021 0.144107
O O17 0.000000 0.500000 0.000000
O O18 0.500000 0.500000 0.500000
#
# Coordination Sequence:
#
# PCOD9091056 Si02
#       8
#     2   2   2   2   2   2   2   2
#     4  10  19  39  63  86 118 156 206 244 303 362
#     4  12  25  40  63  93 128 160 205 260 309 362
#     4  12  25  41  60  92 125 162 204 254 310 362
#     4  10  20  38  66  87 115 160 204 254 297 365
#     4  10  22  39  63  89 123 160 201 252 308 364
#     4  12  23  40  66  90 121 162 210 252 299 372
#     4  12  22  40  64  93 122 162 210 255 307 362
#     4  10  20  39  65  88 118 163 205 245 306 369
#
# _framework density 18.878457999999998
#
# number of rings (size 3 to 8) (size 9 to 14) (size 15 to 20)
#    0.000    1.000    3.750    3.750    1.750    0.000 
#    2.250    0.625    0.000    3.750    0.000    0.000 
#    0.000    0.000    0.000    0.000    0.000    0.000 
#
# Total GULP energy -89356.515017 kJ/mol
# GULP energy per Si atom -5584.782189 kJ/mol
# Density = 1.883549 g / cm^3
# Si number density = 18.878458 Si / 1000 Ang^3
#
#
#
# Elastic Constant Matrix: (Units=GPa)
#
#
# Indices 1 2 3 4 5 6 
#
# 1 98.3129 30.4650 33.4461 -10.8350 10.3652 -0.7910
# 2 30.4650 141.1535 28.0156 -19.2799 33.4589 -7.9270
# 3 33.4461 28.0156 76.0696 -1.2486 -5.4132 -2.5139
# 4 -10.8350 -19.2799 -1.2486 30.5970 -1.8599 4.2514
# 5 10.3652 33.4589 -5.4132 -1.8599 36.7960 0.6299
# 6 -0.7910 -7.9270 -2.5139 4.2514 0.6299 30.0755
#
#
#
# Elastic Compliance Matrix: (Units=1/GPa)
#
#
# Indices 1 2 3 4 5 6 
#
# 1 0.013151 -0.000101 -0.006003 0.004184 -0.004273 -0.000684
# 2 -0.000101 0.011624 -0.004850 0.006143 -0.010978 0.002017
# 3 -0.006003 -0.004850 0.018130 -0.003986 0.008559 0.000463
# 4 0.004184 0.006143 -0.003986 0.038085 -0.005359 -0.003876
# 5 -0.004273 -0.010978 0.008559 -0.005359 0.039392 -0.002358
# 6 -0.000684 0.002017 0.000463 -0.003876 -0.002358 0.034399
#
#
# Mechanical properties :
#
#
# Convention : Reuss Voigt Hill
#
# Bulk Modulus (GPa) = 47.62662 55.48772 51.55717
# Shear Modulus (GPa) = 27.21988 34.40099 30.81043
#
# Velocity S-wave (km/s) = 3.80129 4.27340 4.04424
# Velocity P-wave (km/s) = 6.67452 7.33520 7.01264
#
# Compressibility (1/GPa) = 0.02099666
#
# Stress axis : x y z
#
# Youngs Moduli (GPa) = 76.03850 86.03174 55.15589
#
# Poissons Ratio (x) = 0.00871 0.33110
# Poissons Ratio (y) = 0.00769 0.26751
# Poissons Ratio (z) = 0.45646 0.41726
#
# Static dielectric constant tensor:
#      x y z
#    x 1.302980 0.029230 0.082270 
#    y 0.029230 1.697250 -0.000920 
#    z 0.082270 -0.000920 1.613720 
# 
# From -- ./inp_files/185074.got.cif
#   From: 2010.05.17/outbox.cif.g08.bks.cpg/sg2_93_cif.got.tgz:185074.got - 2010.06.03 11:33:40.
