data_PCOD9091857
_publ_section_title
;
Structure prediction by ZEFSAII (Michael W. Deem and Ramdas Pophale) SiO2 
 PCOD9091857
Probable space group: P -1
;
_chemical_formula_sum "Si O2"
_cell_formula_units_Z 16
_cell_length_a 9.546655
_cell_length_b 22.185446
_cell_length_c 9.754393
_cell_angle_alpha 43.789412
_cell_angle_beta 132.282418
_cell_angle_gamma 144.223244
_cell_volume 816.210700
_symmetry_space_group_name_H-M "P -1"
_symmetry_group_IT_number 2
_symmetry_cell_setting 'triclinic'
loop_
_space_group_symop_operation_xyz
x,y,z
-x,-y,-z
loop_
_atom_site_type_symbol
_atom_site_label
_atom_site_fract_x
_atom_site_fract_y
_atom_site_fract_z
Si Si1 0.073789 0.674250 0.145407
Si Si2 0.569634 0.366791 0.625610
Si Si3 0.107741 0.120334 0.674157
Si Si4 0.438742 0.480832 0.831181
Si Si5 0.409846 0.053808 0.258731
Si Si6 0.067194 0.739396 0.733083
Si Si7 0.210876 0.492508 0.186722
Si Si8 0.451349 0.072681 0.932035
O O1 0.192173 0.614683 0.301336
O O2 0.297766 0.800866 0.125016
O O3 0.853734 0.615958 0.202093
O O4 0.997353 0.680264 0.931709
O O5 0.346512 0.232690 0.724743
O O6 0.500934 0.412049 0.383820
O O7 0.651046 0.442981 0.688611
O O8 0.232597 0.077092 0.744210
O O9 0.998114 0.177102 0.442866
O O10 0.870912 0.011644 0.774680
O O11 0.587965 0.452555 0.891926
O O12 0.500000 0.500000 0.000000
O O13 0.638475 0.186855 0.211466
O O14 0.500000 0.000000 0.500000
O O15 0.410394 0.037230 0.123507
O O16 0.925819 0.641677 0.686059
O O17 0.000000 0.500000 0.000000
O O18 0.500000 0.000000 0.000000
#
# Coordination Sequence:
#
# PCOD9091857 Si02
#       8
#     2   2   2   2   2   2   2   2
#     4  10  21  40  61  84 124 164 196 242 311 365
#     4  11  22  38  63  92 123 160 204 255 298 354
#     4  10  20  38  67  86 117 162 203 244 311 355
#     4  12  22  38  61  88 125 165 200 241 305 372
#     4   9  20  39  65  85 117 162 201 243 304 367
#     4  10  19  40  62  87 124 158 203 244 305 352
#     4  12  23  39  60  91 128 158 206 255 292 355
#     4  10  22  40  60  90 121 148 200 260 297 356
#
# _framework density 19.602782000000001
#
# number of rings (size 3 to 8) (size 9 to 14) (size 15 to 20)
#    0.000    1.500    3.750    1.125    0.000    1.000 
#    4.500    5.625    0.000    0.000    0.000    0.000 
#    0.000    0.000    0.000    0.000    0.000    0.000 
#
# Total GULP energy -89111.032867 kJ/mol
# GULP energy per Si atom -5569.439554 kJ/mol
# Density = 1.955816 g / cm^3
# Si number density = 19.602782 Si / 1000 Ang^3
#
#
#
# Elastic Constant Matrix: (Units=GPa)
#
#
# Indices 1 2 3 4 5 6 
#
# 1 168.0035 72.7780 39.1997 -7.8743 8.9356 17.6697
# 2 72.7780 100.2763 14.7000 -8.0233 -11.5047 15.6820
# 3 39.1997 14.7000 73.1955 6.7099 15.3140 -0.3896
# 4 -7.8743 -8.0233 6.7099 25.2845 6.6775 -4.1127
# 5 8.9356 -11.5047 15.3140 6.6775 34.2743 -6.6658
# 6 17.6697 15.6820 -0.3896 -4.1127 -6.6658 44.5232
#
#
#
# Elastic Compliance Matrix: (Units=1/GPa)
#
#
# Indices 1 2 3 4 5 6 
#
# 1 0.010377 -0.006978 -0.003493 0.002774 -0.004435 -0.002099
# 2 -0.006978 0.016427 -0.001202 0.001135 0.007293 -0.001830
# 3 -0.003493 -0.001202 0.017504 -0.004338 -0.006349 0.000612
# 4 0.002774 0.001135 -0.004338 0.043934 -0.006668 0.001521
# 5 -0.004435 0.007293 -0.006349 -0.006668 0.037727 0.004168
# 6 -0.002099 -0.001830 0.000612 0.001521 0.004168 0.024708
#
#
# Mechanical properties :
#
#
# Convention : Reuss Voigt Hill
#
# Bulk Modulus (GPa) = 47.70697 66.09229 56.89963
# Shear Modulus (GPa) = 27.62304 35.13623 31.37964
#
# Velocity S-wave (km/s) = 3.75792 4.23828 4.00531
# Velocity P-wave (km/s) = 6.57411 7.59866 7.10488
#
# Compressibility (1/GPa) = 0.02096130
#
# Stress axis : x y z
#
# Youngs Moduli (GPa) = 96.36940 60.87690 57.13115
#
# Poissons Ratio (x) = 0.42478 0.19958
# Poissons Ratio (y) = 0.67244 0.06865
# Poissons Ratio (z) = 0.33666 0.07315
#
# Static dielectric constant tensor:
#      x y z
#    x 1.712370 0.049570 0.050980 
#    y 0.049570 1.777910 0.009270 
#    z 0.050980 0.009270 1.727920 
# 
# From -- ./inp_files/223260.got.cif
#   From: 2010.05.17/outbox.cif.g08.bks.cpg/sg2_112_cif.got.tgz:223260.got - 2010.06.03 11:33:40.
