data_PCOD9091581
_publ_section_title
;
Structure prediction by ZEFSAII (Michael W. Deem and Ramdas Pophale) SiO2 
 PCOD9091581
Probable space group: P -1
;
_chemical_formula_sum "Si O2"
_cell_formula_units_Z 16
_cell_length_a 10.902514
_cell_length_b 16.532433
_cell_length_c 7.610462
_cell_angle_alpha 54.140365
_cell_angle_beta 59.007442
_cell_angle_gamma 39.338193
_cell_volume 699.600969
_symmetry_space_group_name_H-M "P -1"
_symmetry_group_IT_number 2
_symmetry_cell_setting 'triclinic'
loop_
_space_group_symop_operation_xyz
x,y,z
-x,-y,-z
loop_
_atom_site_type_symbol
_atom_site_label
_atom_site_fract_x
_atom_site_fract_y
_atom_site_fract_z
Si Si1 0.411170 0.806117 0.296800
Si Si2 0.121164 0.706086 0.280936
Si Si3 0.474339 0.423414 0.980553
Si Si4 0.449201 0.932769 0.445779
Si Si5 0.698320 0.366078 0.423351
Si Si6 0.826706 0.548474 0.370306
Si Si7 0.762767 0.653050 0.658490
Si Si8 0.287846 0.015763 0.832727
O O1 0.407017 0.879873 0.378683
O O2 0.328971 0.734364 0.491342
O O3 0.635196 0.671259 0.251268
O O4 0.308845 0.908974 0.077694
O O5 0.308102 0.685576 0.120276
O O6 0.118085 0.717072 0.479828
O O7 0.181668 0.560553 0.405352
O O8 0.923153 0.832420 0.174159
O O9 0.299066 0.551543 0.830320
O O10 0.500000 0.500000 0.000000
O O11 0.397765 0.355204 0.187652
O O12 0.648446 0.808448 0.563325
O O13 0.523962 0.004398 0.230665
O O14 0.299979 0.993486 0.640512
O O15 0.500000 0.500000 0.500000
O O16 0.821355 0.622547 0.448960
O O17 0.038288 0.454467 0.247433
#
# Coordination Sequence:
#
# PCOD9091581 Si02
#       8
#     2   2   2   2   2   2   2   2
#     4  11  22  44  71  94 135 179 220 281 340 394
#     4  11  22  43  64  91 140 172 214 276 332 395
#     4  11  20  38  65 100 128 166 215 279 336 393
#     4  10  23  44  66  96 137 176 228 280 326 406
#     4  10  22  40  63  94 133 169 216 274 336 394
#     4  10  19  39  67  97 127 169 218 282 336 387
#     4  10  20  36  67  99 128 165 226 276 334 397
#     4  11  25  44  67  96 136 185 224 269 340 402
#
# _framework density 22.870179
#
# number of rings (size 3 to 8) (size 9 to 14) (size 15 to 20)
#    0.000    1.500    5.000    1.125    3.500    0.500 
#    6.750    1.875    0.000    0.000    0.000    0.000 
#    0.000    0.000    0.000    0.000    0.000    0.000 
#
# Total GULP energy -89094.354559 kJ/mol
# GULP energy per Si atom -5568.397160 kJ/mol
# Density = 2.281813 g / cm^3
# Si number density = 22.870179 Si / 1000 Ang^3
#
#
#
# Elastic Constant Matrix: (Units=GPa)
#
#
# Indices 1 2 3 4 5 6 
#
# 1 59.7510 10.3554 9.1431 -1.0292 -2.5589 6.5100
# 2 10.3554 74.9778 19.5945 -17.5710 8.2108 -8.6317
# 3 9.1431 19.5945 65.4209 -12.6564 -3.5797 -10.6500
# 4 -1.0292 -17.5710 -12.6564 26.7798 -5.6612 5.9812
# 5 -2.5589 8.2108 -3.5797 -5.6612 34.5003 -7.3535
# 6 6.5100 -8.6317 -10.6500 5.9812 -7.3535 40.5736
#
#
#
# Elastic Compliance Matrix: (Units=1/GPa)
#
#
# Indices 1 2 3 4 5 6 
#
# 1 0.018005 -0.002623 -0.002554 -0.001242 0.000679 -0.003811
# 2 -0.002623 0.016992 -0.002947 0.008736 -0.002798 0.001467
# 3 -0.002554 -0.002947 0.018833 0.006816 0.004554 0.004547
# 4 -0.001242 0.008736 0.006816 0.047985 0.005952 -0.002148
# 5 0.000679 -0.002798 0.004554 0.005952 0.032317 0.005471
# 6 -0.003811 0.001467 0.004547 -0.002148 0.005471 0.028072
#
#
# Mechanical properties :
#
#
# Convention : Reuss Voigt Hill
#
# Bulk Modulus (GPa) = 26.60872 30.92620 28.76746
# Shear Modulus (GPa) = 26.18074 31.10786 28.64430
#
# Velocity S-wave (km/s) = 3.38709 3.69208 3.54287
# Velocity P-wave (km/s) = 5.19196 5.63268 5.41681
#
# Compressibility (1/GPa) = 0.03758167
#
# Stress axis : x y z
#
# Youngs Moduli (GPa) = 55.54162 58.84964 53.09755
#
# Poissons Ratio (x) = 0.15438 0.13562
# Poissons Ratio (y) = 0.14570 0.15648
# Poissons Ratio (z) = 0.14186 0.17343
#
# Static dielectric constant tensor:
#      x y z
#    x 1.938920 -0.030270 0.125340 
#    y -0.030270 1.954880 -0.032270 
#    z 0.125340 -0.032270 2.142110 
# 
# From -- ./inp_files/276208.got.cif
#   From: 2010.05.17/outbox.cif.g08.bks.cpg/sg2_139_cif.got.tgz:276208.got - 2010.06.03 11:33:40.
