data_PCOD9091817
_publ_section_title
;
Structure prediction by ZEFSAII (Michael W. Deem and Ramdas Pophale) SiO2 
 PCOD9091817
Probable space group: P -1
;
_chemical_formula_sum "Si O2"
_cell_formula_units_Z 16
_cell_length_a 6.166711
_cell_length_b 20.245467
_cell_length_c 18.193827
_cell_angle_alpha 20.607970
_cell_angle_beta 103.449225
_cell_angle_gamma 111.275315
_cell_volume 704.205912
_symmetry_space_group_name_H-M "P -1"
_symmetry_group_IT_number 2
_symmetry_cell_setting 'triclinic'
loop_
_space_group_symop_operation_xyz
x,y,z
-x,-y,-z
loop_
_atom_site_type_symbol
_atom_site_label
_atom_site_fract_x
_atom_site_fract_y
_atom_site_fract_z
Si Si1 0.657021 0.371071 0.468352
Si Si2 0.443513 0.203538 0.784341
Si Si3 0.568917 0.114826 0.591917
Si Si4 0.767927 0.664116 0.930942
Si Si5 0.056346 0.411409 0.237836
Si Si6 0.406901 0.301799 0.961132
Si Si7 0.715748 0.775454 0.658749
Si Si8 0.879398 0.579731 0.473314
O O1 0.512771 0.292056 0.614678
O O2 0.514146 0.229702 0.536163
O O3 0.700304 0.601935 0.209831
O O4 0.919534 0.361877 0.508199
O O5 0.629476 0.372088 0.680471
O O6 0.190483 0.230370 0.749097
O O7 0.500000 0.000000 0.000000
O O8 0.374885 0.080728 0.546118
O O9 0.835084 0.270402 0.419939
O O10 0.575922 0.908463 0.836523
O O11 0.753164 0.738007 0.935010
O O12 0.519767 0.450268 0.127594
O O13 0.982631 0.589259 0.016177
O O14 0.773611 0.814637 0.708470
O O15 0.316883 0.529328 0.175246
O O16 0.081742 0.268184 0.324701
O O17 0.000000 0.500000 0.500000
#
# Coordination Sequence:
#
# PCOD9091817 Si02
#       8
#     2   2   2   2   2   2   2   2
#     4  11  23  43  61  93 135 162 208 264 311 386
#     4  10  23  43  70 101 126 165 211 255 317 389
#     4  11  24  40  61  93 128 172 214 264 322 381
#     4   9  18  36  61  87 123 169 215 279 323 369
#     4  10  19  40  61  85 128 164 221 267 324 381
#     4  11  24  41  61  92 130 170 215 266 320 380
#     4   9  18  36  60  89 124 164 222 273 321 379
#     4   9  22  42  67  93 131 163 201 258 310 380
#
# _framework density 22.720624999999998
#
# number of rings (size 3 to 8) (size 9 to 14) (size 15 to 20)
#    0.000    2.000    3.750    0.375    1.750    8.500 
#    0.000    1.250    0.000    0.000    0.000    0.000 
#    0.000    0.000    0.000    0.000    0.000    0.000 
#
# Total GULP energy -89304.428522 kJ/mol
# GULP energy per Si atom -5581.526783 kJ/mol
# Density = 2.266891 g / cm^3
# Si number density = 22.720625 Si / 1000 Ang^3
#
#
#
# Elastic Constant Matrix: (Units=GPa)
#
#
# Indices 1 2 3 4 5 6 
#
# 1 75.2595 18.8547 26.9272 7.1921 25.3104 -6.9695
# 2 18.8547 39.8882 34.9354 9.4720 -1.1177 0.0581
# 3 26.9272 34.9354 143.5446 -2.1877 30.8654 -7.1720
# 4 7.1921 9.4720 -2.1877 34.1412 -2.7009 1.7906
# 5 25.3104 -1.1177 30.8654 -2.7009 37.5225 6.7136
# 6 -6.9695 0.0581 -7.1720 1.7906 6.7136 20.2386
#
#
#
# Elastic Compliance Matrix: (Units=1/GPa)
#
#
# Indices 1 2 3 4 5 6 
#
# 1 0.027758 -0.018950 0.006670 -0.003601 -0.028952 0.021899
# 2 -0.018950 0.051862 -0.017193 -0.007779 0.031969 -0.022684
# 3 0.006670 -0.017193 0.014830 0.002039 -0.019551 0.013906
# 4 -0.003601 -0.007779 0.002039 0.032875 0.003716 -0.004636
# 5 -0.028952 0.031969 -0.019551 0.003716 0.070782 -0.040799
# 6 0.021899 -0.022684 0.013906 -0.004636 -0.040799 0.075889
#
#
# Mechanical properties :
#
#
# Convention : Reuss Voigt Hill
#
# Bulk Modulus (GPa) = 28.16757 46.68077 37.42417
# Shear Modulus (GPa) = 14.50215 30.24548 22.37381
#
# Velocity S-wave (km/s) = 2.52916 3.65251 3.14145
# Velocity P-wave (km/s) = 4.57746 6.19499 5.44661
#
# Compressibility (1/GPa) = 0.03550182
#
# Stress axis : x y z
#
# Youngs Moduli (GPa) = 36.02625 19.28190 67.43278
#
# Poissons Ratio (x) = 0.36539 -0.44975
# Poissons Ratio (y) = 0.68270 1.15939
# Poissons Ratio (z) = -0.24028 0.33152
#
# Static dielectric constant tensor:
#      x y z
#    x 1.930210 0.033610 0.008060 
#    y 0.033610 1.888470 0.001240 
#    z 0.008060 0.001240 1.857230 
# 
# From -- ./inp_files/550975.got.cif
#   From: 2010.05.17/outbox.cif.g08.bks.cpg/sg2_276_cif.got.tgz:550975.got - 2010.06.03 11:33:40.
