data_PCOD9091278
_publ_section_title
;
Structure prediction by ZEFSAII (Michael W. Deem and Ramdas Pophale) SiO2 
 PCOD9091278
Probable space group: P -1
;
_chemical_formula_sum "Si O2"
_cell_formula_units_Z 12
_cell_length_a 8.824697
_cell_length_b 7.794500
_cell_length_c 9.094852
_cell_angle_alpha 86.907099
_cell_angle_beta 112.920094
_cell_angle_gamma 130.753378
_cell_volume 418.111353
_symmetry_space_group_name_H-M "P -1"
_symmetry_group_IT_number 2
_symmetry_cell_setting 'triclinic'
loop_
_space_group_symop_operation_xyz
x,y,z
-x,-y,-z
loop_
_atom_site_type_symbol
_atom_site_label
_atom_site_fract_x
_atom_site_fract_y
_atom_site_fract_z
Si Si1 0.031827 0.679859 0.389687
Si Si2 0.446963 0.995223 0.812905
Si Si3 0.534700 0.815209 0.598048
Si Si4 0.253263 0.301241 0.111731
Si Si5 0.752765 0.806224 0.213926
Si Si6 0.159279 0.537473 0.226594
O O1 0.975164 0.532674 0.225376
O O2 0.000000 0.500000 0.500000
O O3 0.892759 0.755504 0.349436
O O4 0.290339 0.933347 0.436539
O O5 0.247587 0.997837 0.734276
O O6 0.675840 0.237206 0.823286
O O7 0.432430 0.818977 0.711164
O O8 0.500000 0.000000 0.000000
O O9 0.691071 0.779904 0.725721
O O10 0.335536 0.610679 0.422657
O O11 0.492082 0.564434 0.150823
O O12 0.087579 0.326231 0.112892
O O13 0.189840 0.169598 0.939180
#
# Coordination Sequence:
#
# PCOD9091278 Si02
#       6
#     2   2   2   2   2   2
#     4  11  24  43  64  97 137 172 220 278 327 381
#     4  10  19  39  64  96 125 166 218 263 324 389
#     4  11  22  43  70  96 133 176 219 269 331 397
#     4  10  21  42  67  96 130 175 221 264 330 398
#     4  10  22  40  68  98 132 168 220 276 326 389
#     4  10  23  42  64  96 132 179 217 263 329 398
#
# _framework density 28.700488
#
# number of rings (size 3 to 8) (size 9 to 14) (size 15 to 20)
#    0.000    1.667    1.667    3.500    0.000    2.667 
#    0.000   17.500    0.000    0.000    0.000    0.000 
#    0.000    0.000    0.000    0.000    0.000    0.000 
#
# Total GULP energy -67170.506872 kJ/mol
# GULP energy per Si atom -5597.542239 kJ/mol
# Density = 2.863516 g / cm^3
# Si number density = 28.700488 Si / 1000 Ang^3
#
#
#
# Elastic Constant Matrix: (Units=GPa)
#
#
# Indices 1 2 3 4 5 6 
#
# 1 186.2632 24.4329 43.4885 3.3166 -14.1710 -28.7529
# 2 24.4329 68.5355 28.5440 5.0356 -2.8062 -1.2499
# 3 43.4885 28.5440 174.5253 -29.5212 -11.5702 -10.5554
# 4 3.3166 5.0356 -29.5212 49.5724 3.5309 3.0528
# 5 -14.1710 -2.8062 -11.5702 3.5309 56.9374 -2.2395
# 6 -28.7529 -1.2499 -10.5554 3.0528 -2.2395 48.7982
#
#
#
# Elastic Compliance Matrix: (Units=1/GPa)
#
#
# Indices 1 2 3 4 5 6 
#
# 1 0.006594 -0.001579 -0.001293 -0.001389 0.001533 0.003722
# 2 -0.001579 0.016597 -0.002931 -0.003268 -0.000005 -0.000935
# 3 -0.001293 -0.002931 0.007410 0.004711 0.000767 0.000506
# 4 -0.001389 -0.003268 0.004711 0.023565 -0.001066 -0.001406
# 5 0.001533 -0.000005 0.000767 -0.001066 0.018244 0.001973
# 6 0.003722 -0.000935 0.000506 -0.001406 0.001973 0.022950
#
#
# Mechanical properties :
#
#
# Convention : Reuss Voigt Hill
#
# Bulk Modulus (GPa) = 52.64561 69.13942 60.89252
# Shear Modulus (GPa) = 44.13144 53.25216 48.69180
#
# Velocity S-wave (km/s) = 3.92555 4.31216 4.12339
# Velocity P-wave (km/s) = 6.23935 6.99537 6.62815
#
# Compressibility (1/GPa) = 0.01899494
#
# Stress axis : x y z
#
# Youngs Moduli (GPa) = 151.65810 60.25026 134.95901
#
# Poissons Ratio (x) = 0.09516 0.17449
# Poissons Ratio (y) = 0.23954 0.39551
# Poissons Ratio (z) = 0.19608 0.17657
#
# Static dielectric constant tensor:
#      x y z
#    x 2.299180 0.017820 0.049030 
#    y 0.017820 2.307020 0.039250 
#    z 0.049030 0.039250 2.298210 
# 
# From -- ./inp_files/158799.got.cif
#   From: 2010.05.17/outbox.cif.g08.bks.cpg/sg2_80_cif.got.tgz:158799.got - 2010.06.03 11:33:40.
