data_PCOD9091523
_publ_section_title
;
Structure prediction by ZEFSAII (Michael W. Deem and Ramdas Pophale) SiO2 
 PCOD9091523
Probable space group: P -1
;
_chemical_formula_sum "Si O2"
_cell_formula_units_Z 14
_cell_length_a 9.145558
_cell_length_b 17.528779
_cell_length_c 5.251800
_cell_angle_alpha 115.501719
_cell_angle_beta 104.581151
_cell_angle_gamma 43.787036
_cell_volume 523.473795
_symmetry_space_group_name_H-M "P -1"
_symmetry_group_IT_number 2
_symmetry_cell_setting 'triclinic'
loop_
_space_group_symop_operation_xyz
x,y,z
-x,-y,-z
loop_
_atom_site_type_symbol
_atom_site_label
_atom_site_fract_x
_atom_site_fract_y
_atom_site_fract_z
Si Si1 0.339953 0.606400 0.892207
Si Si2 0.729265 0.918276 0.359865
Si Si3 0.286061 0.464940 0.372157
Si Si4 0.719787 0.103022 0.808552
Si Si5 0.943207 0.703988 0.431021
Si Si6 0.568411 0.761585 0.628592
Si Si7 0.996687 0.155372 0.032143
O O1 0.232828 0.564829 0.672880
O O2 0.490758 0.599374 0.754727
O O3 0.500000 0.500000 0.000000
O O4 0.164737 0.739989 0.102507
O O5 0.825172 0.787329 0.252332
O O6 0.769149 0.927969 0.099213
O O7 0.500000 0.000000 0.500000
O O8 0.809951 0.973697 0.611314
O O9 0.317419 0.369781 0.413687
O O10 0.093962 0.563820 0.237360
O O11 0.581462 0.184019 0.612735
O O12 0.903404 0.099500 0.930891
O O13 0.572291 0.159677 0.074993
O O14 0.758130 0.747391 0.602119
O O15 0.033934 0.760225 0.647862
#
# Coordination Sequence:
#
# PCOD9091523 Si02
#       7
#     2   2   2   2   2   2   2
#     4  10  19  39  67 104 146 184 236 305 366 433
#     4  12  26  48  72 104 147 199 247 311 367 440
#     4  10  22  40  70 106 143 191 240 302 365 442
#     4  12  28  47  80 106 151 196 252 303 368 436
#     4  11  26  45  74 105 151 195 248 299 379 435
#     4  12  26  50  73 114 150 199 240 306 371 443
#     4  11  25  44  71 111 137 198 245 308 363 441
#
# _framework density 26.744413999999999
#
# number of rings (size 3 to 8) (size 9 to 14) (size 15 to 20)
#    0.000    0.857    2.857    3.429    4.000    1.714 
#    0.000    1.429    0.000    0.000    0.000    0.000 
#    0.000    0.000    0.000    0.000    0.000    0.000 
#
# Total GULP energy -78165.738559 kJ/mol
# GULP energy per Si atom -5583.267040 kJ/mol
# Density = 2.668354 g / cm^3
# Si number density = 26.744414 Si / 1000 Ang^3
#
#
#
# Elastic Constant Matrix: (Units=GPa)
#
#
# Indices 1 2 3 4 5 6 
#
# 1 165.9569 50.1679 34.9015 -0.7961 -12.3840 22.2898
# 2 50.1679 177.3015 22.5492 16.5461 -5.0219 51.7877
# 3 34.9015 22.5492 79.5864 -3.7562 -13.9451 11.1500
# 4 -0.7961 16.5461 -3.7562 31.4102 1.9529 3.2618
# 5 -12.3840 -5.0219 -13.9451 1.9529 47.3683 6.9461
# 6 22.2898 51.7877 11.1500 3.2618 6.9461 49.3455
#
#
#
# Elastic Compliance Matrix: (Units=1/GPa)
#
#
# Indices 1 2 3 4 5 6 
#
# 1 0.007221 -0.001314 -0.002318 0.000683 0.001270 -0.001583
# 2 -0.001314 0.009103 -0.000630 -0.004107 0.001898 -0.008814
# 3 -0.002318 -0.000630 0.014881 0.002050 0.003968 -0.002349
# 4 0.000683 -0.004107 0.002050 0.034190 -0.001277 0.001458
# 5 0.001270 0.001898 0.003968 -0.001277 0.023853 -0.006736
# 6 -0.001583 -0.008814 -0.002349 0.001458 -0.006736 0.031613
#
#
# Mechanical properties :
#
#
# Convention : Reuss Voigt Hill
#
# Bulk Modulus (GPa) = 44.08586 70.89799 57.49193
# Shear Modulus (GPa) = 36.51102 46.63990 41.57546
#
# Velocity S-wave (km/s) = 3.69885 4.18055 3.94705
# Velocity P-wave (km/s) = 5.89592 7.06184 6.50506
#
# Compressibility (1/GPa) = 0.02268301
#
# Stress axis : x y z
#
# Youngs Moduli (GPa) = 138.48584 109.84952 67.20046
#
# Poissons Ratio (x) = 0.14432 0.15576
# Poissons Ratio (y) = 0.18194 0.04230
# Poissons Ratio (z) = 0.32098 0.06915
#
# Static dielectric constant tensor:
#      x y z
#    x 2.018010 0.208290 -0.125370 
#    y 0.208290 1.120810 0.259000 
#    z -0.125370 0.259000 2.082470 
# 
# From -- ./inp_files/27604.got.cif
#   From: 2010.05.17/outbox.cif.g08.bks.cpg/sg2_14_cif.got.tgz:27604.got - 2010.06.03 11:33:40.
