data_PCOD9091897
_publ_section_title
;
Structure prediction by ZEFSAII (Michael W. Deem and Ramdas Pophale) SiO2 
 PCOD9091897
Probable space group: P -1
;
_chemical_formula_sum "Si O2"
_cell_formula_units_Z 16
_cell_length_a 12.492688
_cell_length_b 8.793309
_cell_length_c 19.112828
_cell_angle_alpha 39.419866
_cell_angle_beta 128.267752
_cell_angle_gamma 98.967639
_cell_volume 798.129090
_symmetry_space_group_name_H-M "P -1"
_symmetry_group_IT_number 2
_symmetry_cell_setting 'triclinic'
loop_
_space_group_symop_operation_xyz
x,y,z
-x,-y,-z
loop_
_atom_site_type_symbol
_atom_site_label
_atom_site_fract_x
_atom_site_fract_y
_atom_site_fract_z
Si Si1 0.137189 0.384638 0.322662
Si Si2 0.640049 0.448648 0.628820
Si Si3 0.782429 0.098120 0.946099
Si Si4 0.035241 0.211492 0.478061
Si Si5 0.312524 0.079456 0.890559
Si Si6 0.692451 0.259912 0.125679
Si Si7 0.967444 0.850744 0.904068
Si Si8 0.945806 0.362927 0.133853
O O1 0.324622 0.315031 0.419653
O O2 0.121000 0.282584 0.428049
O O3 0.099063 0.237281 0.297958
O O4 0.955818 0.755155 0.109574
O O5 0.500000 0.500000 0.500000
O O6 0.647275 0.291004 0.759464
O O7 0.822448 0.196477 0.750520
O O8 0.851329 0.277131 0.938292
O O9 0.711676 0.039614 0.005017
O O10 0.853114 0.545805 0.311436
O O11 0.000000 0.000000 0.500000
O O12 0.169087 0.011759 0.666727
O O13 0.314960 0.898696 0.889597
O O14 0.500000 0.000000 0.000000
O O15 0.778902 0.418105 0.081918
O O16 0.500000 0.500000 0.000000
O O17 0.986291 0.864011 0.824452
O O18 0.905695 0.659566 0.972447
#
# Coordination Sequence:
#
# PCOD9091897 Si02
#       8
#     2   2   2   2   2   2   2   2
#     4  10  20  38  65  86 121 170 209 258 319 387
#     4  11  22  38  60  94 128 161 206 267 326 381
#     4  10  19  40  63  88 123 166 215 255 319 391
#     4  11  23  42  67  94 129 172 219 271 328 386
#     4  11  25  43  65  95 132 174 222 269 329 394
#     4  12  26  43  66  99 132 173 223 275 328 392
#     4  10  20  38  66  92 118 166 212 260 318 393
#     4  11  20  38  69  90 122 163 219 261 322 385
#
# _framework density 20.046883999999999
#
# number of rings (size 3 to 8) (size 9 to 14) (size 15 to 20)
#    0.000    1.250    5.000    1.875    1.750    2.000 
#    2.250    0.625    0.000    0.000    0.000    0.000 
#    0.000    0.000    0.000    0.000    0.000    0.000 
#
# Total GULP energy -89220.780240 kJ/mol
# GULP energy per Si atom -5576.298765 kJ/mol
# Density = 2.000126 g / cm^3
# Si number density = 20.046884 Si / 1000 Ang^3
#
#
#
# Elastic Constant Matrix: (Units=GPa)
#
#
# Indices 1 2 3 4 5 6 
#
# 1 132.0113 48.3153 64.9597 16.1858 -6.3738 3.2687
# 2 48.3153 108.9591 49.6641 33.7571 1.1892 -7.1553
# 3 64.9597 49.6641 106.4821 35.3163 -3.4606 2.3003
# 4 16.1858 33.7571 35.3163 43.2446 -1.1200 -2.0359
# 5 -6.3738 1.1892 -3.4606 -1.1200 22.6618 3.7161
# 6 3.2687 -7.1553 2.3003 -2.0359 3.7161 41.1663
#
#
#
# Elastic Compliance Matrix: (Units=1/GPa)
#
#
# Indices 1 2 3 4 5 6 
#
# 1 0.011882 -0.003477 -0.006771 0.003813 0.002882 -0.001241
# 2 -0.003477 0.014404 -0.002018 -0.008241 -0.002900 0.002747
# 3 -0.006771 -0.002018 0.018060 -0.010689 0.000662 -0.001411
# 4 0.003813 -0.008241 -0.010689 0.036927 0.001608 0.000543
# 5 0.002882 -0.002900 0.000662 0.001608 0.046066 -0.004849
# 6 -0.001241 0.002747 -0.001411 0.000543 -0.004849 0.025411
#
#
# Mechanical properties :
#
#
# Convention : Reuss Voigt Hill
#
# Bulk Modulus (GPa) = 50.46554 74.81450 62.64002
# Shear Modulus (GPa) = 27.19085 33.71543 30.45314
#
# Velocity S-wave (km/s) = 3.68688 4.10546 3.90179
# Velocity P-wave (km/s) = 6.58426 7.73782 7.18423
#
# Compressibility (1/GPa) = 0.01981550
#
# Stress axis : x y z
#
# Youngs Moduli (GPa) = 84.16226 69.42437 55.37044
#
# Poissons Ratio (x) = 0.24136 0.37492
# Poissons Ratio (y) = 0.29260 0.11172
# Poissons Ratio (z) = 0.56987 0.14008
#
# Static dielectric constant tensor:
#      x y z
#    x 1.735690 0.072910 -0.005760 
#    y 0.072910 1.907010 0.020510 
#    z -0.005760 0.020510 1.707080 
# 
# From -- ./inp_files/540604.got.cif
#   From: 2010.05.17/outbox.cif.g08.bks.cpg/sg2_271_cif.got.tgz:540604.got - 2010.06.03 11:33:40.
