data_PCOD9091247
_publ_section_title
;
Structure prediction by ZEFSAII (Michael W. Deem and Ramdas Pophale) SiO2 
 PCOD9091247
Probable space group: P -1
;
_chemical_formula_sum "Si O2"
_cell_formula_units_Z 12
_cell_length_a 17.361855
_cell_length_b 14.566139
_cell_length_c 8.803305
_cell_angle_alpha 142.233877
_cell_angle_beta 143.371450
_cell_angle_gamma 24.121125
_cell_volume 527.201543
_symmetry_space_group_name_H-M "P -1"
_symmetry_group_IT_number 2
_symmetry_cell_setting 'triclinic'
loop_
_space_group_symop_operation_xyz
x,y,z
-x,-y,-z
loop_
_atom_site_type_symbol
_atom_site_label
_atom_site_fract_x
_atom_site_fract_y
_atom_site_fract_z
Si Si1 0.777375 0.873530 0.215684
Si Si2 0.648127 0.099790 0.633801
Si Si3 0.143602 0.289929 0.333775
Si Si4 0.689553 0.235993 0.411566
Si Si5 0.084470 0.008032 0.852932
Si Si6 0.775858 0.579096 0.661531
O O1 0.014462 0.681839 0.311635
O O2 0.730705 0.964310 0.430194
O O3 0.655420 0.090245 0.195364
O O4 0.731732 0.741479 0.933870
O O5 0.419660 0.346583 0.573967
O O6 0.667996 0.943813 0.581122
O O7 0.792651 0.095331 0.931276
O O8 0.187384 0.358448 0.352677
O O9 0.000000 0.500000 0.500000
O O10 0.045812 0.219346 0.032637
O O11 0.500000 0.500000 0.500000
O O12 0.776013 0.178471 0.304276
O O13 0.871489 0.119430 0.658314
#
# Coordination Sequence:
#
# PCOD9091247 Si02
#       6
#     2   2   2   2   2   2
#     4  11  23  39  60  95 122 165 205 256 307 361
#     4  10  22  37  61  94 123 159 202 250 311 365
#     4  10  19  39  64  93 125 160 201 256 309 366
#     4  11  24  44  65  84 124 171 210 249 304 371
#     4   9  23  42  61  92 120 163 213 248 300 369
#     4  11  21  39  63  91 132 158 198 260 312 362
#
# _framework density 22.761695
#
# number of rings (size 3 to 8) (size 9 to 14) (size 15 to 20)
#    1.000    0.667    3.333    1.000    0.000    7.333 
#    0.000    1.667    0.000    0.000    0.000    0.000 
#    0.000    0.000    0.000    0.000    0.000    0.000 
#
# Total GULP energy -67024.799501 kJ/mol
# GULP energy per Si atom -5585.399958 kJ/mol
# Density = 2.270989 g / cm^3
# Si number density = 22.761695 Si / 1000 Ang^3
#
#
#
# Elastic Constant Matrix: (Units=GPa)
#
#
# Indices 1 2 3 4 5 6 
#
# 1 40.1679 2.1458 20.9514 6.1762 -12.4819 4.1100
# 2 2.1458 106.3930 31.8797 9.8711 12.0638 -2.9071
# 3 20.9514 31.8797 87.3901 -9.0795 -11.2154 -21.9665
# 4 6.1762 9.8711 -9.0795 35.9404 1.9290 2.5351
# 5 -12.4819 12.0638 -11.2154 1.9290 28.6523 0.0066
# 6 4.1100 -2.9071 -21.9665 2.5351 0.0066 27.7427
#
#
#
# Elastic Compliance Matrix: (Units=1/GPa)
#
#
# Indices 1 2 3 4 5 6 
#
# 1 0.038460 0.002614 -0.013684 -0.010294 0.010994 -0.015321
# 2 0.002614 0.012913 -0.008031 -0.005298 -0.007084 -0.004907
# 3 -0.013684 -0.008031 0.024334 0.008980 0.006336 0.019631
# 4 -0.010294 -0.005298 0.008980 0.033011 -0.000962 0.005064
# 5 0.010994 -0.007084 0.006336 -0.000962 0.045217 0.002723
# 6 -0.015321 -0.004907 0.019631 0.005064 0.002723 0.052881
#
#
# Mechanical properties :
#
#
# Convention : Reuss Voigt Hill
#
# Bulk Modulus (GPa) = 26.66174 38.21164 32.43669
# Shear Modulus (GPa) = 19.41606 30.39869 24.90738
#
# Velocity S-wave (km/s) = 2.92381 3.65844 3.31156
# Velocity P-wave (km/s) = 4.81010 5.88810 5.37619
#
# Compressibility (1/GPa) = 0.03750693
#
# Stress axis : x y z
#
# Youngs Moduli (GPa) = 26.00111 77.43903 41.09540
#
# Poissons Ratio (x) = -0.20245 0.56234
# Poissons Ratio (y) = -0.06798 0.33002
# Poissons Ratio (z) = 0.35579 0.62188
#
# Static dielectric constant tensor:
#      x y z
#    x 1.860270 0.029210 0.029280 
#    y 0.029210 1.821350 -0.022390 
#    z 0.029280 -0.022390 1.870270 
# 
# From -- ./inp_files/335807.got.cif
#   From: 2010.05.17/outbox.cif.g08.bks.cpg/sg2_168_cif.got.tgz:335807.got - 2010.06.03 11:33:40.
