data_PCOD9091571
_publ_section_title
;
Structure prediction by ZEFSAII (Michael W. Deem and Ramdas Pophale) SiO2 
 PCOD9091571
Probable space group: P -1
;
_chemical_formula_sum "Si O2"
_cell_formula_units_Z 16
_cell_length_a 11.259070
_cell_length_b 16.751053
_cell_length_c 11.411777
_cell_angle_alpha 52.389360
_cell_angle_beta 41.777494
_cell_angle_gamma 32.351404
_cell_volume 766.140073
_symmetry_space_group_name_H-M "P -1"
_symmetry_group_IT_number 2
_symmetry_cell_setting 'triclinic'
loop_
_space_group_symop_operation_xyz
x,y,z
-x,-y,-z
loop_
_atom_site_type_symbol
_atom_site_label
_atom_site_fract_x
_atom_site_fract_y
_atom_site_fract_z
Si Si1 0.871422 0.056002 0.796155
Si Si2 0.478665 0.975735 0.373682
Si Si3 0.440657 0.759707 0.575956
Si Si4 0.384805 0.115439 0.084443
Si Si5 0.582144 0.306214 0.600042
Si Si6 0.547548 0.501145 0.826979
Si Si7 0.943377 0.843772 0.281652
Si Si8 0.204817 0.584144 0.787170
O O1 0.801642 0.160494 0.647343
O O2 0.949900 0.091506 0.817705
O O3 0.607676 0.103055 0.964612
O O4 0.125496 0.886161 0.721144
O O5 0.521947 0.838225 0.482962
O O6 0.757757 0.915006 0.240931
O O7 0.356363 0.052278 0.270733
O O8 0.261832 0.101480 0.514483
O O9 0.496491 0.726167 0.426320
O O10 0.563097 0.613661 0.684751
O O11 0.110331 0.282378 0.103250
O O12 0.500000 0.000000 0.000000
O O13 0.343935 0.435508 0.746857
O O14 0.699509 0.357504 0.408253
O O15 0.324463 0.548117 0.861666
O O16 0.816378 0.332780 0.745263
O O17 0.500000 0.500000 0.000000
#
# Coordination Sequence:
#
# PCOD9091571 Si02
#       8
#     2   2   2   2   2   2   2   2
#     4  11  22  41  66 100 132 174 216 266 334 389
#     4  10  24  45  68  96 130 171 227 273 310 401
#     4  10  22  40  70  98 123 178 219 263 336 383
#     4  12  25  39  66 102 136 170 216 278 327 380
#     4  10  19  39  67  95 127 170 212 269 319 399
#     4  11  24  43  68  95 136 173 214 274 329 393
#     4  10  23  46  67  90 132 176 221 264 328 386
#     4  10  22  39  66  97 131 173 212 266 336 380
#
# _framework density 20.883908000000002
#
# number of rings (size 3 to 8) (size 9 to 14) (size 15 to 20)
#    0.000    1.500    1.250    4.125    7.000    1.500 
#    4.500    0.000    0.000    0.000    0.000    0.000 
#    0.000    0.000    0.000    0.000    0.000    0.000 
#
# Total GULP energy -89400.259914 kJ/mol
# GULP energy per Si atom -5587.516245 kJ/mol
# Density = 2.083638 g / cm^3
# Si number density = 20.883908 Si / 1000 Ang^3
#
#
#
# Elastic Constant Matrix: (Units=GPa)
#
#
# Indices 1 2 3 4 5 6 
#
# 1 113.5653 68.7742 55.8063 9.1019 0.0159 -5.8434
# 2 68.7742 134.7110 44.5554 19.2541 6.2247 4.0240
# 3 55.8063 44.5554 58.9668 7.6638 3.1306 -4.6615
# 4 9.1019 19.2541 7.6638 27.2043 -8.2551 1.3141
# 5 0.0159 6.2247 3.1306 -8.2551 35.3244 4.8844
# 6 -5.8434 4.0240 -4.6615 1.3141 4.8844 31.9987
#
#
#
# Elastic Compliance Matrix: (Units=1/GPa)
#
#
# Indices 1 2 3 4 5 6 
#
# 1 0.018964 -0.005503 -0.014078 0.002194 0.002496 0.001633
# 2 -0.005503 0.012569 -0.003394 -0.006964 -0.003221 -0.002302
# 3 -0.014078 -0.003394 0.033806 -0.003717 -0.003745 0.003505
# 4 0.002194 -0.006964 -0.003717 0.046016 0.012738 -0.003099
# 5 0.002496 -0.003221 -0.003745 0.012738 0.032907 -0.005231
# 6 0.001633 -0.002302 0.003505 -0.003099 -0.005231 0.033275
#
#
# Mechanical properties :
#
#
# Convention : Reuss Voigt Hill
#
# Bulk Modulus (GPa) = 51.58051 71.72387 61.65219
# Shear Modulus (GPa) = 21.74387 28.11263 24.92825
#
# Velocity S-wave (km/s) = 3.23023 3.67296 3.45868
# Velocity P-wave (km/s) = 6.21810 7.23921 6.74800
#
# Compressibility (1/GPa) = 0.01938717
#
# Stress axis : x y z
#
# Youngs Moduli (GPa) = 52.73176 79.56386 29.58074
#
# Poissons Ratio (x) = 0.43786 0.41643
# Poissons Ratio (y) = 0.29019 0.10041
# Poissons Ratio (z) = 0.74235 0.27008
#
# Static dielectric constant tensor:
#      x y z
#    x 1.793780 0.010670 -0.007720 
#    y 0.010670 1.716170 -0.009990 
#    z -0.007720 -0.009990 1.754370 
# 
# From -- ./inp_files/436598.got.cif
#   From: 2010.05.17/outbox.cif.g08.bks.cpg/sg2_219_cif.got.tgz:436598.got - 2010.06.03 11:33:40.
