data_PCOD9091858
_publ_section_title
;
Structure prediction by ZEFSAII (Michael W. Deem and Ramdas Pophale) SiO2 
 PCOD9091858
Probable space group: P -1
;
_chemical_formula_sum "Si O2"
_cell_formula_units_Z 16
_cell_length_a 12.115886
_cell_length_b 7.673567
_cell_length_c 13.479856
_cell_angle_alpha 147.405889
_cell_angle_beta 87.200557
_cell_angle_gamma 92.809311
_cell_volume 674.228285
_symmetry_space_group_name_H-M "P -1"
_symmetry_group_IT_number 2
_symmetry_cell_setting 'triclinic'
loop_
_space_group_symop_operation_xyz
x,y,z
-x,-y,-z
loop_
_atom_site_type_symbol
_atom_site_label
_atom_site_fract_x
_atom_site_fract_y
_atom_site_fract_z
Si Si1 0.450117 0.108503 0.682701
Si Si2 0.304040 0.088128 0.367076
Si Si3 0.866170 0.183382 0.906345
Si Si4 0.474552 0.436357 0.258678
Si Si5 0.251641 0.126694 0.053524
Si Si6 0.154208 0.823309 0.398170
Si Si7 0.955118 0.891541 0.284842
Si Si8 0.341876 0.800602 0.712890
O O1 0.575410 0.052696 0.688166
O O2 0.426302 0.782623 0.463108
O O3 0.370950 0.073982 0.763234
O O4 0.451002 0.435093 0.775477
O O5 0.308648 0.454492 0.502503
O O6 0.233970 0.872759 0.191934
O O7 0.237792 0.090426 0.475687
O O8 0.971846 0.010108 0.767007
O O9 0.826560 0.040682 0.943202
O O10 0.895426 0.558537 0.098391
O O11 0.377869 0.189060 0.114756
O O12 0.548692 0.294148 0.274500
O O13 0.209274 0.484965 0.213038
O O14 0.255405 0.929002 0.857149
O O15 0.045486 0.822645 0.333748
O O16 0.126944 0.877150 0.540851
#
# Coordination Sequence:
#
# PCOD9091858 Si02
#       8
#     2   2   2   2   2   2   2   2
#     4  10  20  39  63  88 127 173 211 252 306 361
#     4  10  19  40  62  87 125 166 204 254 308 365
#     4  10  21  39  65  89 120 154 206 258 314 384
#     4  10  21  39  60  92 128 169 208 259 304 356
#     4  12  23  38  59  95 122 161 212 253 298 375
#     4  10  21  40  65  85 125 156 205 258 314 375
#     4   9  21  43  63  90 113 162 197 258 335 367
#     4  11  23  38  61  93 132 172 205 253 305 359
#
# _framework density 23.730834999999999
#
# number of rings (size 3 to 8) (size 9 to 14) (size 15 to 20)
#    0.000    1.750    1.250    4.125    0.000    1.500 
#    4.500    5.000    0.000    0.000    0.000    0.000 
#    0.000    0.000    0.000    0.000    0.000    0.000 
#
# Total GULP energy -89531.274333 kJ/mol
# GULP energy per Si atom -5595.704646 kJ/mol
# Density = 2.367682 g / cm^3
# Si number density = 23.730835 Si / 1000 Ang^3
#
#
#
# Elastic Constant Matrix: (Units=GPa)
#
#
# Indices 1 2 3 4 5 6 
#
# 1 43.0940 24.7049 5.8498 2.9779 -0.7631 21.0004
# 2 24.7049 145.0275 39.1787 -23.5635 12.0929 23.6647
# 3 5.8498 39.1787 44.0209 -8.0835 -30.9397 34.2125
# 4 2.9779 -23.5635 -8.0835 33.1806 11.4764 -8.9951
# 5 -0.7631 12.0929 -30.9397 11.4764 2.4188 24.3016
# 6 21.0004 23.6647 34.2125 -8.9951 24.3016 14.9234
#
#
#
# Elastic Compliance Matrix: (Units=1/GPa)
#
#
# Indices 1 2 3 4 5 6 
#
# 1 0.027256 -0.001644 -0.006716 -0.002754 -0.010748 -0.004506
# 2 -0.001644 0.009455 -0.000982 0.004368 0.000180 -0.008088
# 3 -0.006716 -0.000982 0.010414 0.009028 -0.010921 0.010360
# 4 -0.002754 0.004368 0.009028 0.033257 0.001811 -0.006652
# 5 -0.010748 0.000180 -0.010921 0.001811 0.009814 0.024987
# 6 -0.004506 -0.008088 0.010360 -0.006652 0.024987 0.017727
#
#
# Mechanical properties :
#
#
# Convention : Reuss Voigt Hill
#
# Bulk Modulus (GPa) = 35.16327 41.28991 38.22659
# Shear Modulus (GPa) = 36.74087 20.93182 28.83634
#
# Velocity S-wave (km/s) = 3.93903 2.97316 3.48967
# Velocity P-wave (km/s) = 5.96135 5.40585 5.69038
#
# Compressibility (1/GPa) = 0.02843877
#
# Stress axis : x y z
#
# Youngs Moduli (GPa) = 36.68982 105.76269 96.02562
#
# Poissons Ratio (x) = 0.17392 0.64494
# Poissons Ratio (y) = 0.06033 0.09431
# Poissons Ratio (z) = 0.24642 0.10388
#
# Static dielectric constant tensor:
#      x y z
#    x 1.921760 0.029850 -0.025000 
#    y 0.029850 1.969430 -0.038970 
#    z -0.025000 -0.038970 1.889100 
# 
# From -- ./inp_files/328396.got.cif
#   From: 2010.05.17/outbox.cif.g08.bks.cpg/sg2_165_cif.got.tgz:328396.got - 2010.06.03 11:33:40.
