data_PCOD9091280
_publ_section_title
;
Structure prediction by ZEFSAII (Michael W. Deem and Ramdas Pophale) SiO2 
 PCOD9091280
Probable space group: P -1
;
_chemical_formula_sum "Si O2"
_cell_formula_units_Z 16
_cell_length_a 18.471291
_cell_length_b 11.920376
_cell_length_c 8.991434
_cell_angle_alpha 105.977386
_cell_angle_beta 140.150579
_cell_angle_gamma 43.768677
_cell_volume 681.654342
_symmetry_space_group_name_H-M "P -1"
_symmetry_group_IT_number 2
_symmetry_cell_setting 'triclinic'
loop_
_space_group_symop_operation_xyz
x,y,z
-x,-y,-z
loop_
_atom_site_type_symbol
_atom_site_label
_atom_site_fract_x
_atom_site_fract_y
_atom_site_fract_z
Si Si1 0.299373 0.606971 0.172356
Si Si2 0.309968 0.172272 0.067810
Si Si3 0.099859 0.700297 0.196774
Si Si4 0.886321 0.517949 0.659103
Si Si5 0.288924 0.076566 0.435048
Si Si6 0.064767 0.958446 0.416070
Si Si7 0.735383 0.974292 0.289114
Si Si8 0.191911 0.486544 0.792536
O O1 0.500000 0.500000 0.500000
O O2 0.200141 0.640071 0.176342
O O3 0.132738 0.831232 0.912011
O O4 0.335878 0.465928 0.070152
O O5 0.512194 0.064504 0.396971
O O6 0.368323 0.008742 0.002009
O O7 0.214173 0.348812 0.867892
O O8 0.129658 0.297930 0.940701
O O9 0.175377 0.514975 0.318759
O O10 0.134912 0.775938 0.392463
O O11 0.860717 0.890152 0.856369
O O12 0.832260 0.698272 0.659886
O O13 0.791154 0.553327 0.368726
O O14 0.344525 0.991942 0.661653
O O15 0.233781 0.914770 0.648102
O O16 0.000000 0.000000 0.500000
O O17 0.966847 0.728289 0.556791
#
# Coordination Sequence:
#
# PCOD9091280 Si02
#       8
#     2   2   2   2   2   2   2   2
#     4  11  25  45  69 102 138 180 232 287 347 410
#     4  11  21  37  69 100 130 181 228 274 339 408
#     4  12  25  45  68  97 140 183 216 290 353 397
#     4  11  23  45  64  99 144 177 226 280 344 410
#     4  12  23  39  67 104 136 175 227 280 341 412
#     4  11  24  47  72  95 134 187 235 280 343 414
#     4  10  19  39  64  96 135 171 227 280 333 401
#     4  10  19  40  68  92 136 183 222 279 344 400
#
# _framework density 23.472307000000001
#
# number of rings (size 3 to 8) (size 9 to 14) (size 15 to 20)
#    0.000    1.000    5.000    4.125    1.750    0.500 
#    4.500    1.250    0.000    0.000    0.000    0.000 
#    0.000    0.000    0.000    0.000    0.000    0.000 
#
# Total GULP energy -89632.376484 kJ/mol
# GULP energy per Si atom -5602.023530 kJ/mol
# Density = 2.341888 g / cm^3
# Si number density = 23.472307 Si / 1000 Ang^3
#
#
#
# Elastic Constant Matrix: (Units=GPa)
#
#
# Indices 1 2 3 4 5 6 
#
# 1 148.1172 22.0123 30.0333 1.6376 -11.7336 11.7140
# 2 22.0123 91.9336 11.2512 24.0601 5.1570 8.8752
# 3 30.0333 11.2512 78.0310 24.3118 15.4767 5.4678
# 4 1.6376 24.0601 24.3118 40.3229 4.3293 6.9950
# 5 -11.7336 5.1570 15.4767 4.3293 39.9165 7.9009
# 6 11.7140 8.8752 5.4678 6.9950 7.9009 31.0199
#
#
#
# Elastic Compliance Matrix: (Units=1/GPa)
#
#
# Indices 1 2 3 4 5 6 
#
# 1 0.008871 -0.002553 -0.005187 0.004426 0.005269 -0.004045
# 2 -0.002553 0.013803 0.002362 -0.009180 -0.002307 -0.000744
# 3 -0.005187 0.002362 0.020001 -0.012817 -0.008765 0.002880
# 4 0.004426 -0.009180 -0.012817 0.038482 0.004596 -0.006634
# 5 0.005269 -0.002307 -0.008765 0.004596 0.031552 -0.008858
# 6 -0.004045 -0.000744 0.002880 -0.006634 -0.008858 0.037222
#
#
# Mechanical properties :
#
#
# Convention : Reuss Voigt Hill
#
# Bulk Modulus (GPa) = 31.32834 49.40840 40.36837
# Shear Modulus (GPa) = 29.18379 39.23751 34.21065
#
# Velocity S-wave (km/s) = 3.52991 4.09302 3.82185
# Velocity P-wave (km/s) = 5.47628 6.59033 6.05896
#
# Compressibility (1/GPa) = 0.03191998
#
# Stress axis : x y z
#
# Youngs Moduli (GPa) = 112.72744 72.44662 49.99724
#
# Poissons Ratio (x) = 0.18493 0.25934
# Poissons Ratio (y) = 0.28776 -0.11809
# Poissons Ratio (z) = 0.58472 -0.17112
#
# Static dielectric constant tensor:
#      x y z
#    x 1.851880 -0.015550 -0.006980 
#    y -0.015550 1.882510 -0.001640 
#    z -0.006980 -0.001640 1.977080 
# 
# From -- ./inp_files/333449.got.cif
#   From: 2010.05.17/outbox.cif.g08.bks.cpg/sg2_167_cif.got.tgz:333449.got - 2010.06.03 11:33:40.
