data_PCOD9091171
_publ_section_title
;
Structure prediction by ZEFSAII (Michael W. Deem and Ramdas Pophale) SiO2 
 PCOD9091171
Probable space group: P -1
;
_chemical_formula_sum "Si O2"
_cell_formula_units_Z 16
_cell_length_a 10.609815
_cell_length_b 13.478488
_cell_length_c 5.362848
_cell_angle_alpha 59.838456
_cell_angle_beta 91.499943
_cell_angle_gamma 99.073821
_cell_volume 653.516307
_symmetry_space_group_name_H-M "P -1"
_symmetry_group_IT_number 2
_symmetry_cell_setting 'triclinic'
loop_
_space_group_symop_operation_xyz
x,y,z
-x,-y,-z
loop_
_atom_site_type_symbol
_atom_site_label
_atom_site_fract_x
_atom_site_fract_y
_atom_site_fract_z
Si Si1 0.565590 0.959384 0.802508
Si Si2 0.812352 0.066387 0.919510
Si Si3 0.751318 0.294893 0.574258
Si Si4 0.611021 0.506175 0.799698
Si Si5 0.936134 0.907219 0.415427
Si Si6 0.993736 0.318525 0.256503
Si Si7 0.871212 0.480886 0.730579
Si Si8 0.484231 0.299512 0.693795
O O1 0.500000 0.000000 0.500000
O O2 0.712653 0.021594 0.753529
O O3 0.557611 0.820289 0.011079
O O4 0.500000 0.000000 0.000000
O O5 0.769362 0.181590 0.886441
O O6 0.958004 0.098517 0.789361
O O7 0.815636 0.956630 0.239021
O O8 0.845019 0.277429 0.374847
O O9 0.807555 0.413828 0.570905
O O10 0.600558 0.283078 0.532615
O O11 0.750618 0.482866 0.908618
O O12 0.555267 0.401413 0.745646
O O13 0.622325 0.635786 0.518523
O O14 0.500000 0.500000 0.000000
O O15 0.926496 0.779953 0.691005
O O16 0.000000 0.000000 0.500000
O O17 0.060464 0.386258 0.415115
O O18 0.977735 0.409804 0.926189
#
# Coordination Sequence:
#
# PCOD9091171 Si02
#       8
#     2   2   2   2   2   2   2   2
#     4  12  28  46  72 108 143 185 241 296 355 426
#     4  10  23  41  64  96 127 179 228 280 349 410
#     4  10  19  39  64  84 122 166 216 277 331 414
#     4  10  22  40  64  91 133 177 224 282 344 414
#     4  10  22  40  64  91 133 177 224 282 344 414
#     4  10  21  36  59  91 122 167 219 276 339 402
#     4  10  21  36  59  91 122 167 219 276 339 402
#     4  10  23  41  64  96 127 179 228 280 349 410
#
# _framework density 24.482937
#
# number of rings (size 3 to 8) (size 9 to 14) (size 15 to 20)
#    0.000    1.750    1.250    1.875    5.250    4.000 
#    2.250    0.000    0.000    0.000    0.000    0.000 
#    0.000    0.000    0.000    0.000    0.000    0.000 
#
# Total GULP energy -89266.053452 kJ/mol
# GULP energy per Si atom -5579.128341 kJ/mol
# Density = 2.442721 g / cm^3
# Si number density = 24.482937 Si / 1000 Ang^3
#
#
#
# Elastic Constant Matrix: (Units=GPa)
#
#
# Indices 1 2 3 4 5 6 
#
# 1 79.2047 12.1408 18.1919 -5.4768 14.8353 0.1171
# 2 12.1408 108.3413 47.0828 -31.7254 20.6166 -3.7816
# 3 18.1919 47.0828 86.9614 -19.5834 29.8932 -0.0880
# 4 -5.4768 -31.7254 -19.5834 46.0793 -7.1114 2.9713
# 5 14.8353 20.6166 29.8932 -7.1114 45.4529 -1.7742
# 6 0.1171 -3.7816 -0.0880 2.9713 -1.7742 34.1215
#
#
#
# Elastic Compliance Matrix: (Units=1/GPa)
#
#
# Indices 1 2 3 4 5 6 
#
# 1 0.013652 -0.000114 -0.001565 0.000383 -0.003325 -0.000270
# 2 -0.000114 0.013985 -0.005412 0.007011 -0.001617 0.000842
# 3 -0.001565 -0.005412 0.018350 0.002616 -0.008741 -0.001230
# 4 0.000383 0.007011 0.002616 0.027676 -0.000761 -0.001667
# 5 -0.003325 -0.001617 -0.008741 -0.000761 0.029504 0.001410
# 6 -0.000270 0.000842 -0.001230 -0.001667 0.001410 0.029617
#
#
# Mechanical properties :
#
#
# Convention : Reuss Voigt Hill
#
# Bulk Modulus (GPa) = 31.44272 47.70428 39.57350
# Shear Modulus (GPa) = 31.73208 38.27020 35.00114
#
# Velocity S-wave (km/s) = 3.60403 3.95794 3.78513
# Velocity P-wave (km/s) = 5.49448 6.35721 5.94152
#
# Compressibility (1/GPa) = 0.03180386
#
# Stress axis : x y z
#
# Youngs Moduli (GPa) = 73.24811 71.50467 54.49606
#
# Poissons Ratio (x) = 0.00816 0.08529
# Poissons Ratio (y) = 0.00836 0.29496
# Poissons Ratio (z) = 0.11464 0.38702
#
# Static dielectric constant tensor:
#      x y z
#    x 1.987040 -0.037000 -0.056620 
#    y -0.037000 1.964190 -0.071030 
#    z -0.056620 -0.071030 2.177100 
# 
# From -- ./inp_files/68668.got.cif
#   From: 2010.05.17/outbox.cif.g08.bks.cpg/sg2_35_cif.got.tgz:68668.got - 2010.06.03 11:33:40.
