data_PCOD9091670
_publ_section_title
;
Structure prediction by ZEFSAII (Michael W. Deem and Ramdas Pophale) SiO2 
 PCOD9091670
Probable space group: P -1
;
_chemical_formula_sum "Si O2"
_cell_formula_units_Z 16
_cell_length_a 8.662503
_cell_length_b 20.410891
_cell_length_c 14.806365
_cell_angle_alpha 163.568334
_cell_angle_beta 111.615350
_cell_angle_gamma 67.140352
_cell_volume 682.278915
_symmetry_space_group_name_H-M "P -1"
_symmetry_group_IT_number 2
_symmetry_cell_setting 'triclinic'
loop_
_space_group_symop_operation_xyz
x,y,z
-x,-y,-z
loop_
_atom_site_type_symbol
_atom_site_label
_atom_site_fract_x
_atom_site_fract_y
_atom_site_fract_z
Si Si1 0.704817 0.047882 0.462542
Si Si2 0.832869 0.382664 0.822535
Si Si3 0.352044 0.479270 0.212048
Si Si4 0.906253 0.003529 0.889164
Si Si5 0.688252 0.445371 0.497276
Si Si6 0.666681 0.798998 0.452792
Si Si7 0.288620 0.758856 0.079177
Si Si8 0.036371 0.293773 0.161158
O O1 0.530785 0.132157 0.482657
O O2 0.696192 0.178350 0.729852
O O3 0.851597 0.133263 0.546829
O O4 0.711223 0.775165 0.125677
O O5 0.712569 0.556432 0.091151
O O6 0.742149 0.385904 0.712017
O O7 0.000000 0.500000 0.000000
O O8 0.310441 0.609524 0.469208
O O9 0.549816 0.418293 0.152115
O O10 0.767882 0.229910 0.169567
O O11 0.026177 0.060620 0.908654
O O12 0.795613 0.805855 0.572959
O O13 0.000000 0.000000 0.000000
O O14 0.500000 0.500000 0.500000
O O15 0.790907 0.661530 0.787277
O O16 0.704378 0.001902 0.659303
O O17 0.113993 0.676935 0.904545
O O18 0.000000 0.500000 0.500000
#
# Coordination Sequence:
#
# PCOD9091670 Si02
#       8
#     2   2   2   2   2   2   2   2
#     4  11  22  42  67  92 126 177 214 258 330 388
#     4  12  27  38  60 102 133 168 212 266 331 386
#     4  11  23  43  65  96 134 164 215 275 327 382
#     4  10  23  42  68  94 128 170 221 272 316 383
#     4  11  23  44  66  93 129 172 217 268 331 384
#     4  10  20  43  64  91 129 166 220 264 315 399
#     4  10  19  39  69  90 121 173 218 263 317 395
#     4   9  20  38  64  92 117 170 220 248 314 395
#
# _framework density 23.450821000000001
#
# number of rings (size 3 to 8) (size 9 to 14) (size 15 to 20)
#    0.000    1.500    2.500    4.125    3.500    3.500 
#    2.250    0.625    0.000    0.000    0.000    0.000 
#    0.000    0.000    0.000    0.000    0.000    0.000 
#
# Total GULP energy -89534.400419 kJ/mol
# GULP energy per Si atom -5595.900026 kJ/mol
# Density = 2.339745 g / cm^3
# Si number density = 23.450821 Si / 1000 Ang^3
#
#
#
# Elastic Constant Matrix: (Units=GPa)
#
#
# Indices 1 2 3 4 5 6 
#
# 1 111.3542 41.3345 20.7152 -1.8116 26.0368 3.1191
# 2 41.3345 117.6949 12.7394 -24.8837 15.1379 5.0180
# 3 20.7152 12.7394 61.0695 -14.9165 0.3304 -0.3168
# 4 -1.8116 -24.8837 -14.9165 38.6218 -5.8942 -1.4523
# 5 26.0368 15.1379 0.3304 -5.8942 36.7788 -7.7450
# 6 3.1191 5.0180 -0.3168 -1.4523 -7.7450 30.1988
#
#
#
# Elastic Compliance Matrix: (Units=1/GPa)
#
#
# Indices 1 2 3 4 5 6 
#
# 1 0.013687 -0.004036 -0.005119 -0.005535 -0.009612 -0.003528
# 2 -0.004036 0.011580 0.000747 0.007349 -0.001035 -0.001412
# 3 -0.005119 0.000747 0.020105 0.008865 0.005049 0.002337
# 4 -0.005535 0.007349 0.008865 0.034975 0.007036 0.002930
# 5 -0.009612 -0.001035 0.005049 0.007036 0.037876 0.011270
# 6 -0.003528 -0.001412 0.002337 0.002930 0.011270 0.036769
#
#
# Mechanical properties :
#
#
# Convention : Reuss Voigt Hill
#
# Bulk Modulus (GPa) = 35.01935 48.85519 41.93727
# Shear Modulus (GPa) = 27.57412 35.47518 31.52465
#
# Velocity S-wave (km/s) = 3.43275 3.89363 3.67043
# Velocity P-wave (km/s) = 5.53871 6.41031 5.99038
#
# Compressibility (1/GPa) = 0.02855564
#
# Stress axis : x y z
#
# Youngs Moduli (GPa) = 73.06022 86.35257 49.73771
#
# Poissons Ratio (x) = 0.34856 0.25462
# Poissons Ratio (y) = 0.29490 -0.03715
# Poissons Ratio (z) = 0.37401 -0.06449
#
# Static dielectric constant tensor:
#      x y z
#    x 1.892900 -0.025790 0.021020 
#    y -0.025790 1.833890 0.004090 
#    z 0.021020 0.004090 1.894020 
# 
# From -- ./inp_files/400078.got.cif
#   From: 2010.05.17/outbox.cif.g08.bks.cpg/sg2_201_cif.got.tgz:400078.got - 2010.06.03 11:33:40.
