data_PCOD9091914
_publ_section_title
;
Structure prediction by ZEFSAII (Michael W. Deem and Ramdas Pophale) SiO2 
 PCOD9091914
Probable space group: P -1
;
_chemical_formula_sum "Si O2"
_cell_formula_units_Z 12
_cell_length_a 12.702746
_cell_length_b 12.483457
_cell_length_c 7.603791
_cell_angle_alpha 148.565654
_cell_angle_beta 126.086318
_cell_angle_gamma 44.264133
_cell_volume 438.099796
_symmetry_space_group_name_H-M "P -1"
_symmetry_group_IT_number 2
_symmetry_cell_setting 'triclinic'
loop_
_space_group_symop_operation_xyz
x,y,z
-x,-y,-z
loop_
_atom_site_type_symbol
_atom_site_label
_atom_site_fract_x
_atom_site_fract_y
_atom_site_fract_z
Si Si1 0.775354 0.217886 0.568226
Si Si2 0.612136 0.654138 0.825863
Si Si3 0.863666 0.237542 0.318519
Si Si4 0.881820 0.413197 0.227767
Si Si5 0.186764 0.120761 0.556759
Si Si6 0.361940 0.058705 0.316764
O O1 0.841931 0.108597 0.289363
O O2 0.762141 0.060589 0.484349
O O3 0.622368 0.464810 0.717167
O O4 0.882744 0.302865 0.885867
O O5 0.731950 0.730780 0.112533
O O6 0.446487 0.883620 0.990994
O O7 0.700508 0.484296 0.512797
O O8 0.898021 0.219984 0.118602
O O9 0.006562 0.264299 0.561914
O O10 0.726075 0.666647 0.437692
O O11 0.000000 0.500000 0.500000
O O12 0.252825 0.013269 0.275055
O O13 0.500000 0.000000 0.500000
#
# Coordination Sequence:
#
# PCOD9091914 Si02
#       6
#     2   2   2   2   2   2
#     4  10  23  39  63  92 126 161 203 254 305 361
#     4   9  21  39  60  90 122 157 209 245 302 364
#     4  10  22  40  60  93 126 157 208 252 302 366
#     4  12  22  40  66  91 126 163 203 258 303 360
#     4  11  19  38  68  88 122 167 204 246 310 365
#     4  10  19  40  63  92 119 165 208 242 311 368
#
# _framework density 27.391019
#
# number of rings (size 3 to 8) (size 9 to 14) (size 15 to 20)
#    1.000    0.667    5.000    1.000    2.333    2.000 
#    0.000    0.000    0.000    5.000    0.000    0.000 
#    0.000    0.000    0.000    0.000    0.000    0.000 
#
# Total GULP energy -66991.488786 kJ/mol
# GULP energy per Si atom -5582.624066 kJ/mol
# Density = 2.732868 g / cm^3
# Si number density = 27.391019 Si / 1000 Ang^3
#
#
#
# Elastic Constant Matrix: (Units=GPa)
#
#
# Indices 1 2 3 4 5 6 
#
# 1 135.8855 50.1767 12.8441 2.7083 -6.1463 15.2365
# 2 50.1767 144.7031 19.0396 8.1240 2.1186 27.5212
# 3 12.8441 19.0396 76.7606 -8.5027 -13.4639 23.4212
# 4 2.7083 8.1240 -8.5027 40.4047 10.2370 -4.8294
# 5 -6.1463 2.1186 -13.4639 10.2370 55.6146 1.2937
# 6 15.2365 27.5212 23.4212 -4.8294 1.2937 77.9256
#
#
#
# Elastic Compliance Matrix: (Units=1/GPa)
#
#
# Indices 1 2 3 4 5 6 
#
# 1 0.008551 -0.002785 -0.000420 -0.000439 0.001044 -0.000607
# 2 -0.002785 0.008584 -0.001299 -0.001940 -0.000541 -0.002208
# 3 -0.000420 -0.001299 0.015500 0.002196 0.003445 -0.004039
# 4 -0.000439 -0.001940 0.002196 0.026981 -0.004453 0.001857
# 5 0.001044 -0.000541 0.003445 -0.004453 0.019809 -0.001653
# 6 -0.000607 -0.002208 -0.004039 0.001857 -0.001653 0.015087
#
#
# Mechanical properties :
#
#
# Convention : Reuss Voigt Hill
#
# Bulk Modulus (GPa) = 42.32679 57.94111 50.13395
# Shear Modulus (GPa) = 44.88412 53.14156 49.01284
#
# Velocity S-wave (km/s) = 4.05241 4.40945 4.23469
# Velocity P-wave (km/s) = 6.11411 6.86466 6.50023
#
# Compressibility (1/GPa) = 0.02362570
#
# Stress axis : x y z
#
# Youngs Moduli (GPa) = 116.94107 116.49364 64.51649
#
# Poissons Ratio (x) = 0.32446 0.02712
# Poissons Ratio (y) = 0.32571 0.08382
# Poissons Ratio (z) = 0.04916 0.15135
#
# Static dielectric constant tensor:
#      x y z
#    x 2.122530 -0.035860 -0.015700 
#    y -0.035860 2.068420 -0.015640 
#    z -0.015700 -0.015640 2.376470 
# 
# From -- ./inp_files/194028.got.cif
#   From: 2010.05.17/outbox.cif.g08.bks.cpg/sg2_98_cif.got.tgz:194028.got - 2010.06.03 11:33:40.
