data_PCOD9091904
_publ_section_title
;
Structure prediction by ZEFSAII (Michael W. Deem and Ramdas Pophale) SiO2 
 PCOD9091904
Probable space group: P -1
;
_chemical_formula_sum "Si O2"
_cell_formula_units_Z 16
_cell_length_a 9.523749
_cell_length_b 14.082589
_cell_length_c 9.070856
_cell_angle_alpha 133.141884
_cell_angle_beta 66.733699
_cell_angle_gamma 114.892250
_cell_volume 794.595556
_symmetry_space_group_name_H-M "P -1"
_symmetry_group_IT_number 2
_symmetry_cell_setting 'triclinic'
loop_
_space_group_symop_operation_xyz
x,y,z
-x,-y,-z
loop_
_atom_site_type_symbol
_atom_site_label
_atom_site_fract_x
_atom_site_fract_y
_atom_site_fract_z
Si Si1 0.305705 0.319707 0.132899
Si Si2 0.636883 0.932952 0.316470
Si Si3 0.021459 0.737099 0.966656
Si Si4 0.877412 0.095109 0.169455
Si Si5 0.133832 0.244764 0.413981
Si Si6 0.801025 0.823241 0.380966
Si Si7 0.431143 0.467876 0.832080
Si Si8 0.851370 0.474612 0.141185
O O1 0.258587 0.254381 0.241620
O O2 0.416860 0.466430 0.258479
O O3 0.387137 0.219253 0.897820
O O4 0.141546 0.322575 0.120038
O O5 0.745132 0.928847 0.411671
O O6 0.500000 0.000000 0.500000
O O7 0.724333 0.017917 0.233751
O O8 0.950885 0.792536 0.200258
O O9 0.125685 0.840952 0.921302
O O10 0.121806 0.635087 0.871453
O O11 0.965102 0.204803 0.365587
O O12 0.000000 0.000000 0.000000
O O13 0.154811 0.147835 0.436425
O O14 0.152891 0.390521 0.628299
O O15 0.659527 0.687662 0.301490
O O16 0.301737 0.549232 0.923252
O O17 0.500000 0.500000 0.000000
O O18 0.000000 0.500000 0.000000
#
# Coordination Sequence:
#
# PCOD9091904 Si02
#       8
#     2   2   2   2   2   2   2   2
#     4  10  21  40  63  84 129 164 206 249 323 370
#     4  11  23  43  60  88 120 165 216 264 296 377
#     4  10  19  40  63  89 128 160 204 263 305 373
#     4  11  21  42  67  83 123 173 212 251 318 369
#     4  10  22  38  64  92 121 163 201 261 313 373
#     4  10  20  39  63  87 125 158 208 254 318 370
#     4  11  19  37  65  88 121 172 193 249 324 381
#     4  11  21  36  60  98 131 147 208 260 304 377
#
# _framework density 20.136032
#
# number of rings (size 3 to 8) (size 9 to 14) (size 15 to 20)
#    0.000    1.500    8.750    0.000    0.000    5.500 
#    6.750    0.625    0.000    0.000    0.000    0.000 
#    0.000    0.000    0.000    0.000    0.000    0.000 
#
# Total GULP energy -89151.634367 kJ/mol
# GULP energy per Si atom -5571.977148 kJ/mol
# Density = 2.009020 g / cm^3
# Si number density = 20.136032 Si / 1000 Ang^3
#
#
#
# Elastic Constant Matrix: (Units=GPa)
#
#
# Indices 1 2 3 4 5 6 
#
# 1 75.0383 28.3453 30.6722 0.4820 -6.8903 -17.7774
# 2 28.3453 127.8804 21.2039 -23.4086 -1.7246 -7.7690
# 3 30.6722 21.2039 75.4184 -17.4674 -4.0485 -10.6980
# 4 0.4820 -23.4086 -17.4674 29.9137 -4.7859 -1.1196
# 5 -6.8903 -1.7246 -4.0485 -4.7859 29.5482 -2.4809
# 6 -17.7774 -7.7690 -10.6980 -1.1196 -2.4809 44.2820
#
#
#
# Elastic Compliance Matrix: (Units=1/GPa)
#
#
# Indices 1 2 3 4 5 6 
#
# 1 0.019480 -0.004046 -0.007604 -0.007321 0.002518 0.005230
# 2 -0.004046 0.010240 0.000996 0.008893 0.001291 0.000710
# 3 -0.007604 0.000996 0.019580 0.012946 0.003263 0.002363
# 4 -0.007321 0.008893 0.012946 0.049624 0.008917 0.003503
# 5 0.002518 0.001291 0.003263 0.008917 0.036759 0.004311
# 6 0.005230 0.000710 0.002363 0.003503 0.004311 0.025707
#
#
# Mechanical properties :
#
#
# Convention : Reuss Voigt Hill
#
# Bulk Modulus (GPa) = 35.72196 48.75332 42.23764
# Shear Modulus (GPa) = 26.03792 33.95648 29.99720
#
# Velocity S-wave (km/s) = 3.59987 4.11098 3.86389
# Velocity P-wave (km/s) = 5.92095 6.84091 6.39749
#
# Compressibility (1/GPa) = 0.02799399
#
# Stress axis : x y z
#
# Youngs Moduli (GPa) = 51.33502 97.65842 51.07160
#
# Poissons Ratio (x) = 0.39508 0.38833
# Poissons Ratio (y) = 0.20768 -0.05087
# Poissons Ratio (z) = 0.39033 -0.09727
#
# Static dielectric constant tensor:
#      x y z
#    x 1.749250 0.019430 0.069840 
#    y 0.019430 1.805650 0.029300 
#    z 0.069840 0.029300 1.779570 
# 
# From -- ./inp_files/208924.got.cif
#   From: 2010.05.17/outbox.cif.g08.bks.cpg/sg2_105_cif.got.tgz:208924.got - 2010.06.03 11:33:40.
