data_PCOD9091813
_publ_section_title
;
Structure prediction by ZEFSAII (Michael W. Deem and Ramdas Pophale) SiO2 
 PCOD9091813
Probable space group: P -1
;
_chemical_formula_sum "Si O2"
_cell_formula_units_Z 16
_cell_length_a 11.509207
_cell_length_b 21.406595
_cell_length_c 9.402222
_cell_angle_alpha 29.440454
_cell_angle_beta 53.736262
_cell_angle_gamma 55.677117
_cell_volume 911.072499
_symmetry_space_group_name_H-M "P -1"
_symmetry_group_IT_number 2
_symmetry_cell_setting 'triclinic'
loop_
_space_group_symop_operation_xyz
x,y,z
-x,-y,-z
loop_
_atom_site_type_symbol
_atom_site_label
_atom_site_fract_x
_atom_site_fract_y
_atom_site_fract_z
Si Si1 0.347656 0.603216 0.266625
Si Si2 0.541501 0.042760 0.228055
Si Si3 0.250716 0.736984 0.626723
Si Si4 0.918758 0.379350 0.778458
Si Si5 0.448735 0.661742 0.379372
Si Si6 0.977097 0.108393 0.182356
Si Si7 0.126303 0.974944 0.074277
Si Si8 0.642302 0.152696 0.387412
O O1 0.192094 0.600338 0.313255
O O2 0.348548 0.648790 0.338663
O O3 0.431806 0.461160 0.474155
O O4 0.419626 0.711606 0.909288
O O5 0.500000 0.000000 0.500000
O O6 0.453792 0.959452 0.351193
O O7 0.501128 0.196461 0.941564
O O8 0.714036 0.014179 0.126875
O O9 0.362215 0.659828 0.592597
O O10 0.327763 0.821812 0.518628
O O11 0.145101 0.834340 0.413031
O O12 0.169710 0.645933 0.965293
O O13 0.000000 0.500000 0.500000
O O14 0.012577 0.243479 0.949654
O O15 0.802039 0.122161 0.258614
O O16 0.073588 0.069880 0.052612
O O17 0.000000 0.000000 0.500000
O O18 0.000000 0.000000 0.000000
#
# Coordination Sequence:
#
# PCOD9091813 Si02
#       8
#     2   2   2   2   2   2   2   2
#     4   9  20  39  58  79 114 160 186 233 304 348
#     4  11  22  38  60  93 119 151 200 252 285 345
#     4   9  21  39  60  85 117 154 194 243 296 351
#     4  10  22  40  58  83 117 153 198 240 289 349
#     4  10  20  37  60  82 115 151 196 235 302 345
#     4  10  19  40  61  84 121 160 188 241 301 355
#     4  11  22  37  61  90 119 159 194 237 305 358
#     4  10  20  38  62  84 124 150 197 247 291 346
#
# _framework density 17.561720000000001
#
# number of rings (size 3 to 8) (size 9 to 14) (size 15 to 20)
#    0.000    2.250    3.750    0.750    5.250    5.000 
#    6.750    0.625    0.000    0.000    0.000    0.000 
#    0.000    0.000    0.000    0.000    0.000    0.000 
#
# Total GULP energy -89143.745245 kJ/mol
# GULP energy per Si atom -5571.484078 kJ/mol
# Density = 1.752175 g / cm^3
# Si number density = 17.561720 Si / 1000 Ang^3
#
#
#
# Elastic Constant Matrix: (Units=GPa)
#
#
# Indices 1 2 3 4 5 6 
#
# 1 93.5587 33.2649 62.3683 -10.5422 -6.0231 15.8411
# 2 33.2649 117.1356 58.2067 -2.4406 -6.5733 12.0074
# 3 62.3683 58.2067 112.2811 -16.6054 -10.8204 13.7777
# 4 -10.5422 -2.4406 -16.6054 33.9530 9.9689 -0.2614
# 5 -6.0231 -6.5733 -10.8204 9.9689 29.9720 -1.9695
# 6 15.8411 12.0074 13.7777 -0.2614 -1.9695 25.4244
#
#
#
# Elastic Compliance Matrix: (Units=1/GPa)
#
#
# Indices 1 2 3 4 5 6 
#
# 1 0.017873 0.000068 -0.009058 0.001217 -0.000481 -0.006284
# 2 0.000068 0.011810 -0.006149 -0.002465 0.001057 -0.002231
# 3 -0.009058 -0.006149 0.018181 0.005157 0.001605 -0.001127
# 4 0.001217 -0.002465 0.005157 0.035184 -0.010322 -0.002827
# 5 -0.000481 0.001057 0.001605 -0.010322 0.037627 0.001739
# 6 -0.006284 -0.002231 -0.001127 -0.002827 0.001739 0.045018
#
#
# Mechanical properties :
#
#
# Convention : Reuss Voigt Hill
#
# Bulk Modulus (GPa) = 56.86463 70.07281 63.46872
# Shear Modulus (GPa) = 24.77282 29.14559 26.95921
#
# Velocity S-wave (km/s) = 3.75989 4.07825 3.92230
# Velocity P-wave (km/s) = 7.16235 7.88439 7.53203
#
# Compressibility (1/GPa) = 0.01758562
#
# Stress axis : x y z
#
# Youngs Moduli (GPa) = 55.95039 84.67388 55.00168
#
# Poissons Ratio (x) = -0.00577 0.49823
# Poissons Ratio (y) = -0.00381 0.33821
# Poissons Ratio (z) = 0.50682 0.52066
#
# Static dielectric constant tensor:
#      x y z
#    x 1.614950 -0.004660 0.024640 
#    y -0.004660 1.610860 -0.009170 
#    z 0.024640 -0.009170 1.595740 
# 
# From -- ./inp_files/281394.got.cif
#   From: 2010.05.17/outbox.cif.g08.bks.cpg/sg2_141_cif.got.tgz:281394.got - 2010.06.03 11:33:40.
