data_PCOD9091458
_publ_section_title
;
Structure prediction by ZEFSAII (Michael W. Deem and Ramdas Pophale) SiO2 
 PCOD9091458
Probable space group: P -1
;
_chemical_formula_sum "Si O2"
_cell_formula_units_Z 16
_cell_length_a 7.429297
_cell_length_b 8.794925
_cell_length_c 18.371322
_cell_angle_alpha 56.086492
_cell_angle_beta 97.123479
_cell_angle_gamma 132.334362
_cell_volume 671.542672
_symmetry_space_group_name_H-M "P -1"
_symmetry_group_IT_number 2
_symmetry_cell_setting 'triclinic'
loop_
_space_group_symop_operation_xyz
x,y,z
-x,-y,-z
loop_
_atom_site_type_symbol
_atom_site_label
_atom_site_fract_x
_atom_site_fract_y
_atom_site_fract_z
Si Si1 0.682575 0.428457 0.198942
Si Si2 0.022138 0.408521 0.448426
Si Si3 0.834352 0.593654 0.311419
Si Si4 0.606780 0.967381 0.289188
Si Si5 0.291307 0.179952 0.120956
Si Si6 0.800885 0.027453 0.973537
Si Si7 0.207152 0.233775 0.584644
Si Si8 0.870845 0.202367 0.082333
O O1 0.653903 0.499295 0.257243
O O2 0.516122 0.388185 0.135317
O O3 0.992389 0.666550 0.127561
O O4 0.593075 0.154739 0.274346
O O5 0.316981 0.660304 0.363030
O O6 0.002864 0.183132 0.533071
O O7 0.000000 0.500000 0.500000
O O8 0.833561 0.379517 0.391487
O O9 0.789756 0.673598 0.360306
O O10 0.120855 0.883804 0.222962
O O11 0.810652 0.993270 0.339163
O O12 0.705809 0.065992 0.185153
O O13 0.096951 0.210201 0.095924
O O14 0.385400 0.174102 0.048529
O O15 0.706573 0.023986 0.048564
O O16 0.000000 0.000000 0.000000
O O17 0.500000 0.500000 0.500000
O O18 0.000000 0.500000 0.000000
#
# Coordination Sequence:
#
# PCOD9091458 Si02
#       8
#     2   2   2   2   2   2   2   2
#     4  11  22  38  64  94 122 166 219 251 301 385
#     4   9  19  38  66  91 120 166 208 254 320 380
#     4  10  19  39  66  91 122 166 210 252 311 381
#     4  11  20  37  64  93 131 162 206 269 318 360
#     4  10  21  40  66  86 127 172 208 253 312 372
#     4   9  21  39  62  85 126 167 214 247 307 372
#     4   9  19  37  64  90 124 163 201 264 323 366
#     4  11  21  38  61  94 131 162 209 268 305 370
#
# _framework density 23.825737
#
# number of rings (size 3 to 8) (size 9 to 14) (size 15 to 20)
#    0.000    2.000    3.750    0.000    0.000    2.000 
#    0.000   10.625    2.750    0.000    0.000    0.000 
#    0.000    0.000    0.000    0.000    0.000    0.000 
#
# Total GULP energy -89308.517613 kJ/mol
# GULP energy per Si atom -5581.782351 kJ/mol
# Density = 2.377151 g / cm^3
# Si number density = 23.825737 Si / 1000 Ang^3
#
#
#
# Elastic Constant Matrix: (Units=GPa)
#
#
# Indices 1 2 3 4 5 6 
#
# 1 52.2300 16.2819 21.0506 2.7765 23.9421 -0.7820
# 2 16.2819 80.9088 35.5062 27.5346 3.3578 11.6232
# 3 21.0506 35.5062 132.1604 18.7223 4.5464 -3.1507
# 4 2.7765 27.5346 18.7223 21.5561 -5.8369 7.5947
# 5 23.9421 3.3578 4.5464 -5.8369 48.1623 2.4432
# 6 -0.7820 11.6232 -3.1507 7.5947 2.4432 25.1689
#
#
#
# Elastic Compliance Matrix: (Units=1/GPa)
#
#
# Indices 1 2 3 4 5 6 
#
# 1 0.027862 -0.004037 -0.002592 -0.001350 -0.013698 0.004142
# 2 -0.004037 0.024219 -0.001751 -0.028768 -0.002873 -0.002569
# 3 -0.002592 -0.001751 0.009628 -0.007454 -0.000617 0.004242
# 4 -0.001350 -0.028768 -0.007454 0.101300 0.016665 -0.019875
# 5 -0.013698 -0.002873 -0.000617 0.016665 0.030213 -0.007138
# 6 0.004142 -0.002569 0.004242 -0.019875 -0.007138 0.048268
#
#
# Mechanical properties :
#
#
# Convention : Reuss Voigt Hill
#
# Bulk Modulus (GPa) = 22.24697 45.66407 33.95552
# Shear Modulus (GPa) = 18.29947 31.80816 25.05381
#
# Velocity S-wave (km/s) = 2.77439 3.65777 3.24627
# Velocity P-wave (km/s) = 4.42951 6.08659 5.32293
#
# Compressibility (1/GPa) = 0.04494994
#
# Stress axis : x y z
#
# Youngs Moduli (GPa) = 35.89092 41.29043 103.86276
#
# Poissons Ratio (x) = 0.16667 0.26924
# Poissons Ratio (y) = 0.14488 0.18184
# Poissons Ratio (z) = 0.09304 0.07229
#
# Static dielectric constant tensor:
#      x y z
#    x 1.966940 0.014660 0.086360 
#    y 0.014660 1.908120 0.015470 
#    z 0.086360 0.015470 1.900370 
# 
# From -- ./inp_files/325605.got.cif
#   From: 2010.05.17/outbox.cif.g08.bks.cpg/sg2_163_cif.got.tgz:325605.got - 2010.06.03 11:33:40.
