data_PCOD9091689
_publ_section_title
;
Structure prediction by ZEFSAII (Michael W. Deem and Ramdas Pophale) SiO2 
 PCOD9091689
Probable space group: P -1
;
_chemical_formula_sum "Si O2"
_cell_formula_units_Z 12
_cell_length_a 8.279838
_cell_length_b 8.021299
_cell_length_c 8.975414
_cell_angle_alpha 82.956664
_cell_angle_beta 83.026908
_cell_angle_gamma 130.256012
_cell_volume 435.361674
_symmetry_space_group_name_H-M "P -1"
_symmetry_group_IT_number 2
_symmetry_cell_setting 'triclinic'
loop_
_space_group_symop_operation_xyz
x,y,z
-x,-y,-z
loop_
_atom_site_type_symbol
_atom_site_label
_atom_site_fract_x
_atom_site_fract_y
_atom_site_fract_z
Si Si1 0.040953 0.751624 0.528106
Si Si2 0.152179 0.992024 0.783607
Si Si3 0.029178 0.434701 0.745763
Si Si4 0.442051 0.500877 0.340041
Si Si5 0.341142 0.243580 0.110816
Si Si6 0.704928 0.264237 0.059069
O O1 0.133312 0.954829 0.609548
O O2 0.045159 0.756600 0.346788
O O3 0.136717 0.645970 0.598494
O O4 0.784827 0.557031 0.620559
O O5 0.224470 0.863203 0.859976
O O6 0.912947 0.888903 0.875766
O O7 0.348142 0.253693 0.770596
O O8 0.199446 0.533070 0.852884
O O9 0.827791 0.360582 0.877221
O O10 0.500000 0.500000 0.500000
O O11 0.374300 0.292271 0.277726
O O12 0.454187 0.143963 0.073836
O O13 0.500000 0.500000 0.000000
#
# Coordination Sequence:
#
# PCOD9091689 Si02
#       6
#     2   2   2   2   2   2
#     4   9  19  38  64  94 131 171 218 272 328 391
#     4  10  24  44  67  98 133 174 226 276 330 399
#     4   9  17  36  65  97 131 169 216 274 328 388
#     4  11  24  44  66  94 135 177 221 280 340 393
#     4  11  23  43  69 101 138 174 217 273 335 400
#     4  10  19  39  69  97 131 176 221 269 334 399
#
# _framework density 27.563289999999999
#
# number of rings (size 3 to 8) (size 9 to 14) (size 15 to 20)
#    0.000    2.000    0.000    5.000    0.000    3.333 
#    0.000   26.667    0.000    2.000    0.000    0.000 
#    0.000    0.000    0.000    0.000    0.000    0.000 
#
# Total GULP energy -67080.798228 kJ/mol
# GULP energy per Si atom -5590.066519 kJ/mol
# Density = 2.750056 g / cm^3
# Si number density = 27.563290 Si / 1000 Ang^3
#
#
#
# Elastic Constant Matrix: (Units=GPa)
#
#
# Indices 1 2 3 4 5 6 
#
# 1 177.7829 42.0775 58.8668 -1.1070 -16.6931 2.4671
# 2 42.0775 154.6534 55.9085 34.2850 -4.1954 25.4775
# 3 58.8668 55.9085 155.7915 34.7329 2.9160 14.8839
# 4 -1.1070 34.2850 34.7329 64.5563 2.4713 12.3098
# 5 -16.6931 -4.1954 2.9160 2.4713 52.7731 -0.1400
# 6 2.4671 25.4775 14.8839 12.3098 -0.1400 24.7944
#
#
#
# Elastic Compliance Matrix: (Units=1/GPa)
#
#
# Indices 1 2 3 4 5 6 
#
# 1 0.007116 -0.001595 -0.002771 0.002076 0.002184 0.001576
# 2 -0.001595 0.009209 -0.001405 -0.002834 0.000419 -0.007052
# 3 -0.002771 -0.001405 0.009005 -0.003746 -0.001315 -0.001834
# 4 0.002076 -0.002834 -0.003746 0.020008 -0.000312 -0.004981
# 5 0.002184 0.000419 -0.001315 -0.000312 0.019762 0.000408
# 6 0.001576 -0.007052 -0.001834 -0.004981 0.000408 0.050997
#
#
# Mechanical properties :
#
#
# Convention : Reuss Voigt Hill
#
# Bulk Modulus (GPa) = 72.51822 89.10371 80.81097
# Shear Modulus (GPa) = 37.81189 50.51642 44.16416
#
# Velocity S-wave (km/s) = 3.70783 4.28570 4.00719
# Velocity P-wave (km/s) = 6.68562 7.54233 7.12686
#
# Compressibility (1/GPa) = 0.01378964
#
# Stress axis : x y z
#
# Youngs Moduli (GPa) = 140.53129 108.58860 111.05169
#
# Poissons Ratio (x) = 0.17319 0.30768
# Poissons Ratio (y) = 0.22414 0.15597
# Poissons Ratio (z) = 0.38935 0.15251
#
# Static dielectric constant tensor:
#      x y z
#    x 2.291180 -0.015740 0.053710 
#    y -0.015740 2.234550 -0.001430 
#    z 0.053710 -0.001430 2.228360 
# 
# From -- ./inp_files/150137.got.cif
#   From: 2010.05.17/outbox.cif.g08.bks.cpg/sg2_76_cif.got.tgz:150137.got - 2010.06.03 11:33:40.
