data_PCOD9091284
_publ_section_title
;
Structure prediction by ZEFSAII (Michael W. Deem and Ramdas Pophale) SiO2 
 PCOD9091284
Probable space group: P -1
;
_chemical_formula_sum "Si O2"
_cell_formula_units_Z 16
_cell_length_a 16.739241
_cell_length_b 5.777756
_cell_length_c 19.831566
_cell_angle_alpha 100.849386
_cell_angle_beta 157.117082
_cell_angle_gamma 76.475938
_cell_volume 723.256376
_symmetry_space_group_name_H-M "P -1"
_symmetry_group_IT_number 2
_symmetry_cell_setting 'triclinic'
loop_
_space_group_symop_operation_xyz
x,y,z
-x,-y,-z
loop_
_atom_site_type_symbol
_atom_site_label
_atom_site_fract_x
_atom_site_fract_y
_atom_site_fract_z
Si Si1 0.980573 0.783387 0.026122
Si Si2 0.990091 0.206078 0.724286
Si Si3 0.594443 0.535130 0.397283
Si Si4 0.282945 0.940191 0.677432
Si Si5 0.055600 0.234141 0.393298
Si Si6 0.087771 0.295749 0.652334
Si Si7 0.298589 0.270796 0.076230
Si Si8 0.575704 0.252804 0.585869
O O1 0.176711 0.786403 0.227180
O O2 0.777495 0.836552 0.918974
O O3 0.000000 0.500000 0.000000
O O4 0.000000 0.000000 0.000000
O O5 0.742706 0.301588 0.531109
O O6 0.089479 0.245549 0.730832
O O7 0.025954 0.919796 0.737732
O O8 0.101139 0.325976 0.876583
O O9 0.763601 0.650283 0.494627
O O10 0.414150 0.480621 0.204960
O O11 0.491503 0.687900 0.386600
O O12 0.166835 0.076086 0.530905
O O13 0.244020 0.108649 0.721242
O O14 0.520553 0.875903 0.836852
O O15 0.141414 0.727815 0.558924
O O16 0.889808 0.428220 0.312870
O O17 0.500000 0.500000 0.500000
O O18 0.500000 0.000000 0.500000
#
# Coordination Sequence:
#
# PCOD9091284 Si02
#       8
#     2   2   2   2   2   2   2   2
#     4  12  28  49  72 107 147 185 244 307 360 438
#     4  10  23  42  66 100 138 173 235 285 345 427
#     4  11  24  45  70  94 138 182 229 285 355 426
#     4  10  20  37  67  95 133 179 224 279 349 418
#     4  10  19  39  64  97 129 176 226 286 334 423
#     4   9  19  40  63  97 133 177 227 278 342 417
#     4  12  24  45  69 100 135 186 226 291 362 420
#     4  12  28  48  77 106 142 195 240 303 372 436
#
# _framework density 22.122170000000001
#
# number of rings (size 3 to 8) (size 9 to 14) (size 15 to 20)
#    0.000    1.250    5.000    1.875    5.250    0.500 
#    6.750    0.625    0.000    0.000    0.000    0.000 
#    0.000    0.000    0.000    0.000    0.000    0.000 
#
# Total GULP energy -89125.156905 kJ/mol
# GULP energy per Si atom -5570.322307 kJ/mol
# Density = 2.207182 g / cm^3
# Si number density = 22.122170 Si / 1000 Ang^3
#
#
#
# Elastic Constant Matrix: (Units=GPa)
#
#
# Indices 1 2 3 4 5 6 
#
# 1 103.9261 15.3211 24.9354 5.1152 10.7550 -21.6722
# 2 15.3211 89.8635 41.4021 21.5355 -2.6976 -10.8339
# 3 24.9354 41.4021 76.2016 24.8839 -11.6490 -6.6350
# 4 5.1152 21.5355 24.8839 28.3823 -7.7814 -3.7791
# 5 10.7550 -2.6976 -11.6490 -7.7814 34.7392 -3.7081
# 6 -21.6722 -10.8339 -6.6350 -3.7791 -3.7081 44.0605
#
#
#
# Elastic Compliance Matrix: (Units=1/GPa)
#
#
# Indices 1 2 3 4 5 6 
#
# 1 0.012201 0.000326 -0.004817 0.001204 -0.004556 0.005076
# 2 0.000326 0.015990 -0.006814 -0.006560 -0.002367 0.002304
# 3 -0.004817 -0.006814 0.023463 -0.013103 0.005772 -0.001150
# 4 0.001204 -0.006560 -0.013103 0.053689 0.006985 0.002199
# 5 -0.004556 -0.002367 0.005772 0.006985 0.033671 0.001479
# 6 0.005076 0.002304 -0.001150 0.002199 0.001479 0.025899
#
#
# Mechanical properties :
#
#
# Convention : Reuss Voigt Hill
#
# Bulk Modulus (GPa) = 34.43083 48.14538 41.28811
# Shear Modulus (GPa) = 25.35444 33.99191 29.67318
#
# Velocity S-wave (km/s) = 3.38910 3.92414 3.66639
# Velocity P-wave (km/s) = 5.55989 6.50711 6.05206
#
# Compressibility (1/GPa) = 0.02904374
#
# Stress axis : x y z
#
# Youngs Moduli (GPa) = 81.96278 62.53718 42.62116
#
# Poissons Ratio (x) = -0.02038 0.20531
# Poissons Ratio (y) = -0.02671 0.29041
# Poissons Ratio (z) = 0.39483 0.42611
#
# Static dielectric constant tensor:
#      x y z
#    x 1.861180 0.108690 0.037900 
#    y 0.108690 2.011690 0.010490 
#    z 0.037900 0.010490 1.838570 
# 
# From -- ./inp_files/599044.got.cif
#   From: 2010.05.17/outbox.cif.g08.bks.cpg/sg2_300_cif.got.tgz:599044.got - 2010.06.03 11:33:40.
