data_PCOD9091113
_publ_section_title
;
Structure prediction by ZEFSAII (Michael W. Deem and Ramdas Pophale) SiO2 
 PCOD9091113
Probable space group: P -1
;
_chemical_formula_sum "Si O2"
_cell_formula_units_Z 16
_cell_length_a 11.724420
_cell_length_b 9.658193
_cell_length_c 18.150823
_cell_angle_alpha 119.430239
_cell_angle_beta 33.440957
_cell_angle_gamma 131.087478
_cell_volume 845.596324
_symmetry_space_group_name_H-M "P -1"
_symmetry_group_IT_number 2
_symmetry_cell_setting 'triclinic'
loop_
_space_group_symop_operation_xyz
x,y,z
-x,-y,-z
loop_
_atom_site_type_symbol
_atom_site_label
_atom_site_fract_x
_atom_site_fract_y
_atom_site_fract_z
Si Si1 0.679427 0.298085 0.140321
Si Si2 0.793654 0.945428 0.383800
Si Si3 0.074315 0.771218 0.871330
Si Si4 0.868369 0.875968 0.609718
Si Si5 0.282209 0.192082 0.839627
Si Si6 0.234849 0.766372 0.631369
Si Si7 0.077581 0.282513 0.847315
Si Si8 0.779963 0.468871 0.560562
O O1 0.804346 0.282720 0.143567
O O2 0.397771 0.153024 0.248130
O O3 0.734230 0.507826 0.172573
O O4 0.824964 0.275668 0.988092
O O5 0.513702 0.865595 0.533594
O O6 0.842191 0.786975 0.284533
O O7 0.826773 0.092597 0.340521
O O8 0.967600 0.038688 0.383763
O O9 0.077872 0.687962 0.768802
O O10 0.241211 0.994770 0.832282
O O11 0.807741 0.726769 0.026065
O O12 0.815540 0.667732 0.576676
O O13 0.000000 0.000000 0.500000
O O14 0.083210 0.152740 0.874215
O O15 0.538065 0.328246 0.699939
O O16 0.215784 0.625611 0.542534
O O17 0.000000 0.500000 0.500000
#
# Coordination Sequence:
#
# PCOD9091113 Si02
#       8
#     2   2   2   2   2   2   2   2
#     4  10  22  38  61  90 128 161 203 247 316 368
#     4  11  21  37  65  90 124 158 211 254 306 362
#     4  10  21  35  67  96 119 157 212 261 291 358
#     4  12  26  41  59  92 128 164 200 257 315 367
#     4  10  19  39  63  92 122 161 209 251 304 358
#     4  11  20  38  65  96 116 158 215 259 297 359
#     4  10  19  39  65  88 116 171 208 247 302 373
#     4  12  24  41  65  89 126 166 203 250 314 370
#
# _framework density 18.921558000000001
#
# number of rings (size 3 to 8) (size 9 to 14) (size 15 to 20)
#    0.000    1.250    5.000    1.500    1.750    1.500 
#    0.000    3.125    2.750    0.000    0.000    0.000 
#    0.000    0.000    0.000    0.000    0.000    0.000 
#
# Total GULP energy -89200.094246 kJ/mol
# GULP energy per Si atom -5575.005890 kJ/mol
# Density = 1.887849 g / cm^3
# Si number density = 18.921558 Si / 1000 Ang^3
#
#
#
# Elastic Constant Matrix: (Units=GPa)
#
#
# Indices 1 2 3 4 5 6 
#
# 1 72.7539 20.2015 54.1258 6.4371 -6.0503 6.9831
# 2 20.2015 76.3845 43.1258 13.4709 1.0879 -6.4551
# 3 54.1258 43.1258 146.4135 12.6948 7.6495 18.5786
# 4 6.4371 13.4709 12.6948 25.7104 3.2533 2.0133
# 5 -6.0503 1.0879 7.6495 3.2533 30.3351 -0.3625
# 6 6.9831 -6.4551 18.5786 2.0133 -0.3625 31.1422
#
#
#
# Elastic Compliance Matrix: (Units=1/GPa)
#
#
# Indices 1 2 3 4 5 6 
#
# 1 0.020117 -0.001018 -0.007285 -0.001658 0.006061 -0.000198
# 2 -0.001018 0.018401 -0.005458 -0.007480 0.001409 0.007798
# 3 -0.007285 -0.005458 0.012252 -0.000274 -0.004399 -0.006841
# 4 -0.001658 -0.007480 -0.000274 0.044278 -0.004789 -0.003934
# 5 0.006061 0.001409 -0.004399 -0.004789 0.035774 0.002283
# 6 -0.000198 0.007798 -0.006841 -0.003934 0.002283 0.038134
#
#
# Mechanical properties :
#
#
# Convention : Reuss Voigt Hill
#
# Bulk Modulus (GPa) = 43.01470 58.93979 50.97724
# Shear Modulus (GPa) = 24.48267 29.31080 26.89673
#
# Velocity S-wave (km/s) = 3.60099 3.94009 3.77435
# Velocity P-wave (km/s) = 6.33025 7.20529 6.78190
#
# Compressibility (1/GPa) = 0.02324786
#
# Stress axis : x y z
#
# Youngs Moduli (GPa) = 49.70938 54.34598 81.61818
#
# Poissons Ratio (x) = 0.05534 0.59456
# Poissons Ratio (y) = 0.05062 0.44547
# Poissons Ratio (z) = 0.36211 0.29662
#
# Static dielectric constant tensor:
#      x y z
#    x 1.633150 -0.009050 0.009450 
#    y -0.009050 1.662100 0.025810 
#    z 0.009450 0.025810 1.735830 
# 
# From -- ./inp_files/402452.got.cif
#   From: 2010.05.17/outbox.cif.g08.bks.cpg/sg2_202_cif.got.tgz:402452.got - 2010.06.03 11:33:40.
