data_PCOD9091882
_publ_section_title
;
Structure prediction by ZEFSAII (Michael W. Deem and Ramdas Pophale) SiO2 
 PCOD9091882
Probable space group: P -1
;
_chemical_formula_sum "Si O2"
_cell_formula_units_Z 16
_cell_length_a 18.915235
_cell_length_b 8.370584
_cell_length_c 5.146486
_cell_angle_alpha 117.232473
_cell_angle_beta 109.066098
_cell_angle_gamma 66.354453
_cell_volume 653.375148
_symmetry_space_group_name_H-M "P -1"
_symmetry_group_IT_number 2
_symmetry_cell_setting 'triclinic'
loop_
_space_group_symop_operation_xyz
x,y,z
-x,-y,-z
loop_
_atom_site_type_symbol
_atom_site_label
_atom_site_fract_x
_atom_site_fract_y
_atom_site_fract_z
Si Si1 0.076269 0.543212 0.002293
Si Si2 0.380081 0.185136 0.108127
Si Si3 0.193172 0.718127 0.520715
Si Si4 0.584173 0.562232 0.282024
Si Si5 0.972497 0.825855 0.747154
Si Si6 0.872718 0.855287 0.149509
Si Si7 0.282424 0.526452 0.979476
Si Si8 0.539428 0.232769 0.095377
O O1 0.142711 0.340768 0.935415
O O2 0.043479 0.639268 0.760774
O O3 0.111824 0.685721 0.305201
O O4 0.000000 0.500000 0.000000
O O5 0.369184 0.302236 0.447192
O O6 0.465250 0.205889 0.140891
O O7 0.312652 0.305839 0.929657
O O8 0.393857 0.965020 0.981119
O O9 0.220999 0.599693 0.728461
O O10 0.185429 0.936089 0.730051
O O11 0.250049 0.641705 0.287037
O O12 0.637924 0.448817 0.028980
O O13 0.571141 0.404638 0.339898
O O14 0.501920 0.695954 0.177884
O O15 0.941210 0.851182 0.438107
O O16 0.902428 0.831417 0.870145
O O17 0.000000 0.000000 0.000000
#
# Coordination Sequence:
#
# PCOD9091882 Si02
#       8
#     2   2   2   2   2   2   2   2
#     4  10  25  43  72 100 125 160 221 278 332 390
#     4  10  19  40  63 100 133 175 216 270 327 374
#     4  12  25  46  65  92 133 178 217 267 328 392
#     4  10  19  40  64  98 132 170 221 271 322 375
#     4  11  21  39  68  98 125 157 195 272 338 379
#     4  11  24  42  66  95 126 164 208 265 325 396
#     4  11  25  44  68  87 138 185 218 260 325 397
#     4   9  20  34  69 104 127 168 220 279 320 375
#
# _framework density 24.488226000000001
#
# number of rings (size 3 to 8) (size 9 to 14) (size 15 to 20)
#    0.000    1.500    2.500    2.250    1.750    2.000 
#    2.250    2.500    0.000    0.000    0.000    0.000 
#    0.000    0.000    0.000    0.000    0.000    0.000 
#
# Total GULP energy -89332.197109 kJ/mol
# GULP energy per Si atom -5583.262319 kJ/mol
# Density = 2.443249 g / cm^3
# Si number density = 24.488226 Si / 1000 Ang^3
#
#
#
# Elastic Constant Matrix: (Units=GPa)
#
#
# Indices 1 2 3 4 5 6 
#
# 1 77.1918 21.6813 8.2180 1.4175 -21.5434 -11.8926
# 2 21.6813 180.7968 41.6582 14.8076 -15.2782 -16.1386
# 3 8.2180 41.6582 85.9471 -5.5163 -16.8929 -9.9888
# 4 1.4175 14.8076 -5.5163 45.5278 -7.0966 9.0243
# 5 -21.5434 -15.2782 -16.8929 -7.0966 30.1852 3.2650
# 6 -11.8926 -16.1386 -9.9888 9.0243 3.2650 23.5621
#
#
#
# Elastic Compliance Matrix: (Units=1/GPa)
#
#
# Indices 1 2 3 4 5 6 
#
# 1 0.017617 -0.000939 0.002127 0.000561 0.012643 0.007183
# 2 -0.000939 0.007017 -0.003050 -0.003515 -0.000128 0.004403
# 3 0.002127 -0.003050 0.015249 0.003630 0.009058 0.002803
# 4 0.000561 -0.003515 0.003630 0.027251 0.008378 -0.012184
# 5 0.012643 -0.000128 0.009058 0.008378 0.049113 0.000119
# 6 0.007183 0.004403 0.002803 -0.012184 0.000119 0.054921
#
#
# Mechanical properties :
#
#
# Convention : Reuss Voigt Hill
#
# Bulk Modulus (GPa) = 27.65672 54.11674 40.88673
# Shear Modulus (GPa) = 26.74569 38.01357 32.37963
#
# Velocity S-wave (km/s) = 3.30841 3.94422 3.64022
# Velocity P-wave (km/s) = 5.09043 6.54901 5.86524
#
# Compressibility (1/GPa) = 0.03615757
#
# Stress axis : x y z
#
# Youngs Moduli (GPa) = 56.76308 142.51964 65.57660
#
# Poissons Ratio (x) = 0.13383 -0.13945
# Poissons Ratio (y) = 0.05330 0.20003
# Poissons Ratio (z) = -0.12071 0.43472
#
# Static dielectric constant tensor:
#      x y z
#    x 2.036730 -0.027790 -0.039570 
#    y -0.027790 1.972760 0.023870 
#    z -0.039570 0.023870 1.987190 
# 
# From -- ./inp_files/117449.got.cif
#   From: 2010.05.17/outbox.cif.g08.bks.cpg/sg2_59_cif.got.tgz:117449.got - 2010.06.03 11:33:40.
