data_PCOD9091170
_publ_section_title
;
Structure prediction by ZEFSAII (Michael W. Deem and Ramdas Pophale) SiO2 
 PCOD9091170
Probable space group: P -1
;
_chemical_formula_sum "Si O2"
_cell_formula_units_Z 10
_cell_length_a 13.780649
_cell_length_b 6.736226
_cell_length_c 9.495521
_cell_angle_alpha 121.310032
_cell_angle_beta 41.527089
_cell_angle_gamma 98.335192
_cell_volume 450.548362
_symmetry_space_group_name_H-M "P -1"
_symmetry_group_IT_number 2
_symmetry_cell_setting 'triclinic'
loop_
_space_group_symop_operation_xyz
x,y,z
-x,-y,-z
loop_
_atom_site_type_symbol
_atom_site_label
_atom_site_fract_x
_atom_site_fract_y
_atom_site_fract_z
Si Si1 0.674795 0.817513 0.301823
Si Si2 0.894005 0.782091 0.285901
Si Si3 0.203169 0.757807 0.053230
Si Si4 0.164477 0.466558 0.237977
Si Si5 0.676260 0.857854 0.821774
O O1 0.749427 0.921162 0.383096
O O2 0.500000 0.000000 0.500000
O O3 0.687673 0.534396 0.227799
O O4 0.792765 0.741242 0.010800
O O5 0.034300 0.874612 0.195492
O O6 0.809131 0.767118 0.518974
O O7 0.000000 0.500000 0.000000
O O8 0.162300 0.703417 0.238028
O O9 0.291476 0.938577 0.041291
O O10 0.000000 0.500000 0.500000
O O11 0.296542 0.371362 0.183652
O O12 0.500000 0.000000 0.000000
#
# Coordination Sequence:
#
# PCOD9091170 Si02
#       5
#     2   2   2   2   2
#     4   9  19  39  61  88 125 153 190 256 303 340
#     4  10  19  39  64  84 122 162 191 247 303 349
#     4   9  22  39  65  83 125 159 198 240 306 348
#     4  10  20  38  63  85 119 153 207 234 291 363
#     4  12  23  39  64  90 119 159 206 245 291 357
#
# _framework density 22.195176
#
# number of rings (size 3 to 8) (size 9 to 14) (size 15 to 20)
#    1.200    0.800    2.000    1.800    0.000    0.800 
#    0.000   10.000    0.000    0.000    0.000    0.000 
#    0.000    0.000    0.000    0.000    0.000    0.000 
#
# Total GULP energy -55745.639262 kJ/mol
# GULP energy per Si atom -5574.563926 kJ/mol
# Density = 2.214466 g / cm^3
# Si number density = 22.195176 Si / 1000 Ang^3
#
#
#
# Elastic Constant Matrix: (Units=GPa)
#
#
# Indices 1 2 3 4 5 6 
#
# 1 185.3256 27.7335 7.3394 12.9949 -16.7125 -9.7836
# 2 27.7335 38.7023 2.4745 -0.8861 0.3326 2.7616
# 3 7.3394 2.4745 46.1061 10.5824 -3.8548 2.0580
# 4 12.9949 -0.8861 10.5824 22.5761 -7.2016 6.0412
# 5 -16.7125 0.3326 -3.8548 -7.2016 34.3352 -1.2212
# 6 -9.7836 2.7616 2.0580 6.0412 -1.2212 33.9764
#
#
#
# Elastic Compliance Matrix: (Units=1/GPa)
#
#
# Indices 1 2 3 4 5 6 
#
# 1 0.006895 -0.005312 0.000256 -0.004328 0.002645 0.003266
# 2 -0.005312 0.030287 -0.002084 0.005904 -0.002052 -0.004989
# 3 0.000256 -0.002084 0.024464 -0.011787 0.000450 0.000873
# 4 -0.004328 0.005904 -0.011787 0.058153 0.008317 -0.011053
# 5 0.002645 -0.002052 0.000450 0.008317 0.032248 0.000581
# 6 0.003266 -0.004989 0.000873 -0.011053 0.000581 0.032712
#
#
# Mechanical properties :
#
#
# Convention : Reuss Voigt Hill
#
# Bulk Modulus (GPa) = 21.11196 38.35876 29.73536
# Shear Modulus (GPa) = 23.27453 33.68330 28.47891
#
# Velocity S-wave (km/s) = 3.24177 3.89986 3.58594
# Velocity P-wave (km/s) = 4.85229 6.13176 5.52916
#
# Compressibility (1/GPa) = 0.04736651
#
# Stress axis : x y z
#
# Youngs Moduli (GPa) = 145.02983 33.01759 40.87609
#
# Poissons Ratio (x) = 0.17540 -0.01047
# Poissons Ratio (y) = 0.77043 0.08518
# Poissons Ratio (z) = -0.03715 0.06880
#
# Static dielectric constant tensor:
#      x y z
#    x 1.854370 -0.036840 -0.006550 
#    y -0.036840 1.919910 0.062350 
#    z -0.006550 0.062350 1.853980 
# 
# From -- ./inp_files/26008.got.cif
#   From: 2010.05.17/outbox.cif.g08.bks.cpg/sg2_14_cif.got.tgz:26008.got - 2010.06.03 11:33:40.
