data_PCOD9091740
_publ_section_title
;
Structure prediction by ZEFSAII (Michael W. Deem and Ramdas Pophale) SiO2 
 PCOD9091740
Probable space group: P -1
;
_chemical_formula_sum "Si O2"
_cell_formula_units_Z 12
_cell_length_a 11.703539
_cell_length_b 8.486422
_cell_length_c 15.173499
_cell_angle_alpha 138.834450
_cell_angle_beta 28.830739
_cell_angle_gamma 126.192367
_cell_volume 466.924783
_symmetry_space_group_name_H-M "P -1"
_symmetry_group_IT_number 2
_symmetry_cell_setting 'triclinic'
loop_
_space_group_symop_operation_xyz
x,y,z
-x,-y,-z
loop_
_atom_site_type_symbol
_atom_site_label
_atom_site_fract_x
_atom_site_fract_y
_atom_site_fract_z
Si Si1 0.377680 0.315254 0.109400
Si Si2 0.665554 0.248534 0.534437
Si Si3 0.093132 0.961409 0.232446
Si Si4 0.903758 0.308868 0.669872
Si Si5 0.129555 0.405606 0.963519
Si Si6 0.259243 0.560880 0.628113
O O1 0.323971 0.520148 0.309874
O O2 0.187241 0.431059 0.210274
O O3 0.305535 0.072225 0.092150
O O4 0.644707 0.274760 0.869167
O O5 0.866613 0.029487 0.346682
O O6 0.697956 0.310179 0.436818
O O7 0.388336 0.225961 0.719178
O O8 0.001347 0.106616 0.444921
O O9 0.174983 0.674334 0.072615
O O10 0.135121 0.339647 0.584907
O O11 0.948298 0.308065 0.109343
O O12 0.000000 0.500000 0.000000
O O13 0.500000 0.500000 0.500000
#
# Coordination Sequence:
#
# PCOD9091740 Si02
#       6
#     2   2   2   2   2   2
#     4  10  19  39  72 104 136 174 225 284 335 404
#     4  11  22  45  69  96 140 176 224 280 339 401
#     4  11  24  43  73 100 133 181 229 281 343 398
#     4  10  20  39  70 106 134 174 229 276 339 404
#     4  12  28  46  64 101 139 182 231 281 339 408
#     4  12  23  43  69  95 143 182 219 282 340 400
#
# _framework density 25.70007
#
# number of rings (size 3 to 8) (size 9 to 14) (size 15 to 20)
#    0.000    1.000    6.667    1.000    0.000    3.333 
#    0.000    0.833    0.000    0.000    0.000    0.000 
#    0.000    0.000    0.000    0.000    0.000    0.000 
#
# Total GULP energy -67150.543872 kJ/mol
# GULP energy per Si atom -5595.878656 kJ/mol
# Density = 2.564158 g / cm^3
# Si number density = 25.700070 Si / 1000 Ang^3
#
#
#
# Elastic Constant Matrix: (Units=GPa)
#
#
# Indices 1 2 3 4 5 6 
#
# 1 172.8855 9.7917 48.8019 -14.8267 -33.5543 2.8907
# 2 9.7917 96.4780 62.8573 -18.5775 -12.6670 2.1883
# 3 48.8019 62.8573 140.3894 -35.7150 -23.5055 -16.0024
# 4 -14.8267 -18.5775 -35.7150 53.6334 -9.2005 -0.2486
# 5 -33.5543 -12.6670 -23.5055 -9.2005 53.0767 -2.1116
# 6 2.8907 2.1883 -16.0024 -0.2486 -2.1116 33.3826
#
#
#
# Elastic Compliance Matrix: (Units=1/GPa)
#
#
# Indices 1 2 3 4 5 6 
#
# 1 0.007356 0.001717 -0.002332 0.001802 0.004277 -0.001584
# 2 0.001717 0.015670 -0.007654 0.001028 0.001425 -0.004747
# 3 -0.002332 -0.007654 0.015105 0.007667 0.005049 0.008321
# 4 0.001802 0.001028 0.007667 0.026254 0.009500 0.004248
# 5 0.004277 0.001425 0.005049 0.009500 0.025913 0.003666
# 6 -0.001584 -0.004747 0.008321 0.004248 0.003666 0.034656
#
#
# Mechanical properties :
#
#
# Convention : Reuss Voigt Hill
#
# Bulk Modulus (GPa) = 46.30962 72.51720 59.41341
# Shear Modulus (GPa) = 33.62681 47.23869 40.43275
#
# Velocity S-wave (km/s) = 3.62115 4.29193 3.97073
# Velocity P-wave (km/s) = 5.96171 7.26904 6.64759
#
# Compressibility (1/GPa) = 0.02159379
#
# Stress axis : x y z
#
# Youngs Moduli (GPa) = 135.93812 63.81511 66.20337
#
# Poissons Ratio (x) = -0.10958 0.15439
# Poissons Ratio (y) = -0.23343 0.50672
# Poissons Ratio (z) = 0.31702 0.48844
#
# Static dielectric constant tensor:
#      x y z
#    x 2.168180 0.028920 0.085710 
#    y 0.028920 2.025120 0.021700 
#    z 0.085710 0.021700 2.045460 
# 
# From -- ./inp_files/516180.got.cif
#   From: 2010.05.17/outbox.cif.g08.bks.cpg/sg2_259_cif.got.tgz:516180.got - 2010.06.03 11:33:40.
