data_PCOD9091295
_publ_section_title
;
Structure prediction by ZEFSAII (Michael W. Deem and Ramdas Pophale) SiO2 
 PCOD9091295
Probable space group: P -1
;
_chemical_formula_sum "Si O2"
_cell_formula_units_Z 16
_cell_length_a 7.185871
_cell_length_b 13.543974
_cell_length_c 13.268015
_cell_angle_alpha 42.413045
_cell_angle_beta 55.274947
_cell_angle_gamma 55.169269
_cell_volume 688.913114
_symmetry_space_group_name_H-M "P -1"
_symmetry_group_IT_number 2
_symmetry_cell_setting 'triclinic'
loop_
_space_group_symop_operation_xyz
x,y,z
-x,-y,-z
loop_
_atom_site_type_symbol
_atom_site_label
_atom_site_fract_x
_atom_site_fract_y
_atom_site_fract_z
Si Si1 0.838621 0.601639 0.256118
Si Si2 0.861118 0.145504 0.496104
Si Si3 0.166632 0.542921 0.834178
Si Si4 0.233889 0.945370 0.191990
Si Si5 0.334324 0.580405 0.190333
Si Si6 0.351319 0.923657 0.959215
Si Si7 0.809071 0.357896 0.596405
Si Si8 0.306087 0.199213 0.648966
O O1 0.776626 0.590579 0.167442
O O2 0.770475 0.458993 0.434714
O O3 0.757510 0.726353 0.275853
O O4 0.121987 0.569228 0.194391
O O5 0.923197 0.295091 0.318267
O O6 0.912487 0.083504 0.643285
O O7 0.573876 0.190461 0.544499
O O8 0.000000 0.000000 0.500000
O O9 0.412743 0.531234 0.823204
O O10 0.000000 0.500000 0.000000
O O11 0.340712 0.764328 0.271808
O O12 0.401376 0.046993 0.100814
O O13 0.178690 0.990560 0.057649
O O14 0.266458 0.545920 0.351859
O O15 0.344242 0.755309 0.060002
O O16 0.301470 0.026664 0.798306
O O17 0.085392 0.276191 0.588834
#
# Coordination Sequence:
#
# PCOD9091295 Si02
#       8
#     2   2   2   2   2   2   2   2
#     4  11  23  41  69 100 129 169 219 282 334 385
#     4  11  24  43  64  89 134 178 217 271 324 399
#     4  12  28  43  68  98 129 184 228 264 337 396
#     4   9  19  35  61  87 127 167 208 267 319 381
#     4  10  23  41  65  98 139 165 214 281 325 394
#     4   9  20  36  59  99 132 165 211 271 325 387
#     4  10  19  39  65 100 128 162 217 281 330 391
#     4  10  22  38  68  99 131 170 217 269 340 394
#
# _framework density 23.224989000000001
#
# number of rings (size 3 to 8) (size 9 to 14) (size 15 to 20)
#    0.000    1.750    1.250    3.000   12.250    6.000 
#    0.000    0.625    0.000    0.000    0.000    0.000 
#    0.000    0.000    0.000    0.000    0.000    0.000 
#
# Total GULP energy -89158.834338 kJ/mol
# GULP energy per Si atom -5572.427146 kJ/mol
# Density = 2.317213 g / cm^3
# Si number density = 23.224989 Si / 1000 Ang^3
#
#
#
# Elastic Constant Matrix: (Units=GPa)
#
#
# Indices 1 2 3 4 5 6 
#
# 1 76.1791 5.6635 9.4338 -2.0904 -20.9910 -6.6339
# 2 5.6635 92.2392 39.4798 8.0314 0.4450 -2.4607
# 3 9.4338 39.4798 160.2886 1.8388 -8.8817 4.3007
# 4 -2.0904 8.0314 1.8388 30.8754 9.7741 -6.7981
# 5 -20.9910 0.4450 -8.8817 9.7741 29.7547 -1.9027
# 6 -6.6339 -2.4607 4.3007 -6.7981 -1.9027 29.0785
#
#
#
# Elastic Compliance Matrix: (Units=1/GPa)
#
#
# Indices 1 2 3 4 5 6 
#
# 1 0.017074 -0.000757 -0.000202 -0.001758 0.012848 0.004291
# 2 -0.000757 0.012452 -0.003046 -0.002750 -0.000685 0.000644
# 3 -0.000202 -0.003046 0.007165 -0.000634 0.002163 -0.001370
# 4 -0.001758 -0.002750 -0.000634 0.039062 -0.013728 0.007694
# 5 0.012848 -0.000685 0.002163 -0.013728 0.047996 0.002484
# 6 0.004291 0.000644 -0.001370 0.007694 0.002484 0.037587
#
#
# Mechanical properties :
#
#
# Convention : Reuss Voigt Hill
#
# Bulk Modulus (GPa) = 34.86527 48.65123 41.75825
# Shear Modulus (GPa) = 27.94796 36.21706 32.08251
#
# Velocity S-wave (km/s) = 3.47271 3.95321 3.72072
# Velocity P-wave (km/s) = 5.57890 6.46764 6.03964
#
# Compressibility (1/GPa) = 0.02868184
#
# Stress axis : x y z
#
# Youngs Moduli (GPa) = 58.56929 80.31155 139.57259
#
# Poissons Ratio (x) = 0.06076 0.02814
# Poissons Ratio (y) = 0.04431 0.42514
# Poissons Ratio (z) = 0.01181 0.24463
#
# Static dielectric constant tensor:
#      x y z
#    x 1.951420 -0.033150 0.010720 
#    y -0.033150 1.926200 -0.050290 
#    z 0.010720 -0.050290 1.922820 
# 
# From -- ./inp_files/503765.got.cif
#   From: 2010.05.17/outbox.cif.g08.bks.cpg/sg2_252_cif.got.tgz:503765.got - 2010.06.03 11:33:40.
