data_PCOD9091925
_publ_section_title
;
Structure prediction by ZEFSAII (Michael W. Deem and Ramdas Pophale) SiO2 
 PCOD9091925
Probable space group: P -1
;
_chemical_formula_sum "Si O2"
_cell_formula_units_Z 14
_cell_length_a 13.715290
_cell_length_b 13.676677
_cell_length_c 10.532225
_cell_angle_alpha 118.121747
_cell_angle_beta 30.912056
_cell_angle_gamma 136.901085
_cell_volume 622.072983
_symmetry_space_group_name_H-M "P -1"
_symmetry_group_IT_number 2
_symmetry_cell_setting 'triclinic'
loop_
_space_group_symop_operation_xyz
x,y,z
-x,-y,-z
loop_
_atom_site_type_symbol
_atom_site_label
_atom_site_fract_x
_atom_site_fract_y
_atom_site_fract_z
Si Si1 0.366169 0.194084 0.609217
Si Si2 0.347872 0.825161 0.911136
Si Si3 0.205452 0.996905 0.904967
Si Si4 0.884189 0.485984 0.319256
Si Si5 0.877900 0.065627 0.637244
Si Si6 0.804153 0.225003 0.394406
Si Si7 0.818460 0.640506 0.701089
O O1 0.498869 0.138673 0.368263
O O2 0.259935 0.122437 0.825031
O O3 0.610745 0.382276 0.475900
O O4 0.103701 0.116371 0.770745
O O5 0.584134 0.924221 0.813384
O O6 0.178197 0.866842 0.147384
O O7 0.145012 0.636917 0.043309
O O8 0.494655 0.113409 0.725073
O O9 0.190336 0.879965 0.765379
O O10 0.885833 0.363160 0.298877
O O11 0.879077 0.563885 0.493597
O O12 0.078552 0.208671 0.398896
O O13 0.000000 0.000000 0.500000
O O14 0.008614 0.296754 0.325785
O O15 0.500000 0.500000 0.000000
#
# Coordination Sequence:
#
# PCOD9091925 Si02
#       7
#     2   2   2   2   2   2   2
#     4  10  19  40  63  93 127 174 214 267 330 380
#     4  10  22  43  65  93 131 175 216 266 328 398
#     4   9  20  37  63  93 132 166 221 271 319 393
#     4  10  22  38  62  92 136 169 210 278 317 390
#     4  10  24  46  66  95 133 171 220 271 325 396
#     4  10  20  38  60  96 130 171 214 276 328 374
#     4  11  23  40  67  96 128 174 220 270 329 388
#
# _framework density 22.505398
#
# number of rings (size 3 to 8) (size 9 to 14) (size 15 to 20)
#    0.000    2.000    0.000    2.571    2.000    2.286 
#   20.571    0.714    0.000    0.000    0.000    0.000 
#    0.000    0.000    0.000    0.000    0.000    0.000 
#
# Total GULP energy -78215.360739 kJ/mol
# GULP energy per Si atom -5586.811481 kJ/mol
# Density = 2.245417 g / cm^3
# Si number density = 22.505398 Si / 1000 Ang^3
#
#
#
# Elastic Constant Matrix: (Units=GPa)
#
#
# Indices 1 2 3 4 5 6 
#
# 1 78.6633 38.2350 59.5942 -8.0772 -33.7512 -2.8075
# 2 38.2350 110.1371 47.1266 -23.6254 -19.7365 -9.0276
# 3 59.5942 47.1266 131.3056 -28.9380 -19.2765 -7.1542
# 4 -8.0772 -23.6254 -28.9380 45.1889 5.3232 -0.9500
# 5 -33.7512 -19.7365 -19.2765 5.3232 31.6766 -5.0380
# 6 -2.8075 -9.0276 -7.1542 -0.9500 -5.0380 42.0446
#
#
#
# Elastic Compliance Matrix: (Units=1/GPa)
#
#
# Indices 1 2 3 4 5 6 
#
# 1 0.035737 -0.002917 -0.011888 -0.006286 0.030601 0.003262
# 2 -0.002917 0.012602 -0.001487 0.004764 0.003481 0.002783
# 3 -0.011888 -0.001487 0.014237 0.006934 -0.005975 0.000750
# 4 -0.006286 0.004764 0.006934 0.028447 -0.003980 0.001949
# 5 0.030601 0.003481 -0.005975 -0.003980 0.064880 0.009458
# 6 0.003262 0.002783 0.000750 0.001949 0.009458 0.025905
#
#
# Mechanical properties :
#
#
# Convention : Reuss Voigt Hill
#
# Bulk Modulus (GPa) = 33.34132 67.77973 50.56053
# Shear Modulus (GPa) = 22.28288 35.45871 28.87080
#
# Velocity S-wave (km/s) = 3.15002 3.97364 3.58556
# Velocity P-wave (km/s) = 5.29879 7.15791 6.29733
#
# Compressibility (1/GPa) = 0.02999281
#
# Stress axis : x y z
#
# Youngs Moduli (GPa) = 27.98237 79.35151 70.24101
#
# Poissons Ratio (x) = 0.23148 0.83501
# Poissons Ratio (y) = 0.08163 0.10441
# Poissons Ratio (z) = 0.33265 0.11796
#
# Static dielectric constant tensor:
#      x y z
#    x 1.878140 0.010530 0.032620 
#    y 0.010530 1.820120 -0.005820 
#    z 0.032620 -0.005820 1.925690 
# 
# From -- ./inp_files/455772.got.cif
#   From: 2010.05.17/outbox.cif.g08.bks.cpg/sg2_228_cif.got.tgz:455772.got - 2010.06.03 11:33:40.
