data_PCOD9091673
_publ_section_title
;
Structure prediction by ZEFSAII (Michael W. Deem and Ramdas Pophale) SiO2 
 PCOD9091673
Probable space group: P -1
;
_chemical_formula_sum "Si O2"
_cell_formula_units_Z 16
_cell_length_a 9.669878
_cell_length_b 19.442880
_cell_length_c 13.462979
_cell_angle_alpha 26.106849
_cell_angle_beta 131.472000
_cell_angle_gamma 142.578362
_cell_volume 664.474120
_symmetry_space_group_name_H-M "P -1"
_symmetry_group_IT_number 2
_symmetry_cell_setting 'triclinic'
loop_
_space_group_symop_operation_xyz
x,y,z
-x,-y,-z
loop_
_atom_site_type_symbol
_atom_site_label
_atom_site_fract_x
_atom_site_fract_y
_atom_site_fract_z
Si Si1 0.679791 0.343929 0.755363
Si Si2 0.141043 0.416556 0.658113
Si Si3 0.526145 0.974166 0.352142
Si Si4 0.818086 0.018941 0.940295
Si Si5 0.635648 0.667838 0.616524
Si Si6 0.215258 0.586993 0.062072
Si Si7 0.811084 0.075730 0.150529
Si Si8 0.306957 0.270395 0.216162
O O1 0.743224 0.511103 0.491067
O O2 0.824760 0.432075 0.812977
O O3 0.743523 0.212294 0.902576
O O4 0.413696 0.190122 0.864691
O O5 0.362308 0.530668 0.686279
O O6 0.000000 0.500000 0.500000
O O7 0.967862 0.182409 0.883555
O O8 0.277120 0.893117 0.293170
O O9 0.571612 0.835356 0.609778
O O10 0.686030 0.029828 0.258802
O O11 0.616556 0.178477 0.181951
O O12 0.000000 0.000000 0.000000
O O13 0.684775 0.531221 0.763495
O O14 0.770341 0.751096 0.676819
O O15 0.700497 0.858069 0.340708
O O16 0.000000 0.500000 0.000000
O O17 0.081528 0.185995 0.153153
O O18 0.500000 0.500000 0.000000
#
# Coordination Sequence:
#
# PCOD9091673 Si02
#       8
#     2   2   2   2   2   2   2   2
#     4  10  24  43  67  96 130 184 214 265 348 384
#     4  12  25  41  68  96 133 170 228 275 319 394
#     4   9  19  38  61  91 125 169 211 262 332 378
#     4  10  22  42  66  93 139 175 215 274 322 393
#     4  11  22  38  62  96 121 165 220 266 325 387
#     4  10  19  39  69  91 125 164 218 265 322 403
#     4   9  19  38  64  88 126 165 215 267 326 389
#     4  11  22  37  63  91 129 167 213 272 331 382
#
# _framework density 24.079193
#
# number of rings (size 3 to 8) (size 9 to 14) (size 15 to 20)
#    0.000    2.000    0.000    7.500    3.500    4.000 
#    0.000    0.625   11.000    0.000    0.000    0.000 
#    0.000    0.000    0.000    0.000    0.000    0.000 
#
# Total GULP energy -89415.346253 kJ/mol
# GULP energy per Si atom -5588.459141 kJ/mol
# Density = 2.402439 g / cm^3
# Si number density = 24.079193 Si / 1000 Ang^3
#
#
#
# Elastic Constant Matrix: (Units=GPa)
#
#
# Indices 1 2 3 4 5 6 
#
# 1 90.2101 27.9835 45.1514 6.8231 23.4044 14.1878
# 2 27.9835 137.0885 26.6672 -3.8627 2.6703 22.6947
# 3 45.1514 26.6672 118.5471 -8.8179 23.5970 5.3438
# 4 6.8231 -3.8627 -8.8179 37.9920 -0.8906 7.4866
# 5 23.4044 2.6703 23.5970 -0.8906 53.8265 3.6661
# 6 14.1878 22.6947 5.3438 7.4866 3.6661 42.4640
#
#
#
# Elastic Compliance Matrix: (Units=1/GPa)
#
#
# Indices 1 2 3 4 5 6 
#
# 1 0.016039 -0.001892 -0.004930 -0.003801 -0.004601 -0.002660
# 2 -0.001892 0.008636 -0.001135 0.001823 0.001213 -0.004266
# 3 -0.004930 -0.001135 0.011335 0.003239 -0.002749 0.000494
# 4 -0.003801 0.001823 0.003239 0.029011 0.000984 -0.005312
# 5 -0.004601 0.001213 -0.002749 0.000984 0.021796 -0.000820
# 6 -0.002660 -0.004266 0.000494 -0.005312 -0.000820 0.027663
#
#
# Mechanical properties :
#
#
# Convention : Reuss Voigt Hill
#
# Bulk Modulus (GPa) = 49.76672 60.60557 55.18615
# Shear Modulus (GPa) = 36.47150 43.25941 39.86545
#
# Velocity S-wave (km/s) = 3.89607 4.24317 4.07332
# Velocity P-wave (km/s) = 6.39937 7.01640 6.71498
#
# Compressibility (1/GPa) = 0.02009375
#
# Stress axis : x y z
#
# Youngs Moduli (GPa) = 62.34681 115.79824 88.22572
#
# Poissons Ratio (x) = 0.21910 0.43499
# Poissons Ratio (y) = 0.11797 0.10017
# Poissons Ratio (z) = 0.30739 0.13148
#
# Static dielectric constant tensor:
#      x y z
#    x 1.973200 -0.075660 -0.077920 
#    y -0.075660 1.946970 0.038560 
#    z -0.077920 0.038560 1.970480 
# 
# From -- ./inp_files/571023.got.cif
#   From: 2010.05.17/outbox.cif.g08.bks.cpg/sg2_286_cif.got.tgz:571023.got - 2010.06.03 11:33:40.
