data_PCOD9091756
_publ_section_title
;
Structure prediction by ZEFSAII (Michael W. Deem and Ramdas Pophale) SiO2 
 PCOD9091756
Probable space group: P -1
;
_chemical_formula_sum "Si O2"
_cell_formula_units_Z 14
_cell_length_a 9.266796
_cell_length_b 16.776646
_cell_length_c 23.707088
_cell_angle_alpha 159.346392
_cell_angle_beta 31.394502
_cell_angle_gamma 150.612585
_cell_volume 622.124197
_symmetry_space_group_name_H-M "P -1"
_symmetry_group_IT_number 2
_symmetry_cell_setting 'triclinic'
loop_
_space_group_symop_operation_xyz
x,y,z
-x,-y,-z
loop_
_atom_site_type_symbol
_atom_site_label
_atom_site_fract_x
_atom_site_fract_y
_atom_site_fract_z
Si Si1 0.779555 0.703026 0.572042
Si Si2 0.389798 0.654666 0.303282
Si Si3 0.189621 0.772606 0.640547
Si Si4 0.829617 0.496786 0.995775
Si Si5 0.195320 0.988177 0.123927
Si Si6 0.281434 0.035428 0.337221
Si Si7 0.670320 0.971968 0.516117
O O1 0.500000 0.500000 0.500000
O O2 0.063774 0.628658 0.417722
O O3 0.742127 0.790859 0.704899
O O4 0.806983 0.938692 0.680720
O O5 0.497885 0.472945 0.112272
O O6 0.596644 0.735992 0.343876
O O7 0.448855 0.864993 0.375535
O O8 0.468169 0.892575 0.584837
O O9 0.000000 0.500000 0.500000
O O10 0.373906 0.793913 0.650658
O O11 0.999917 0.941415 0.811458
O O12 0.006593 0.732906 0.052222
O O13 0.778217 0.243727 0.814010
O O14 0.000000 0.500000 0.000000
O O15 0.500000 0.000000 0.000000
O O16 0.023424 0.103838 0.498246
#
# Coordination Sequence:
#
# PCOD9091756 Si02
#       7
#     2   2   2   2   2   2   2
#     4  11  23  47  71 102 141 189 247 293 353 430
#     4  10  19  39  76  95 125 186 238 290 337 418
#     4  12  26  45  67 102 145 182 231 296 362 421
#     4  12  22  45  73 102 140 184 242 293 350 432
#     4  12  27  47  70 105 151 191 229 302 374 412
#     4  11  25  41  72 106 132 185 242 289 355 431
#     4  10  19  41  67  98 130 174 239 281 340 415
#
# _framework density 22.503544000000002
#
# number of rings (size 3 to 8) (size 9 to 14) (size 15 to 20)
#    0.000    0.857    5.714    2.143    2.000    1.714 
#    5.143    1.429    0.000    0.000    0.000    0.000 
#    0.000    0.000    0.000    0.000    0.000    0.000 
#
# Total GULP energy -78039.425839 kJ/mol
# GULP energy per Si atom -5574.244703 kJ/mol
# Density = 2.245233 g / cm^3
# Si number density = 22.503544 Si / 1000 Ang^3
#
#
#
# Elastic Constant Matrix: (Units=GPa)
#
#
# Indices 1 2 3 4 5 6 
#
# 1 99.6780 37.0358 26.7673 -22.8434 -18.4688 14.1057
# 2 37.0358 107.4879 49.2480 -14.2743 -7.7420 14.8219
# 3 26.7673 49.2480 98.8302 -19.6923 -16.0474 7.6888
# 4 -22.8434 -14.2743 -19.6923 40.8651 2.2109 -0.1516
# 5 -18.4688 -7.7420 -16.0474 2.2109 30.2012 -6.5931
# 6 14.1057 14.8219 7.6888 -0.1516 -6.5931 40.3151
#
#
#
# Elastic Compliance Matrix: (Units=1/GPa)
#
#
# Indices 1 2 3 4 5 6 
#
# 1 0.014404 -0.003420 0.000505 0.006705 0.007122 -0.002689
# 2 -0.003420 0.013443 -0.005927 0.000049 -0.002457 -0.003017
# 3 0.000505 -0.005927 0.014973 0.005081 0.006420 0.000216
# 4 0.006705 0.000049 0.005081 0.030457 0.004024 -0.002561
# 5 0.007122 -0.002457 0.006420 0.004024 0.040800 0.003874
# 6 -0.002689 -0.003017 0.000216 -0.002561 0.003874 0.027437
#
#
# Mechanical properties :
#
#
# Convention : Reuss Voigt Hill
#
# Bulk Modulus (GPa) = 39.78383 59.12203 49.45293
# Shear Modulus (GPa) = 29.83691 35.13928 32.48810
#
# Velocity S-wave (km/s) = 3.64521 3.95587 3.80371
# Velocity P-wave (km/s) = 5.95265 6.86983 6.42762
#
# Compressibility (1/GPa) = 0.02513584
#
# Stress axis : x y z
#
# Youngs Moduli (GPa) = 69.42357 74.38856 66.78647
#
# Poissons Ratio (x) = 0.25442 -0.03371
# Poissons Ratio (y) = 0.23744 0.39583
# Poissons Ratio (z) = -0.03504 0.44088
#
# Static dielectric constant tensor:
#      x y z
#    x 1.940050 -0.025760 0.009220 
#    y -0.025760 1.946340 0.038170 
#    z 0.009220 0.038170 1.855750 
# 
# From -- ./inp_files/244749.got.cif
#   From: 2010.05.17/outbox.cif.g08.bks.cpg/sg2_123_cif.got.tgz:244749.got - 2010.06.03 11:33:40.
