data_PCOD9091190
_publ_section_title
;
Structure prediction by ZEFSAII (Michael W. Deem and Ramdas Pophale) SiO2 
 PCOD9091190
Probable space group: P -1
;
_chemical_formula_sum "Si O2"
_cell_formula_units_Z 12
_cell_length_a 8.379555
_cell_length_b 14.552927
_cell_length_c 9.945636
_cell_angle_alpha 27.835421
_cell_angle_beta 118.482471
_cell_angle_gamma 118.780248
_cell_volume 492.469084
_symmetry_space_group_name_H-M "P -1"
_symmetry_group_IT_number 2
_symmetry_cell_setting 'triclinic'
loop_
_space_group_symop_operation_xyz
x,y,z
-x,-y,-z
loop_
_atom_site_type_symbol
_atom_site_label
_atom_site_fract_x
_atom_site_fract_y
_atom_site_fract_z
Si Si1 0.926071 0.398594 0.284487
Si Si2 0.678523 0.401496 0.728171
Si Si3 0.163650 0.184409 0.305151
Si Si4 0.133181 0.045592 0.179828
Si Si5 0.147561 0.692907 0.343695
Si Si6 0.476084 0.958891 0.703445
O O1 0.906374 0.182166 0.490214
O O2 0.796003 0.351514 0.425285
O O3 0.135944 0.453411 0.347865
O O4 0.872972 0.599746 0.938344
O O5 0.500000 0.500000 0.500000
O O6 0.715416 0.289812 0.748389
O O7 0.641125 0.248495 0.033842
O O8 0.169245 0.188845 0.138603
O O9 0.358410 0.120605 0.507457
O O10 0.000000 0.000000 0.500000
O O11 0.317363 0.062417 0.143898
O O12 0.962265 0.120220 0.943793
O O13 0.000000 0.500000 0.500000
O O14 0.500000 0.000000 0.500000
#
# Coordination Sequence:
#
# PCOD9091190 Si02
#       6
#     2   2   2   2   2   2
#     4  11  23  39  66  94 120 168 209 259 308 370
#     4  11  22  40  66  91 123 169 209 254 318 372
#     4  11  21  42  62  86 131 168 208 250 318 368
#     4  11  22  40  65  92 125 159 214 259 309 365
#     4  10  19  39  64  86 125 163 201 256 317 365
#     4  10  22  38  63  90 126 167 203 257 310 373
#
# _framework density 24.367010000000001
#
# number of rings (size 3 to 8) (size 9 to 14) (size 15 to 20)
#    0.000    1.333    5.000    2.500    2.333    1.333 
#    0.000    5.000    0.000    0.000    0.000    0.000 
#    0.000    0.000    0.000    0.000    0.000    0.000 
#
# Total GULP energy -66997.169850 kJ/mol
# GULP energy per Si atom -5583.097487 kJ/mol
# Density = 2.431155 g / cm^3
# Si number density = 24.367010 Si / 1000 Ang^3
#
#
#
# Elastic Constant Matrix: (Units=GPa)
#
#
# Indices 1 2 3 4 5 6 
#
# 1 147.6244 17.0646 64.2102 -0.3650 22.1009 15.4302
# 2 17.0646 38.2603 14.5154 -13.6928 5.3580 -2.3686
# 3 64.2102 14.5154 154.2935 -17.0364 20.4986 -5.4104
# 4 -0.3650 -13.6928 -17.0364 38.7472 -3.7974 6.0975
# 5 22.1009 5.3580 20.4986 -3.7974 62.8851 6.5287
# 6 15.4302 -2.3686 -5.4104 6.0975 6.5287 29.8636
#
#
#
# Elastic Compliance Matrix: (Units=1/GPa)
#
#
# Indices 1 2 3 4 5 6 
#
# 1 0.009663 -0.003767 -0.003916 -0.002275 -0.001393 -0.005232
# 2 -0.003767 0.031974 -0.000032 0.010758 -0.001000 0.002498
# 3 -0.003916 -0.000032 0.008795 0.003133 -0.001645 0.003334
# 4 -0.002275 0.010758 0.003133 0.031738 0.001209 -0.004148
# 5 -0.001393 -0.001000 -0.001645 0.001209 0.017472 -0.003724
# 6 -0.005232 0.002498 0.003334 -0.004148 -0.003724 0.038652
#
#
# Mechanical properties :
#
#
# Convention : Reuss Voigt Hill
#
# Bulk Modulus (GPa) = 28.57055 59.08429 43.82742
# Shear Modulus (GPa) = 30.23120 42.59170 36.41145
#
# Velocity S-wave (km/s) = 3.52612 4.18535 3.86980
# Velocity P-wave (km/s) = 5.32246 6.90337 6.16381
#
# Compressibility (1/GPa) = 0.03500107
#
# Stress axis : x y z
#
# Youngs Moduli (GPa) = 103.49213 31.27544 113.69583
#
# Poissons Ratio (x) = 0.11781 0.44528
# Poissons Ratio (y) = 0.38985 0.00364
# Poissons Ratio (z) = 0.40532 0.00100
#
# Static dielectric constant tensor:
#      x y z
#    x 1.956040 -0.012360 0.004040 
#    y -0.012360 2.014980 0.042070 
#    z 0.004040 0.042070 1.964360 
# 
# From -- ./inp_files/157051.got.cif
#   From: 2010.05.17/outbox.cif.g08.bks.cpg/sg2_79_cif.got.tgz:157051.got - 2010.06.03 11:33:40.
