data_PCOD9091576
_publ_section_title
;
Structure prediction by ZEFSAII (Michael W. Deem and Ramdas Pophale) SiO2 
 PCOD9091576
Probable space group: P -1
;
_chemical_formula_sum "Si O2"
_cell_formula_units_Z 16
_cell_length_a 7.287906
_cell_length_b 12.089528
_cell_length_c 12.487841
_cell_angle_alpha 117.183166
_cell_angle_beta 136.919522
_cell_angle_gamma 78.422135
_cell_volume 652.302113
_symmetry_space_group_name_H-M "P -1"
_symmetry_group_IT_number 2
_symmetry_cell_setting 'triclinic'
loop_
_space_group_symop_operation_xyz
x,y,z
-x,-y,-z
loop_
_atom_site_type_symbol
_atom_site_label
_atom_site_fract_x
_atom_site_fract_y
_atom_site_fract_z
Si Si1 0.739734 0.483102 0.013602
Si Si2 0.355796 0.546298 0.288209
Si Si3 0.486678 0.783208 0.165895
Si Si4 0.552196 0.150012 0.066649
Si Si5 0.407542 0.275970 0.261757
Si Si6 0.784713 0.975391 0.532538
Si Si7 0.082867 0.807089 0.457970
Si Si8 0.818672 0.796644 0.650970
O O1 0.652687 0.492305 0.857678
O O2 0.761093 0.335110 0.971548
O O3 0.500000 0.500000 0.000000
O O4 0.873459 0.214305 0.249882
O O5 0.403380 0.423672 0.318110
O O6 0.592713 0.671888 0.463634
O O7 0.049627 0.565357 0.195310
O O8 0.527622 0.897521 0.318590
O O9 0.768276 0.734161 0.287658
O O10 0.502458 0.825758 0.069447
O O11 0.378534 0.212194 0.104659
O O12 0.500000 0.000000 0.000000
O O13 0.700511 0.261695 0.429012
O O14 0.200991 0.198022 0.226926
O O15 0.766585 0.919079 0.618369
O O16 0.046848 0.925429 0.572411
O O17 0.829991 0.122571 0.586693
#
# Coordination Sequence:
#
# PCOD9091576 Si02
#       8
#     2   2   2   2   2   2   2   2
#     4  11  24  44  73 102 137 190 232 295 359 427
#     4  11  26  46  68 109 147 180 242 296 358 434
#     4  10  19  39  67  96 128 182 236 282 345 415
#     4  12  25  46  72 101 149 192 237 300 362 416
#     4  12  26  43  70 109 144 190 238 296 365 424
#     4   9  18  41  68  97 130 184 238 286 343 417
#     4   9  19  40  69  98 130 180 242 286 343 417
#     4  12  25  45  71 104 145 188 238 298 355 436
#
# _framework density 24.528511000000002
#
# number of rings (size 3 to 8) (size 9 to 14) (size 15 to 20)
#    0.750    0.500    2.500    3.375    1.750    1.500 
#    0.000    1.250    0.000    0.000    0.000    0.000 
#    0.000    0.000    0.000    0.000    0.000    0.000 
#
# Total GULP energy -89454.758364 kJ/mol
# GULP energy per Si atom -5590.922398 kJ/mol
# Density = 2.447268 g / cm^3
# Si number density = 24.528511 Si / 1000 Ang^3
#
#
#
# Elastic Constant Matrix: (Units=GPa)
#
#
# Indices 1 2 3 4 5 6 
#
# 1 122.4271 22.5431 15.0944 -3.5360 -9.1720 5.0919
# 2 22.5431 114.3203 40.3109 -14.3312 -7.6079 17.3428
# 3 15.0944 40.3109 55.1863 -11.6954 -1.1229 3.0177
# 4 -3.5360 -14.3312 -11.6954 50.3993 19.6665 -2.4845
# 5 -9.1720 -7.6079 -1.1229 19.6665 46.4991 -1.8616
# 6 5.0919 17.3428 3.0177 -2.4845 -1.8616 37.7346
#
#
#
# Elastic Compliance Matrix: (Units=1/GPa)
#
#
# Indices 1 2 3 4 5 6 
#
# 1 0.008705 -0.000994 -0.001763 -0.000825 0.001839 -0.000540
# 2 -0.000994 0.012963 -0.008708 0.000908 0.001130 -0.005012
# 3 -0.001763 -0.008708 0.025765 0.004679 -0.003036 0.002338
# 4 -0.000825 0.000908 0.004679 0.025276 -0.010573 0.000463
# 5 0.001839 0.001130 -0.003036 -0.010573 0.026455 0.000084
# 6 -0.000540 -0.005012 0.002338 0.000463 0.000084 0.028725
#
#
# Mechanical properties :
#
#
# Convention : Reuss Voigt Hill
#
# Bulk Modulus (GPa) = 40.80925 49.75894 45.28409
# Shear Modulus (GPa) = 31.44920 41.19229 36.32075
#
# Velocity S-wave (km/s) = 3.58460 4.10245 3.85223
# Velocity P-wave (km/s) = 5.81429 6.53990 6.18774
#
# Compressibility (1/GPa) = 0.02450425
#
# Stress axis : x y z
#
# Youngs Moduli (GPa) = 114.87734 77.14199 38.81218
#
# Poissons Ratio (x) = 0.07668 0.06842
# Poissons Ratio (y) = 0.11419 0.33796
# Poissons Ratio (z) = 0.20250 0.67172
#
# Static dielectric constant tensor:
#      x y z
#    x 2.034390 -0.035880 -0.032800 
#    y -0.035880 1.950280 0.019600 
#    z -0.032800 0.019600 1.986310 
# 
# From -- ./inp_files/387900.got.cif
#   From: 2010.05.17/outbox.cif.g08.bks.cpg/sg2_194_cif.got.tgz:387900.got - 2010.06.03 11:33:40.
