data_PCOD9091845
_publ_section_title
;
Structure prediction by ZEFSAII (Michael W. Deem and Ramdas Pophale) SiO2 
 PCOD9091845
Probable space group: P -1
;
_chemical_formula_sum "Si O2"
_cell_formula_units_Z 16
_cell_length_a 10.666289
_cell_length_b 17.385510
_cell_length_c 8.424155
_cell_angle_alpha 46.760854
_cell_angle_beta 57.661185
_cell_angle_gamma 41.408207
_cell_volume 751.996857
_symmetry_space_group_name_H-M "P -1"
_symmetry_group_IT_number 2
_symmetry_cell_setting 'triclinic'
loop_
_space_group_symop_operation_xyz
x,y,z
-x,-y,-z
loop_
_atom_site_type_symbol
_atom_site_label
_atom_site_fract_x
_atom_site_fract_y
_atom_site_fract_z
Si Si1 0.683809 0.930293 0.813002
Si Si2 0.199136 0.465588 0.760108
Si Si3 0.146886 0.282133 0.239002
Si Si4 0.442442 0.368556 0.420074
Si Si5 0.213860 0.876691 0.977850
Si Si6 0.527829 0.428360 0.750184
Si Si7 0.381458 0.893405 0.151545
Si Si8 0.514201 0.810637 0.623651
O O1 0.757584 0.966319 0.859008
O O2 0.528329 0.075125 0.630308
O O3 0.829706 0.832888 0.716976
O O4 0.576350 0.874079 0.030157
O O5 0.278162 0.429901 0.578499
O O6 0.356696 0.421696 0.851473
O O7 0.037066 0.624852 0.660263
O O8 0.125182 0.384573 0.977938
O O9 0.332199 0.218253 0.311877
O O10 0.488293 0.472772 0.247490
O O11 0.601927 0.223064 0.598799
O O12 0.412176 0.324041 0.335726
O O13 0.279564 0.724745 0.155907
O O14 0.328732 0.887093 0.020747
O O15 0.312023 0.872048 0.755060
O O16 0.000000 0.000000 0.000000
O O17 0.500000 0.500000 0.500000
#
# Coordination Sequence:
#
# PCOD9091845 Si02
#       8
#     2   2   2   2   2   2   2   2
#     4  10  20  37  64  84 119 162 193 246 307 361
#     4  10  20  37  64  83 113 160 202 241 292 363
#     4  11  20  37  59  90 118 153 198 248 299 352
#     4  10  20  39  64  86 119 163 203 237 302 358
#     4  12  24  42  62  90 124 157 202 254 303 350
#     4  10  19  41  66  81 114 170 199 242 291 368
#     4  10  19  40  62  83 117 163 203 240 296 366
#     4  11  23  38  59  91 125 153 194 260 303 352
#
# _framework density 21.276686000000002
#
# number of rings (size 3 to 8) (size 9 to 14) (size 15 to 20)
#    0.000    1.500    6.250    0.375    0.000    3.000 
#    2.250    2.500    0.000    0.000    0.000    0.000 
#    0.000    0.000    0.000    0.000    0.000    0.000 
#
# Total GULP energy -89118.068885 kJ/mol
# GULP energy per Si atom -5569.879305 kJ/mol
# Density = 2.122826 g / cm^3
# Si number density = 21.276686 Si / 1000 Ang^3
#
#
#
# Elastic Constant Matrix: (Units=GPa)
#
#
# Indices 1 2 3 4 5 6 
#
# 1 29.0751 45.8702 4.4532 1.3495 -3.7511 23.5372
# 2 45.8702 169.3077 18.3506 -0.1034 -4.6519 31.3184
# 3 4.4532 18.3506 61.8076 -0.6593 0.0065 4.1843
# 4 1.3495 -0.1034 -0.6593 35.1985 10.5207 2.7120
# 5 -3.7511 -4.6519 0.0065 10.5207 16.0388 1.1836
# 6 23.5372 31.3184 4.1843 2.7120 1.1836 44.1235
#
#
#
# Elastic Compliance Matrix: (Units=1/GPa)
#
#
# Indices 1 2 3 4 5 6 
#
# 1 0.101756 -0.019406 0.001094 -0.008863 0.026993 -0.040790
# 2 -0.019406 0.010780 -0.001984 0.001246 -0.002441 0.002877
# 3 0.001094 -0.001984 0.016748 0.000505 -0.000600 -0.000779
# 4 -0.008863 0.001246 0.000505 0.036260 -0.025663 0.002255
# 5 0.026993 -0.002441 -0.000600 -0.025663 0.085772 -0.013333
# 6 -0.040790 0.002877 -0.000779 0.002255 -0.013333 0.042673
#
#
# Mechanical properties :
#
#
# Convention : Reuss Voigt Hill
#
# Bulk Modulus (GPa) = 11.27482 44.17094 27.72288
# Shear Modulus (GPa) = 13.73084 31.83993 22.78539
#
# Velocity S-wave (km/s) = 2.54312 3.87262 3.27602
# Velocity P-wave (km/s) = 3.73282 6.38761 5.23142
#
# Compressibility (1/GPa) = 0.08869318
#
# Stress axis : x y z
#
# Youngs Moduli (GPa) = 9.82747 92.76039 59.71022
#
# Poissons Ratio (x) = 1.80006 -0.06533
# Poissons Ratio (y) = 0.19071 0.11845
# Poissons Ratio (z) = -0.01075 0.18401
#
# Static dielectric constant tensor:
#      x y z
#    x 1.815730 0.014820 -0.049260 
#    y 0.014820 1.861070 -0.004050 
#    z -0.049260 -0.004050 1.830360 
# 
# From -- ./inp_files/277430.got.cif
#   From: 2010.05.17/outbox.cif.g08.bks.cpg/sg2_139_cif.got.tgz:277430.got - 2010.06.03 11:33:40.
