data_PCOD9091669
_publ_section_title
;
Structure prediction by ZEFSAII (Michael W. Deem and Ramdas Pophale) SiO2 
 PCOD9091669
Probable space group: P -1
;
_chemical_formula_sum "Si O2"
_cell_formula_units_Z 14
_cell_length_a 12.281852
_cell_length_b 8.164932
_cell_length_c 18.391595
_cell_angle_alpha 113.903461
_cell_angle_beta 19.171651
_cell_angle_gamma 114.654408
_cell_volume 550.073078
_symmetry_space_group_name_H-M "P -1"
_symmetry_group_IT_number 2
_symmetry_cell_setting 'triclinic'
loop_
_space_group_symop_operation_xyz
x,y,z
-x,-y,-z
loop_
_atom_site_type_symbol
_atom_site_label
_atom_site_fract_x
_atom_site_fract_y
_atom_site_fract_z
Si Si1 0.711596 0.014453 0.462063
Si Si2 0.443789 0.457275 0.930225
Si Si3 0.663240 0.837670 0.809604
Si Si4 0.196159 0.071989 0.050601
Si Si5 0.141200 0.339772 0.487472
Si Si6 0.342062 0.344852 0.807073
Si Si7 0.380189 0.841609 0.764558
O O1 0.520999 0.182751 0.633541
O O2 0.065651 0.058760 0.290096
O O3 0.471747 0.857104 0.624568
O O4 0.842888 0.994021 0.294213
O O5 0.434261 0.674361 0.967801
O O6 0.219718 0.289550 0.080310
O O7 0.415147 0.393231 0.853481
O O8 0.805850 0.425746 0.727852
O O9 0.860720 0.729641 0.606445
O O10 0.463473 0.970931 0.911038
O O11 0.265346 0.011413 0.913282
O O12 0.457921 0.485061 0.327117
O O13 0.257836 0.181965 0.433917
O O14 0.946753 0.298768 0.041714
#
# Coordination Sequence:
#
# PCOD9091669 Si02
#       7
#     2   2   2   2   2   2   2
#     4  12  22  40  63  90 127 164 205 255 309 370
#     4  11  20  41  68  91 124 165 205 259 313 361
#     4  10  20  39  63  94 129 155 209 264 302 366
#     4  11  25  39  63  97 124 165 209 250 313 373
#     4  10  19  39  69  90 120 167 208 253 316 366
#     4  11  21  40  65  93 122 165 210 252 312 370
#     4  11  24  41  63  90 129 164 204 259 307 367
#
# _framework density 25.451163000000001
#
# number of rings (size 3 to 8) (size 9 to 14) (size 15 to 20)
#    0.000    1.143    4.286    3.000    0.000    3.429 
#    2.571    0.000    0.000    3.429    0.000    0.000 
#    0.000    0.000    0.000    0.000    0.000    0.000 
#
# Total GULP energy -78113.048566 kJ/mol
# GULP energy per Si atom -5579.503469 kJ/mol
# Density = 2.539324 g / cm^3
# Si number density = 25.451163 Si / 1000 Ang^3
#
#
#
# Elastic Constant Matrix: (Units=GPa)
#
#
# Indices 1 2 3 4 5 6 
#
# 1 25.5343 -28.3970 -13.7142 12.4288 -10.2062 23.6547
# 2 -28.3970 14.0998 -24.6023 -12.7183 -16.5727 29.0563
# 3 -13.7142 -24.6023 59.4614 -10.0401 -20.8247 15.3639
# 4 12.4288 -12.7183 -10.0401 29.1032 4.0892 -4.4032
# 5 -10.2062 -16.5727 -20.8247 4.0892 33.9183 5.6569
# 6 23.6547 29.0563 15.3639 -4.4032 5.6569 18.8823
#
#
#
# Elastic Compliance Matrix: (Units=1/GPa)
#
#
# Indices 1 2 3 4 5 6 
#
# 1 0.017056 -0.014533 -0.008485 -0.014681 -0.006478 0.006417
# 2 -0.014533 0.007944 -0.004122 0.011316 -0.006720 0.013988
# 3 -0.008485 -0.004122 0.012618 0.007269 0.000950 0.008116
# 4 -0.014681 0.011316 0.007269 0.049366 -0.001551 0.007040
# 5 -0.006478 -0.006720 0.000950 -0.001551 0.023295 0.010342
# 6 0.006417 0.013988 0.008116 0.007040 0.010342 0.015335
#
#
# Mechanical properties :
#
#
# Convention : Reuss Voigt Hill
#
# Bulk Modulus (GPa) = -60.02015 -3.81459 -31.91737
# Shear Modulus (GPa) = 28.67955 27.43471 28.05713
#
# Velocity S-wave (km/s) = 3.36049 3.28675 3.32383
# Velocity P-wave (km/s) = 2.92856 3.59188 1.47058
#
# Compressibility (1/GPa) = -0.01666107
#
# Stress axis : x y z
#
# Youngs Moduli (GPa) = 58.62903 125.88818 79.25050
#
# Poissons Ratio (x) = 1.82950 0.67241
# Poissons Ratio (y) = 0.85204 0.32669
# Poissons Ratio (z) = 0.49744 0.51895
#
# Static dielectric constant tensor:
#      x y z
#    x 2.075150 -0.091490 0.007010 
#    y -0.091490 2.105110 -0.038150 
#    z 0.007010 -0.038150 1.980750 
# 
# From -- ./inp_files/157530.got.cif
#   From: 2010.05.17/outbox.cif.g08.bks.cpg/sg2_79_cif.got.tgz:157530.got - 2010.06.03 11:33:40.
