data_PCOD9091078
_publ_section_title
;
Structure prediction by ZEFSAII (Michael W. Deem and Ramdas Pophale) SiO2 
 PCOD9091078
Probable space group: P -1
;
_chemical_formula_sum "Si O2"
_cell_formula_units_Z 12
_cell_length_a 18.690263
_cell_length_b 14.009584
_cell_length_c 11.245333
_cell_angle_alpha 34.161186
_cell_angle_beta 49.011494
_cell_angle_gamma 20.354865
_cell_volume 454.031815
_symmetry_space_group_name_H-M "P -1"
_symmetry_group_IT_number 2
_symmetry_cell_setting 'triclinic'
loop_
_space_group_symop_operation_xyz
x,y,z
-x,-y,-z
loop_
_atom_site_type_symbol
_atom_site_label
_atom_site_fract_x
_atom_site_fract_y
_atom_site_fract_z
Si Si1 0.116334 0.566826 0.667452
Si Si2 0.615170 0.122049 0.232262
Si Si3 0.752870 0.615537 0.041419
Si Si4 0.187966 0.733375 0.883000
Si Si5 0.659090 0.500780 0.643130
Si Si6 0.109026 0.242033 0.908392
O O1 0.039173 0.728484 0.720566
O O2 0.309547 0.394536 0.589127
O O3 0.221144 0.201573 0.913262
O O4 0.892888 0.951907 0.412675
O O5 0.580232 0.084146 0.433648
O O6 0.500000 0.500000 0.000000
O O7 0.420827 0.358113 0.106221
O O8 0.870773 0.723958 0.284738
O O9 0.778836 0.428636 0.107274
O O10 0.831264 0.653106 0.843458
O O11 0.500000 0.000000 0.000000
O O12 0.924290 0.090709 0.855010
O O13 0.715194 0.224151 0.807830
#
# Coordination Sequence:
#
# PCOD9091078 Si02
#       6
#     2   2   2   2   2   2
#     4  10  21  39  62  92 120 153 203 236 298 355
#     4  10  19  39  63  88 122 157 197 242 302 344
#     4  11  22  41  61  85 123 159 197 248 297 351
#     4   9  20  37  62  89 117 159 192 243 296 349
#     4   8  20  37  64  84 126 153 194 242 293 351
#     4  10  21  38  60  88 120 158 194 246 292 350
#
# _framework density 26.429866000000001
#
# number of rings (size 3 to 8) (size 9 to 14) (size 15 to 20)
#    1.000    1.333    0.000    2.500    0.000    0.667 
#    6.000    5.000    0.000    0.000    0.000    0.000 
#    0.000    0.000    0.000    0.000    0.000    0.000 
#
# Total GULP energy -66898.420645 kJ/mol
# GULP energy per Si atom -5574.868387 kJ/mol
# Density = 2.636971 g / cm^3
# Si number density = 26.429866 Si / 1000 Ang^3
#
#
#
# Elastic Constant Matrix: (Units=GPa)
#
#
# Indices 1 2 3 4 5 6 
#
# 1 153.5207 56.0227 43.0962 21.1048 -22.4749 16.6628
# 2 56.0227 213.6577 27.7373 39.9324 7.3987 2.4544
# 3 43.0962 27.7373 69.3336 28.8168 -0.6389 7.8968
# 4 21.1048 39.9324 28.8168 47.3176 4.2333 6.2854
# 5 -22.4749 7.3987 -0.6389 4.2333 36.3681 3.0435
# 6 16.6628 2.4544 7.8968 6.2854 3.0435 48.4662
#
#
#
# Elastic Compliance Matrix: (Units=1/GPa)
#
#
# Indices 1 2 3 4 5 6 
#
# 1 0.010019 -0.002222 -0.005051 0.000271 0.006772 -0.002970
# 2 -0.002222 0.006079 0.000679 -0.004500 -0.002164 0.001065
# 3 -0.005051 0.000679 0.022147 -0.011634 -0.001491 -0.000304
# 4 0.000271 -0.004500 -0.011634 0.032405 -0.002726 -0.002001
# 5 0.006772 -0.002164 -0.001491 -0.002726 0.032720 -0.003677
# 6 -0.002970 0.001065 -0.000304 -0.002001 -0.003677 0.022140
#
#
# Mechanical properties :
#
#
# Convention : Reuss Voigt Hill
#
# Bulk Modulus (GPa) = 39.91054 76.69159 58.30107
# Shear Modulus (GPa) = 34.00166 47.07410 40.53788
#
# Velocity S-wave (km/s) = 3.59065 4.22488 3.92061
# Velocity P-wave (km/s) = 5.68539 7.27183 6.52699
#
# Compressibility (1/GPa) = 0.02505604
#
# Stress axis : x y z
#
# Youngs Moduli (GPa) = 99.81031 164.50744 45.15236
#
# Poissons Ratio (x) = 0.36562 0.22805
# Poissons Ratio (y) = 0.22183 -0.03064
# Poissons Ratio (z) = 0.50411 -0.11164
#
# Static dielectric constant tensor:
#      x y z
#    x 2.092680 -0.108860 0.046280 
#    y -0.108860 2.182270 -0.097370 
#    z 0.046280 -0.097370 2.205980 
# 
# From -- ./inp_files/471331.got.cif
#   From: 2010.05.17/outbox.cif.g08.bks.cpg/sg2_236_cif.got.tgz:471331.got - 2010.06.03 11:33:40.
