data_PCOD9091973
_publ_section_title
;
Structure prediction by ZEFSAII (Michael W. Deem and Ramdas Pophale) SiO2 
 PCOD9091973
Probable space group: P -1
;
_chemical_formula_sum "Si O2"
_cell_formula_units_Z 14
_cell_length_a 16.432729
_cell_length_b 7.656595
_cell_length_c 6.113469
_cell_angle_alpha 85.284938
_cell_angle_beta 70.685931
_cell_angle_gamma 115.472110
_cell_volume 632.188817
_symmetry_space_group_name_H-M "P -1"
_symmetry_group_IT_number 2
_symmetry_cell_setting 'triclinic'
loop_
_space_group_symop_operation_xyz
x,y,z
-x,-y,-z
loop_
_atom_site_type_symbol
_atom_site_label
_atom_site_fract_x
_atom_site_fract_y
_atom_site_fract_z
Si Si1 0.470461 0.163936 0.586339
Si Si2 0.143270 0.036392 0.436594
Si Si3 0.390410 0.513511 0.864156
Si Si4 0.365833 0.747646 0.239894
Si Si5 0.339238 0.092950 0.069711
Si Si6 0.221033 0.399656 0.678638
Si Si7 0.042553 0.168875 0.132905
O O1 0.506429 0.339145 0.359313
O O2 0.543436 0.255406 0.719147
O O3 0.500000 0.000000 0.500000
O O4 0.362602 0.072599 0.795279
O O5 0.227094 0.001731 0.255801
O O6 0.190876 0.217444 0.552831
O O7 0.097571 0.108818 0.275325
O O8 0.053169 0.848317 0.657666
O O9 0.614224 0.667807 0.973181
O O10 0.306083 0.414202 0.764169
O O11 0.360125 0.650095 0.021287
O O12 0.269572 0.605381 0.479297
O O13 0.381370 0.969681 0.178177
O O14 0.126760 0.360029 0.912736
O O15 0.000000 0.000000 0.000000
#
# Coordination Sequence:
#
# PCOD9091973 Si02
#       7
#     2   2   2   2   2   2   2
#     4  11  25  44  62  89 130 169 207 262 313 359
#     4  10  20  37  65  96 123 164 208 258 307 372
#     4  11  23  43  62  93 123 170 211 255 313 364
#     4  11  24  42  62  91 132 164 204 267 308 357
#     4  12  23  41  65  93 125 164 218 252 307 377
#     4  10  19  40  64  90 128 165 203 253 316 367
#     4   9  18  36  64  94 128 160 203 256 319 366
#
# _framework density 22.145281000000001
#
# number of rings (size 3 to 8) (size 9 to 14) (size 15 to 20)
#    0.000    1.429    4.286    0.857    0.000    1.714 
#    0.000    0.714    0.000   12.000    0.000    0.000 
#    0.000    0.000    0.000    0.000    0.000    0.000 
#
# Total GULP energy -78173.807362 kJ/mol
# GULP energy per Si atom -5583.843383 kJ/mol
# Density = 2.209488 g / cm^3
# Si number density = 22.145281 Si / 1000 Ang^3
#
#
#
# Elastic Constant Matrix: (Units=GPa)
#
#
# Indices 1 2 3 4 5 6 
#
# 1 70.9128 34.1182 51.6337 1.7221 -2.0660 -4.0026
# 2 34.1182 71.4131 43.0691 -11.5677 4.7711 -5.3418
# 3 51.6337 43.0691 183.9888 -40.2048 -37.1845 4.9569
# 4 1.7221 -11.5677 -40.2048 52.8410 12.1216 15.0181
# 5 -2.0660 4.7711 -37.1845 12.1216 53.1311 4.6700
# 6 -4.0026 -5.3418 4.9569 15.0181 4.6700 30.9194
#
#
#
# Elastic Compliance Matrix: (Units=1/GPa)
#
#
# Indices 1 2 3 4 5 6 
#
# 1 0.024292 -0.007676 -0.008006 -0.010453 -0.002334 0.008532
# 2 -0.007676 0.020573 -0.003164 0.002842 -0.005226 0.002477
# 3 -0.008006 -0.003164 0.012303 0.009987 0.007138 -0.009485
# 4 -0.010453 0.002842 0.009987 0.032591 0.000507 -0.018370
# 5 -0.002334 -0.005226 0.007138 0.000507 0.024635 -0.006317
# 6 0.008532 0.002477 -0.009485 -0.018370 -0.006317 0.045272
#
#
# Mechanical properties :
#
#
# Convention : Reuss Voigt Hill
#
# Bulk Modulus (GPa) = 51.34448 64.88408 58.11428
# Shear Modulus (GPa) = 24.52779 40.54455 32.53617
#
# Velocity S-wave (km/s) = 3.33165 4.28348 3.83719
# Velocity P-wave (km/s) = 6.16729 7.33670 6.77726
#
# Compressibility (1/GPa) = 0.01947629
#
# Stress axis : x y z
#
# Youngs Moduli (GPa) = 41.16580 48.60703 81.28058
#
# Poissons Ratio (x) = 0.37312 0.65074
# Poissons Ratio (y) = 0.31600 0.25714
# Poissons Ratio (z) = 0.32958 0.15377
#
# Static dielectric constant tensor:
#      x y z
#    x 1.808120 0.028190 -0.026730 
#    y 0.028190 1.804480 -0.006800 
#    z -0.026730 -0.006800 1.898210 
# 
# From -- ./inp_files/66575.got.cif
#   From: 2010.05.17/outbox.cif.g08.bks.cpg/sg2_34_cif.got.tgz:66575.got - 2010.06.03 11:33:40.
