data_PCOD9091112
_publ_section_title
;
Structure prediction by ZEFSAII (Michael W. Deem and Ramdas Pophale) SiO2 
 PCOD9091112
Probable space group: P -1
;
_chemical_formula_sum "Si O2"
_cell_formula_units_Z 16
_cell_length_a 9.387722
_cell_length_b 17.961120
_cell_length_c 8.586891
_cell_angle_alpha 127.101132
_cell_angle_beta 137.148848
_cell_angle_gamma 43.974937
_cell_volume 674.886419
_symmetry_space_group_name_H-M "P -1"
_symmetry_group_IT_number 2
_symmetry_cell_setting 'triclinic'
loop_
_space_group_symop_operation_xyz
x,y,z
-x,-y,-z
loop_
_atom_site_type_symbol
_atom_site_label
_atom_site_fract_x
_atom_site_fract_y
_atom_site_fract_z
Si Si1 0.880813 0.024804 0.702271
Si Si2 0.874954 0.331659 0.121682
Si Si3 0.278492 0.992639 0.747097
Si Si4 0.904616 0.175288 0.176785
Si Si5 0.510792 0.423527 0.548827
Si Si6 0.367611 0.320071 0.067551
Si Si7 0.361017 0.452357 0.951082
Si Si8 0.042778 0.232574 0.807981
O O1 0.686408 0.074906 0.467208
O O2 0.895984 0.925507 0.688254
O O3 0.140195 0.978306 0.762418
O O4 0.857396 0.115216 0.918679
O O5 0.970954 0.262636 0.270826
O O6 0.592458 0.356745 0.925147
O O7 0.837265 0.449064 0.188823
O O8 0.037319 0.254765 0.015785
O O9 0.098782 0.112524 0.687105
O O10 0.500000 0.000000 0.000000
O O11 0.651815 0.244181 0.155276
O O12 0.500000 0.500000 0.500000
O O13 0.343591 0.379767 0.289415
O O14 0.497214 0.496158 0.776322
O O15 0.777055 0.319560 0.647276
O O16 0.263870 0.405313 0.947177
O O17 0.234600 0.252945 0.898171
#
# Coordination Sequence:
#
# PCOD9091112 Si02
#       8
#     2   2   2   2   2   2   2   2
#     4  10  22  40  66  85 122 165 206 256 318 363
#     4   9  17  33  58  84 119 156 199 247 305 360
#     4  11  23  41  62  95 124 161 208 262 305 369
#     4  10  19  39  63  92 119 165 207 254 314 372
#     4   9  19  35  57  87 118 158 203 247 300 365
#     4  10  20  35  59  87 123 158 204 248 302 368
#     4   8  17  33  56  83 116 160 196 247 300 359
#     4  11  21  36  60  88 120 163 202 253 307 365
#
# _framework density 23.707692000000002
#
# number of rings (size 3 to 8) (size 9 to 14) (size 15 to 20)
#    0.000    2.250    1.250    1.500    0.000    5.500 
#    0.000    7.500    0.000    0.000    0.000    0.000 
#    0.000    0.000    0.000    0.000    0.000    0.000 
#
# Total GULP energy -89134.452491 kJ/mol
# GULP energy per Si atom -5570.903281 kJ/mol
# Density = 2.365373 g / cm^3
# Si number density = 23.707692 Si / 1000 Ang^3
#
#
#
# Elastic Constant Matrix: (Units=GPa)
#
#
# Indices 1 2 3 4 5 6 
#
# 1 103.3490 12.8357 18.5756 3.0958 -12.6071 18.5664
# 2 12.8357 84.8462 -6.7864 -2.0016 -7.6382 22.4897
# 3 18.5756 -6.7864 52.3321 0.7330 -16.4112 -7.4339
# 4 3.0958 -2.0016 0.7330 21.7951 0.5725 -7.0739
# 5 -12.6071 -7.6382 -16.4112 0.5725 27.4118 3.3078
# 6 18.5664 22.4897 -7.4339 -7.0739 3.3078 36.8520
#
#
#
# Elastic Compliance Matrix: (Units=1/GPa)
#
#
# Indices 1 2 3 4 5 6 
#
# 1 0.012643 0.000368 -0.004186 -0.004573 0.004560 -0.008726
# 2 0.000368 0.015201 0.002741 -0.002180 0.007296 -0.009983
# 3 -0.004186 0.002741 0.025911 0.001120 0.013768 0.004642
# 4 -0.004573 -0.002180 0.001120 0.050989 -0.004804 0.014079
# 5 0.004560 0.007296 0.013768 -0.004804 0.050087 -0.009391
# 6 -0.008726 -0.009983 0.004642 0.014079 -0.009391 0.042106
#
#
# Mechanical properties :
#
#
# Convention : Reuss Voigt Hill
#
# Bulk Modulus (GPa) = 19.37874 32.19746 25.78810
# Shear Modulus (GPa) = 23.11690 31.60526 27.36108
#
# Velocity S-wave (km/s) = 3.12601 3.65516 3.40089
# Velocity P-wave (km/s) = 4.60663 5.60572 5.13055
#
# Compressibility (1/GPa) = 0.05160295
#
# Stress axis : x y z
#
# Youngs Moduli (GPa) = 79.09262 65.78495 38.59331
#
# Poissons Ratio (x) = -0.02421 0.16154
# Poissons Ratio (y) = -0.02911 -0.10579
# Poissons Ratio (z) = 0.33105 -0.18033
#
# Static dielectric constant tensor:
#      x y z
#    x 1.893160 -0.001100 -0.092150 
#    y -0.001100 1.924810 0.015370 
#    z -0.092150 0.015370 2.008440 
# 
# From -- ./inp_files/215614.got.cif
#   From: 2010.05.17/outbox.cif.g08.bks.cpg/sg2_108_cif.got.tgz:215614.got - 2010.06.03 11:33:40.
