data_PCOD9091073
_publ_section_title
;
Structure prediction by ZEFSAII (Michael W. Deem and Ramdas Pophale) SiO2 
 PCOD9091073
Probable space group: P -1
;
_chemical_formula_sum "Si O2"
_cell_formula_units_Z 14
_cell_length_a 8.641675
_cell_length_b 11.446580
_cell_length_c 9.414863
_cell_angle_alpha 68.993947
_cell_angle_beta 112.515093
_cell_angle_gamma 62.826077
_cell_volume 582.281858
_symmetry_space_group_name_H-M "P -1"
_symmetry_group_IT_number 2
_symmetry_cell_setting 'triclinic'
loop_
_space_group_symop_operation_xyz
x,y,z
-x,-y,-z
loop_
_atom_site_type_symbol
_atom_site_label
_atom_site_fract_x
_atom_site_fract_y
_atom_site_fract_z
Si Si1 0.004158 0.963157 0.853221
Si Si2 0.302615 0.119229 0.261461
Si Si3 0.481376 0.268749 0.192701
Si Si4 0.693199 0.574810 0.618946
Si Si5 0.574678 0.377480 0.754832
Si Si6 0.038969 0.603683 0.766846
Si Si7 0.851211 0.235230 0.448780
O O1 0.808322 0.957438 0.773124
O O2 0.262584 0.773912 0.009537
O O3 0.956741 0.104197 0.672779
O O4 0.000000 0.000000 0.000000
O O5 0.425173 0.154205 0.182694
O O6 0.083728 0.307533 0.164928
O O7 0.500000 0.000000 0.500000
O O8 0.413256 0.321316 0.314692
O O9 0.737499 0.191381 0.322403
O O10 0.305445 0.443063 0.964708
O O11 0.732471 0.406814 0.729527
O O12 0.521154 0.662972 0.385537
O O13 0.915261 0.546050 0.682734
O O14 0.354312 0.566451 0.654968
O O15 0.993451 0.749309 0.592602
#
# Coordination Sequence:
#
# PCOD9091073 Si02
#       7
#     2   2   2   2   2   2   2
#     4  12  24  41  69  95 124 168 216 259 312 375
#     4  11  22  40  64  94 122 162 216 264 302 367
#     4  10  19  39  63  88 120 163 216 252 311 371
#     4   9  18  37  65  89 118 163 214 261 293 379
#     4  10  21  40  66  88 124 165 215 254 316 369
#     4  11  23  38  64  90 130 163 209 260 324 369
#     4  11  24  41  60  96 130 165 204 267 314 380
#
# _framework density 24.043340000000001
#
# number of rings (size 3 to 8) (size 9 to 14) (size 15 to 20)
#    0.000    1.429    1.429    7.286    2.000    1.143 
#    2.571    0.714    0.000    0.000    0.000    0.000 
#    0.000    0.000    0.000    0.000    0.000    0.000 
#
# Total GULP energy -78241.029319 kJ/mol
# GULP energy per Si atom -5588.644951 kJ/mol
# Density = 2.398862 g / cm^3
# Si number density = 24.043340 Si / 1000 Ang^3
#
#
#
# Elastic Constant Matrix: (Units=GPa)
#
#
# Indices 1 2 3 4 5 6 
#
# 1 86.2975 23.4325 51.1733 12.2742 5.4127 23.3329
# 2 23.4325 66.5207 37.3382 -5.1084 5.1613 7.5641
# 3 51.1733 37.3382 181.2692 -14.3891 0.2061 18.2667
# 4 12.2742 -5.1084 -14.3891 45.9751 8.7269 8.7726
# 5 5.4127 5.1613 0.2061 8.7269 37.4266 0.4788
# 6 23.3329 7.5641 18.2667 8.7726 0.4788 31.3934
#
#
#
# Elastic Compliance Matrix: (Units=1/GPa)
#
#
# Indices 1 2 3 4 5 6 
#
# 1 0.017892 -0.003418 -0.003790 -0.004444 -0.000944 -0.009013
# 2 -0.003418 0.018162 -0.002422 0.002906 -0.002659 -0.001198
# 3 -0.003790 -0.002422 0.007560 0.003474 0.000056 -0.001970
# 4 -0.004444 0.002906 0.003474 0.026773 -0.005933 -0.006810
# 5 -0.000944 -0.002659 0.000056 -0.005933 0.028573 0.002532
# 6 -0.009013 -0.001198 -0.001970 -0.006810 0.002532 0.041852
#
#
# Mechanical properties :
#
#
# Convention : Reuss Voigt Hill
#
# Bulk Modulus (GPa) = 41.06261 61.99727 51.52994
# Shear Modulus (GPa) = 29.72854 37.76860 33.74857
#
# Velocity S-wave (km/s) = 3.52014 3.96770 3.75060
# Velocity P-wave (km/s) = 5.79979 6.84338 6.34308
#
# Compressibility (1/GPa) = 0.02435306
#
# Stress axis : x y z
#
# Youngs Moduli (GPa) = 55.89212 55.06009 132.28034
#
# Poissons Ratio (x) = 0.18821 0.50138
# Poissons Ratio (y) = 0.19105 0.32034
# Poissons Ratio (z) = 0.21185 0.13334
#
# Static dielectric constant tensor:
#      x y z
#    x 2.023400 -0.035360 0.016980 
#    y -0.035360 2.022550 -0.034230 
#    z 0.016980 -0.034230 1.922760 
# 
# From -- ./inp_files/186120.got.cif
#   From: 2010.05.17/outbox.cif.g08.bks.cpg/sg2_94_cif.got.tgz:186120.got - 2010.06.03 11:33:40.
