data_PCOD9091948
_publ_section_title
;
Structure prediction by ZEFSAII (Michael W. Deem and Ramdas Pophale) SiO2 
 PCOD9091948
Probable space group: P -1
;
_chemical_formula_sum "Si O2"
_cell_formula_units_Z 14
_cell_length_a 15.325496
_cell_length_b 7.925667
_cell_length_c 12.851089
_cell_angle_alpha 105.748382
_cell_angle_beta 25.204852
_cell_angle_gamma 98.576105
_cell_volume 621.823241
_symmetry_space_group_name_H-M "P -1"
_symmetry_group_IT_number 2
_symmetry_cell_setting 'triclinic'
loop_
_space_group_symop_operation_xyz
x,y,z
-x,-y,-z
loop_
_atom_site_type_symbol
_atom_site_label
_atom_site_fract_x
_atom_site_fract_y
_atom_site_fract_z
Si Si1 0.575978 0.572616 0.677984
Si Si2 0.132874 0.723477 0.814423
Si Si3 0.490662 0.342001 0.903625
Si Si4 0.701183 0.830476 0.757762
Si Si5 0.115348 0.992317 0.573282
Si Si6 0.690888 0.153824 0.149705
Si Si7 0.270054 0.069588 0.632455
O O1 0.764216 0.458906 0.385464
O O2 0.660695 0.681197 0.695674
O O3 0.414788 0.710062 0.803326
O O4 0.467065 0.429385 0.830132
O O5 0.225154 0.735741 0.832055
O O6 0.201615 0.887100 0.706910
O O7 0.881236 0.776100 0.110107
O O8 0.309742 0.249537 0.128629
O O9 0.500000 0.500000 0.000000
O O10 0.716987 0.198732 0.642939
O O11 0.885729 0.906549 0.518891
O O12 0.500000 0.000000 0.000000
O O13 0.213877 0.096419 0.575152
O O14 0.882852 0.005869 0.868973
O O15 0.513554 0.066031 0.376635
#
# Coordination Sequence:
#
# PCOD9091948 Si02
#       7
#     2   2   2   2   2   2   2
#     4  11  20  38  61  91 126 155 195 259 298 345
#     4  10  22  38  61  90 125 158 203 238 299 364
#     4   9  19  37  65  86 114 160 204 247 301 351
#     4   9  19  38  64  86 113 162 203 242 299 359
#     4  10  19  40  64  86 121 160 202 241 302 362
#     4  11  23  37  61  96 120 157 202 242 299 367
#     4  10  20  40  62  86 122 168 194 241 300 364
#
# _framework density 22.514437000000001
#
# number of rings (size 3 to 8) (size 9 to 14) (size 15 to 20)
#    0.000    2.000    2.857    0.857    0.000    0.571 
#    2.571    8.571    0.000    0.000    0.000    0.000 
#    0.000    0.000    0.000    0.000    0.000    0.000 
#
# Total GULP energy -78162.301330 kJ/mol
# GULP energy per Si atom -5583.021524 kJ/mol
# Density = 2.246319 g / cm^3
# Si number density = 22.514437 Si / 1000 Ang^3
#
#
#
# Elastic Constant Matrix: (Units=GPa)
#
#
# Indices 1 2 3 4 5 6 
#
# 1 56.7530 34.3409 41.6076 -0.8642 14.7671 -9.5395
# 2 34.3409 62.4909 42.3050 1.2191 13.0349 -16.3778
# 3 41.6076 42.3050 171.2674 4.0705 24.2926 9.4424
# 4 -0.8642 1.2191 4.0705 38.3867 6.3763 13.9029
# 5 14.7671 13.0349 24.2926 6.3763 26.8940 3.3188
# 6 -9.5395 -16.3778 9.4424 13.9029 3.3188 42.0583
#
#
#
# Elastic Compliance Matrix: (Units=1/GPa)
#
#
# Indices 1 2 3 4 5 6 
#
# 1 0.029877 -0.011528 -0.003417 0.001666 -0.008518 0.003176
# 2 -0.011528 0.029282 -0.004347 -0.004163 -0.004366 0.011485
# 3 -0.003417 -0.004347 0.008445 0.001380 -0.003410 -0.004551
# 4 0.001666 -0.004163 0.001380 0.031219 -0.006140 -0.011388
# 5 -0.008518 -0.004366 -0.003410 -0.006140 0.049093 -0.004711
# 6 0.003176 0.011485 -0.004551 -0.011388 -0.004711 0.034127
#
#
# Mechanical properties :
#
#
# Convention : Reuss Voigt Hill
#
# Bulk Modulus (GPa) = 34.46154 58.55761 46.50957
# Shear Modulus (GPa) = 21.71074 32.95165 27.33119
#
# Velocity S-wave (km/s) = 3.10869 3.82982 3.48795
# Velocity P-wave (km/s) = 5.31271 6.75441 6.07647
#
# Compressibility (1/GPa) = 0.02901786
#
# Stress axis : x y z
#
# Youngs Moduli (GPa) = 33.47101 34.15022 118.41858
#
# Poissons Ratio (x) = 0.39370 0.40465
# Poissons Ratio (y) = 0.38587 0.51481
# Poissons Ratio (z) = 0.11437 0.14846
#
# Static dielectric constant tensor:
#      x y z
#    x 1.840760 -0.037090 0.018390 
#    y -0.037090 1.887570 -0.052310 
#    z 0.018390 -0.052310 1.835440 
# 
# From -- ./inp_files/89329.got.cif
#   From: 2010.05.17/outbox.cif.g08.bks.cpg/sg2_45_cif.got.tgz:89329.got - 2010.06.03 11:33:40.
