data_PCOD9091015
_publ_section_title
;
Structure prediction by ZEFSAII (Michael W. Deem and Ramdas Pophale) SiO2 
 PCOD9091015
Probable space group: P -1
;
_chemical_formula_sum "Si O2"
_cell_formula_units_Z 16
_cell_length_a 5.127339
_cell_length_b 14.806828
_cell_length_c 9.133688
_cell_angle_alpha 100.056991
_cell_angle_beta 66.912841
_cell_angle_gamma 86.341655
_cell_volume 621.353430
_symmetry_space_group_name_H-M "P -1"
_symmetry_group_IT_number 2
_symmetry_cell_setting 'triclinic'
loop_
_space_group_symop_operation_xyz
x,y,z
-x,-y,-z
loop_
_atom_site_type_symbol
_atom_site_label
_atom_site_fract_x
_atom_site_fract_y
_atom_site_fract_z
Si Si1 0.431032 0.672831 0.296866
Si Si2 0.194823 0.190983 0.851561
Si Si3 0.598966 0.759335 0.745715
Si Si4 0.996689 0.123672 0.172462
Si Si5 0.820344 0.496747 0.184231
Si Si6 0.341239 0.653102 0.988705
Si Si7 0.158900 0.026009 0.617705
Si Si8 0.334223 0.605443 0.579615
O O1 0.520716 0.770714 0.260712
O O2 0.705113 0.602123 0.276570
O O3 0.353098 0.631440 0.149235
O O4 0.220518 0.653958 0.467446
O O5 0.105016 0.131607 0.717394
O O6 0.965587 0.283757 0.955913
O O7 0.184240 0.128336 0.983008
O O8 0.325906 0.836010 0.791690
O O9 0.525710 0.677268 0.630543
O O10 0.872567 0.811055 0.719013
O O11 0.554976 0.720985 0.907631
O O12 0.964507 0.030353 0.238427
O O13 0.920021 0.424008 0.270354
O O14 0.585534 0.438680 0.149714
O O15 0.000000 0.500000 0.000000
O O16 0.500000 0.000000 0.500000
O O17 0.000000 0.000000 0.500000
O O18 0.500000 0.500000 0.500000
#
# Coordination Sequence:
#
# PCOD9091015 Si02
#       8
#     2   2   2   2   2   2   2   2
#     4  11  21  39  65  93 137 172 224 279 340 400
#     4  11  25  44  70  99 132 177 228 280 344 416
#     4  10  22  43  71 101 135 179 233 276 341 407
#     4  11  24  47  73 101 133 181 229 284 340 416
#     4  10  19  39  62  92 136 178 227 276 334 403
#     4  10  21  39  66 100 129 177 230 280 331 411
#     4  12  30  49  72 105 141 178 225 292 355 410
#     4   9  22  39  60  97 139 179 224 284 340 398
#
# _framework density 25.750239000000001
#
# number of rings (size 3 to 8) (size 9 to 14) (size 15 to 20)
#    0.000    1.500    2.500    1.500    5.250    0.000 
#    0.000    4.375    0.000    0.000    0.000    0.000 
#    0.000    0.000    0.000    0.000    0.000    0.000 
#
# Total GULP energy -89167.270913 kJ/mol
# GULP energy per Si atom -5572.954432 kJ/mol
# Density = 2.569163 g / cm^3
# Si number density = 25.750239 Si / 1000 Ang^3
#
#
#
# Elastic Constant Matrix: (Units=GPa)
#
#
# Indices 1 2 3 4 5 6 
#
# 1 74.5599 5.3063 -3.5726 -4.4538 4.8292 -1.2478
# 2 5.3063 96.3412 35.3414 -19.1783 3.6556 8.4643
# 3 -3.5726 35.3414 91.3435 -22.3931 31.2556 -5.7576
# 4 -4.4538 -19.1783 -22.3931 59.3357 -1.7122 2.1267
# 5 4.8292 3.6556 31.2556 -1.7122 30.4462 -4.3381
# 6 -1.2478 8.4643 -5.7576 2.1267 -4.3381 18.0009
#
#
#
# Elastic Compliance Matrix: (Units=1/GPa)
#
#
# Indices 1 2 3 4 5 6 
#
# 1 0.014171 -0.001667 0.003535 0.001653 -0.005384 0.001404
# 2 -0.001667 0.014050 -0.007161 0.002145 0.004897 -0.008086
# 3 0.003535 -0.007161 0.023380 0.005944 -0.022667 0.004926
# 4 0.001653 0.002145 0.005944 0.019842 -0.005899 -0.002759
# 5 -0.005384 0.004897 -0.022667 -0.005899 0.056680 0.004430
# 6 0.001404 -0.008086 0.004926 -0.002759 0.004430 0.062421
#
#
# Mechanical properties :
#
#
# Convention : Reuss Voigt Hill
#
# Bulk Modulus (GPa) = 24.38098 37.37722 30.87910
# Shear Modulus (GPa) = 23.27724 36.56784 29.92254
#
# Velocity S-wave (km/s) = 3.00986 3.77251 3.41255
# Velocity P-wave (km/s) = 4.64411 5.78986 5.24835
#
# Compressibility (1/GPa) = 0.04101558
#
# Stress axis : x y z
#
# Youngs Moduli (GPa) = 70.56627 71.17448 42.77121
#
# Poissons Ratio (x) = 0.11868 -0.15122
# Poissons Ratio (y) = 0.11766 0.30628
# Poissons Ratio (z) = -0.24949 0.50967
#
# Static dielectric constant tensor:
#      x y z
#    x 2.066290 0.009740 -0.095710 
#    y 0.009740 2.059740 -0.006110 
#    z -0.095710 -0.006110 2.450950 
# 
# From -- ./inp_files/53855.got.cif
#   From: 2010.05.17/outbox.cif.g08.bks.cpg/sg2_27_cif.got.tgz:53855.got - 2010.06.03 11:33:40.
