data_PCOD9091927
_publ_section_title
;
Structure prediction by ZEFSAII (Michael W. Deem and Ramdas Pophale) SiO2 
 PCOD9091927
Probable space group: P -1
;
_chemical_formula_sum "Si O2"
_cell_formula_units_Z 15
_cell_length_a 7.871552
_cell_length_b 6.976348
_cell_length_c 16.807974
_cell_angle_alpha 79.584609
_cell_angle_beta 109.764272
_cell_angle_gamma 54.307855
_cell_volume 613.119794
_symmetry_space_group_name_H-M "P -1"
_symmetry_group_IT_number 2
_symmetry_cell_setting 'triclinic'
loop_
_space_group_symop_operation_xyz
x,y,z
-x,-y,-z
loop_
_atom_site_type_symbol
_atom_site_label
_atom_site_fract_x
_atom_site_fract_y
_atom_site_fract_z
Si Si1 0.000000 0.500000 0.000000
Si Si2 0.219697 0.947181 0.586463
Si Si3 0.550970 0.352870 0.634966
Si Si4 0.866359 0.045964 0.107343
Si Si5 0.664023 0.610321 0.086408
Si Si6 0.956095 0.814550 0.299220
Si Si7 0.731330 0.708462 0.520694
Si Si8 0.356641 0.890446 0.164319
O O1 0.177673 0.382503 0.952975
O O2 0.788566 0.801700 0.902703
O O3 0.238065 0.961824 0.683223
O O4 0.172130 0.201371 0.530402
O O5 0.457167 0.637961 0.623516
O O6 0.000000 0.000000 0.500000
O O7 0.618387 0.612825 0.461818
O O8 0.562382 0.204513 0.724581
O O9 0.828220 0.181735 0.660058
O O10 0.791531 0.302710 0.120602
O O11 0.887334 0.869864 0.192208
O O12 0.625846 0.184565 0.005502
O O13 0.134372 0.889247 0.118873
O O14 0.602811 0.692669 0.162918
O O15 0.071805 0.523831 0.368211
O O16 0.500000 0.000000 0.500000
#
# Coordination Sequence:
#
# PCOD9091927 Si02
#       8
#     1   2   2   2   2   2   2   2
#     4  10  22  38  60  92 130 164 212 274 326 394
#     4  12  24  41  67  91 130 181 219 278 334 392
#     4  11  24  44  66  96 133 176 224 280 337 403
#     4   9  21  37  65  93 123 172 221 273 335 403
#     4  10  19  40  63  93 131 169 221 271 337 397
#     4  11  22  42  64  97 133 169 228 278 336 406
#     4  12  24  43  66  95 136 177 222 279 339 396
#     4  10  21  40  64  91 130 174 218 276 337 398
#
# _framework density 24.465039000000001
#
# number of rings (size 3 to 8) (size 9 to 14) (size 15 to 20)
#    0.000    1.333    2.667    3.200    0.000    1.067 
#    2.400    1.333    0.000    0.000    0.000    0.000 
#    0.000    0.000    0.000    0.000    0.000    0.000 
#
# Total GULP energy -83539.300730 kJ/mol
# GULP energy per Si atom -5569.286715 kJ/mol
# Density = 2.440936 g / cm^3
# Si number density = 24.465039 Si / 1000 Ang^3
#
#
#
# Elastic Constant Matrix: (Units=GPa)
#
#
# Indices 1 2 3 4 5 6 
#
# 1 74.2754 24.1915 9.7611 11.5330 -15.6808 -15.1602
# 2 24.1915 109.8727 14.6174 -10.4507 -23.3802 -14.3303
# 3 9.7611 14.6174 134.8542 -2.2748 -39.8413 5.8069
# 4 11.5330 -10.4507 -2.2748 26.8962 -0.9302 -15.2172
# 5 -15.6808 -23.3802 -39.8413 -0.9302 41.7107 -1.4634
# 6 -15.1602 -14.3303 5.8069 -15.2172 -1.4634 32.0482
#
#
#
# Elastic Compliance Matrix: (Units=1/GPa)
#
#
# Indices 1 2 3 4 5 6 
#
# 1 0.017197 -0.002665 0.000327 -0.005696 0.005312 0.004422
# 2 -0.002665 0.014252 0.000901 0.013775 0.008572 0.011881
# 3 0.000327 0.000901 0.010474 0.001342 0.010655 -0.000216
# 4 -0.005696 0.013775 0.001342 0.064929 0.009520 0.034486
# 5 0.005312 0.008572 0.010655 0.009520 0.041546 0.010832
# 6 0.004422 0.011881 -0.000216 0.034486 0.010832 0.055516
#
#
# Mechanical properties :
#
#
# Convention : Reuss Voigt Hill
#
# Bulk Modulus (GPa) = 25.60819 46.23803 35.92311
# Shear Modulus (GPa) = 22.74762 38.15984 30.45373
#
# Velocity S-wave (km/s) = 3.05257 3.95368 3.53198
# Velocity P-wave (km/s) = 4.78688 6.30736 5.59897
#
# Compressibility (1/GPa) = 0.03905001
#
# Stress axis : x y z
#
# Youngs Moduli (GPa) = 58.15064 70.16506 95.47549
#
# Poissons Ratio (x) = 0.18696 -0.03121
# Poissons Ratio (y) = 0.15494 -0.08605
# Poissons Ratio (z) = -0.01901 -0.06324
#
# Static dielectric constant tensor:
#      x y z
#    x 2.074840 -0.077030 -0.071640 
#    y -0.077030 1.977220 0.039790 
#    z -0.071640 0.039790 1.885830 
# 
# From -- ./inp_files/586128.got.cif
#   From: 2010.05.17/outbox.cif.g08.bks.cpg/sg2_294_cif.got.tgz:586128.got - 2010.06.03 11:33:40.
