data_PCOD9091177
_publ_section_title
;
Structure prediction by ZEFSAII (Michael W. Deem and Ramdas Pophale) SiO2 
 PCOD9091177
Probable space group: P -1
;
_chemical_formula_sum "Si O2"
_cell_formula_units_Z 16
_cell_length_a 8.357712
_cell_length_b 12.367309
_cell_length_c 16.382765
_cell_angle_alpha 135.737436
_cell_angle_beta 69.839844
_cell_angle_gamma 133.139283
_cell_volume 826.697027
_symmetry_space_group_name_H-M "P -1"
_symmetry_group_IT_number 2
_symmetry_cell_setting 'triclinic'
loop_
_space_group_symop_operation_xyz
x,y,z
-x,-y,-z
loop_
_atom_site_type_symbol
_atom_site_label
_atom_site_fract_x
_atom_site_fract_y
_atom_site_fract_z
Si Si1 0.121484 0.500773 0.775411
Si Si2 0.622230 0.218037 0.788682
Si Si3 0.045792 0.849149 0.891285
Si Si4 0.546794 0.457660 0.826554
Si Si5 0.941389 0.408384 0.341346
Si Si6 0.747746 0.774719 0.407464
Si Si7 0.553345 0.236531 0.996460
Si Si8 0.377593 0.756448 0.543485
O O1 0.128551 0.592885 0.738393
O O2 0.219541 0.389515 0.679840
O O3 0.267007 0.669932 0.912021
O O4 0.867649 0.338578 0.769163
O O5 0.528595 0.328160 0.834969
O O6 0.469617 0.985422 0.656986
O O7 0.629174 0.215589 0.884379
O O8 0.036672 0.766053 0.757490
O O9 0.820137 0.632553 0.853675
O O10 0.318836 0.014664 0.947961
O O11 0.000000 0.000000 0.000000
O O12 0.385790 0.291606 0.692352
O O13 0.477957 0.596382 0.922585
O O14 0.759103 0.357266 0.410432
O O15 0.186365 0.626738 0.437244
O O16 0.578136 0.756782 0.490521
O O17 0.000000 0.000000 0.500000
#
# Coordination Sequence:
#
# PCOD9091177 Si02
#       8
#     2   2   2   2   2   2   2   2
#     4  11  24  39  63  88 125 163 199 253 311 359
#     4  12  21  39  64  92 122 160 205 252 304 368
#     4  10  19  39  64  85 117 162 204 246 298 357
#     4  10  22  39  64  89 122 161 208 250 299 367
#     4  11  23  44  64  92 120 162 211 252 295 366
#     4  11  22  39  61  90 129 160 197 250 315 361
#     4  10  23  40  61  92 124 158 202 257 310 353
#     4  11  24  40  66  90 124 160 208 254 298 363
#
# _framework density 19.354126999999998
#
# number of rings (size 3 to 8) (size 9 to 14) (size 15 to 20)
#    0.000    1.250    5.000    0.750    1.750    2.000 
#    0.000    0.000   11.000    0.000    0.000    0.000 
#    0.000    0.000    0.000    0.000    0.000    0.000 
#
# Total GULP energy -89089.107784 kJ/mol
# GULP energy per Si atom -5568.069237 kJ/mol
# Density = 1.931008 g / cm^3
# Si number density = 19.354127 Si / 1000 Ang^3
#
#
#
# Elastic Constant Matrix: (Units=GPa)
#
#
# Indices 1 2 3 4 5 6 
#
# 1 72.4158 50.3627 42.7717 -4.1757 6.2576 2.4091
# 2 50.3627 81.6331 50.8322 7.3596 16.5854 14.8584
# 3 42.7717 50.8322 147.0816 14.4675 11.3709 1.0084
# 4 -4.1757 7.3596 14.4675 37.4620 11.8446 4.0183
# 5 6.2576 16.5854 11.3709 11.8446 35.3517 -4.2366
# 6 2.4091 14.8584 1.0084 4.0183 -4.2366 26.3334
#
#
#
# Elastic Compliance Matrix: (Units=1/GPa)
#
#
# Indices 1 2 3 4 5 6 
#
# 1 0.027687 -0.017900 -0.002744 0.005834 0.003301 0.007313
# 2 -0.017900 0.032137 -0.004761 -0.000611 -0.012355 -0.018208
# 3 -0.002744 -0.004761 0.009491 -0.003826 0.001353 0.003376
# 4 0.005834 -0.000611 -0.003826 0.033333 -0.011521 -0.006983
# 5 0.003301 -0.012355 0.001353 -0.011521 0.038673 0.014597
# 6 0.007313 -0.018208 0.003376 -0.006983 0.014597 0.050864
#
#
# Mechanical properties :
#
#
# Convention : Reuss Voigt Hill
#
# Bulk Modulus (GPa) = 54.04299 65.45154 59.74726
# Shear Modulus (GPa) = 20.06708 30.30702 25.18705
#
# Velocity S-wave (km/s) = 3.22349 3.96146 3.61138
# Velocity P-wave (km/s) = 6.46826 7.40375 6.95176
#
# Compressibility (1/GPa) = 0.01850379
#
# Stress axis : x y z
#
# Youngs Moduli (GPa) = 36.11846 31.11652 105.36148
#
# Poissons Ratio (x) = 0.55698 0.28914
# Poissons Ratio (y) = 0.64652 0.50167
# Poissons Ratio (z) = 0.09912 0.14816
#
# Static dielectric constant tensor:
#      x y z
#    x 1.726160 -0.020580 -0.045750 
#    y -0.020580 1.698450 0.025980 
#    z -0.045750 0.025980 1.708320 
# 
# From -- ./inp_files/185868.got.cif
#   From: 2010.05.17/outbox.cif.g08.bks.cpg/sg2_93_cif.got.tgz:185868.got - 2010.06.03 11:33:40.
