data_PCOD9091996
_publ_section_title
;
Structure prediction by ZEFSAII (Michael W. Deem and Ramdas Pophale) SiO2 
 PCOD9091996
Probable space group: P -1
;
_chemical_formula_sum "Si O2"
_cell_formula_units_Z 16
_cell_length_a 11.957659
_cell_length_b 5.710302
_cell_length_c 11.133760
_cell_angle_alpha 88.923150
_cell_angle_beta 70.589910
_cell_angle_gamma 115.089675
_cell_volume 637.918038
_symmetry_space_group_name_H-M "P -1"
_symmetry_group_IT_number 2
_symmetry_cell_setting 'triclinic'
loop_
_space_group_symop_operation_xyz
x,y,z
-x,-y,-z
loop_
_atom_site_type_symbol
_atom_site_label
_atom_site_fract_x
_atom_site_fract_y
_atom_site_fract_z
Si Si1 0.433331 0.631735 0.437295
Si Si2 0.945481 0.459741 0.386858
Si Si3 0.144461 0.873096 0.892179
Si Si4 0.884761 0.617019 0.860266
Si Si5 0.101352 0.077013 0.678196
Si Si6 0.635760 0.204235 0.300493
Si Si7 0.550839 0.615174 0.784592
Si Si8 0.321852 0.227993 0.027709
O O1 0.500000 0.500000 0.500000
O O2 0.360219 0.721633 0.561708
O O3 0.367504 0.446959 0.347903
O O4 0.549753 0.890472 0.335619
O O5 0.883758 0.661087 0.388689
O O6 0.000000 0.500000 0.500000
O O7 0.064807 0.540319 0.244352
O O8 0.865598 0.139812 0.398197
O O9 0.170052 0.107946 0.784091
O O10 0.221764 0.724276 0.807806
O O11 0.014751 0.298770 0.062245
O O12 0.211789 0.988633 0.992751
O O13 0.736768 0.558079 0.942322
O O14 0.944680 0.894815 0.762872
O O15 0.549438 0.306102 0.251894
O O16 0.640941 0.819118 0.851456
O O17 0.455607 0.359336 0.899510
#
# Coordination Sequence:
#
# PCOD9091996 Si02
#       8
#     2   2   2   2   2   2   2   2
#     4   9  19  40  64  87 121 158 215 266 319 380
#     4   9  17  38  61  86 130 169 214 268 325 394
#     4   9  20  38  64  88 124 164 220 263 321 386
#     4   8  22  37  60  89 127 168 221 257 327 384
#     4   8  20  35  61  93 124 166 220 260 331 388
#     4  10  19  40  64  94 120 163 214 268 321 389
#     4  10  23  37  64  92 129 169 206 270 332 385
#     4  11  20  43  59  91 134 168 216 264 322 400
#
# _framework density 25.081595
#
# number of rings (size 3 to 8) (size 9 to 14) (size 15 to 20)
#    1.500    1.000    1.250    0.750    0.000    2.500 
#    6.750    3.750    0.000    0.000    0.000    0.000 
#    0.000    0.000    0.000    0.000    0.000    0.000 
#
# Total GULP energy -89180.544323 kJ/mol
# GULP energy per Si atom -5573.784020 kJ/mol
# Density = 2.502451 g / cm^3
# Si number density = 25.081595 Si / 1000 Ang^3
#
#
#
# Elastic Constant Matrix: (Units=GPa)
#
#
# Indices 1 2 3 4 5 6 
#
# 1 94.9959 24.0766 59.7071 14.4177 4.2265 -6.1465
# 2 24.0766 93.2542 53.4897 10.7244 7.4053 -19.3425
# 3 59.7071 53.4897 130.6610 35.9898 33.1097 6.3740
# 4 14.4177 10.7244 35.9898 42.8158 1.7983 0.1320
# 5 4.2265 7.4053 33.1097 1.7983 39.5179 8.2594
# 6 -6.1465 -19.3425 6.3740 0.1320 8.2594 31.1719
#
#
#
# Elastic Compliance Matrix: (Units=1/GPa)
#
#
# Indices 1 2 3 4 5 6 
#
# 1 0.016532 0.002433 -0.011073 0.002872 0.005775 0.005492
# 2 0.002433 0.018638 -0.011040 0.003646 0.002483 0.013629
# 3 -0.011073 -0.011040 0.025578 -0.014328 -0.015410 -0.010120
# 4 0.002872 0.003646 -0.014328 0.033139 0.008820 0.003281
# 5 0.005775 0.002483 -0.015410 0.008820 0.037604 -0.004171
# 6 0.005492 0.013629 -0.010120 0.003281 -0.004171 0.044781
#
#
# Mechanical properties :
#
#
# Convention : Reuss Voigt Hill
#
# Bulk Modulus (GPa) = 46.75364 65.93978 56.34671
# Shear Modulus (GPa) = 22.44558 34.81030 28.62794
#
# Velocity S-wave (km/s) = 2.99474 3.72947 3.38211
# Velocity P-wave (km/s) = 5.53525 6.70018 6.14538
#
# Compressibility (1/GPa) = 0.02138871
#
# Stress axis : x y z
#
# Youngs Moduli (GPa) = 60.48791 53.65323 39.09601
#
# Poissons Ratio (x) = -0.13055 0.43291
# Poissons Ratio (y) = -0.14718 0.43163
# Poissons Ratio (z) = 0.66978 0.59234
#
# Static dielectric constant tensor:
#      x y z
#    x 1.999890 0.051000 -0.015850 
#    y 0.051000 2.068140 0.004610 
#    z -0.015850 0.004610 1.990240 
# 
# From -- ./inp_files/440515.got.cif
#   From: 2010.05.17/outbox.cif.g08.bks.cpg/sg2_221_cif.got.tgz:440515.got - 2010.06.03 11:33:40.
