data_PCOD9091648
_publ_section_title
;
Structure prediction by ZEFSAII (Michael W. Deem and Ramdas Pophale) SiO2 
 PCOD9091648
Probable space group: P -1
;
_chemical_formula_sum "Si O2"
_cell_formula_units_Z 16
_cell_length_a 14.392744
_cell_length_b 7.824854
_cell_length_c 13.605848
_cell_angle_alpha 118.828595
_cell_angle_beta 132.693629
_cell_angle_gamma 98.699031
_cell_volume 660.715162
_symmetry_space_group_name_H-M "P -1"
_symmetry_group_IT_number 2
_symmetry_cell_setting 'triclinic'
loop_
_space_group_symop_operation_xyz
x,y,z
-x,-y,-z
loop_
_atom_site_type_symbol
_atom_site_label
_atom_site_fract_x
_atom_site_fract_y
_atom_site_fract_z
Si Si1 0.778065 0.291173 0.859570
Si Si2 0.581541 0.446778 0.463539
Si Si3 0.661957 0.151333 0.523610
Si Si4 0.822528 0.123493 0.032066
Si Si5 0.382637 0.284904 0.947116
Si Si6 0.279355 0.434324 0.598270
Si Si7 0.162804 0.725296 0.517562
Si Si8 0.101699 0.151911 0.850806
O O1 0.760911 0.212292 0.712743
O O2 0.562643 0.101378 0.685876
O O3 0.853281 0.208170 0.962583
O O4 0.890850 0.619835 0.044796
O O5 0.500000 0.500000 0.500000
O O6 0.703188 0.425315 0.601172
O O7 0.686186 0.650695 0.501004
O O8 0.403592 0.134654 0.197303
O O9 0.732362 0.119261 0.468838
O O10 0.941778 0.428303 0.256956
O O11 0.879895 0.983787 0.083681
O O12 0.277293 0.317542 0.950085
O O13 0.221797 0.957266 0.699825
O O14 0.500000 0.500000 0.000000
O O15 0.540794 0.362879 0.148008
O O16 0.238189 0.606520 0.581434
O O17 0.089695 0.124787 0.419673
#
# Coordination Sequence:
#
# PCOD9091648 Si02
#       8
#     2   2   2   2   2   2   2   2
#     4  10  21  40  65  97 136 172 217 282 327 403
#     4  10  19  39  68  97 139 178 223 273 336 406
#     4   9  20  38  63  96 133 178 216 272 345 389
#     4  10  22  40  66  98 128 180 218 267 345 388
#     4  12  26  45  69  98 132 179 225 281 343 393
#     4  10  24  44  68 100 129 181 226 273 345 391
#     4  10  23  44  64  95 134 172 232 274 326 413
#     4  11  24  45  69 102 137 170 233 277 332 408
#
# _framework density 24.216183000000001
#
# number of rings (size 3 to 8) (size 9 to 14) (size 15 to 20)
#    0.000    1.750    1.250    1.875    1.750    4.000 
#   11.250    3.750    0.000    0.000    0.000    0.000 
#    0.000    0.000    0.000    0.000    0.000    0.000 
#
# Total GULP energy -89469.722738 kJ/mol
# GULP energy per Si atom -5591.857671 kJ/mol
# Density = 2.416107 g / cm^3
# Si number density = 24.216183 Si / 1000 Ang^3
#
#
#
# Elastic Constant Matrix: (Units=GPa)
#
#
# Indices 1 2 3 4 5 6 
#
# 1 75.1840 32.2094 34.0146 -4.1047 3.3327 0.5458
# 2 32.2094 104.9320 34.1463 -10.1411 -11.4935 13.9890
# 3 34.0146 34.1463 114.9558 -4.8621 5.8569 4.1375
# 4 -4.1047 -10.1411 -4.8621 36.4730 6.5534 2.9357
# 5 3.3327 -11.4935 5.8569 6.5534 31.6203 6.5414
# 6 0.5458 13.9890 4.1375 2.9357 6.5414 19.8969
#
#
#
# Elastic Compliance Matrix: (Units=1/GPa)
#
#
# Indices 1 2 3 4 5 6 
#
# 1 0.017343 -0.005336 -0.003506 0.000341 -0.004299 0.005368
# 2 -0.005336 0.015016 -0.002738 0.002705 0.008676 -0.013093
# 3 -0.003506 -0.002738 0.010706 0.000740 -0.002894 0.000637
# 4 0.000341 0.002705 0.000740 0.029476 -0.004262 -0.005013
# 5 -0.004299 0.008676 -0.002894 -0.004262 0.040380 -0.018027
# 6 0.005368 -0.013093 0.000637 -0.005013 -0.018027 0.065851
#
#
# Mechanical properties :
#
#
# Convention : Reuss Voigt Hill
#
# Bulk Modulus (GPa) = 50.24101 55.09028 52.66564
# Shear Modulus (GPa) = 23.97304 30.57815 27.27560
#
# Velocity S-wave (km/s) = 3.14978 3.55733 3.35974
# Velocity P-wave (km/s) = 5.83267 6.29853 6.07007
#
# Compressibility (1/GPa) = 0.01990406
#
# Stress axis : x y z
#
# Youngs Moduli (GPa) = 57.65884 66.59556 93.40953
#
# Poissons Ratio (x) = 0.35537 0.32754
# Poissons Ratio (y) = 0.30768 0.25573
# Poissons Ratio (z) = 0.20218 0.18232
#
# Static dielectric constant tensor:
#      x y z
#    x 1.891960 0.048040 0.032070 
#    y 0.048040 1.969040 0.011150 
#    z 0.032070 0.011150 1.941020 
# 
# From -- ./inp_files/434357.got.cif
#   From: 2010.05.17/outbox.cif.g08.bks.cpg/sg2_218_cif.got.tgz:434357.got - 2010.06.03 11:33:40.
