data_PCOD9091090
_publ_section_title
;
Structure prediction by ZEFSAII (Michael W. Deem and Ramdas Pophale) SiO2 
 PCOD9091090
Probable space group: P -1
;
_chemical_formula_sum "Si O2"
_cell_formula_units_Z 14
_cell_length_a 11.144296
_cell_length_b 13.647472
_cell_length_c 9.414273
_cell_angle_alpha 54.735390
_cell_angle_beta 118.286194
_cell_angle_gamma 144.645728
_cell_volume 676.452625
_symmetry_space_group_name_H-M "P -1"
_symmetry_group_IT_number 2
_symmetry_cell_setting 'triclinic'
loop_
_space_group_symop_operation_xyz
x,y,z
-x,-y,-z
loop_
_atom_site_type_symbol
_atom_site_label
_atom_site_fract_x
_atom_site_fract_y
_atom_site_fract_z
Si Si1 0.045817 0.974786 0.199152
Si Si2 0.977251 0.872037 0.697795
Si Si3 0.615773 0.978564 0.267375
Si Si4 0.757803 0.340559 0.130820
Si Si5 0.735995 0.616609 0.519003
Si Si6 0.237209 0.627401 0.204140
Si Si7 0.446591 0.106513 0.383220
O O1 0.857042 0.780958 0.336374
O O2 0.108788 0.129627 0.204996
O O3 0.230926 0.000825 0.279022
O O4 0.000000 0.000000 0.000000
O O5 0.843989 0.699393 0.665392
O O6 0.203403 0.964560 0.768370
O O7 0.000000 0.000000 0.500000
O O8 0.398935 0.830374 0.187520
O O9 0.579452 0.881996 0.474952
O O10 0.703884 0.165717 0.208205
O O11 0.624937 0.286175 0.239227
O O12 0.000930 0.514998 0.154260
O O13 0.699404 0.362332 0.930929
O O14 0.500000 0.500000 0.500000
O O15 0.752842 0.486938 0.602110
O O16 0.500000 0.000000 0.500000
#
# Coordination Sequence:
#
# PCOD9091090 Si02
#       7
#     2   2   2   2   2   2   2
#     4  11  24  42  66  96 129 172 218 268 332 387
#     4  10  19  39  63  89 125 169 212 259 322 396
#     4  11  20  40  66  92 125 173 212 261 331 390
#     4  10  23  40  61  96 132 160 219 270 316 391
#     4  11  22  39  65  93 127 166 218 268 319 391
#     4  11  22  39  65  94 125 169 215 268 323 382
#     4  10  21  40  64  89 130 167 211 267 321 383
#
# _framework density 20.696200000000001
#
# number of rings (size 3 to 8) (size 9 to 14) (size 15 to 20)
#    0.000    1.429    4.286    3.000    4.000    0.571 
#    0.000    2.143    0.000    0.000    0.000    0.000 
#    0.000    0.000    0.000    0.000    0.000    0.000 
#
# Total GULP energy -78075.202436 kJ/mol
# GULP energy per Si atom -5576.800174 kJ/mol
# Density = 2.064909 g / cm^3
# Si number density = 20.696200 Si / 1000 Ang^3
#
#
#
# Elastic Constant Matrix: (Units=GPa)
#
#
# Indices 1 2 3 4 5 6 
#
# 1 63.7104 22.2263 20.1085 2.8347 4.6299 15.1544
# 2 22.2263 118.7681 29.4920 13.8434 7.6638 18.6687
# 3 20.1085 29.4920 118.1582 3.2236 -7.4101 11.4103
# 4 2.8347 13.8434 3.2236 33.7979 3.3954 2.4609
# 5 4.6299 7.6638 -7.4101 3.3954 21.1130 -1.8467
# 6 15.1544 18.6687 11.4103 2.4609 -1.8467 36.3425
#
#
#
# Elastic Compliance Matrix: (Units=1/GPa)
#
#
# Indices 1 2 3 4 5 6 
#
# 1 0.018970 -0.001596 -0.002522 0.000293 -0.005088 -0.006577
# 2 -0.001596 0.010528 -0.002129 -0.003273 -0.004047 -0.004058
# 3 -0.002522 -0.002129 0.009794 -0.000279 0.004749 -0.000670
# 4 0.000293 -0.003273 -0.000279 0.031390 -0.004082 -0.000686
# 5 -0.005088 -0.004047 0.004749 -0.004082 0.052768 0.005667
# 6 -0.006577 -0.004058 -0.000670 -0.000686 0.005667 0.032888
#
#
# Mechanical properties :
#
#
# Convention : Reuss Voigt Hill
#
# Bulk Modulus (GPa) = 37.31584 49.36560 43.34072
# Shear Modulus (GPa) = 28.12725 33.50468 30.81596
#
# Velocity S-wave (km/s) = 3.69053 4.02790 3.86290
# Velocity P-wave (km/s) = 6.01909 6.74805 6.39397
#
# Compressibility (1/GPa) = 0.02679827
#
# Stress axis : x y z
#
# Youngs Moduli (GPa) = 52.71503 94.98906 102.10453
#
# Poissons Ratio (x) = 0.15158 0.25751
# Poissons Ratio (y) = 0.08412 0.21735
# Poissons Ratio (z) = 0.13295 0.20220
#
# Static dielectric constant tensor:
#      x y z
#    x 1.783240 -0.040570 -0.001370 
#    y -0.040570 1.806800 -0.033370 
#    z -0.001370 -0.033370 1.772120 
# 
# From -- ./inp_files/269854.got.cif
#   From: 2010.05.17/outbox.cif.g08.bks.cpg/sg2_135_cif.got.tgz:269854.got - 2010.06.03 11:33:40.
