data_PCOD9091135
_publ_section_title
;
Structure prediction by ZEFSAII (Michael W. Deem and Ramdas Pophale) SiO2 
 PCOD9091135
Probable space group: P -1
;
_chemical_formula_sum "Si O2"
_cell_formula_units_Z 15
_cell_length_a 14.817852
_cell_length_b 10.732973
_cell_length_c 5.171367
_cell_angle_alpha 128.304479
_cell_angle_beta 109.405611
_cell_angle_gamma 59.880467
_cell_volume 557.986651
_symmetry_space_group_name_H-M "P -1"
_symmetry_group_IT_number 2
_symmetry_cell_setting 'triclinic'
loop_
_space_group_symop_operation_xyz
x,y,z
-x,-y,-z
loop_
_atom_site_type_symbol
_atom_site_label
_atom_site_fract_x
_atom_site_fract_y
_atom_site_fract_z
Si Si1 0.995992 0.189422 0.705440
Si Si2 0.815667 0.902807 0.530983
Si Si3 0.500000 0.500000 0.500000
Si Si4 0.672557 0.160922 0.379130
Si Si5 0.573240 0.948826 0.751111
Si Si6 0.692724 0.575469 0.581961
Si Si7 0.887792 0.540199 0.089750
Si Si8 0.828619 0.216593 0.230402
O O1 0.925251 0.351666 0.019889
O O2 0.932487 0.238371 0.437098
O O3 0.114444 0.161792 0.746289
O O4 0.000000 0.000000 0.500000
O O5 0.704042 0.024745 0.467281
O O6 0.847743 0.715233 0.447849
O O7 0.851911 0.037569 0.880316
O O8 0.574924 0.339655 0.554786
O O9 0.596843 0.563227 0.633782
O O10 0.769116 0.200972 0.418676
O O11 0.641688 0.062872 0.990442
O O12 0.646132 0.746076 0.582839
O O13 0.500000 0.000000 0.500000
O O14 0.500000 0.000000 0.000000
O O15 0.786518 0.575202 0.856223
O O16 0.743977 0.389874 0.245648
O O17 0.000000 0.500000 0.000000
#
# Coordination Sequence:
#
# PCOD9091135 Si02
#       8
#     2   2   1   2   2   2   2   2
#     4  10  19  39  63  94 134 176 226 285 358 432
#     4  11  21  39  66  91 135 178 229 288 359 425
#     4  10  22  40  68  94 140 184 236 290 362 420
#     4  11  23  40  65  97 131 179 233 296 357 427
#     4  12  27  47  73 105 142 193 245 311 374 442
#     4  10  21  44  67 101 143 185 248 295 372 440
#     4   9  20  37  68  95 135 182 227 300 363 441
#     4  10  23  39  64  99 134 184 230 294 355 436
#
# _framework density 26.882361
#
# number of rings (size 3 to 8) (size 9 to 14) (size 15 to 20)
#    0.000    1.600    4.000    0.400    1.867    1.067 
#    0.000    4.667    0.000    0.000    0.000    0.000 
#    0.000    0.000    0.000    0.000    0.000    0.000 
#
# Total GULP energy -83522.146457 kJ/mol
# GULP energy per Si atom -5568.143097 kJ/mol
# Density = 2.682118 g / cm^3
# Si number density = 26.882361 Si / 1000 Ang^3
#
#
#
# Elastic Constant Matrix: (Units=GPa)
#
#
# Indices 1 2 3 4 5 6 
#
# 1 139.1632 17.3603 29.8046 -15.7139 23.3866 -15.5724
# 2 17.3603 194.2763 39.0569 35.2920 -9.2748 -32.7948
# 3 29.8046 39.0569 88.1376 7.3781 11.5034 -1.8373
# 4 -15.7139 35.2920 7.3781 59.8437 -3.5931 2.9619
# 5 23.3866 -9.2748 11.5034 -3.5931 43.0392 -4.1328
# 6 -15.5724 -32.7948 -1.8373 2.9619 -4.1328 29.9677
#
#
#
# Elastic Compliance Matrix: (Units=1/GPa)
#
#
# Indices 1 2 3 4 5 6 
#
# 1 0.009080 -0.000364 -0.002554 0.002518 -0.003794 0.003391
# 2 -0.000364 0.008690 -0.003559 -0.005067 0.003568 0.010096
# 3 -0.002554 -0.003559 0.014189 -0.000302 -0.003660 -0.004827
# 4 0.002518 -0.005067 -0.000302 0.020641 -0.001278 -0.006472
# 5 -0.003794 0.003568 -0.003660 -0.001278 0.027477 0.005625
# 6 0.003391 0.010096 -0.004827 -0.006472 0.005625 0.047299
#
#
# Mechanical properties :
#
#
# Convention : Reuss Voigt Hill
#
# Bulk Modulus (GPa) = 52.61767 66.00229 59.30998
# Shear Modulus (GPa) = 34.09145 48.92714 41.50930
#
# Velocity S-wave (km/s) = 3.56500 4.27083 3.93378
# Velocity P-wave (km/s) = 6.04661 6.99468 6.53785
#
# Compressibility (1/GPa) = 0.01900502
#
# Stress axis : x y z
#
# Youngs Moduli (GPa) = 110.13793 115.06924 70.47672
#
# Poissons Ratio (x) = 0.04188 0.18000
# Poissons Ratio (y) = 0.04009 0.25083
# Poissons Ratio (z) = 0.28129 0.40953
#
# Static dielectric constant tensor:
#      x y z
#    x 2.204500 0.105770 -0.007970 
#    y 0.105770 2.278530 0.100970 
#    z -0.007970 0.100970 2.158760 
# 
# From -- ./inp_files/49394.got.cif
#   From: 2010.05.17/outbox.cif.g08.bks.cpg/sg2_25_cif.got.tgz:49394.got - 2010.06.03 11:33:40.
