data_PCOD9091762
_publ_section_title
;
Structure prediction by ZEFSAII (Michael W. Deem and Ramdas Pophale) SiO2 
 PCOD9091762
Probable space group: P -1
;
_chemical_formula_sum "Si O2"
_cell_formula_units_Z 14
_cell_length_a 10.575603
_cell_length_b 11.739783
_cell_length_c 9.807266
_cell_angle_alpha 125.224236
_cell_angle_beta 42.418154
_cell_angle_gamma 99.152470
_cell_volume 587.096252
_symmetry_space_group_name_H-M "P -1"
_symmetry_group_IT_number 2
_symmetry_cell_setting 'triclinic'
loop_
_space_group_symop_operation_xyz
x,y,z
-x,-y,-z
loop_
_atom_site_type_symbol
_atom_site_label
_atom_site_fract_x
_atom_site_fract_y
_atom_site_fract_z
Si Si1 0.069860 0.623743 0.090386
Si Si2 0.542764 0.100101 0.918089
Si Si3 0.975131 0.307948 0.257478
Si Si4 0.235190 0.826437 0.993506
Si Si5 0.350425 0.985020 0.779788
Si Si6 0.524502 0.348619 0.552220
Si Si7 0.914912 0.641187 0.503777
O O1 0.073488 0.755878 0.080426
O O2 0.935449 0.707510 0.388649
O O3 0.316271 0.510785 0.860747
O O4 0.000000 0.500000 0.000000
O O5 0.333664 0.274070 0.199564
O O6 0.474569 0.978436 0.262736
O O7 0.731027 0.124144 0.848756
O O8 0.500000 0.000000 0.000000
O O9 0.746999 0.336670 0.409517
O O10 0.007262 0.453652 0.281850
O O11 0.971725 0.325502 0.437059
O O12 0.173989 0.136389 0.945391
O O13 0.455142 0.684975 0.651778
O O14 0.208469 0.960302 0.997675
O O15 0.468115 0.810132 0.500500
#
# Coordination Sequence:
#
# PCOD9091762 Si02
#       7
#     2   2   2   2   2   2   2
#     4  12  23  36  54  87 119 138 184 236 283 325
#     4   9  16  36  58  82 109 139 192 222 274 335
#     4  10  19  40  57  80 108 149 200 215 269 337
#     4   9  19  34  60  83 107 148 184 222 287 321
#     4   8  19  33  63  83 104 147 187 231 262 331
#     4  10  20  34  60  81 109 152 180 227 275 331
#     4  10  22  34  60  81 112 149 181 237 272 319
#
# _framework density 23.846177999999998
#
# number of rings (size 3 to 8) (size 9 to 14) (size 15 to 20)
#    0.857    1.429    0.000    3.429    0.000    0.571 
#    0.000    7.143    0.000    0.000    0.000    0.000 
#    0.000    0.000    0.000    0.000    0.000    0.000 
#
# Total GULP energy -78080.206757 kJ/mol
# GULP energy per Si atom -5577.157626 kJ/mol
# Density = 2.379190 g / cm^3
# Si number density = 23.846178 Si / 1000 Ang^3
#
#
#
# Elastic Constant Matrix: (Units=GPa)
#
#
# Indices 1 2 3 4 5 6 
#
# 1 96.5986 15.4852 8.8824 -5.3653 -14.8356 15.1085
# 2 15.4852 98.7515 16.7378 8.6168 -4.3023 9.9538
# 3 8.8824 16.7378 43.9029 5.3005 -3.8032 -1.8105
# 4 -5.3653 8.6168 5.3005 32.7371 -7.2979 -4.5504
# 5 -14.8356 -4.3023 -3.8032 -7.2979 23.9642 -0.0034
# 6 15.1085 9.9538 -1.8105 -4.5504 -0.0034 29.0790
#
#
#
# Elastic Compliance Matrix: (Units=1/GPa)
#
#
# Indices 1 2 3 4 5 6 
#
# 1 0.013252 -0.001047 -0.002240 0.003945 0.008861 -0.006048
# 2 -0.001047 0.011672 -0.004039 -0.003213 -0.000173 -0.004206
# 3 -0.002240 -0.004039 0.025338 -0.002645 0.001105 0.003710
# 4 0.003945 -0.003213 -0.002645 0.035848 0.012363 0.004497
# 5 0.008861 -0.000173 0.001105 0.012363 0.051123 -0.002535
# 6 -0.006048 -0.004206 0.003710 0.004497 -0.002535 0.039905
#
#
# Mechanical properties :
#
#
# Convention : Reuss Voigt Hill
#
# Bulk Modulus (GPa) = 28.08109 35.71820 31.89964
# Shear Modulus (GPa) = 24.55073 30.36589 27.45831
#
# Velocity S-wave (km/s) = 3.21213 3.57235 3.39702
# Velocity P-wave (km/s) = 5.05555 5.65922 5.36588
#
# Compressibility (1/GPa) = 0.03561115
#
# Stress axis : x y z
#
# Youngs Moduli (GPa) = 75.46151 85.67631 39.46575
#
# Poissons Ratio (x) = 0.08969 0.08841
# Poissons Ratio (y) = 0.07900 0.15938
# Poissons Ratio (z) = 0.16904 0.34601
#
# Static dielectric constant tensor:
#      x y z
#    x 1.952600 0.009410 0.036750 
#    y 0.009410 1.962040 -0.007470 
#    z 0.036750 -0.007470 1.908110 
# 
# From -- ./inp_files/428631.got.cif
#   From: 2010.05.17/outbox.cif.g08.bks.cpg/sg2_215_cif.got.tgz:428631.got - 2010.06.03 11:33:40.
