data_PCOD9091412
_publ_section_title
;
Structure prediction by ZEFSAII (Michael W. Deem and Ramdas Pophale) SiO2 
 PCOD9091412
Probable space group: P -1
;
_chemical_formula_sum "Si O2"
_cell_formula_units_Z 16
_cell_length_a 12.371687
_cell_length_b 7.393787
_cell_length_c 16.695741
_cell_angle_alpha 92.953425
_cell_angle_beta 34.330879
_cell_angle_gamma 68.606545
_cell_volume 594.067944
_symmetry_space_group_name_H-M "P -1"
_symmetry_group_IT_number 2
_symmetry_cell_setting 'triclinic'
loop_
_space_group_symop_operation_xyz
x,y,z
-x,-y,-z
loop_
_atom_site_type_symbol
_atom_site_label
_atom_site_fract_x
_atom_site_fract_y
_atom_site_fract_z
Si Si1 0.955197 0.724595 0.430065
Si Si2 0.532525 0.679254 0.277399
Si Si3 0.306077 0.994919 0.167300
Si Si4 0.807125 0.281767 0.861639
Si Si5 0.176045 0.482241 0.600859
Si Si6 0.273968 0.198955 0.969297
Si Si7 0.565165 0.167865 0.481417
Si Si8 0.485459 0.366580 0.203959
O O1 0.135076 0.600071 0.234501
O O2 0.744714 0.717170 0.523277
O O3 0.170567 0.546590 0.366313
O O4 0.778346 0.028657 0.545622
O O5 0.573973 0.683098 0.346212
O O6 0.530853 0.468325 0.252917
O O7 0.739474 0.664125 0.097406
O O8 0.998409 0.265789 0.341748
O O9 0.431939 0.934268 0.175395
O O10 0.307386 0.796827 0.126506
O O11 0.500000 0.000000 0.000000
O O12 0.607719 0.417093 0.061518
O O13 0.108749 0.033167 0.708353
O O14 0.450744 0.346334 0.477449
O O15 0.968679 0.602933 0.811122
O O16 0.335797 0.941888 0.913670
O O17 0.500000 0.000000 0.500000
#
# Coordination Sequence:
#
# PCOD9091412 Si02
#       8
#     2   2   2   2   2   2   2   2
#     4  11  22  41  68 102 136 179 223 286 347 405
#     4  11  26  43  66 105 141 182 222 287 354 410
#     4  10  19  39  66 103 135 166 225 284 334 405
#     4  11  21  40  70  99 131 183 234 278 331 408
#     4  11  20  44  71  95 133 182 239 270 327 409
#     4  11  23  43  71 106 140 178 221 291 355 405
#     4  11  25  48  67  94 135 189 242 274 332 413
#     4  12  22  43  68 107 141 171 229 286 360 412
#
# _framework density 26.932945
#
# number of rings (size 3 to 8) (size 9 to 14) (size 15 to 20)
#    0.000    1.000    6.250    3.000    0.000    2.500 
#    4.500    1.875    0.000    0.000    0.000    0.000 
#    0.000    0.000    0.000    0.000    0.000    0.000 
#
# Total GULP energy -89382.673599 kJ/mol
# GULP energy per Si atom -5586.417100 kJ/mol
# Density = 2.687164 g / cm^3
# Si number density = 26.932945 Si / 1000 Ang^3
#
#
#
# Elastic Constant Matrix: (Units=GPa)
#
#
# Indices 1 2 3 4 5 6 
#
# 1 186.2924 43.9387 14.1453 8.7149 18.3715 -2.7819
# 2 43.9387 100.0461 11.2683 10.0240 22.6200 25.7280
# 3 14.1453 11.2683 71.6751 -13.1651 3.6109 -1.2415
# 4 8.7149 10.0240 -13.1651 36.3354 -4.7068 13.7115
# 5 18.3715 22.6200 3.6109 -4.7068 41.7864 16.2448
# 6 -2.7819 25.7280 -1.2415 13.7115 16.2448 58.1854
#
#
#
# Elastic Compliance Matrix: (Units=1/GPa)
#
#
# Indices 1 2 3 4 5 6 
#
# 1 0.006503 -0.002548 -0.001193 -0.002717 -0.002783 0.002829
# 2 -0.002548 0.013834 -0.002048 -0.002991 -0.004891 -0.004212
# 3 -0.001193 -0.002048 0.015720 0.007059 0.001409 -0.000873
# 4 -0.002717 -0.002991 0.007059 0.036736 0.010303 -0.010190
# 5 -0.002783 -0.004891 0.001409 0.010303 0.032513 -0.009446
# 6 0.002829 -0.004212 -0.000873 -0.010190 -0.009446 0.024204
#
#
# Mechanical properties :
#
#
# Convention : Reuss Voigt Hill
#
# Bulk Modulus (GPa) = 40.85106 55.19091 48.02098
# Shear Modulus (GPa) = 33.50157 46.50551 40.00354
#
# Velocity S-wave (km/s) = 3.53071 4.15988 3.85814
# Velocity P-wave (km/s) = 5.64108 6.60373 6.14130
#
# Compressibility (1/GPa) = 0.02447917
#
# Stress axis : x y z
#
# Youngs Moduli (GPa) = 153.76998 72.28680 63.61480
#
# Poissons Ratio (x) = 0.18418 0.07588
# Poissons Ratio (y) = 0.39180 0.13028
# Poissons Ratio (z) = 0.18341 0.14805
#
# Static dielectric constant tensor:
#      x y z
#    x 3.419630 0.457780 -1.054460 
#    y 0.457780 2.426310 -0.439940 
#    z -1.054460 -0.439940 3.173200 
# 
# From -- ./inp_files/566071.got.cif
#   From: 2010.05.17/outbox.cif.g08.bks.cpg/sg2_284_cif.got.tgz:566071.got - 2010.06.03 11:33:40.
