data_PCOD9091475
_publ_section_title
;
Structure prediction by ZEFSAII (Michael W. Deem and Ramdas Pophale) SiO2 
 PCOD9091475
Probable space group: P -1
;
_chemical_formula_sum "Si O2"
_cell_formula_units_Z 16
_cell_length_a 19.956521
_cell_length_b 8.970327
_cell_length_c 14.353846
_cell_angle_alpha 73.416591
_cell_angle_beta 18.288729
_cell_angle_gamma 67.565995
_cell_volume 718.629351
_symmetry_space_group_name_H-M "P -1"
_symmetry_group_IT_number 2
_symmetry_cell_setting 'triclinic'
loop_
_space_group_symop_operation_xyz
x,y,z
-x,-y,-z
loop_
_atom_site_type_symbol
_atom_site_label
_atom_site_fract_x
_atom_site_fract_y
_atom_site_fract_z
Si Si1 0.870933 0.111366 0.065746
Si Si2 0.363497 0.361268 0.721788
Si Si3 0.948628 0.357645 0.791471
Si Si4 0.094016 0.082704 0.279607
Si Si5 0.353770 0.728087 0.949113
Si Si6 0.101566 0.572641 0.438286
Si Si7 0.003578 0.182577 0.186460
Si Si8 0.245372 0.512766 0.656179
O O1 0.615123 0.222138 0.414481
O O2 0.998196 0.229070 0.834328
O O3 0.872098 0.984732 0.005038
O O4 0.000000 0.000000 0.000000
O O5 0.348500 0.476823 0.630065
O O6 0.256076 0.477170 0.931081
O O7 0.186808 0.267889 0.951663
O O8 0.140477 0.427305 0.490050
O O9 0.843974 0.279283 0.861067
O O10 0.935979 0.139013 0.385716
O O11 0.087684 0.255078 0.302641
O O12 0.000000 0.000000 0.500000
O O13 0.314596 0.921784 0.985577
O O14 0.591784 0.628425 0.602048
O O15 0.304599 0.628475 0.120867
O O16 0.000000 0.500000 0.500000
O O17 0.806712 0.311180 0.358766
O O18 0.000000 0.500000 0.000000
#
# Coordination Sequence:
#
# PCOD9091475 Si02
#       8
#     2   2   2   2   2   2   2   2
#     4  12  25  38  62  98 132 172 220 273 331 388
#     4  11  22  40  64  87 130 175 215 269 338 388
#     4  11  20  37  64  88 129 167 214 261 331 389
#     4  10  19  39  66  93 122 167 217 270 322 382
#     4  10  20  38  66  92 126 167 215 270 324 383
#     4   9  20  37  65  97 120 168 219 264 330 395
#     4  11  22  40  63  93 130 169 225 267 322 393
#     4  10  22  39  64  96 130 169 220 270 322 388
#
# _framework density 22.264607000000002
#
# number of rings (size 3 to 8) (size 9 to 14) (size 15 to 20)
#    0.000    1.500    3.750    1.500    1.750    1.000 
#    0.000    2.500    2.750    0.750    0.000    0.000 
#    0.000    0.000    0.000    0.000    0.000    0.000 
#
# Total GULP energy -89245.979389 kJ/mol
# GULP energy per Si atom -5577.873712 kJ/mol
# Density = 2.221393 g / cm^3
# Si number density = 22.264607 Si / 1000 Ang^3
#
#
#
# Elastic Constant Matrix: (Units=GPa)
#
#
# Indices 1 2 3 4 5 6 
#
# 1 82.6522 33.8429 18.1669 4.1301 16.8027 -15.6998
# 2 33.8429 112.1365 11.2617 3.8494 14.6810 -9.1838
# 3 18.1669 11.2617 60.2164 12.3333 16.0063 -5.1896
# 4 4.1301 3.8494 12.3333 41.0285 1.9267 17.8719
# 5 16.8027 14.6810 16.0063 1.9267 32.9793 8.7677
# 6 -15.6998 -9.1838 -5.1896 17.8719 8.7677 66.8265
#
#
#
# Elastic Compliance Matrix: (Units=1/GPa)
#
#
# Indices 1 2 3 4 5 6 
#
# 1 0.016336 -0.003331 -0.001365 -0.002742 -0.007339 0.004970
# 2 -0.003331 0.010505 0.000340 -0.001230 -0.003463 0.001471
# 3 -0.001365 0.000340 0.021995 -0.008198 -0.011000 0.005070
# 4 -0.002742 -0.001230 -0.008198 0.031615 0.006953 -0.010817
# 5 -0.007339 -0.003463 -0.011000 0.006953 0.043354 -0.010602
# 6 0.004970 0.001471 0.005070 -0.010817 -0.010602 0.021012
#
#
# Mechanical properties :
#
#
# Convention : Reuss Voigt Hill
#
# Bulk Modulus (GPa) = 24.92290 42.39421 33.65855
# Shear Modulus (GPa) = 29.95756 40.94910 35.45333
#
# Velocity S-wave (km/s) = 3.67212 4.29324 3.99477
# Velocity P-wave (km/s) = 5.40347 6.60745 6.03556
#
# Compressibility (1/GPa) = 0.04012375
#
# Stress axis : x y z
#
# Youngs Moduli (GPa) = 61.21476 95.19238 45.46499
#
# Poissons Ratio (x) = 0.31710 0.06204
# Poissons Ratio (y) = 0.20391 -0.01544
# Poissons Ratio (z) = 0.08354 -0.03234
#
# Static dielectric constant tensor:
#      x y z
#    x 1.906890 -0.018090 0.013340 
#    y -0.018090 1.896840 -0.037290 
#    z 0.013340 -0.037290 1.815450 
# 
# From -- ./inp_files/447486.got.cif
#   From: 2010.05.17/outbox.cif.g08.bks.cpg/sg2_224_cif.got.tgz:447486.got - 2010.06.03 11:33:40.
