data_PCOD9091032
_publ_section_title
;
Structure prediction by ZEFSAII (Michael W. Deem and Ramdas Pophale) SiO2 
 PCOD9091032
Probable space group: P -1
;
_chemical_formula_sum "Si O2"
_cell_formula_units_Z 16
_cell_length_a 9.691059
_cell_length_b 11.616211
_cell_length_c 13.327628
_cell_angle_alpha 85.330660
_cell_angle_beta 58.538966
_cell_angle_gamma 127.414261
_cell_volume 822.042923
_symmetry_space_group_name_H-M "P -1"
_symmetry_group_IT_number 2
_symmetry_cell_setting 'triclinic'
loop_
_space_group_symop_operation_xyz
x,y,z
-x,-y,-z
loop_
_atom_site_type_symbol
_atom_site_label
_atom_site_fract_x
_atom_site_fract_y
_atom_site_fract_z
Si Si1 0.144040 0.865143 0.718258
Si Si2 0.814165 0.750345 0.676981
Si Si3 0.586666 0.084023 0.850644
Si Si4 0.466175 0.434938 0.681938
Si Si5 0.590872 0.224369 0.393891
Si Si6 0.278504 0.047139 0.335958
Si Si7 0.244709 0.072961 0.856740
Si Si8 0.168045 0.413353 0.645986
O O1 0.216422 0.771362 0.706121
O O2 0.902440 0.742174 0.747627
O O3 0.371503 0.049921 0.557235
O O4 0.146622 0.933416 0.816958
O O5 0.574118 0.560100 0.729541
O O6 0.796083 0.877226 0.698017
O O7 0.040576 0.866474 0.500484
O O8 0.413867 0.089629 0.867792
O O9 0.879719 0.274263 0.738532
O O10 0.594082 0.979162 0.779200
O O11 0.500000 0.000000 0.000000
O O12 0.407487 0.269337 0.738775
O O13 0.226904 0.365057 0.724096
O O14 0.683261 0.559998 0.505999
O O15 0.464019 0.193205 0.341236
O O16 0.711547 0.397615 0.390170
O O17 0.000000 0.000000 0.000000
#
# Coordination Sequence:
#
# PCOD9091032 Si02
#       8
#     2   2   2   2   2   2   2   2
#     4  10  22  37  65  94 129 168 207 266 323 379
#     4  10  21  35  66  99 130 161 209 269 318 376
#     4  12  27  45  66  92 130 179 218 260 322 394
#     4  11  23  40  64 103 133 166 212 268 322 378
#     4  10  19  39  62  98 127 162 214 267 319 372
#     4  10  20  39  63  94 130 168 215 257 317 379
#     4  12  27  46  64  92 134 175 215 266 326 387
#     4  11  23  39  68  98 134 167 215 265 320 381
#
# _framework density 19.463704
#
# number of rings (size 3 to 8) (size 9 to 14) (size 15 to 20)
#    0.000    1.250    5.000    0.750    5.250    0.500 
#    0.000    2.500    0.000    0.000    0.000    0.000 
#    0.000    0.000    0.000    0.000    0.000    0.000 
#
# Total GULP energy -89309.561489 kJ/mol
# GULP energy per Si atom -5581.847593 kJ/mol
# Density = 1.941940 g / cm^3
# Si number density = 19.463704 Si / 1000 Ang^3
#
#
#
# Elastic Constant Matrix: (Units=GPa)
#
#
# Indices 1 2 3 4 5 6 
#
# 1 129.5080 29.1920 32.7287 10.7449 -11.9428 10.1710
# 2 29.1920 92.9412 4.7371 15.3381 -2.0527 18.8444
# 3 32.7287 4.7371 40.1333 10.2126 -10.8005 6.4644
# 4 10.7449 15.3381 10.2126 19.6748 -4.0287 -3.8291
# 5 -11.9428 -2.0527 -10.8005 -4.0287 23.2011 -2.0715
# 6 10.1710 18.8444 6.4644 -3.8291 -2.0715 33.6530
#
#
#
# Elastic Compliance Matrix: (Units=1/GPa)
#
#
# Indices 1 2 3 4 5 6 
#
# 1 0.010500 -0.003160 -0.008181 0.001385 0.001595 0.000423
# 2 -0.003160 0.016556 0.006526 -0.017051 -0.001119 -0.011578
# 3 -0.008181 0.006526 0.041005 -0.021833 0.010691 -0.010884
# 4 0.001385 -0.017051 -0.021833 0.080144 0.004988 0.022749
# 5 0.001595 -0.001119 0.010691 0.004988 0.049821 0.001725
# 6 0.000423 -0.011578 -0.010884 0.022749 0.001725 0.040856
#
#
# Mechanical properties :
#
#
# Convention : Reuss Voigt Hill
#
# Bulk Modulus (GPa) = 17.11462 43.98866 30.55164
# Shear Modulus (GPa) = 18.65740 28.36744 23.51242
#
# Velocity S-wave (km/s) = 3.09944 3.82180 3.47942
# Velocity P-wave (km/s) = 4.64983 6.49032 5.64558
#
# Compressibility (1/GPa) = 0.05842959
#
# Stress axis : x y z
#
# Youngs Moduli (GPa) = 95.23466 60.40027 24.38745
#
# Poissons Ratio (x) = 0.19088 0.19952
# Poissons Ratio (y) = 0.30096 -0.15915
# Poissons Ratio (z) = 0.77915 -0.39416
#
# Static dielectric constant tensor:
#      x y z
#    x 1.691330 0.018870 -0.004330 
#    y 0.018870 1.654610 -0.005030 
#    z -0.004330 -0.005030 1.682210 
# 
# From -- ./inp_files/185978.got.cif
#   From: 2010.05.17/outbox.cif.g08.bks.cpg/sg2_93_cif.got.tgz:185978.got - 2010.06.03 11:33:40.
