data_PCOD9091270
_publ_section_title
;
Structure prediction by ZEFSAII (Michael W. Deem and Ramdas Pophale) SiO2 
 PCOD9091270
Probable space group: P -1
;
_chemical_formula_sum "Si O2"
_cell_formula_units_Z 13
_cell_length_a 15.423742
_cell_length_b 8.133385
_cell_length_c 9.430870
_cell_angle_alpha 46.764007
_cell_angle_beta 66.364008
_cell_angle_gamma 39.655275
_cell_volume 529.309068
_symmetry_space_group_name_H-M "P -1"
_symmetry_group_IT_number 2
_symmetry_cell_setting 'triclinic'
loop_
_space_group_symop_operation_xyz
x,y,z
-x,-y,-z
loop_
_atom_site_type_symbol
_atom_site_label
_atom_site_fract_x
_atom_site_fract_y
_atom_site_fract_z
Si Si1 0.921641 0.436302 0.417309
Si Si2 0.645134 0.727536 0.926328
Si Si3 0.878743 0.829042 0.979216
Si Si4 0.500000 0.500000 0.500000
Si Si5 0.120381 0.703561 0.202984
Si Si6 0.566600 0.252912 0.850984
Si Si7 0.777408 0.328721 0.373457
O O1 0.909413 0.700275 0.195618
O O2 0.891047 0.487907 0.573521
O O3 0.816605 0.464355 0.374292
O O4 0.078609 0.063896 0.510336
O O5 0.740646 0.547357 0.834573
O O6 0.587146 0.085872 0.779647
O O7 0.517691 0.774030 0.982144
O O8 0.729908 0.518471 0.139298
O O9 0.000000 0.500000 0.000000
O O10 0.883431 0.086112 0.805513
O O11 0.719047 0.041966 0.927339
O O12 0.472733 0.607998 0.632181
O O13 0.655243 0.378471 0.476041
O O14 0.000000 0.000000 0.000000
#
# Coordination Sequence:
#
# PCOD9091270 Si02
#       7
#     2   2   2   1   2   2   2
#     4  11  22  40  68  96 129 175 221 265 332 390
#     4  10  21  42  65  90 133 166 211 273 328 378
#     4  12  24  42  69  98 131 176 222 265 330 399
#     4  10  20  34  66  98 120 166 224 266 318 388
#     4  12  25  42  63  99 136 168 217 284 325 379
#     4  10  21  41  66  92 125 173 217 262 326 400
#     4  10  19  39  64  95 127 170 218 269 319 400
#
# _framework density 24.560321999999999
#
# number of rings (size 3 to 8) (size 9 to 14) (size 15 to 20)
#    0.000    1.231    3.077    4.615    0.000    1.231 
#    5.538    0.769    0.000    0.000    0.000    0.000 
#    0.000    0.000    0.000    0.000    0.000    0.000 
#
# Total GULP energy -72544.608356 kJ/mol
# GULP energy per Si atom -5580.354489 kJ/mol
# Density = 2.450442 g / cm^3
# Si number density = 24.560322 Si / 1000 Ang^3
#
#
#
# Elastic Constant Matrix: (Units=GPa)
#
#
# Indices 1 2 3 4 5 6 
#
# 1 95.7828 23.4681 25.6619 -3.2397 -1.8880 -33.5475
# 2 23.4681 81.1128 20.1669 12.6435 -1.0675 -15.1179
# 3 25.6619 20.1669 168.2259 9.2561 4.0436 -11.3187
# 4 -3.2397 12.6435 9.2561 39.3668 -10.4887 6.7391
# 5 -1.8880 -1.0675 4.0436 -10.4887 39.6717 -3.3894
# 6 -33.5475 -15.1179 -11.3187 6.7391 -3.3894 32.8261
#
#
#
# Elastic Compliance Matrix: (Units=1/GPa)
#
#
# Indices 1 2 3 4 5 6 
#
# 1 0.016966 -0.001477 -0.001361 -0.000007 0.002308 0.016430
# 2 -0.001477 0.015065 -0.000809 -0.006021 -0.000634 0.006320
# 3 -0.001361 -0.000809 0.006422 -0.001790 -0.001154 0.000699
# 4 -0.000007 -0.006021 -0.001790 0.031310 0.007525 -0.009048
# 5 0.002308 -0.000634 -0.001154 0.007525 0.027661 0.002980
# 6 0.016430 0.006320 0.000699 -0.009048 0.002980 0.052572
#
#
# Mechanical properties :
#
#
# Convention : Reuss Voigt Hill
#
# Bulk Modulus (GPa) = 32.09178 53.74613 42.91895
# Shear Modulus (GPa) = 29.81934 40.76122 35.29028
#
# Velocity S-wave (km/s) = 3.48821 4.07828 3.79473
# Velocity P-wave (km/s) = 5.41464 6.64134 6.05911
#
# Compressibility (1/GPa) = 0.03116063
#
# Stress axis : x y z
#
# Youngs Moduli (GPa) = 58.94004 66.37860 155.70971
#
# Poissons Ratio (x) = 0.09803 0.21188
# Poissons Ratio (y) = 0.08705 0.12596
# Poissons Ratio (z) = 0.08020 0.05370
#
# Static dielectric constant tensor:
#      x y z
#    x 2.055790 0.014230 0.030900 
#    y 0.014230 1.940750 -0.112600 
#    z 0.030900 -0.112600 2.247700 
# 
# From -- ./inp_files/168100.got.cif
#   From: 2010.05.17/outbox.cif.g08.bks.cpg/sg2_85_cif.got.tgz:168100.got - 2010.06.03 11:33:40.
