data_PCOD9091839
_publ_section_title
;
Structure prediction by ZEFSAII (Michael W. Deem and Ramdas Pophale) SiO2 
 PCOD9091839
Probable space group: P -1
;
_chemical_formula_sum "Si O2"
_cell_formula_units_Z 16
_cell_length_a 17.324555
_cell_length_b 8.134695
_cell_length_c 8.870520
_cell_angle_alpha 67.452731
_cell_angle_beta 84.023909
_cell_angle_gamma 41.222888
_cell_volume 725.127169
_symmetry_space_group_name_H-M "P -1"
_symmetry_group_IT_number 2
_symmetry_cell_setting 'triclinic'
loop_
_space_group_symop_operation_xyz
x,y,z
-x,-y,-z
loop_
_atom_site_type_symbol
_atom_site_label
_atom_site_fract_x
_atom_site_fract_y
_atom_site_fract_z
Si Si1 0.112036 0.771255 0.446696
Si Si2 0.349837 0.264468 0.116124
Si Si3 0.877272 0.128988 0.911347
Si Si4 0.440268 0.916648 0.482891
Si Si5 0.745015 0.683608 0.203857
Si Si6 0.844662 0.681349 0.548975
Si Si7 0.487209 0.705286 0.846956
Si Si8 0.915410 0.692766 0.218743
O O1 0.121022 0.888410 0.264330
O O2 0.226309 0.536261 0.618058
O O3 0.100156 0.602184 0.425610
O O4 0.000000 0.000000 0.500000
O O5 0.232330 0.540006 0.140115
O O6 0.427446 0.305539 0.082888
O O7 0.434613 0.966940 0.287987
O O8 0.304736 0.282570 0.958360
O O9 0.867938 0.951338 0.051057
O O10 0.000000 0.000000 0.000000
O O11 0.509275 0.663858 0.675858
O O12 0.500000 0.000000 0.500000
O O13 0.297144 0.108111 0.462915
O O14 0.863081 0.602734 0.191865
O O15 0.647341 0.976183 0.209386
O O16 0.864993 0.781442 0.370990
O O17 0.936263 0.571610 0.703766
O O18 0.500000 0.500000 0.000000
#
# Coordination Sequence:
#
# PCOD9091839 Si02
#       8
#     2   2   2   2   2   2   2   2
#     4  11  22  39  63  92 131 168 216 263 323 396
#     4  11  23  38  67  94 128 175 215 271 326 382
#     4  12  21  39  63  95 126 167 226 265 320 392
#     4  10  20  40  65  92 125 173 216 261 322 390
#     4  11  23  43  60  96 137 168 215 267 332 387
#     4  10  19  40  61  92 129 173 214 261 333 384
#     4  11  22  42  67  94 124 173 226 265 325 389
#     4  10  21  36  65  87 132 170 208 270 320 389
#
# _framework density 22.065094999999999
#
# number of rings (size 3 to 8) (size 9 to 14) (size 15 to 20)
#    0.000    1.250    5.000    1.875    0.000    0.000 
#    0.000   13.125    0.000    0.000    0.000    0.000 
#    0.000    0.000    0.000    0.000    0.000    0.000 
#
# Total GULP energy -89185.107439 kJ/mol
# GULP energy per Si atom -5574.069215 kJ/mol
# Density = 2.201487 g / cm^3
# Si number density = 22.065095 Si / 1000 Ang^3
#
#
#
# Elastic Constant Matrix: (Units=GPa)
#
#
# Indices 1 2 3 4 5 6 
#
# 1 97.9163 -21.5112 38.6974 4.8721 15.0297 -12.9639
# 2 -21.5112 23.6151 -3.7889 1.5087 0.2871 -6.0220
# 3 38.6974 -3.7889 211.3882 6.7635 -9.6531 18.5410
# 4 4.8721 1.5087 6.7635 22.7095 3.7232 3.9936
# 5 15.0297 0.2871 -9.6531 3.7232 56.0148 -1.8278
# 6 -12.9639 -6.0220 18.5410 3.9936 -1.8278 19.0894
#
#
#
# Elastic Compliance Matrix: (Units=1/GPa)
#
#
# Indices 1 2 3 4 5 6 
#
# 1 0.027909 0.035058 -0.007883 -0.011768 -0.006957 0.039465
# 2 0.035058 0.090898 -0.010287 -0.020782 -0.008109 0.066046
# 3 -0.007883 -0.010287 0.007446 0.002536 0.002757 -0.016097
# 4 -0.011768 -0.020782 0.002536 0.052221 -0.000684 -0.028001
# 5 -0.006957 -0.008109 0.002757 -0.000684 0.020023 -0.007900
# 6 0.039465 0.066046 -0.016097 -0.028001 -0.007900 0.120758
#
#
# Mechanical properties :
#
#
# Convention : Reuss Voigt Hill
#
# Bulk Modulus (GPa) = 6.24892 39.96827 23.10860
# Shear Modulus (GPa) = 14.75699 40.86423 27.81061
#
# Velocity S-wave (km/s) = 2.58891 4.30814 3.55405
# Velocity P-wave (km/s) = 3.43144 6.54980 5.22851
#
# Compressibility (1/GPa) = 0.16002767
#
# Stress axis : x y z
#
# Youngs Moduli (GPa) = 35.83115 11.00137 134.29843
#
# Poissons Ratio (x) = -0.38568 1.05872
# Poissons Ratio (y) = -1.25616 1.38150
# Poissons Ratio (z) = 0.28247 0.11317
#
# Static dielectric constant tensor:
#      x y z
#    x 1.827330 -0.067830 -0.011860 
#    y -0.067830 1.895250 0.002420 
#    z -0.011860 0.002420 1.893990 
# 
# From -- ./inp_files/328561.got.cif
#   From: 2010.05.17/outbox.cif.g08.bks.cpg/sg2_165_cif.got.tgz:328561.got - 2010.06.03 11:33:40.
