data_PCOD9091393
_publ_section_title
;
Structure prediction by ZEFSAII (Michael W. Deem and Ramdas Pophale) SiO2 
 PCOD9091393
Probable space group: P -1
;
_chemical_formula_sum "Si O2"
_cell_formula_units_Z 15
_cell_length_a 9.779656
_cell_length_b 8.272861
_cell_length_c 14.263402
_cell_angle_alpha 58.230180
_cell_angle_beta 45.614305
_cell_angle_gamma 44.430204
_cell_volume 576.478921
_symmetry_space_group_name_H-M "P -1"
_symmetry_group_IT_number 2
_symmetry_cell_setting 'triclinic'
loop_
_space_group_symop_operation_xyz
x,y,z
-x,-y,-z
loop_
_atom_site_type_symbol
_atom_site_label
_atom_site_fract_x
_atom_site_fract_y
_atom_site_fract_z
Si Si1 0.030025 0.166867 0.572487
Si Si2 0.678898 0.947347 0.143452
Si Si3 0.489676 0.242643 0.577348
Si Si4 0.471887 0.513570 0.345062
Si Si5 0.077847 0.521623 0.321030
Si Si6 0.249303 0.309548 0.119673
Si Si7 0.000000 0.500000 0.000000
Si Si8 0.393489 0.627389 0.875216
O O1 0.064060 0.341439 0.444888
O O2 0.765380 0.257916 0.649994
O O3 0.059836 0.222309 0.647912
O O4 0.230022 0.914653 0.521005
O O5 0.593742 0.909457 0.295664
O O6 0.451207 0.073128 0.145688
O O7 0.741907 0.128921 0.081920
O O8 0.880617 0.710439 0.071983
O O9 0.407066 0.356286 0.479734
O O10 0.431222 0.415815 0.638374
O O11 0.646460 0.393279 0.210560
O O12 0.055407 0.464260 0.243895
O O13 0.342901 0.446486 0.225599
O O14 0.137946 0.304781 0.078461
O O15 0.368619 0.442741 0.995031
#
# Coordination Sequence:
#
# PCOD9091393 Si02
#       8
#     2   2   2   2   2   2   1   2
#     4  10  19  39  65  97 127 167 214 265 321 378
#     4  11  24  44  69  94 128 175 219 273 327 382
#     4  11  22  41  63  95 135 172 210 264 335 378
#     4  10  24  38  61  99 133 169 217 266 313 396
#     4   9  19  37  67  99 122 164 221 258 318 380
#     4  11  23  46  69  94 135 172 217 273 322 393
#     4  12  28  40  64 102 128 174 218 264 332 386
#     4  10  21  45  68  94 132 175 220 266 328 384
#
# _framework density 26.020032
#
# number of rings (size 3 to 8) (size 9 to 14) (size 15 to 20)
#    0.000    1.600    2.667    3.200    1.867    2.133 
#    0.000   10.667    0.000    0.000    0.000    0.000 
#    0.000    0.000    0.000    0.000    0.000    0.000 
#
# Total GULP energy -83667.822110 kJ/mol
# GULP energy per Si atom -5577.854807 kJ/mol
# Density = 2.596081 g / cm^3
# Si number density = 26.020032 Si / 1000 Ang^3
#
#
#
# Elastic Constant Matrix: (Units=GPa)
#
#
# Indices 1 2 3 4 5 6 
#
# 1 66.5589 27.7032 1.1591 11.4317 15.4559 -18.9925
# 2 27.7032 107.1607 35.8140 22.3764 14.4085 -8.3786
# 3 1.1591 35.8140 74.4953 8.5936 17.8053 -0.3146
# 4 11.4317 22.3764 8.5936 41.0465 9.5913 8.7712
# 5 15.4559 14.4085 17.8053 9.5913 47.8248 2.0856
# 6 -18.9925 -8.3786 -0.3146 8.7712 2.0856 41.7161
#
#
#
# Elastic Compliance Matrix: (Units=1/GPa)
#
#
# Indices 1 2 3 4 5 6 
#
# 1 0.022314 -0.004187 0.003970 -0.005491 -0.006800 0.010843
# 2 -0.004187 0.013654 -0.005967 -0.005556 0.000491 0.001935
# 3 0.003970 -0.005967 0.017728 -0.000390 -0.006056 0.001127
# 4 -0.005491 -0.005556 -0.000390 0.031719 -0.002324 -0.010172
# 5 -0.006800 0.000491 -0.006056 -0.002324 0.025848 -0.003846
# 6 0.010843 0.001935 0.001127 -0.010172 -0.003846 0.031636
#
#
# Mechanical properties :
#
#
# Convention : Reuss Voigt Hill
#
# Bulk Modulus (GPa) = 24.19684 41.95197 33.07441
# Shear Modulus (GPa) = 29.57831 38.35337 33.96584
#
# Velocity S-wave (km/s) = 3.37523 3.84343 3.61691
# Velocity P-wave (km/s) = 4.95067 5.98781 5.49377
#
# Compressibility (1/GPa) = 0.04132771
#
# Stress axis : x y z
#
# Youngs Moduli (GPa) = 44.81540 73.23902 56.40802
#
# Poissons Ratio (x) = 0.30663 -0.22394
# Poissons Ratio (y) = 0.18763 0.33660
# Poissons Ratio (z) = -0.17792 0.43704
#
# Static dielectric constant tensor:
#      x y z
#    x 2.385330 0.104870 -0.203590 
#    y 0.104870 2.093380 -0.073990 
#    z -0.203590 -0.073990 2.206180 
# 
# From -- ./inp_files/512900.got.cif
#   From: 2010.05.17/outbox.cif.g08.bks.cpg/sg2_257_cif.got.tgz:512900.got - 2010.06.03 11:33:40.
