data_PCOD9091399
_publ_section_title
;
Structure prediction by ZEFSAII (Michael W. Deem and Ramdas Pophale) SiO2 
 PCOD9091399
Probable space group: P -1
;
_chemical_formula_sum "Si O2"
_cell_formula_units_Z 16
_cell_length_a 18.570421
_cell_length_b 21.441047
_cell_length_c 13.233376
_cell_angle_alpha 150.930994
_cell_angle_beta 149.232502
_cell_angle_gamma 18.917299
_cell_volume 812.208731
_symmetry_space_group_name_H-M "P -1"
_symmetry_group_IT_number 2
_symmetry_cell_setting 'triclinic'
loop_
_space_group_symop_operation_xyz
x,y,z
-x,-y,-z
loop_
_atom_site_type_symbol
_atom_site_label
_atom_site_fract_x
_atom_site_fract_y
_atom_site_fract_z
Si Si1 0.751932 0.496207 0.958433
Si Si2 0.039800 0.800171 0.587831
Si Si3 0.777316 0.733680 0.780539
Si Si4 0.806074 0.588228 0.816727
Si Si5 0.539243 0.263905 0.668178
Si Si6 0.460722 0.579628 0.903400
Si Si7 0.428202 0.842020 0.887604
Si Si8 0.771067 0.273905 0.509945
O O1 0.954853 0.440865 0.162441
O O2 0.621138 0.518686 0.922378
O O3 0.576867 0.699135 0.963406
O O4 0.857692 0.310509 0.750109
O O5 0.095571 0.610035 0.396981
O O6 0.206787 0.755741 0.801706
O O7 0.113826 0.780236 0.534491
O O8 0.780063 0.021058 0.603784
O O9 0.750089 0.728402 0.860227
O O10 0.657654 0.699157 0.534215
O O11 0.659524 0.951241 0.917510
O O12 0.589808 0.713234 0.802315
O O13 0.000000 0.500000 0.000000
O O14 0.524513 0.389906 0.747107
O O15 0.523048 0.342273 0.868603
O O16 0.231731 0.875876 0.687339
O O17 0.500000 0.500000 0.500000
#
# Coordination Sequence:
#
# PCOD9091399 Si02
#       8
#     2   2   2   2   2   2   2   2
#     4  11  23  43  68  95 135 175 209 273 330 389
#     4  12  21  43  71  93 130 172 218 273 324 386
#     4  12  26  40  63  99 137 173 216 268 329 391
#     4  12  21  39  62  94 141 174 204 262 330 402
#     4  11  28  43  69  99 124 176 230 270 323 387
#     4  11  24  49  69  93 129 172 230 278 317 375
#     4  11  22  39  62  99 135 172 214 257 333 396
#     4  10  19  39  65  98 128 164 215 261 326 398
#
# _framework density 19.699369000000001
#
# number of rings (size 3 to 8) (size 9 to 14) (size 15 to 20)
#    0.000    0.750    7.500    1.500    1.750    2.000 
#    0.000    0.625    0.000    0.000    0.000    0.000 
#    0.000    0.000    0.000    0.000    0.000    0.000 
#
# Total GULP energy -89449.694256 kJ/mol
# GULP energy per Si atom -5590.605891 kJ/mol
# Density = 1.965453 g / cm^3
# Si number density = 19.699369 Si / 1000 Ang^3
#
#
#
# Elastic Constant Matrix: (Units=GPa)
#
#
# Indices 1 2 3 4 5 6 
#
# 1 103.2165 34.1315 45.1377 -0.9889 15.1927 23.1794
# 2 34.1315 66.2204 37.9164 -7.1044 5.4695 12.8041
# 3 45.1377 37.9164 124.1556 -19.3413 14.3820 6.0085
# 4 -0.9889 -7.1044 -19.3413 37.0620 1.5070 9.2103
# 5 15.1927 5.4695 14.3820 1.5070 29.9778 -1.4520
# 6 23.1794 12.8041 6.0085 9.2103 -1.4520 16.0979
#
#
#
# Elastic Compliance Matrix: (Units=1/GPa)
#
#
# Indices 1 2 3 4 5 6 
#
# 1 0.020235 -0.000645 -0.003242 0.007228 -0.010519 -0.032498
# 2 -0.000645 0.022778 -0.004268 0.007220 -0.003113 -0.020007
# 3 -0.003242 -0.004268 0.011743 0.005277 -0.003460 0.000349
# 4 0.007228 0.007220 0.005277 0.042617 -0.011765 -0.043565
# 5 -0.010519 -0.003113 -0.003460 -0.011765 0.042938 0.029519
# 6 -0.032498 -0.020007 0.000349 -0.043565 0.029519 0.152284
#
#
# Mechanical properties :
#
#
# Convention : Reuss Voigt Hill
#
# Bulk Modulus (GPa) = 26.01164 58.66264 42.33714
# Shear Modulus (GPa) = 15.54139 28.38801 21.96470
#
# Velocity S-wave (km/s) = 2.81183 3.80025 3.34278
# Velocity P-wave (km/s) = 4.87595 7.00710 6.03632
#
# Compressibility (1/GPa) = 0.03844432
#
# Stress axis : x y z
#
# Youngs Moduli (GPa) = 49.41859 43.90282 85.15965
#
# Poissons Ratio (x) = 0.02833 0.27612
# Poissons Ratio (y) = 0.03189 0.36345
# Poissons Ratio (z) = 0.16023 0.18737
#
# Static dielectric constant tensor:
#      x y z
#    x 1.678060 0.025530 0.023230 
#    y 0.025530 1.699260 -0.013090 
#    z 0.023230 -0.013090 1.706360 
# 
# From -- ./inp_files/428108.got.cif
#   From: 2010.05.17/outbox.cif.g08.bks.cpg/sg2_215_cif.got.tgz:428108.got - 2010.06.03 11:33:40.
