data_PCOD9091327
_publ_section_title
;
Structure prediction by ZEFSAII (Michael W. Deem and Ramdas Pophale) SiO2 
 PCOD9091327
Probable space group: P -1
;
_chemical_formula_sum "Si O2"
_cell_formula_units_Z 16
_cell_length_a 12.027220
_cell_length_b 6.344533
_cell_length_c 27.916678
_cell_angle_alpha 53.626919
_cell_angle_beta 26.849575
_cell_angle_gamma 60.084319
_cell_volume 771.966039
_symmetry_space_group_name_H-M "P -1"
_symmetry_group_IT_number 2
_symmetry_cell_setting 'triclinic'
loop_
_space_group_symop_operation_xyz
x,y,z
-x,-y,-z
loop_
_atom_site_type_symbol
_atom_site_label
_atom_site_fract_x
_atom_site_fract_y
_atom_site_fract_z
Si Si1 0.480902 0.563976 0.080086
Si Si2 0.012997 0.260021 0.335648
Si Si3 0.949944 0.707022 0.949228
Si Si4 0.639640 0.467632 0.519407
Si Si5 0.778919 0.257930 0.933647
Si Si6 0.173924 0.740391 0.692692
Si Si7 0.132720 0.303805 0.507123
Si Si8 0.372654 0.902926 0.689710
O O1 0.264261 0.441259 0.214020
O O2 0.351494 0.762685 0.066389
O O3 0.718834 0.632142 0.012561
O O4 0.574797 0.353287 0.035005
O O5 0.790171 0.421906 0.419200
O O6 0.969780 0.165185 0.310295
O O7 0.003911 0.987481 0.403835
O O8 0.193994 0.757298 0.816271
O O9 0.884517 0.999539 0.949487
O O10 0.000000 0.500000 0.000000
O O11 0.432182 0.669897 0.579468
O O12 0.839402 0.565668 0.468984
O O13 0.492119 0.183644 0.623567
O O14 0.005760 0.482811 0.810219
O O15 0.223820 0.929070 0.693363
O O16 0.407121 0.269230 0.386910
O O17 0.000000 0.500000 0.500000
#
# Coordination Sequence:
#
# PCOD9091327 Si02
#       8
#     2   2   2   2   2   2   2   2
#     4  10  23  42  63  94 128 168 215 266 319 376
#     4  10  23  38  61  96 120 160 211 259 305 378
#     4  12  25  40  64  99 128 168 217 264 320 389
#     4  10  21  38  64  90 122 158 202 257 317 362
#     4  10  21  42  66  88 127 173 213 263 321 375
#     4  10  19  39  65  89 124 156 208 262 315 368
#     4  10  24  42  61  86 127 171 204 252 314 377
#     4  10  22  40  63  92 123 164 207 259 316 376
#
# _framework density 20.726300999999999
#
# number of rings (size 3 to 8) (size 9 to 14) (size 15 to 20)
#    0.000    1.750    2.500    0.750    0.000   12.000 
#    0.000    0.000    0.000    0.000    0.000    0.000 
#    0.000    0.000    0.000    0.000    0.000    0.000 
#
# Total GULP energy -89225.346563 kJ/mol
# GULP energy per Si atom -5576.584160 kJ/mol
# Density = 2.067913 g / cm^3
# Si number density = 20.726301 Si / 1000 Ang^3
#
#
#
# Elastic Constant Matrix: (Units=GPa)
#
#
# Indices 1 2 3 4 5 6 
#
# 1 46.7659 15.9438 9.8324 -10.0467 -2.4497 -2.9397
# 2 15.9438 69.5095 25.5825 -10.8582 13.5819 -11.9606
# 3 9.8324 25.5825 129.4111 4.8430 7.6042 -1.2034
# 4 -10.0467 -10.8582 4.8430 25.4911 4.8636 2.6525
# 5 -2.4497 13.5819 7.6042 4.8636 26.2802 -3.7128
# 6 -2.9397 -11.9606 -1.2034 2.6525 -3.7128 32.3585
#
#
#
# Elastic Compliance Matrix: (Units=1/GPa)
#
#
# Indices 1 2 3 4 5 6 
#
# 1 0.025130 -0.004788 -0.001466 0.007363 0.003922 0.000305
# 2 -0.004788 0.021423 -0.003502 0.009558 -0.011532 0.005247
# 3 -0.001466 -0.003502 0.008674 -0.003573 -0.000295 -0.000846
# 4 0.007363 0.009558 -0.003573 0.049428 -0.012568 -0.001425
# 5 0.003922 -0.011532 -0.000295 -0.012568 0.047145 0.002522
# 6 0.000305 0.005247 -0.000846 -0.001425 0.002522 0.033246
#
#
# Mechanical properties :
#
#
# Convention : Reuss Voigt Hill
#
# Bulk Modulus (GPa) = 28.00006 38.71156 33.35581
# Shear Modulus (GPa) = 23.09850 29.78113 26.43982
#
# Velocity S-wave (km/s) = 3.34197 3.79473 3.57552
# Velocity P-wave (km/s) = 5.33202 6.15776 5.75970
#
# Compressibility (1/GPa) = 0.03571420
#
# Stress axis : x y z
#
# Youngs Moduli (GPa) = 39.79268 46.67843 115.28367
#
# Poissons Ratio (x) = 0.22351 0.16900
# Poissons Ratio (y) = 0.19054 0.40378
# Poissons Ratio (z) = 0.05833 0.16349
#
# Static dielectric constant tensor:
#      x y z
#    x 1.773140 0.026070 -0.021680 
#    y 0.026070 1.760400 -0.016220 
#    z -0.021680 -0.016220 1.763680 
# 
# From -- ./inp_files/70328.got.cif
#   From: 2010.05.17/outbox.cif.g08.bks.cpg/sg2_36_cif.got.tgz:70328.got - 2010.06.03 11:33:40.
