data_PCOD9091306
_publ_section_title
;
Structure prediction by ZEFSAII (Michael W. Deem and Ramdas Pophale) SiO2 
 PCOD9091306
Probable space group: P -1
;
_chemical_formula_sum "Si O2"
_cell_formula_units_Z 16
_cell_length_a 8.608386
_cell_length_b 12.648290
_cell_length_c 16.585549
_cell_angle_alpha 133.936480
_cell_angle_beta 135.004992
_cell_angle_gamma 34.502791
_cell_volume 694.875313
_symmetry_space_group_name_H-M "P -1"
_symmetry_group_IT_number 2
_symmetry_cell_setting 'triclinic'
loop_
_space_group_symop_operation_xyz
x,y,z
-x,-y,-z
loop_
_atom_site_type_symbol
_atom_site_label
_atom_site_fract_x
_atom_site_fract_y
_atom_site_fract_z
Si Si1 0.117243 0.002350 0.956753
Si Si2 0.832418 0.817928 0.253845
Si Si3 0.779524 0.768507 0.798559
Si Si4 0.038709 0.755850 0.723291
Si Si5 0.380981 0.617474 0.238557
Si Si6 0.185137 0.580294 0.402799
Si Si7 0.717914 0.601026 0.004580
Si Si8 0.287972 0.228293 0.532263
O O1 0.450559 0.804141 0.972600
O O2 0.968302 0.961623 0.813896
O O3 0.125671 0.174404 0.059350
O O4 0.000000 0.000000 0.000000
O O5 0.070933 0.753930 0.240222
O O6 0.998670 0.762433 0.369561
O O7 0.536402 0.035772 0.244856
O O8 0.755630 0.677693 0.140176
O O9 0.996917 0.712817 0.775612
O O10 0.773093 0.598223 0.716039
O O11 0.838226 0.742039 0.587548
O O12 0.373785 0.585583 0.731012
O O13 0.349730 0.542179 0.103065
O O14 0.524515 0.712301 0.345673
O O15 0.500000 0.500000 0.500000
O O16 0.986975 0.654121 0.447855
O O17 0.000000 0.500000 0.000000
O O18 0.500000 0.000000 0.500000
#
# Coordination Sequence:
#
# PCOD9091306 Si02
#       8
#     2   2   2   2   2   2   2   2
#     4   8  16  32  61  89 111 150 201 250 297 360
#     4  10  22  41  65  91 123 163 202 252 310 360
#     4  10  21  40  65  91 123 159 203 252 311 360
#     4  10  19  39  65  84 119 165 203 247 310 361
#     4  10  20  39  67  86 118 167 203 246 309 364
#     4  12  27  42  60  95 129 158 207 256 297 368
#     4   8  16  34  61  88 115 153 202 245 298 364
#     4  12  26  41  58  91 127 160 210 251 297 369
#
# _framework density 23.025713
#
# number of rings (size 3 to 8) (size 9 to 14) (size 15 to 20)
#    0.000    2.000    1.250    1.875    3.500    0.500 
#    2.250    0.625    0.000    5.250    0.000    0.000 
#    0.000    0.000    0.000    0.000    0.000    0.000 
#
# Total GULP energy -89248.316625 kJ/mol
# GULP energy per Si atom -5578.019789 kJ/mol
# Density = 2.297331 g / cm^3
# Si number density = 23.025713 Si / 1000 Ang^3
#
#
#
# Elastic Constant Matrix: (Units=GPa)
#
#
# Indices 1 2 3 4 5 6 
#
# 1 35.2945 27.4359 25.2172 0.8268 14.8103 -20.8726
# 2 27.4359 90.9847 52.2218 7.6221 8.5774 -13.4178
# 3 25.2172 52.2218 123.7016 3.8337 31.5283 2.3510
# 4 0.8268 7.6221 3.8337 42.3713 5.6235 1.3441
# 5 14.8103 8.5774 31.5283 5.6235 32.5484 -5.0601
# 6 -20.8726 -13.4178 2.3510 1.3441 -5.0601 31.4303
#
#
#
# Elastic Compliance Matrix: (Units=1/GPa)
#
#
# Indices 1 2 3 4 5 6 
#
# 1 0.073835 -0.010622 -0.006843 0.002146 -0.018007 0.042019
# 2 -0.010622 0.018640 -0.007847 -0.003678 0.008630 0.003037
# 3 -0.006843 -0.007847 0.016141 0.002108 -0.012561 -0.011214
# 4 0.002146 -0.003678 0.002108 0.025004 -0.006751 -0.002459
# 5 -0.018007 0.008630 -0.012561 -0.006751 0.050136 0.001025
# 6 0.042019 0.003037 -0.011214 -0.002459 0.001025 0.062127
#
#
# Mechanical properties :
#
#
# Convention : Reuss Voigt Hill
#
# Bulk Modulus (GPa) = 17.24385 51.08117 34.16251
# Shear Modulus (GPa) = 15.83092 30.94373 23.38732
#
# Velocity S-wave (km/s) = 2.62493 3.66987 3.19047
# Velocity P-wave (km/s) = 4.08561 6.33954 5.33301
#
# Compressibility (1/GPa) = 0.05799167
#
# Stress axis : x y z
#
# Youngs Moduli (GPa) = 13.54372 53.64733 61.95464
#
# Poissons Ratio (x) = 0.56987 0.42394
# Poissons Ratio (y) = 0.14387 0.48616
# Poissons Ratio (z) = 0.09268 0.42097
#
# Static dielectric constant tensor:
#      x y z
#    x 1.824770 0.035780 0.011610 
#    y 0.035780 1.877310 0.000230 
#    z 0.011610 0.000230 1.971140 
# 
# From -- ./inp_files/523460.got.cif
#   From: 2010.05.17/outbox.cif.g08.bks.cpg/sg2_262_cif.got.tgz:523460.got - 2010.06.03 11:33:40.
