data_PCOD9091398
_publ_section_title
;
Structure prediction by ZEFSAII (Michael W. Deem and Ramdas Pophale) SiO2 
 PCOD9091398
Probable space group: P -1
;
_chemical_formula_sum "Si O2"
_cell_formula_units_Z 14
_cell_length_a 15.628086
_cell_length_b 17.749001
_cell_length_c 7.571119
_cell_angle_alpha 46.882612
_cell_angle_beta 44.951524
_cell_angle_gamma 25.106883
_cell_volume 623.155930
_symmetry_space_group_name_H-M "P -1"
_symmetry_group_IT_number 2
_symmetry_cell_setting 'triclinic'
loop_
_space_group_symop_operation_xyz
x,y,z
-x,-y,-z
loop_
_atom_site_type_symbol
_atom_site_label
_atom_site_fract_x
_atom_site_fract_y
_atom_site_fract_z
Si Si1 0.785542 0.603591 0.072877
Si Si2 0.470995 0.360494 0.348428
Si Si3 0.006109 0.728992 0.872112
Si Si4 0.885838 0.998175 0.426610
Si Si5 0.566699 0.040746 0.200663
Si Si6 0.720553 0.152615 0.821233
Si Si7 0.380489 0.534369 0.850973
O O1 0.665449 0.624955 0.366638
O O2 0.859760 0.466385 0.043261
O O3 0.624913 0.796886 0.911284
O O4 0.000000 0.500000 0.000000
O O5 0.699591 0.150013 0.321192
O O6 0.523182 0.426573 0.280578
O O7 0.365683 0.471414 0.145165
O O8 0.152285 0.699068 0.831009
O O9 0.967852 0.823778 0.599784
O O10 0.779696 0.861282 0.073182
O O11 0.783834 0.087998 0.627755
O O12 0.077749 0.942974 0.220199
O O13 0.500000 0.000000 0.500000
O O14 0.629258 0.107112 0.090789
O O15 0.544780 0.363397 0.756114
#
# Coordination Sequence:
#
# PCOD9091398 Si02
#       7
#     2   2   2   2   2   2   2
#     4  12  27  47  67  95 136 177 222 270 324 391
#     4  11  23  42  61 105 137 167 216 278 327 388
#     4  11  23  45  73  96 126 179 215 273 334 390
#     4  10  20  39  69  97 131 164 225 274 329 391
#     4  11  25  44  67 100 128 174 230 267 317 398
#     4  10  19  39  65  98 127 174 214 270 326 395
#     4  11  23  38  71  99 136 169 214 275 340 387
#
# _framework density 22.466287000000001
#
# number of rings (size 3 to 8) (size 9 to 14) (size 15 to 20)
#    0.000    1.143    4.286    3.429    2.000    4.571 
#    2.571    0.000    0.000    0.000    0.000    0.000 
#    0.000    0.000    0.000    0.000    0.000    0.000 
#
# Total GULP energy -78345.934761 kJ/mol
# GULP energy per Si atom -5596.138197 kJ/mol
# Density = 2.241515 g / cm^3
# Si number density = 22.466287 Si / 1000 Ang^3
#
#
#
# Elastic Constant Matrix: (Units=GPa)
#
#
# Indices 1 2 3 4 5 6 
#
# 1 48.3720 20.9982 25.4575 11.9283 -5.1785 -19.5874
# 2 20.9982 121.0442 39.4605 2.5798 -0.5525 -24.4015
# 3 25.4575 39.4605 157.9727 2.0145 -15.4695 -24.5646
# 4 11.9283 2.5798 2.0145 33.8450 -8.3592 -8.3722
# 5 -5.1785 -0.5525 -15.4695 -8.3592 26.5053 11.8926
# 6 -19.5874 -24.4015 -24.5646 -8.3722 11.8926 33.0327
#
#
#
# Elastic Compliance Matrix: (Units=1/GPa)
#
#
# Indices 1 2 3 4 5 6 
#
# 1 0.029928 -0.001256 -0.002602 -0.007854 -0.004723 0.014593
# 2 -0.001256 0.010485 -0.001682 0.000545 -0.004149 0.007382
# 3 -0.002602 -0.001682 0.007853 0.002042 0.003675 0.002249
# 4 -0.007854 0.000545 0.002042 0.035186 0.009532 0.002750
# 5 -0.004723 -0.004149 0.003675 0.009532 0.050320 -0.018833
# 6 0.014593 0.007382 0.002249 0.002750 -0.018833 0.053529
#
#
# Mechanical properties :
#
#
# Convention : Reuss Voigt Hill
#
# Bulk Modulus (GPa) = 26.89157 55.46904 41.18030
# Shear Modulus (GPa) = 23.72167 34.77480 29.24823
#
# Velocity S-wave (km/s) = 3.25295 3.93856 3.61206
# Velocity P-wave (km/s) = 5.10927 6.73992 5.98043
#
# Compressibility (1/GPa) = 0.03718638
#
# Stress axis : x y z
#
# Youngs Moduli (GPa) = 33.41320 95.37245 127.33536
#
# Poissons Ratio (x) = 0.11976 0.33137
# Poissons Ratio (y) = 0.04196 0.21420
# Poissons Ratio (z) = 0.08695 0.16043
#
# Static dielectric constant tensor:
#      x y z
#    x 1.858290 0.035960 0.003290 
#    y 0.035960 1.858970 -0.016540 
#    z 0.003290 -0.016540 1.835010 
# 
# From -- ./inp_files/338062.got.cif
#   From: 2010.05.17/outbox.cif.g08.bks.cpg/sg2_170_cif.got.tgz:338062.got - 2010.06.03 11:33:40.
