data_PCOD9091579
_publ_section_title
;
Structure prediction by ZEFSAII (Michael W. Deem and Ramdas Pophale) SiO2 
 PCOD9091579
Probable space group: P -1
;
_chemical_formula_sum "Si O2"
_cell_formula_units_Z 16
_cell_length_a 19.139951
_cell_length_b 11.857881
_cell_length_c 8.052751
_cell_angle_alpha 137.275054
_cell_angle_beta 42.522836
_cell_angle_gamma 147.926906
_cell_volume 624.305350
_symmetry_space_group_name_H-M "P -1"
_symmetry_group_IT_number 2
_symmetry_cell_setting 'triclinic'
loop_
_space_group_symop_operation_xyz
x,y,z
-x,-y,-z
loop_
_atom_site_type_symbol
_atom_site_label
_atom_site_fract_x
_atom_site_fract_y
_atom_site_fract_z
Si Si1 0.085357 0.383411 0.983161
Si Si2 0.552765 0.802598 0.920733
Si Si3 0.259568 0.068255 0.579199
Si Si4 0.214022 0.949715 0.993243
Si Si5 0.945104 0.042410 0.422586
Si Si6 0.726149 0.280346 0.687252
Si Si7 0.776083 0.482729 0.462728
Si Si8 0.640143 0.613171 0.994825
O O1 0.076002 0.174872 0.796327
O O2 0.178660 0.523485 0.806802
O O3 0.927236 0.265346 0.083871
O O4 0.158596 0.535072 0.182059
O O5 0.626071 0.819786 0.644557
O O6 0.668971 0.018984 0.066069
O O7 0.419523 0.776970 0.093317
O O8 0.499396 0.582693 0.875140
O O9 0.110352 0.909672 0.581911
O O10 0.285997 0.927415 0.479829
O O11 0.265074 0.251282 0.860913
O O12 0.143501 0.991960 0.302302
O O13 0.307863 0.167664 0.950757
O O14 0.100552 0.258869 0.421958
O O15 0.759734 0.348477 0.507761
O O16 0.647847 0.469961 0.695538
#
# Coordination Sequence:
#
# PCOD9091579 Si02
#       8
#     2   2   2   2   2   2   2   2
#     4  11  21  43  74 101 138 173 222 288 337 404
#     4  10  23  45  66  93 132 179 233 281 334 397
#     4  11  25  42  63 100 137 183 223 276 341 407
#     4  10  20  39  68 103 132 163 223 290 341 386
#     4  10  19  39  67  96 134 168 222 285 329 395
#     4  11  26  45  67  95 144 186 223 269 339 422
#     4  10  21  41  67 103 132 175 229 274 343 395
#     4  11  20  39  70  97 130 169 227 288 331 398
#
# _framework density 25.628484
#
# number of rings (size 3 to 8) (size 9 to 14) (size 15 to 20)
#    0.000    1.500    2.500    3.375    1.750    2.500 
#    9.000    3.750    0.000    1.500    0.000    0.000 
#    0.000    0.000    0.000    0.000    0.000    0.000 
#
# Total GULP energy -89262.270886 kJ/mol
# GULP energy per Si atom -5578.891930 kJ/mol
# Density = 2.557015 g / cm^3
# Si number density = 25.628484 Si / 1000 Ang^3
#
#
#
# Elastic Constant Matrix: (Units=GPa)
#
#
# Indices 1 2 3 4 5 6 
#
# 1 108.1343 18.9135 33.4925 -18.0707 -4.5713 27.2940
# 2 18.9135 95.2336 18.8112 -37.6832 9.6423 -10.8459
# 3 33.4925 18.8112 71.5457 4.0114 11.6487 -2.9824
# 4 -18.0707 -37.6832 4.0114 -23.8651 -13.5640 57.9890
# 5 -4.5713 9.6423 11.6487 -13.5640 36.5307 12.8328
# 6 27.2940 -10.8459 -2.9824 57.9890 12.8328 13.0532
#
#
#
# Elastic Compliance Matrix: (Units=1/GPa)
#
#
# Indices 1 2 3 4 5 6 
#
# 1 0.010500 -0.004016 -0.003856 -0.006026 0.001766 -0.001138
# 2 -0.004016 0.014555 -0.000893 0.003886 -0.005622 0.008553
# 3 -0.003856 -0.000893 0.016257 0.003700 -0.003300 -0.002156
# 4 -0.006026 0.003886 0.003700 0.001827 -0.008077 0.016499
# 5 0.001766 -0.005622 -0.003300 -0.008077 0.027084 0.000137
# 6 -0.001138 0.008553 -0.002156 0.016499 0.000137 0.012174
#
#
# Mechanical properties :
#
#
# Convention : Reuss Voigt Hill
#
# Bulk Modulus (GPa) = 42.05054 46.37201 44.21128
# Shear Modulus (GPa) = 46.35842 18.72351 32.54096
#
# Velocity S-wave (km/s) = 4.25769 2.70585 3.56718
# Velocity P-wave (km/s) = 6.37290 5.28160 5.85274
#
# Compressibility (1/GPa) = 0.02378091
#
# Stress axis : x y z
#
# Youngs Moduli (GPa) = 95.24187 68.70366 61.51186
#
# Poissons Ratio (x) = 0.27594 0.23720
# Poissons Ratio (y) = 0.38253 0.05492
# Poissons Ratio (z) = 0.36728 0.06134
#
# Static dielectric constant tensor:
#      x y z
#    x 2.148030 -0.001780 -0.014330 
#    y -0.001780 1.988840 0.022200 
#    z -0.014330 0.022200 2.126340 
# 
# From -- ./inp_files/345587.got.cif
#   From: 2010.05.17/outbox.cif.g08.bks.cpg/sg2_173_cif.got.tgz:345587.got - 2010.06.03 11:33:40.
