data_PCOD9091723
_publ_section_title
;
Structure prediction by ZEFSAII (Michael W. Deem and Ramdas Pophale) SiO2 
 PCOD9091723
Probable space group: P -1
;
_chemical_formula_sum "Si O2"
_cell_formula_units_Z 16
_cell_length_a 8.905229
_cell_length_b 16.223662
_cell_length_c 8.354704
_cell_angle_alpha 73.110741
_cell_angle_beta 67.216976
_cell_angle_gamma 46.698478
_cell_volume 809.338764
_symmetry_space_group_name_H-M "P -1"
_symmetry_group_IT_number 2
_symmetry_cell_setting 'triclinic'
loop_
_space_group_symop_operation_xyz
x,y,z
-x,-y,-z
loop_
_atom_site_type_symbol
_atom_site_label
_atom_site_fract_x
_atom_site_fract_y
_atom_site_fract_z
Si Si1 0.298544 0.456153 0.178130
Si Si2 0.348920 0.565264 0.372497
Si Si3 0.257045 0.102171 0.098394
Si Si4 0.091846 0.346752 0.987688
Si Si5 0.900154 0.648488 0.631940
Si Si6 0.513059 0.300117 0.878857
Si Si7 0.215057 0.958030 0.010065
Si Si8 0.427112 0.094942 0.350395
O O1 0.405289 0.487404 0.237369
O O2 0.172018 0.423200 0.339906
O O3 0.120579 0.561725 0.076957
O O4 0.460990 0.350446 0.052501
O O5 0.500000 0.500000 0.500000
O O6 0.373210 0.657707 0.271468
O O7 0.110495 0.615148 0.484121
O O8 0.264232 0.108597 0.281848
O O9 0.174463 0.221047 0.996477
O O10 0.500000 0.000000 0.000000
O O11 0.144157 0.057148 0.105023
O O12 0.283252 0.349250 0.872262
O O13 0.061482 0.364542 0.182840
O O14 0.701157 0.779485 0.600652
O O15 0.655290 0.165492 0.896322
O O16 0.373128 0.941100 0.817628
O O17 0.000000 0.000000 0.000000
O O18 0.500000 0.000000 0.500000
#
# Coordination Sequence:
#
# PCOD9091723 Si02
#       8
#     2   2   2   2   2   2   2   2
#     4  11  22  41  67  89 117 173 210 242 316 375
#     4  12  26  40  57  94 133 155 203 260 311 366
#     4   9  18  39  62  91 120 163 207 246 296 367
#     4  10  19  39  71  86 118 163 212 250 298 380
#     4  10  21  42  61  90 127 161 206 254 307 369
#     4  11  22  42  62  93 125 159 205 265 306 359
#     4  11  23  41  65  94 125 158 213 256 305 367
#     4  10  21  41  66  91 126 162 206 253 306 369
#
# _framework density 19.769226
#
# number of rings (size 3 to 8) (size 9 to 14) (size 15 to 20)
#    0.000    1.500    5.000    3.750    3.500    1.000 
#    4.500    0.625    0.000    0.000    0.000    0.000 
#    0.000    0.000    0.000    0.000    0.000    0.000 
#
# Total GULP energy -89298.650971 kJ/mol
# GULP energy per Si atom -5581.165686 kJ/mol
# Density = 1.972423 g / cm^3
# Si number density = 19.769226 Si / 1000 Ang^3
#
#
#
# Elastic Constant Matrix: (Units=GPa)
#
#
# Indices 1 2 3 4 5 6 
#
# 1 104.3304 26.7137 21.6858 -13.6061 1.4304 24.8032
# 2 26.7137 103.7691 25.0262 -22.2835 0.9757 25.1020
# 3 21.6858 25.0262 59.6409 -26.5066 -20.7505 9.6419
# 4 -13.6061 -22.2835 -26.5066 30.4962 0.9321 -7.0843
# 5 1.4304 0.9757 -20.7505 0.9321 34.4856 -1.7616
# 6 24.8032 25.1020 9.6419 -7.0843 -1.7616 33.4951
#
#
#
# Elastic Compliance Matrix: (Units=1/GPa)
#
#
# Indices 1 2 3 4 5 6 
#
# 1 0.012513 -0.000199 -0.004571 -0.000295 -0.003667 -0.008056
# 2 -0.000199 0.013550 -0.002645 0.005691 -0.002538 -0.008175
# 3 -0.004571 -0.002645 0.042454 0.032472 0.025000 0.001329
# 4 -0.000295 0.005691 0.032472 0.064789 0.017703 0.001240
# 5 -0.003667 -0.002538 0.025000 0.017703 0.043964 0.003478
# 6 -0.008056 -0.008175 0.001329 0.001240 0.003478 0.042010
#
#
# Mechanical properties :
#
#
# Convention : Reuss Voigt Hill
#
# Bulk Modulus (GPa) = 18.62674 46.06573 32.34624
# Shear Modulus (GPa) = 19.84081 32.64971 26.24526
#
# Velocity S-wave (km/s) = 3.17143 4.06833 3.64755
# Velocity P-wave (km/s) = 4.78050 6.73949 5.84268
#
# Compressibility (1/GPa) = 0.05368625
#
# Stress axis : x y z
#
# Youngs Moduli (GPa) = 79.91637 73.80283 23.55478
#
# Poissons Ratio (x) = 0.01468 0.10767
# Poissons Ratio (y) = 0.01589 0.06231
# Poissons Ratio (z) = 0.36529 0.19524
#
# Static dielectric constant tensor:
#      x y z
#    x 1.708910 0.002040 0.003150 
#    y 0.002040 1.682210 0.022320 
#    z 0.003150 0.022320 1.720160 
# 
# From -- ./inp_files/178227.got.cif
#   From: 2010.05.17/outbox.cif.g08.bks.cpg/sg2_90_cif.got.tgz:178227.got - 2010.06.03 11:33:40.
