data_PCOD9091371
_publ_section_title
;
Structure prediction by ZEFSAII (Michael W. Deem and Ramdas Pophale) SiO2 
 PCOD9091371
Probable space group: P -1
;
_chemical_formula_sum "Si O2"
_cell_formula_units_Z 16
_cell_length_a 11.303738
_cell_length_b 24.094902
_cell_length_c 20.763419
_cell_angle_alpha 17.612863
_cell_angle_beta 151.545163
_cell_angle_gamma 152.718860
_cell_volume 763.044190
_symmetry_space_group_name_H-M "P -1"
_symmetry_group_IT_number 2
_symmetry_cell_setting 'triclinic'
loop_
_space_group_symop_operation_xyz
x,y,z
-x,-y,-z
loop_
_atom_site_type_symbol
_atom_site_label
_atom_site_fract_x
_atom_site_fract_y
_atom_site_fract_z
Si Si1 0.499433 0.482738 0.816182
Si Si2 0.999450 0.082382 0.268704
Si Si3 0.571723 0.923719 0.343045
Si Si4 0.142562 0.880063 0.353480
Si Si5 0.700950 0.156919 0.282099
Si Si6 0.554089 0.405949 0.194775
Si Si7 0.028339 0.836620 0.112069
Si Si8 0.192148 0.939832 0.936003
O O1 0.604055 0.711555 0.596997
O O2 0.403214 0.466657 0.862048
O O3 0.240235 0.348182 0.801045
O O4 0.712276 0.375682 0.033833
O O5 0.955157 0.147367 0.104270
O O6 0.269004 0.234602 0.257552
O O7 0.751964 0.050328 0.232059
O O8 0.062207 0.880708 0.525520
O O9 0.265339 0.867847 0.239526
O O10 0.652213 0.045895 0.312381
O O11 0.215401 0.686985 0.597253
O O12 0.432202 0.049597 0.314091
O O13 0.927680 0.889169 0.292887
O O14 0.040399 0.964438 0.148339
O O15 0.500000 0.500000 0.000000
O O16 0.133493 0.820675 0.106900
O O17 0.500000 0.000000 0.000000
#
# Coordination Sequence:
#
# PCOD9091371 Si02
#       8
#     2   2   2   2   2   2   2   2
#     4  11  23  40  61  98 123 164 222 258 311 380
#     4  11  22  40  67  86 134 171 199 272 323 371
#     4  12  22  43  62  94 132 168 214 256 322 377
#     4   8  19  38  60  92 119 165 207 258 314 371
#     4  10  23  39  62  95 124 170 209 260 320 379
#     4  11  23  39  63  96 129 166 217 267 310 381
#     4   9  21  39  66  87 125 167 209 262 307 376
#     4  10  19  39  65  94 117 165 218 252 326 373
#
# _framework density 20.968641000000002
#
# number of rings (size 3 to 8) (size 9 to 14) (size 15 to 20)
#    0.750    1.000    3.750    1.500    1.750    3.500 
#    2.250    0.000    0.000    2.250    0.000    0.000 
#    0.000    0.000    0.000    0.000    0.000    0.000 
#
# Total GULP energy -89115.810247 kJ/mol
# GULP energy per Si atom -5569.738140 kJ/mol
# Density = 2.092092 g / cm^3
# Si number density = 20.968641 Si / 1000 Ang^3
#
#
#
# Elastic Constant Matrix: (Units=GPa)
#
#
# Indices 1 2 3 4 5 6 
#
# 1 83.2215 16.3408 9.7327 -9.4412 4.1011 2.4983
# 2 16.3408 42.2004 9.8028 7.1095 12.2440 -7.5329
# 3 9.7327 9.8028 76.5412 -11.7020 10.3537 -12.6725
# 4 -9.4412 7.1095 -11.7020 22.6295 -0.4219 -0.2447
# 5 4.1011 12.2440 10.3537 -0.4219 31.2206 7.4341
# 6 2.4983 -7.5329 -12.6725 -0.2447 7.4341 28.3268
#
#
#
# Elastic Compliance Matrix: (Units=1/GPa)
#
#
# Indices 1 2 3 4 5 6 
#
# 1 0.014754 -0.008658 -0.000595 0.008572 0.002852 -0.004544
# 2 -0.008658 0.037574 -0.001596 -0.016399 -0.016691 0.014280
# 3 -0.000595 -0.001596 0.017239 0.009136 -0.007099 0.009282
# 4 0.008572 -0.016399 0.009136 0.057691 0.003394 -0.001422
# 5 0.002852 -0.016691 -0.007099 0.003394 0.045298 -0.019725
# 6 -0.004544 0.014280 0.009282 -0.001422 -0.019725 0.048817
#
#
# Mechanical properties :
#
#
# Convention : Reuss Voigt Hill
#
# Bulk Modulus (GPa) = 20.89046 30.41285 25.65165
# Shear Modulus (GPa) = 19.30294 27.50783 23.40539
#
# Velocity S-wave (km/s) = 3.03737 3.62588 3.34460
# Velocity P-wave (km/s) = 4.72072 5.66258 5.21296
#
# Compressibility (1/GPa) = 0.04786874
#
# Stress axis : x y z
#
# Youngs Moduli (GPa) = 67.77829 26.61400 58.00859
#
# Poissons Ratio (x) = 0.23042 0.03451
# Poissons Ratio (y) = 0.58681 0.09261
# Poissons Ratio (z) = 0.04033 0.04249
#
# Static dielectric constant tensor:
#      x y z
#    x 1.778490 0.015860 0.007570 
#    y 0.015860 1.763740 -0.033470 
#    z 0.007570 -0.033470 1.826630 
# 
# From -- ./inp_files/596372.got.cif
#   From: 2010.05.17/outbox.cif.g08.bks.cpg/sg2_299_cif.got.tgz:596372.got - 2010.06.03 11:33:40.
