data_PCOD9091002
_publ_section_title
;
Structure prediction by ZEFSAII (Michael W. Deem and Ramdas Pophale) SiO2 
 PCOD9091002
Probable space group: P -1
;
_chemical_formula_sum "Si O2"
_cell_formula_units_Z 16
_cell_length_a 19.511971
_cell_length_b 25.954167
_cell_length_c 9.542214
_cell_angle_alpha 30.755415
_cell_angle_beta 138.309786
_cell_angle_gamma 159.207672
_cell_volume 833.415771
_symmetry_space_group_name_H-M "P -1"
_symmetry_group_IT_number 2
_symmetry_cell_setting 'triclinic'
loop_
_space_group_symop_operation_xyz
x,y,z
-x,-y,-z
loop_
_atom_site_type_symbol
_atom_site_label
_atom_site_fract_x
_atom_site_fract_y
_atom_site_fract_z
Si Si1 0.439936 0.445684 0.373362
Si Si2 0.542012 0.065047 0.249367
Si Si3 0.862893 0.165637 0.437393
Si Si4 0.775284 0.945035 0.048048
Si Si5 0.132503 0.799798 0.191814
Si Si6 0.115882 0.501909 0.240717
Si Si7 0.021930 0.215044 0.277948
Si Si8 0.874383 0.885527 0.924511
O O1 0.500000 0.500000 0.500000
O O2 0.372310 0.273823 0.638161
O O3 0.247803 0.359019 0.267303
O O4 0.646012 0.655113 0.126284
O O5 0.696736 0.114928 0.301721
O O6 0.500000 0.000000 0.500000
O O7 0.327872 0.894061 0.245319
O O8 0.654714 0.267936 0.944868
O O9 0.046254 0.352644 0.383807
O O10 0.971868 0.233741 0.299518
O O11 0.746846 0.975438 0.782029
O O12 0.995739 0.080652 0.050350
O O13 0.786431 0.041445 0.955034
O O14 0.971519 0.600276 0.502806
O O15 0.039501 0.770225 0.981902
O O16 0.000000 0.500000 0.000000
O O17 0.883748 0.000106 0.594192
O O18 0.000000 0.000000 0.000000
#
# Coordination Sequence:
#
# PCOD9091002 Si02
#       8
#     2   2   2   2   2   2   2   2
#     4  11  20  37  64  88 118 164 201 246 303 358
#     4  11  20  39  66  89 117 160 206 249 298 355
#     4  10  19  39  62  91 119 161 206 250 290 359
#     4  10  20  37  61  90 119 158 208 246 294 360
#     4  11  24  40  59  92 128 158 196 257 302 349
#     4   9  19  38  62  84 113 154 209 246 284 360
#     4  11  24  40  58  92 131 153 199 255 302 351
#     4  11  20  39  60  89 122 151 203 253 289 363
#
# _framework density 19.198098999999999
#
# number of rings (size 3 to 8) (size 9 to 14) (size 15 to 20)
#    0.000    1.500    7.500    0.000    0.000    6.500 
#    2.250    3.750    0.000    0.000    0.000    0.000 
#    0.000    0.000    0.000    0.000    0.000    0.000 
#
# Total GULP energy -89196.036491 kJ/mol
# GULP energy per Si atom -5574.752281 kJ/mol
# Density = 1.915440 g / cm^3
# Si number density = 19.198099 Si / 1000 Ang^3
#
#
#
# Elastic Constant Matrix: (Units=GPa)
#
#
# Indices 1 2 3 4 5 6 
#
# 1 55.2621 12.4487 26.2530 -12.5078 2.6470 9.4204
# 2 12.4487 85.7230 68.6927 -11.9764 -10.9211 18.0294
# 3 26.2530 68.6927 147.2758 -7.7237 -14.5379 9.4660
# 4 -12.5078 -11.9764 -7.7237 45.0289 3.8594 -11.2358
# 5 2.6470 -10.9211 -14.5379 3.8594 23.1036 1.7104
# 6 9.4204 18.0294 9.4660 -11.2358 1.7104 17.3387
#
#
#
# Elastic Compliance Matrix: (Units=1/GPa)
#
#
# Indices 1 2 3 4 5 6 
#
# 1 0.022536 0.002525 -0.004832 0.004226 -0.004465 -0.009052
# 2 0.002525 0.024880 -0.009919 -0.000724 0.007054 -0.022994
# 3 -0.004832 -0.009919 0.012211 -0.000815 0.003283 0.005421
# 4 0.004226 -0.000724 -0.000815 0.028137 -0.007362 0.017862
# 5 -0.004465 0.007054 0.003283 -0.007362 0.051651 -0.016567
# 6 -0.009052 -0.022994 0.005421 0.017862 -0.016567 0.096751
#
#
# Mechanical properties :
#
#
# Convention : Reuss Voigt Hill
#
# Bulk Modulus (GPa) = 28.42898 55.89442 42.16170
# Shear Modulus (GPa) = 18.35913 29.15201 23.75557
#
# Velocity S-wave (km/s) = 3.09576 3.90100 3.52147
# Velocity P-wave (km/s) = 5.25535 7.03336 6.20834
#
# Compressibility (1/GPa) = 0.03517537
#
# Stress axis : x y z
#
# Youngs Moduli (GPa) = 44.37346 40.19219 81.89589
#
# Poissons Ratio (x) = -0.10149 0.39574
# Poissons Ratio (y) = -0.11205 0.81230
# Poissons Ratio (z) = 0.21442 0.39866
#
# Static dielectric constant tensor:
#      x y z
#    x 1.661630 0.002020 0.059780 
#    y 0.002020 1.690930 -0.019630 
#    z 0.059780 -0.019630 1.688130 
# 
# From -- ./inp_files/350238.got.cif
#   From: 2010.05.17/outbox.cif.g08.bks.cpg/sg2_176_cif.got.tgz:350238.got - 2010.06.03 11:33:40.
