data_PCOD9091629
_publ_section_title
;
Structure prediction by ZEFSAII (Michael W. Deem and Ramdas Pophale) SiO2 
 PCOD9091629
Probable space group: P -1
;
_chemical_formula_sum "Si O2"
_cell_formula_units_Z 6
_cell_length_a 9.397711
_cell_length_b 5.037328
_cell_length_c 9.178120
_cell_angle_alpha 134.993573
_cell_angle_beta 44.936602
_cell_angle_gamma 111.939330
_cell_volume 209.909551
_symmetry_space_group_name_H-M "P -1"
_symmetry_group_IT_number 2
_symmetry_cell_setting 'triclinic'
loop_
_space_group_symop_operation_xyz
x,y,z
-x,-y,-z
loop_
_atom_site_type_symbol
_atom_site_label
_atom_site_fract_x
_atom_site_fract_y
_atom_site_fract_z
Si Si1 0.999919 0.549813 0.847940
Si Si2 0.232762 0.465070 0.256791
Si Si3 0.567881 0.661824 0.661887
O O1 0.814258 0.460995 0.852611
O O2 0.211120 0.266532 0.521684
O O3 0.000000 0.500000 0.000000
O O4 0.000000 0.000000 0.000000
O O5 0.357848 0.611808 0.355788
O O6 0.000000 0.500000 0.500000
O O7 0.380602 0.028215 0.975587
O O8 0.500000 0.500000 0.500000
#
# Coordination Sequence:
#
# PCOD9091629 Si02
#       3
#     2   2   2
#     4  11  23  42  67  96 132 171 215 269 325 386
#     4   9  20  38  64  96 131 168 218 265 325 385
#     4  10  19  39  68  94 129 172 217 267 323 385
#
# _framework density 28.583741
#
# number of rings (size 3 to 8) (size 9 to 14) (size 15 to 20)
#    0.000    2.000    3.333    0.000    0.000    1.333 
#    0.000   16.667    0.000    0.000    0.000    0.000 
#    0.000    0.000    0.000    0.000    0.000    0.000 
#
# Total GULP energy -33516.466811 kJ/mol
# GULP energy per Si atom -5586.077802 kJ/mol
# Density = 2.851868 g / cm^3
# Si number density = 28.583741 Si / 1000 Ang^3
#
#
#
# Elastic Constant Matrix: (Units=GPa)
#
#
# Indices 1 2 3 4 5 6 
#
# 1 350.8915 72.6672 49.3032 -5.3089 31.8555 -74.7169
# 2 72.6672 110.4867 43.7088 -7.6014 19.1186 -47.4762
# 3 49.3032 43.7088 209.6234 -2.5185 -27.5190 -16.2264
# 4 -5.3089 -7.6014 -2.5185 44.4138 7.5993 7.6305
# 5 31.8555 19.1186 -27.5190 7.5993 77.8910 -5.9614
# 6 -74.7169 -47.4762 -16.2264 7.6305 -5.9614 63.9402
#
#
#
# Elastic Compliance Matrix: (Units=1/GPa)
#
#
# Indices 1 2 3 4 5 6 
#
# 1 0.004047 -0.000306 -0.000766 -0.000068 -0.001524 0.004173
# 2 -0.000306 0.015416 -0.002901 0.001451 -0.004075 0.009799
# 3 -0.000766 -0.002901 0.005856 -0.000571 0.003058 -0.001210
# 4 -0.000068 0.001451 -0.000571 0.023624 -0.003007 -0.002247
# 5 -0.001524 -0.004075 0.003058 -0.003007 0.015666 -0.002212
# 6 0.004173 0.009799 -0.001210 -0.002247 -0.002212 0.027547
#
#
# Mechanical properties :
#
#
# Convention : Reuss Voigt Hill
#
# Bulk Modulus (GPa) = 57.56407 111.37331 84.46869
# Shear Modulus (GPa) = 47.21702 70.93718 59.07710
#
# Velocity S-wave (km/s) = 4.06875 4.98710 4.55115
# Velocity P-wave (km/s) = 6.50042 8.49765 7.56523
#
# Compressibility (1/GPa) = 0.01737195
#
# Stress axis : x y z
#
# Youngs Moduli (GPa) = 247.10188 64.86875 170.75229
#
# Poissons Ratio (x) = 0.01988 0.13077
# Poissons Ratio (y) = 0.07571 0.49541
# Poissons Ratio (z) = 0.18924 0.18821
#
# Static dielectric constant tensor:
#      x y z
#    x 2.205070 -0.120680 0.103000 
#    y -0.120680 5.542050 -0.537120 
#    z 0.103000 -0.537120 2.291040 
# 
# From -- ./inp_files/1185.got.cif
#   From: 2010.05.17/outbox.cif.g08.bks.cpg/sg2_1_cif.got.tgz:1185.got - 2010.06.03 11:33:40.
