data_PCOD9091970
_publ_section_title
;
Structure prediction by ZEFSAII (Michael W. Deem and Ramdas Pophale) SiO2 
 PCOD9091970
Probable space group: P -1
;
_chemical_formula_sum "Si O2"
_cell_formula_units_Z 16
_cell_length_a 8.574819
_cell_length_b 18.610713
_cell_length_c 8.364950
_cell_angle_alpha 43.419241
_cell_angle_beta 51.176707
_cell_angle_gamma 56.949080
_cell_volume 704.653694
_symmetry_space_group_name_H-M "P -1"
_symmetry_group_IT_number 2
_symmetry_cell_setting 'triclinic'
loop_
_space_group_symop_operation_xyz
x,y,z
-x,-y,-z
loop_
_atom_site_type_symbol
_atom_site_label
_atom_site_fract_x
_atom_site_fract_y
_atom_site_fract_z
Si Si1 0.634572 0.231971 0.329652
Si Si2 0.175238 0.591549 0.209965
Si Si3 0.562774 0.001539 0.642126
Si Si4 0.893794 0.672929 0.745921
Si Si5 0.110950 0.479596 0.733963
Si Si6 0.216810 0.260218 0.631895
Si Si7 0.975431 0.861805 0.588307
Si Si8 0.861638 0.974099 0.982333
O O1 0.451516 0.252168 0.545319
O O2 0.862412 0.205646 0.294366
O O3 0.605410 0.120648 0.449081
O O4 0.657303 0.335195 0.044569
O O5 0.232360 0.509128 0.452558
O O6 0.104035 0.540430 0.175111
O O7 0.961207 0.661314 0.294601
O O8 0.750622 0.910416 0.709397
O O9 0.500000 0.000000 0.500000
O O10 0.370984 0.983138 0.897115
O O11 0.760320 0.703676 0.625408
O O12 0.958221 0.782366 0.581598
O O13 0.070229 0.581989 0.710492
O O14 0.810518 0.620252 0.041355
O O15 0.136734 0.148796 0.855233
O O16 0.065648 0.964410 0.311100
O O17 0.000000 0.000000 0.000000
#
# Coordination Sequence:
#
# PCOD9091970 Si02
#       8
#     2   2   2   2   2   2   2   2
#     4  11  24  39  61  93 128 164 205 251 313 362
#     4  10  20  40  67  89 121 163 209 258 316 365
#     4  11  23  38  61  92 126 162 207 245 295 375
#     4  10  19  40  64  90 123 160 206 261 314 359
#     4   9  20  38  67  89 117 164 208 264 316 361
#     4  10  22  39  64  91 127 164 205 252 305 377
#     4  12  22  38  63  90 125 169 202 251 305 368
#     4  11  21  38  62  91 127 164 201 244 305 366
#
# _framework density 22.706188999999998
#
# number of rings (size 3 to 8) (size 9 to 14) (size 15 to 20)
#    0.000    1.500    3.750    1.875    0.000    3.000 
#    0.000    6.250    0.000    0.000    0.000    0.000 
#    0.000    0.000    0.000    0.000    0.000    0.000 
#
# Total GULP energy -89302.844047 kJ/mol
# GULP energy per Si atom -5581.427753 kJ/mol
# Density = 2.265451 g / cm^3
# Si number density = 22.706189 Si / 1000 Ang^3
#
#
#
# Elastic Constant Matrix: (Units=GPa)
#
#
# Indices 1 2 3 4 5 6 
#
# 1 47.9681 21.6184 21.8527 6.0049 -16.6565 3.5282
# 2 21.6184 83.4532 23.2984 -5.6975 -22.0101 8.3839
# 3 21.8527 23.2984 117.6062 -16.5724 -11.0157 -7.1499
# 4 6.0049 -5.6975 -16.5724 27.9572 -1.8521 0.9609
# 5 -16.6565 -22.0101 -11.0157 -1.8521 41.0884 -2.6485
# 6 3.5282 8.3839 -7.1499 0.9609 -2.6485 18.6500
#
#
#
# Elastic Compliance Matrix: (Units=1/GPa)
#
#
# Indices 1 2 3 4 5 6 
#
# 1 0.029469 -0.004388 -0.005561 -0.009887 0.007390 -0.004176
# 2 -0.004388 0.016110 -0.001637 0.003883 0.006177 -0.006363
# 3 -0.005561 -0.001637 0.011317 0.007409 0.000612 0.005832
# 4 -0.009887 0.003883 0.007409 0.043178 0.002071 0.001035
# 5 0.007390 0.006177 0.000612 0.002071 0.030922 0.000344
# 6 -0.004176 -0.006363 0.005832 0.001035 0.000344 0.059501
#
#
# Mechanical properties :
#
#
# Convention : Reuss Voigt Hill
#
# Bulk Modulus (GPa) = 29.65348 42.50739 36.08044
# Shear Modulus (GPa) = 22.23111 29.68968 25.96040
#
# Velocity S-wave (km/s) = 3.13242 3.61994 3.38497
# Velocity P-wave (km/s) = 5.11573 6.01940 5.58587
#
# Compressibility (1/GPa) = 0.03372285
#
# Stress axis : x y z
#
# Youngs Moduli (GPa) = 33.93367 62.07366 88.36546
#
# Poissons Ratio (x) = 0.27237 0.49144
# Poissons Ratio (y) = 0.14889 0.14468
# Poissons Ratio (z) = 0.18872 0.10163
#
# Static dielectric constant tensor:
#      x y z
#    x 1.915080 0.004840 0.054840 
#    y 0.004840 1.842460 -0.020830 
#    z 0.054840 -0.020830 1.868430 
# 
# From -- ./inp_files/221641.got.cif
#   From: 2010.05.17/outbox.cif.g08.bks.cpg/sg2_111_cif.got.tgz:221641.got - 2010.06.03 11:33:40.
