data_PCOD9091167
_publ_section_title
;
Structure prediction by ZEFSAII (Michael W. Deem and Ramdas Pophale) SiO2 
 PCOD9091167
Probable space group: P -1
;
_chemical_formula_sum "Si O2"
_cell_formula_units_Z 16
_cell_length_a 12.798623
_cell_length_b 15.977782
_cell_length_c 9.126696
_cell_angle_alpha 33.077002
_cell_angle_beta 110.957561
_cell_angle_gamma 127.962212
_cell_volume 747.140746
_symmetry_space_group_name_H-M "P -1"
_symmetry_group_IT_number 2
_symmetry_cell_setting 'triclinic'
loop_
_space_group_symop_operation_xyz
x,y,z
-x,-y,-z
loop_
_atom_site_type_symbol
_atom_site_label
_atom_site_fract_x
_atom_site_fract_y
_atom_site_fract_z
Si Si1 0.675187 0.533505 0.938285
Si Si2 0.532906 0.488578 0.366283
Si Si3 0.793504 0.272839 0.602068
Si Si4 0.839415 0.396905 0.116553
Si Si5 0.514354 0.186383 0.610394
Si Si6 0.770263 0.120369 0.257466
Si Si7 0.200493 0.175245 0.165386
Si Si8 0.002484 0.727089 0.098719
O O1 0.572831 0.510328 0.797014
O O2 0.738632 0.718607 0.801546
O O3 0.799028 0.537452 0.922749
O O4 0.587853 0.351852 0.274075
O O5 0.500000 0.500000 0.500000
O O6 0.512538 0.294685 0.591894
O O7 0.690762 0.674990 0.123852
O O8 0.806151 0.283763 0.417902
O O9 0.628149 0.146224 0.747419
O O10 0.887541 0.218000 0.797796
O O11 0.869780 0.495101 0.373800
O O12 0.748168 0.252974 0.147919
O O13 0.000000 0.500000 0.000000
O O14 0.362757 0.017061 0.714670
O O15 0.797456 0.004851 0.554604
O O16 0.910162 0.241344 0.049407
O O17 0.056158 0.150232 0.111332
#
# Coordination Sequence:
#
# PCOD9091167 Si02
#       8
#     2   2   2   2   2   2   2   2
#     4  10  19  39  64  83 127 170 209 247 313 386
#     4  11  21  37  64  95 123 168 211 261 319 373
#     4  10  22  41  64  87 130 169 211 256 316 382
#     4  11  22  40  61  96 123 166 216 256 313 381
#     4  10  20  42  65  89 125 169 213 257 313 378
#     4  12  23  38  69  96 124 163 218 263 315 370
#     4  11  20  43  64  90 126 168 211 258 310 386
#     4  11  22  39  66  91 123 177 207 252 323 381
#
# _framework density 21.414975999999999
#
# number of rings (size 3 to 8) (size 9 to 14) (size 15 to 20)
#    0.000    1.250    7.500    1.125    0.000    4.500 
#    2.250    0.625    0.000    0.000    0.000    0.000 
#    0.000    0.000    0.000    0.000    0.000    0.000 
#
# Total GULP energy -89444.448900 kJ/mol
# GULP energy per Si atom -5590.278056 kJ/mol
# Density = 2.136623 g / cm^3
# Si number density = 21.414976 Si / 1000 Ang^3
#
#
#
# Elastic Constant Matrix: (Units=GPa)
#
#
# Indices 1 2 3 4 5 6 
#
# 1 120.7603 49.0111 16.0365 15.4984 -15.4789 1.5842
# 2 49.0111 75.9092 18.4360 18.9584 -9.2712 -4.2507
# 3 16.0365 18.4360 30.2283 9.1537 -0.6398 0.1467
# 4 15.4984 18.9584 9.1537 29.6435 1.9209 -0.4401
# 5 -15.4789 -9.2712 -0.6398 1.9209 23.0782 10.9065
# 6 1.5842 -4.2507 0.1467 -0.4401 10.9065 44.6875
#
#
#
# Elastic Compliance Matrix: (Units=1/GPa)
#
#
# Indices 1 2 3 4 5 6 
#
# 1 0.012307 -0.006155 -0.001871 -0.002433 0.007262 -0.002812
# 2 -0.006155 0.021704 -0.007243 -0.008708 0.004596 0.001099
# 3 -0.001871 -0.007243 0.040484 -0.006741 -0.002366 -0.000245
# 4 -0.002433 -0.008708 -0.006741 0.043332 -0.009930 0.002130
# 5 0.007262 0.004596 -0.002366 -0.009930 0.057385 -0.013916
# 6 -0.002812 0.001099 -0.000245 0.002130 -0.013916 0.026000
#
#
# Mechanical properties :
#
#
# Convention : Reuss Voigt Hill
#
# Bulk Modulus (GPa) = 22.74946 43.76277 33.25612
# Shear Modulus (GPa) = 20.29194 29.04278 24.66736
#
# Velocity S-wave (km/s) = 3.08158 3.68664 3.39761
# Velocity P-wave (km/s) = 4.82781 6.21303 5.56370
#
# Compressibility (1/GPa) = 0.04395708
#
# Stress axis : x y z
#
# Youngs Moduli (GPa) = 81.25355 46.07399 24.70093
#
# Poissons Ratio (x) = 0.28357 0.04622
# Poissons Ratio (y) = 0.50009 0.17892
# Poissons Ratio (z) = 0.15206 0.33373
#
# Static dielectric constant tensor:
#      x y z
#    x 1.771440 0.026700 0.014360 
#    y 0.026700 1.761720 -0.015700 
#    z 0.014360 -0.015700 1.826020 
# 
# From -- ./inp_files/205573.got.cif
#   From: 2010.05.17/outbox.cif.g08.bks.cpg/sg2_103_cif.got.tgz:205573.got - 2010.06.03 11:33:40.
