data_PCOD9091514
_publ_section_title
;
Structure prediction by ZEFSAII (Michael W. Deem and Ramdas Pophale) SiO2 
 PCOD9091514
Probable space group: P -1
;
_chemical_formula_sum "Si O2"
_cell_formula_units_Z 16
_cell_length_a 9.821804
_cell_length_b 27.101354
_cell_length_c 11.778494
_cell_angle_alpha 159.272775
_cell_angle_beta 134.677621
_cell_angle_gamma 47.614030
_cell_volume 787.325318
_symmetry_space_group_name_H-M "P -1"
_symmetry_group_IT_number 2
_symmetry_cell_setting 'triclinic'
loop_
_space_group_symop_operation_xyz
x,y,z
-x,-y,-z
loop_
_atom_site_type_symbol
_atom_site_label
_atom_site_fract_x
_atom_site_fract_y
_atom_site_fract_z
Si Si1 0.351720 0.255982 0.828831
Si Si2 0.946745 0.078402 0.838429
Si Si3 0.220058 0.483548 0.061435
Si Si4 0.453960 0.028569 0.721316
Si Si5 0.331565 0.750082 0.817862
Si Si6 0.995662 0.773649 0.258050
Si Si7 0.821338 0.770804 0.895760
Si Si8 0.272365 0.500510 0.871565
O O1 0.172514 0.244036 0.784897
O O2 0.406033 0.108929 0.481557
O O3 0.313147 0.368942 0.953056
O O4 0.533743 0.297395 0.099634
O O5 0.742711 0.027974 0.564881
O O6 0.877521 0.191681 0.136073
O O7 0.051188 0.935670 0.641655
O O8 0.052450 0.148597 0.947490
O O9 0.314179 0.628620 0.455776
O O10 0.229780 0.448961 0.861600
O O11 0.000000 0.500000 0.000000
O O12 0.558443 0.124058 0.899561
O O13 0.377388 0.132588 0.999626
O O14 0.161807 0.652124 0.114136
O O15 0.914815 0.758133 0.048912
O O16 0.794181 0.615350 0.503285
O O17 0.500000 0.500000 0.000000
#
# Coordination Sequence:
#
# PCOD9091514 Si02
#       8
#     2   2   2   2   2   2   2   2
#     4  11  21  41  70  99 121 163 219 271 312 374
#     4  10  20  37  67 104 126 153 209 277 324 368
#     4  12  26  43  61  92 136 176 212 259 310 375
#     4  10  19  39  67 101 124 155 211 274 321 365
#     4  11  20  40  68  96 127 163 216 265 315 376
#     4  11  21  43  70  95 125 164 216 266 322 373
#     4  11  23  42  69  96 128 167 211 263 321 381
#     4  12  28  46  61  91 138 176 211 255 318 385
#
# _framework density 20.321968999999999
#
# number of rings (size 3 to 8) (size 9 to 14) (size 15 to 20)
#    0.000    1.000    5.000    4.500    0.000    3.000 
#    0.000    7.500    0.000    0.000    0.000    0.000 
#    0.000    0.000    0.000    0.000    0.000    0.000 
#
# Total GULP energy -89336.978705 kJ/mol
# GULP energy per Si atom -5583.561169 kJ/mol
# Density = 2.027571 g / cm^3
# Si number density = 20.321969 Si / 1000 Ang^3
#
#
#
# Elastic Constant Matrix: (Units=GPa)
#
#
# Indices 1 2 3 4 5 6 
#
# 1 128.4148 8.9186 25.2281 6.6967 -7.9222 -7.2580
# 2 8.9186 -32.5524 92.2254 -32.2895 -11.5504 -17.8094
# 3 25.2281 92.2254 34.2457 56.3589 -1.7905 -4.9363
# 4 6.6967 -32.2895 56.3589 -4.4984 -6.0780 -11.6632
# 5 -7.9222 -11.5504 -1.7905 -6.0780 30.1049 4.3041
# 6 -7.2580 -17.8094 -4.9363 -11.6632 4.3041 29.9007
#
#
#
# Elastic Compliance Matrix: (Units=1/GPa)
#
#
# Indices 1 2 3 4 5 6 
#
# 1 0.008298 -0.000847 -0.001324 -0.001432 0.001415 0.000529
# 2 -0.000847 0.014953 0.006224 -0.027967 0.000415 -0.001241
# 3 -0.001324 0.006224 0.005673 0.005315 0.002589 0.006022
# 4 -0.001432 -0.027967 0.005315 0.043198 -0.002219 0.001041
# 5 0.001415 0.000415 0.002589 -0.002219 0.034136 -0.004761
# 6 0.000529 -0.001241 0.006022 0.001041 -0.004761 0.034919
#
#
# Mechanical properties :
#
#
# Convention : Reuss Voigt Hill
#
# Bulk Modulus (GPa) = 27.00577 42.53915 34.77246
# Shear Modulus (GPa) = 34.38446 11.35051 22.86748
#
# Velocity S-wave (km/s) = 4.11784 2.36590 3.35813
# Velocity P-wave (km/s) = 5.99388 5.33304 5.67309
#
# Compressibility (1/GPa) = 0.03702912
#
# Stress axis : x y z
#
# Youngs Moduli (GPa) = 120.51037 66.87529 176.28467
#
# Poissons Ratio (x) = 0.05666 0.23335
# Poissons Ratio (y) = 0.10210 -1.09712
# Poissons Ratio (z) = 0.15952 -0.41620
#
# Static dielectric constant tensor:
#      x y z
#    x 1.712150 -0.038370 -0.038540 
#    y -0.038370 1.759290 0.023100 
#    z -0.038540 0.023100 1.765460 
# 
# From -- ./inp_files/186738.got.cif
#   From: 2010.05.17/outbox.cif.g08.bks.cpg/sg2_94_cif.got.tgz:186738.got - 2010.06.03 11:33:40.
