data_PCOD9091951
_publ_section_title
;
Structure prediction by ZEFSAII (Michael W. Deem and Ramdas Pophale) SiO2 
 PCOD9091951
Probable space group: P -1
;
_chemical_formula_sum "Si O2"
_cell_formula_units_Z 16
_cell_length_a 16.850842
_cell_length_b 8.020968
_cell_length_c 11.619585
_cell_angle_alpha 61.221729
_cell_angle_beta 142.853096
_cell_angle_gamma 98.366507
_cell_volume 742.269481
_symmetry_space_group_name_H-M "P -1"
_symmetry_group_IT_number 2
_symmetry_cell_setting 'triclinic'
loop_
_space_group_symop_operation_xyz
x,y,z
-x,-y,-z
loop_
_atom_site_type_symbol
_atom_site_label
_atom_site_fract_x
_atom_site_fract_y
_atom_site_fract_z
Si Si1 0.371332 0.276822 0.661061
Si Si2 0.040552 0.415903 0.202320
Si Si3 0.101294 0.339526 0.842539
Si Si4 0.381721 0.652162 0.403932
Si Si5 0.397776 0.334612 0.184837
Si Si6 0.813482 0.238991 0.070495
Si Si7 0.914945 0.783502 0.368408
Si Si8 0.595068 0.806956 0.010776
O O1 0.212963 0.275825 0.470770
O O2 0.348289 0.492171 0.499059
O O3 0.491842 0.062760 0.810053
O O4 0.419183 0.272218 0.851288
O O5 0.984017 0.622554 0.150635
O O6 0.940762 0.301479 0.159512
O O7 0.000000 0.500000 0.000000
O O8 0.050721 0.229572 0.722992
O O9 0.042880 0.580021 0.642252
O O10 0.275474 0.249359 0.090702
O O11 0.500000 0.500000 0.500000
O O12 0.457268 0.760283 0.536683
O O13 0.254686 0.786259 0.122406
O O14 0.434089 0.298632 0.102641
O O15 0.309541 0.575783 0.054222
O O16 0.874048 0.019101 0.281497
O O17 0.765131 0.759941 0.213819
#
# Coordination Sequence:
#
# PCOD9091951 Si02
#       8
#     2   2   2   2   2   2   2   2
#     4  11  22  39  63  83 123 164 193 246 308 352
#     4  11  21  40  61  86 123 160 197 240 304 361
#     4   9  20  38  63  89 116 156 195 247 301 348
#     4  10  20  39  58  84 119 158 197 242 296 349
#     4   9  20  37  60  89 117 150 202 248 290 349
#     4  10  21  38  63  90 117 161 199 245 297 353
#     4  10  19  40  64  87 119 153 202 247 294 353
#     4  10  21  39  60  90 117 156 204 246 301 353
#
# _framework density 21.555513000000001
#
# number of rings (size 3 to 8) (size 9 to 14) (size 15 to 20)
#    0.000    2.000    2.500    1.500    0.000    2.500 
#    6.750    5.625    0.000    0.000    0.000    0.000 
#    0.000    0.000    0.000    0.000    0.000    0.000 
#
# Total GULP energy -89188.630476 kJ/mol
# GULP energy per Si atom -5574.289405 kJ/mol
# Density = 2.150645 g / cm^3
# Si number density = 21.555513 Si / 1000 Ang^3
#
#
#
# Elastic Constant Matrix: (Units=GPa)
#
#
# Indices 1 2 3 4 5 6 
#
# 1 87.2175 26.5202 27.3797 4.0388 -11.8560 -31.7045
# 2 26.5202 52.5982 47.4326 2.6754 -13.5145 -18.9526
# 3 27.3797 47.4326 122.6297 17.7769 -7.3351 -14.5612
# 4 4.0388 2.6754 17.7769 44.8682 -1.6547 -7.7205
# 5 -11.8560 -13.5145 -7.3351 -1.6547 32.8696 11.3161
# 6 -31.7045 -18.9526 -14.5612 -7.7205 11.3161 30.0493
#
#
#
# Elastic Compliance Matrix: (Units=1/GPa)
#
#
# Indices 1 2 3 4 5 6 
#
# 1 0.019364 -0.001288 -0.001891 0.002424 -0.000572 0.019540
# 2 -0.001288 0.038871 -0.013340 0.006011 0.007542 0.015398
# 3 -0.001891 -0.013340 0.013885 -0.005354 -0.001835 -0.004365
# 4 0.002424 0.006011 -0.005354 0.025614 -0.000135 0.010386
# 5 -0.000572 0.007542 -0.001835 -0.000135 0.036525 -0.010525
# 6 0.019540 0.015398 -0.004365 0.010386 -0.010525 0.068124
#
#
# Mechanical properties :
#
#
# Convention : Reuss Voigt Hill
#
# Bulk Modulus (GPa) = 25.58602 51.67891 38.63247
# Shear Modulus (GPa) = 20.12499 32.29830 26.21165
#
# Velocity S-wave (km/s) = 3.05886 3.87509 3.49091
# Velocity P-wave (km/s) = 4.93671 6.63691 5.84892
#
# Compressibility (1/GPa) = 0.03908384
#
# Stress axis : x y z
#
# Youngs Moduli (GPa) = 51.64288 25.72589 72.02231
#
# Poissons Ratio (x) = 0.03313 0.13617
# Poissons Ratio (y) = 0.06650 0.96075
# Poissons Ratio (z) = 0.09764 0.34317
#
# Static dielectric constant tensor:
#      x y z
#    x 1.806170 -0.028880 -0.009240 
#    y -0.028880 1.834230 0.024140 
#    z -0.009240 0.024140 1.819440 
# 
# From -- ./inp_files/257529.got.cif
#   From: 2010.05.17/outbox.cif.g08.bks.cpg/sg2_129_cif.got.tgz:257529.got - 2010.06.03 11:33:40.
