data_PCOD9091617
_publ_section_title
;
Structure prediction by ZEFSAII (Michael W. Deem and Ramdas Pophale) SiO2 
 PCOD9091617
Probable space group: P -1
;
_chemical_formula_sum "Si O2"
_cell_formula_units_Z 16
_cell_length_a 12.993236
_cell_length_b 9.364716
_cell_length_c 8.809697
_cell_angle_alpha 105.754874
_cell_angle_beta 50.821334
_cell_angle_gamma 76.875380
_cell_volume 676.022616
_symmetry_space_group_name_H-M "P -1"
_symmetry_group_IT_number 2
_symmetry_cell_setting 'triclinic'
loop_
_space_group_symop_operation_xyz
x,y,z
-x,-y,-z
loop_
_atom_site_type_symbol
_atom_site_label
_atom_site_fract_x
_atom_site_fract_y
_atom_site_fract_z
Si Si1 0.749094 0.851333 0.188647
Si Si2 0.317738 0.834718 0.440924
Si Si3 0.307026 0.282288 0.292364
Si Si4 0.179576 0.856937 0.256156
Si Si5 0.346608 0.983549 0.979926
Si Si6 0.923285 0.205605 0.165253
Si Si7 0.169513 0.460081 0.788375
Si Si8 0.374964 0.468167 0.022063
O O1 0.730766 0.700063 0.234593
O O2 0.726018 0.988488 0.380529
O O3 0.637275 0.955505 0.182770
O O4 0.924994 0.781169 0.936399
O O5 0.274891 0.871273 0.313978
O O6 0.210252 0.762304 0.581199
O O7 0.501250 0.689125 0.246509
O O8 0.267107 0.151094 0.213047
O O9 0.208998 0.388292 0.559304
O O10 0.304466 0.400898 0.192891
O O11 0.484641 0.160565 0.153577
O O12 0.237115 0.904914 0.065144
O O13 0.237489 0.652791 0.137730
O O14 0.000000 0.000000 0.500000
O O15 0.837611 0.356753 0.159345
O O16 0.000000 0.000000 0.000000
O O17 0.000000 0.500000 0.000000
O O18 0.500000 0.500000 0.000000
#
# Coordination Sequence:
#
# PCOD9091617 Si02
#       8
#     2   2   2   2   2   2   2   2
#     4  10  22  40  61  94 134 170 221 269 333 395
#     4  10  19  39  68  91 131 174 222 273 332 395
#     4  11  23  43  68  92 131 172 223 274 334 398
#     4  11  22  40  68  98 132 174 225 275 332 402
#     4  11  24  41  65  98 129 174 219 276 338 389
#     4   9  19  37  65  93 126 172 210 268 326 389
#     4  10  21  39  64  92 127 171 213 261 330 393
#     4  10  20  40  68  96 126 174 226 271 336 395
#
# _framework density 23.667846000000001
#
# number of rings (size 3 to 8) (size 9 to 14) (size 15 to 20)
#    0.000    1.750    2.500    3.000    1.750    1.500 
#    0.000   13.750    0.000    0.000    0.000    0.000 
#    0.000    0.000    0.000    0.000    0.000    0.000 
#
# Total GULP energy -89365.798183 kJ/mol
# GULP energy per Si atom -5585.362386 kJ/mol
# Density = 2.361398 g / cm^3
# Si number density = 23.667846 Si / 1000 Ang^3
#
#
#
# Elastic Constant Matrix: (Units=GPa)
#
#
# Indices 1 2 3 4 5 6 
#
# 1 42.7086 14.6120 18.4280 13.2700 7.1364 -0.5066
# 2 14.6120 216.1604 52.1280 -0.4940 3.8868 -2.2759
# 3 18.4280 52.1280 132.1387 4.5701 -13.2147 -2.9847
# 4 13.2700 -0.4940 4.5701 42.6817 -4.4869 -7.6877
# 5 7.1364 3.8868 -13.2147 -4.4869 17.0493 -3.1090
# 6 -0.5066 -2.2759 -2.9847 -7.6877 -3.1090 27.4599
#
#
#
# Elastic Compliance Matrix: (Units=1/GPa)
#
#
# Indices 1 2 3 4 5 6 
#
# 1 0.034899 -0.000360 -0.006875 -0.013956 -0.024775 -0.006845
# 2 -0.000360 0.005259 -0.002314 0.000102 -0.002836 -0.000115
# 3 -0.006875 -0.002314 0.010714 0.002899 0.013044 0.003135
# 4 -0.013956 0.000102 0.002899 0.031349 0.018306 0.010915
# 5 -0.024775 -0.002836 0.013044 0.018306 0.087471 0.015754
# 6 -0.006845 -0.000115 0.003135 0.010915 0.015754 0.041461
#
#
# Mechanical properties :
#
#
# Convention : Reuss Voigt Hill
#
# Bulk Modulus (GPa) = 31.47147 62.37152 46.92149
# Shear Modulus (GPa) = 20.76050 37.82748 29.29399
#
# Velocity S-wave (km/s) = 2.96490 4.00217 3.52193
# Velocity P-wave (km/s) = 5.00468 6.91133 6.03380
#
# Compressibility (1/GPa) = 0.03177481
#
# Stress axis : x y z
#
# Youngs Moduli (GPa) = 28.65447 190.16569 93.33181
#
# Poissons Ratio (x) = 0.06840 0.64162
# Poissons Ratio (y) = 0.01031 0.21597
# Poissons Ratio (z) = 0.19699 0.44005
#
# Static dielectric constant tensor:
#      x y z
#    x 1.925380 -0.024980 0.023860 
#    y -0.024980 1.984420 0.044650 
#    z 0.023860 0.044650 1.917290 
# 
# From -- ./inp_files/298693.got.cif
#   From: 2010.05.17/outbox.cif.g08.bks.cpg/sg2_150_cif.got.tgz:298693.got - 2010.06.03 11:33:40.
