data_PCOD9091132
_publ_section_title
;
Structure prediction by ZEFSAII (Michael W. Deem and Ramdas Pophale) SiO2 
 PCOD9091132
Probable space group: P -1
;
_chemical_formula_sum "Si O2"
_cell_formula_units_Z 16
_cell_length_a 9.336818
_cell_length_b 14.037565
_cell_length_c 8.580470
_cell_angle_alpha 73.128296
_cell_angle_beta 68.186534
_cell_angle_gamma 37.151179
_cell_volume 630.509088
_symmetry_space_group_name_H-M "P -1"
_symmetry_group_IT_number 2
_symmetry_cell_setting 'triclinic'
loop_
_space_group_symop_operation_xyz
x,y,z
-x,-y,-z
loop_
_atom_site_type_symbol
_atom_site_label
_atom_site_fract_x
_atom_site_fract_y
_atom_site_fract_z
Si Si1 0.852966 0.346545 0.440833
Si Si2 0.323277 0.854788 0.603890
Si Si3 0.852412 0.676269 0.461244
Si Si4 0.802504 0.288430 0.150112
Si Si5 0.065454 0.596846 0.087430
Si Si6 0.850918 0.975044 0.114031
Si Si7 0.647157 0.729891 0.975916
Si Si8 0.418200 0.700824 0.340749
O O1 0.886497 0.274644 0.297178
O O2 0.662995 0.532994 0.402863
O O3 0.723896 0.331569 0.614639
O O4 0.091929 0.275598 0.446227
O O5 0.573402 0.787412 0.512053
O O6 0.346095 0.739396 0.750665
O O7 0.154695 0.011406 0.701806
O O8 0.269332 0.841910 0.458519
O O9 0.000000 0.500000 0.500000
O O10 0.957984 0.671681 0.263944
O O11 0.720733 0.436346 0.045449
O O12 0.012278 0.165392 0.995373
O O13 0.837086 0.702872 0.008303
O O14 0.183921 0.427814 0.118651
O O15 0.567328 0.114837 0.111717
O O16 0.000000 0.000000 0.000000
O O17 0.502760 0.730376 0.155744
#
# Coordination Sequence:
#
# PCOD9091132 Si02
#       8
#     2   2   2   2   2   2   2   2
#     4  10  21  36  63  94 132 164 213 268 325 381
#     4  10  21  41  64  89 129 171 210 259 321 387
#     4  12  22  37  62  97 132 164 209 270 331 376
#     4  10  23  45  64  91 132 172 217 258 322 389
#     4  11  24  39  67 102 129 163 217 278 321 376
#     4  10  24  44  65  91 130 180 216 258 320 394
#     4  11  22  40  66  97 131 167 219 268 324 383
#     4  10  19  39  63  94 126 170 212 268 325 378
#
# _framework density 25.376318999999999
#
# number of rings (size 3 to 8) (size 9 to 14) (size 15 to 20)
#    0.000    1.500    3.750    0.750    3.500    2.500 
#    0.000   11.250    0.000    0.000    0.000    0.000 
#    0.000    0.000    0.000    0.000    0.000    0.000 
#
# Total GULP energy -89382.293182 kJ/mol
# GULP energy per Si atom -5586.393324 kJ/mol
# Density = 2.531856 g / cm^3
# Si number density = 25.376319 Si / 1000 Ang^3
#
#
#
# Elastic Constant Matrix: (Units=GPa)
#
#
# Indices 1 2 3 4 5 6 
#
# 1 115.1826 -0.4677 27.9126 -2.9634 0.2842 4.8745
# 2 -0.4677 35.3217 8.7190 10.7119 13.2728 -1.4183
# 3 27.9126 8.7190 135.0988 25.7210 -12.5184 15.3624
# 4 -2.9634 10.7119 25.7210 36.1973 17.2957 6.6467
# 5 0.2842 13.2728 -12.5184 17.2957 53.1565 6.8420
# 6 4.8745 -1.4183 15.3624 6.6467 6.8420 21.4307
#
#
#
# Elastic Compliance Matrix: (Units=1/GPa)
#
#
# Indices 1 2 3 4 5 6 
#
# 1 0.009487 0.000392 -0.002788 0.003680 -0.001917 -0.000662
# 2 0.000392 0.034333 -0.003072 -0.005425 -0.008671 0.008836
# 3 -0.002788 -0.003072 0.011594 -0.009886 0.007664 -0.007261
# 4 0.003680 -0.005425 -0.009886 0.044292 -0.015012 -0.003053
# 5 -0.001917 -0.008671 0.007664 -0.015012 0.028994 -0.010232
# 6 -0.000662 0.008836 -0.007261 -0.003053 -0.010232 0.056816
#
#
# Mechanical properties :
#
#
# Convention : Reuss Voigt Hill
#
# Bulk Modulus (GPa) = 22.48369 39.77009 31.12689
# Shear Modulus (GPa) = 23.66553 38.78619 31.22586
#
# Velocity S-wave (km/s) = 3.05714 3.91377 3.51167
# Velocity P-wave (km/s) = 4.61961 6.01079 5.36052
#
# Compressibility (1/GPa) = 0.04447669
#
# Stress axis : x y z
#
# Youngs Moduli (GPa) = 105.41238 29.12673 86.24862
#
# Poissons Ratio (x) = -0.01141 0.24048
# Poissons Ratio (y) = -0.04130 0.26496
# Poissons Ratio (z) = 0.29391 0.08948
#
# Static dielectric constant tensor:
#      x y z
#    x 2.021480 0.034550 0.044010 
#    y 0.034550 2.056940 -0.056140 
#    z 0.044010 -0.056140 2.062660 
# 
# From -- ./inp_files/206822.got.cif
#   From: 2010.05.17/outbox.cif.g08.bks.cpg/sg2_104_cif.got.tgz:206822.got - 2010.06.03 11:33:40.
