data_PCOD9091310
_publ_section_title
;
Structure prediction by ZEFSAII (Michael W. Deem and Ramdas Pophale) SiO2 
 PCOD9091310
Probable space group: P -1
;
_chemical_formula_sum "Si O2"
_cell_formula_units_Z 14
_cell_length_a 12.624833
_cell_length_b 6.856633
_cell_length_c 11.269720
_cell_angle_alpha 94.689937
_cell_angle_beta 37.331480
_cell_angle_gamma 101.102738
_cell_volume 576.337110
_symmetry_space_group_name_H-M "P -1"
_symmetry_group_IT_number 2
_symmetry_cell_setting 'triclinic'
loop_
_space_group_symop_operation_xyz
x,y,z
-x,-y,-z
loop_
_atom_site_type_symbol
_atom_site_label
_atom_site_fract_x
_atom_site_fract_y
_atom_site_fract_z
Si Si1 0.928718 0.270896 0.023810
Si Si2 0.715127 0.767081 0.961641
Si Si3 0.906643 0.023407 0.273660
Si Si4 0.350585 0.837620 0.314455
Si Si5 0.306110 0.360165 0.297263
Si Si6 0.076932 0.702277 0.362775
Si Si7 0.670964 0.357449 0.079061
O O1 0.737655 0.259981 0.129798
O O2 0.063641 0.189043 0.811006
O O3 0.000000 0.500000 0.000000
O O4 0.914344 0.149242 0.151546
O O5 0.563732 0.896519 0.113361
O O6 0.680297 0.660290 0.858636
O O7 0.689742 0.599102 0.079043
O O8 0.916419 0.886316 0.801546
O O9 0.735387 0.065200 0.496684
O O10 0.323306 0.591966 0.333347
O O11 0.225328 0.852833 0.313133
O O12 0.109208 0.239707 0.500022
O O13 0.470296 0.285614 0.206277
O O14 0.181504 0.656615 0.152844
O O15 0.000000 0.500000 0.500000
#
# Coordination Sequence:
#
# PCOD9091310 Si02
#       7
#     2   2   2   2   2   2   2
#     4  11  26  46  69  87 124 177 219 271 316 370
#     4  11  17  35  68  97 132 166 204 257 320 386
#     4  11  24  45  67  92 127 169 218 268 319 364
#     4  10  18  32  64 100 126 170 207 249 322 383
#     4  10  18  30  62 103 132 167 198 250 328 383
#     4  10  16  28  58  95 130 164 200 247 316 383
#     4  11  19  37  60  96 128 166 215 249 313 386
#
# _framework density 24.291339000000001
#
# number of rings (size 3 to 8) (size 9 to 14) (size 15 to 20)
#    0.000    1.429    7.143    1.714    0.000    0.000 
#    0.000   10.000    0.000    0.000    0.000    0.000 
#    0.000    0.000    0.000    0.000    0.000    0.000 
#
# Total GULP energy -78317.914011 kJ/mol
# GULP energy per Si atom -5594.136715 kJ/mol
# Density = 2.423605 g / cm^3
# Si number density = 24.291339 Si / 1000 Ang^3
#
#
#
# Elastic Constant Matrix: (Units=GPa)
#
#
# Indices 1 2 3 4 5 6 
#
# 1 139.8743 42.6769 64.0809 4.9170 -31.0590 -1.6343
# 2 42.6769 107.3149 36.0861 28.4736 2.2359 -11.8661
# 3 64.0809 36.0861 158.7711 23.3914 -31.6160 -7.8816
# 4 4.9170 28.4736 23.3914 45.9761 0.7349 -6.2285
# 5 -31.0590 2.2359 -31.6160 0.7349 49.2124 6.9040
# 6 -1.6343 -11.8661 -7.8816 -6.2285 6.9040 27.4671
#
#
#
# Elastic Compliance Matrix: (Units=1/GPa)
#
#
# Indices 1 2 3 4 5 6 
#
# 1 0.010952 -0.004550 -0.002773 0.002565 0.005715 -0.002965
# 2 -0.004550 0.013959 -0.001021 -0.006870 -0.004776 0.005109
# 3 -0.002773 -0.001021 0.009026 -0.003715 0.004136 0.000102
# 4 0.002565 -0.006870 -0.003715 0.028019 -0.001266 0.002790
# 5 0.005715 -0.004776 0.004136 -0.001266 0.027920 -0.007842
# 6 -0.002965 0.005109 0.000102 0.002790 -0.007842 0.041071
#
#
# Mechanical properties :
#
#
# Convention : Reuss Voigt Hill
#
# Bulk Modulus (GPa) = 57.98144 76.84977 67.41560
# Shear Modulus (GPa) = 32.59746 42.07220 37.33483
#
# Velocity S-wave (km/s) = 3.66722 4.16623 3.92466
# Velocity P-wave (km/s) = 6.46934 7.40599 6.95345
#
# Compressibility (1/GPa) = 0.01724690
#
# Stress axis : x y z
#
# Youngs Moduli (GPa) = 91.30443 71.63995 110.79365
#
# Poissons Ratio (x) = 0.32599 0.30725
# Poissons Ratio (y) = 0.41547 0.11316
# Poissons Ratio (z) = 0.25321 0.07317
#
# Static dielectric constant tensor:
#      x y z
#    x 1.977850 -0.034460 -0.034290 
#    y -0.034460 2.054850 -0.011640 
#    z -0.034290 -0.011640 1.921970 
# 
# From -- ./inp_files/415087.got.cif
#   From: 2010.05.17/outbox.cif.g08.bks.cpg/sg2_208_cif.got.tgz:415087.got - 2010.06.03 11:33:40.
