data_PCOD9091036
_publ_section_title
;
Structure prediction by ZEFSAII (Michael W. Deem and Ramdas Pophale) SiO2 
 PCOD9091036
Probable space group: P -1
;
_chemical_formula_sum "Si O2"
_cell_formula_units_Z 14
_cell_length_a 6.424825
_cell_length_b 15.024766
_cell_length_c 11.994773
_cell_angle_alpha 145.463176
_cell_angle_beta 105.219075
_cell_angle_gamma 78.455283
_cell_volume 633.143093
_symmetry_space_group_name_H-M "P -1"
_symmetry_group_IT_number 2
_symmetry_cell_setting 'triclinic'
loop_
_space_group_symop_operation_xyz
x,y,z
-x,-y,-z
loop_
_atom_site_type_symbol
_atom_site_label
_atom_site_fract_x
_atom_site_fract_y
_atom_site_fract_z
Si Si1 0.536583 0.574723 0.462931
Si Si2 0.403414 0.883755 0.666344
Si Si3 0.164013 0.587172 0.257692
Si Si4 0.346590 0.331055 0.901640
Si Si5 0.192145 0.587669 0.843002
Si Si6 0.671890 0.927933 0.533997
Si Si7 0.087612 0.135247 0.853381
O O1 0.500000 0.500000 0.500000
O O2 0.511976 0.764377 0.645984
O O3 0.335642 0.519505 0.300949
O O4 0.738723 0.503431 0.353006
O O5 0.581443 0.933196 0.651733
O O6 0.230419 0.769338 0.457242
O O7 0.264361 0.031386 0.834389
O O8 0.941208 0.534214 0.224966
O O9 0.234331 0.499002 0.065651
O O10 0.592129 0.350332 0.998506
O O11 0.324239 0.247847 0.694235
O O12 0.210999 0.221288 0.856717
O O13 0.036386 0.734924 0.958556
O O14 0.897702 0.022098 0.660862
O O15 0.500000 0.000000 0.500000
#
# Coordination Sequence:
#
# PCOD9091036 Si02
#       7
#     2   2   2   2   2   2   2
#     4   9  21  42  63  86 116 150 193 245 302 354
#     4  10  23  36  58  94 116 150 202 247 281 344
#     4   8  21  37  58  87 117 150 194 245 290 342
#     4  10  20  37  56  84 120 165 194 231 284 347
#     4  10  19  39  63  81 119 162 189 238 299 348
#     4  12  22  35  59  87 123 165 195 233 292 337
#     4  11  21  36  59  87 124 154 201 238 284 342
#
# _framework density 22.111905
#
# number of rings (size 3 to 8) (size 9 to 14) (size 15 to 20)
#    0.857    1.143    2.857    0.429    2.000    1.143 
#    0.000    2.143    0.000   12.000    0.000    0.000 
#    0.000    0.000    0.000    0.000    0.000    0.000 
#
# Total GULP energy -78109.934006 kJ/mol
# GULP energy per Si atom -5579.281000 kJ/mol
# Density = 2.206158 g / cm^3
# Si number density = 22.111905 Si / 1000 Ang^3
#
#
#
# Elastic Constant Matrix: (Units=GPa)
#
#
# Indices 1 2 3 4 5 6 
#
# 1 111.8809 28.6798 24.4420 14.5585 -19.0206 17.2405
# 2 28.6798 80.5856 1.5050 6.4220 -26.6234 -14.3662
# 3 24.4420 1.5050 38.2260 17.1430 -26.1239 -11.6392
# 4 14.5585 6.4220 17.1430 29.6629 -1.3103 -4.6453
# 5 -19.0206 -26.6234 -26.1239 -1.3103 49.6812 24.4206
# 6 17.2405 -14.3662 -11.6392 -4.6453 24.4206 30.2753
#
#
#
# Elastic Compliance Matrix: (Units=1/GPa)
#
#
# Indices 1 2 3 4 5 6 
#
# 1 0.021944 -0.008017 -0.010190 -0.007731 0.015018 -0.033518
# 2 -0.008017 0.023466 0.025494 -0.013720 0.018309 0.008628
# 3 -0.010190 0.025494 0.095884 -0.053527 0.059462 -0.001414
# 4 -0.007731 -0.013720 -0.053527 0.073843 -0.051247 0.029981
# 5 0.015018 0.018309 0.059462 -0.051247 0.096381 -0.062610
# 6 -0.033518 0.008628 -0.001414 0.029981 -0.062610 0.110771
#
#
# Mechanical properties :
#
#
# Convention : Reuss Voigt Hill
#
# Bulk Modulus (GPa) = 6.41568 37.77180 22.09374
# Shear Modulus (GPa) = 10.87738 33.66159 22.26949
#
# Velocity S-wave (km/s) = 2.22034 3.90594 3.17697
# Velocity P-wave (km/s) = 3.07912 6.12054 4.84469
#
# Compressibility (1/GPa) = 0.15586812
#
# Stress axis : x y z
#
# Youngs Moduli (GPa) = 45.57152 42.61404 10.42932
#
# Poissons Ratio (x) = 0.34163 0.10628
# Poissons Ratio (y) = 0.36534 -0.26589
# Poissons Ratio (z) = 0.46439 -1.08642
#
# Static dielectric constant tensor:
#      x y z
#    x 1.847670 -0.048370 -0.052530 
#    y -0.048370 1.812510 0.051350 
#    z -0.052530 0.051350 1.900280 
# 
# From -- ./inp_files/367249.got.cif
#   From: 2010.05.17/outbox.cif.g08.bks.cpg/sg2_184_cif.got.tgz:367249.got - 2010.06.03 11:33:40.
