data_PCOD9091349
_publ_section_title
;
Structure prediction by ZEFSAII (Michael W. Deem and Ramdas Pophale) SiO2 
 PCOD9091349
Probable space group: P -1
;
_chemical_formula_sum "Si O2"
_cell_formula_units_Z 16
_cell_length_a 10.296390
_cell_length_b 16.382410
_cell_length_c 11.047182
_cell_angle_alpha 138.874709
_cell_angle_beta 42.782433
_cell_angle_gamma 141.495863
_cell_volume 713.962134
_symmetry_space_group_name_H-M "P -1"
_symmetry_group_IT_number 2
_symmetry_cell_setting 'triclinic'
loop_
_space_group_symop_operation_xyz
x,y,z
-x,-y,-z
loop_
_atom_site_type_symbol
_atom_site_label
_atom_site_fract_x
_atom_site_fract_y
_atom_site_fract_z
Si Si1 0.856221 0.056161 0.541361
Si Si2 0.509413 0.579599 0.236173
Si Si3 0.436658 0.344048 0.307117
Si Si4 0.101456 0.274537 0.257801
Si Si5 0.267304 0.782531 0.389922
Si Si6 0.648625 0.823588 0.596106
Si Si7 0.194217 0.538312 0.006494
Si Si8 0.721392 0.821995 0.178205
O O1 0.779539 0.139876 0.601323
O O2 0.104185 0.153908 0.531556
O O3 0.695047 0.971698 0.670151
O O4 0.853782 0.931982 0.318894
O O5 0.273933 0.433945 0.262383
O O6 0.509095 0.697762 0.456302
O O7 0.721845 0.566138 0.116949
O O8 0.575652 0.658243 0.148932
O O9 0.500000 0.500000 0.500000
O O10 0.200448 0.277935 0.327839
O O11 0.453841 0.240024 0.275455
O O12 0.591133 0.359345 0.106893
O O13 0.850866 0.225988 0.411266
O O14 0.127505 0.172959 0.029930
O O15 0.531263 0.853741 0.302166
O O16 0.165422 0.618704 0.229118
O O17 0.000000 0.500000 0.000000
#
# Coordination Sequence:
#
# PCOD9091349 Si02
#       8
#     2   2   2   2   2   2   2   2
#     4  10  23  39  63  87 127 167 216 251 301 369
#     4  10  21  41  65  91 130 155 202 266 322 365
#     4  11  18  37  64  95 124 153 202 257 317 370
#     4  11  22  38  65  94 123 161 204 260 317 373
#     4  12  23  40  62  93 123 168 213 249 311 374
#     4  10  19  39  65  92 119 169 205 257 313 364
#     4  11  22  35  62  98 126 157 200 259 316 375
#     4  11  24  44  61  89 128 170 208 258 304 370
#
# _framework density 22.410150999999999
#
# number of rings (size 3 to 8) (size 9 to 14) (size 15 to 20)
#    0.000    1.250    6.250    2.250    0.000    1.000 
#    0.000    0.625    0.000    0.000    0.000    0.000 
#    0.000    0.000    0.000    0.000    0.000    0.000 
#
# Total GULP energy -89230.157703 kJ/mol
# GULP energy per Si atom -5576.884856 kJ/mol
# Density = 2.235914 g / cm^3
# Si number density = 22.410151 Si / 1000 Ang^3
#
#
#
# Elastic Constant Matrix: (Units=GPa)
#
#
# Indices 1 2 3 4 5 6 
#
# 1 64.5820 18.1079 8.9277 -7.1550 0.6387 -17.9609
# 2 18.1079 54.7907 16.3246 -5.7595 -5.7793 -24.1894
# 3 8.9277 16.3246 84.5829 -23.5965 9.1585 -4.3972
# 4 -7.1550 -5.7595 -23.5965 24.4116 -1.9360 10.3115
# 5 0.6387 -5.7793 9.1585 -1.9360 33.4695 3.3445
# 6 -17.9609 -24.1894 -4.3972 10.3115 3.3445 42.8445
#
#
#
# Elastic Compliance Matrix: (Units=1/GPa)
#
#
# Indices 1 2 3 4 5 6 
#
# 1 0.018201 -0.003552 -0.000294 0.001897 -0.001294 0.005239
# 2 -0.003552 0.027683 -0.006597 -0.006718 0.004795 0.014706
# 3 -0.000294 -0.006597 0.018421 0.018349 -0.004511 -0.006021
# 4 0.001897 -0.006718 0.018349 0.064620 -0.000820 -0.016602
# 5 -0.001294 0.004795 -0.004511 -0.000820 0.031977 -0.000597
# 6 0.005239 0.014706 -0.006021 -0.016602 -0.000597 0.037263
#
#
# Mechanical properties :
#
#
# Convention : Reuss Voigt Hill
#
# Bulk Modulus (GPa) = 23.03091 32.29734 27.66413
# Shear Modulus (GPa) = 21.41120 30.85148 26.13134
#
# Velocity S-wave (km/s) = 3.09435 3.71438 3.41845
# Velocity P-wave (km/s) = 4.80270 5.73051 5.28700
#
# Compressibility (1/GPa) = 0.04341990
#
# Stress axis : x y z
#
# Youngs Moduli (GPa) = 54.94308 36.12389 54.28485
#
# Poissons Ratio (x) = 0.12830 0.01596
# Poissons Ratio (y) = 0.19515 0.35809
# Poissons Ratio (z) = 0.01615 0.23829
#
# Static dielectric constant tensor:
#      x y z
#    x 1.937910 0.034740 -0.064930 
#    y 0.034740 1.927390 0.012960 
#    z -0.064930 0.012960 1.891140 
# 
# From -- ./inp_files/435443.got.cif
#   From: 2010.05.17/outbox.cif.g08.bks.cpg/sg2_218_cif.got.tgz:435443.got - 2010.06.03 11:33:40.
