data_PCOD9091718
_publ_section_title
;
Structure prediction by ZEFSAII (Michael W. Deem and Ramdas Pophale) SiO2 
 PCOD9091718
Probable space group: P -1
;
_chemical_formula_sum "Si O2"
_cell_formula_units_Z 15
_cell_length_a 16.492646
_cell_length_b 11.050089
_cell_length_c 13.550530
_cell_angle_alpha 32.154613
_cell_angle_beta 144.127530
_cell_angle_gamma 122.527722
_cell_volume 677.471567
_symmetry_space_group_name_H-M "P -1"
_symmetry_group_IT_number 2
_symmetry_cell_setting 'triclinic'
loop_
_space_group_symop_operation_xyz
x,y,z
-x,-y,-z
loop_
_atom_site_type_symbol
_atom_site_label
_atom_site_fract_x
_atom_site_fract_y
_atom_site_fract_z
Si Si1 0.500000 0.000000 0.000000
Si Si2 0.346524 0.449446 0.676947
Si Si3 0.891188 0.886425 0.700188
Si Si4 0.978805 0.338683 0.233869
Si Si5 0.187953 0.375106 0.764015
Si Si6 0.750924 0.138614 0.090275
Si Si7 0.610605 0.440914 0.054777
Si Si8 0.794351 0.146993 0.909269
O O1 0.578632 0.846224 0.080124
O O2 0.600944 0.155443 0.982889
O O3 0.238218 0.479827 0.644023
O O4 0.252078 0.622005 0.372181
O O5 0.481389 0.527557 0.782191
O O6 0.934226 0.777058 0.706165
O O7 0.723172 0.133588 0.368646
O O8 0.916687 0.642054 0.959880
O O9 0.020207 0.966667 0.807911
O O10 0.833025 0.280223 0.132621
O O11 0.109627 0.162880 0.563283
O O12 0.276125 0.432632 0.901800
O O13 0.000000 0.500000 0.500000
O O14 0.245349 0.071138 0.017827
O O15 0.718447 0.245530 0.873743
O O16 0.500000 0.500000 0.000000
#
# Coordination Sequence:
#
# PCOD9091718 Si02
#       8
#     1   2   2   2   2   2   2   2
#     4  12  22  42  66  98 150 176 212 286 352 420
#     4  11  26  44  69 105 142 183 225 287 356 414
#     4  10  19  39  70  99 131 179 236 286 344 410
#     4   9  20  38  66 100 133 178 235 284 339 416
#     4  11  23  48  74  96 134 184 241 292 333 405
#     4  10  21  39  64  99 142 182 221 283 351 414
#     4  10  23  44  66  96 140 182 226 286 347 406
#     4  11  23  42  70 105 131 181 242 278 345 411
#
# _framework density 22.141148000000001
#
# number of rings (size 3 to 8) (size 9 to 14) (size 15 to 20)
#    0.000    1.600    2.667    1.600    0.000    3.733 
#    4.800    0.000    0.000    0.000    0.000    0.000 
#    0.000    0.000    0.000    0.000    0.000    0.000 
#
# Total GULP energy -83553.940654 kJ/mol
# GULP energy per Si atom -5570.262710 kJ/mol
# Density = 2.209075 g / cm^3
# Si number density = 22.141148 Si / 1000 Ang^3
#
#
#
# Elastic Constant Matrix: (Units=GPa)
#
#
# Indices 1 2 3 4 5 6 
#
# 1 90.2938 25.7495 31.6547 13.3784 6.6860 21.1915
# 2 25.7495 92.0873 11.4127 10.0774 8.1499 13.0416
# 3 31.6547 11.4127 50.4833 10.4659 -0.0543 2.7496
# 4 13.3784 10.0774 10.4659 30.7786 6.1767 -3.4967
# 5 6.6860 8.1499 -0.0543 6.1767 35.1721 2.8535
# 6 21.1915 13.0416 2.7496 -3.4967 2.8535 37.8994
#
#
#
# Elastic Compliance Matrix: (Units=1/GPa)
#
#
# Indices 1 2 3 4 5 6 
#
# 1 0.017754 -0.001919 -0.009244 -0.004678 -0.001399 -0.008922
# 2 -0.001919 0.012444 -0.000812 -0.002992 -0.001727 -0.003296
# 3 -0.009244 -0.000812 0.026670 -0.004989 0.002631 0.002855
# 4 -0.004678 -0.002992 -0.004989 0.039319 -0.005986 0.008086
# 5 -0.001399 -0.001727 0.002631 -0.005986 0.030287 -0.001647
# 6 -0.008922 -0.003296 0.002855 0.008086 -0.001647 0.033172
#
#
# Mechanical properties :
#
#
# Convention : Reuss Voigt Hill
#
# Bulk Modulus (GPa) = 30.37936 41.16643 35.77289
# Shear Modulus (GPa) = 25.69809 31.70652 28.70230
#
# Velocity S-wave (km/s) = 3.41053 3.78831 3.60437
# Velocity P-wave (km/s) = 5.40920 6.14558 5.78911
#
# Compressibility (1/GPa) = 0.03291709
#
# Stress axis : x y z
#
# Youngs Moduli (GPa) = 56.32622 80.36284 37.49555
#
# Poissons Ratio (x) = 0.15424 0.34661
# Poissons Ratio (y) = 0.10811 0.03044
# Poissons Ratio (z) = 0.52068 0.06523
#
# Static dielectric constant tensor:
#      x y z
#    x 1.818890 -0.012120 0.003760 
#    y -0.012120 1.877380 -0.005230 
#    z 0.003760 -0.005230 1.824580 
# 
# From -- ./inp_files/538161.got.cif
#   From: 2010.05.17/outbox.cif.g08.bks.cpg/sg2_270_cif.got.tgz:538161.got - 2010.06.03 11:33:40.
