data_PCOD9091942
_publ_section_title
;
Structure prediction by ZEFSAII (Michael W. Deem and Ramdas Pophale) SiO2 
 PCOD9091942
Probable space group: P -1
;
_chemical_formula_sum "Si O2"
_cell_formula_units_Z 14
_cell_length_a 9.802704
_cell_length_b 16.314314
_cell_length_c 11.126812
_cell_angle_alpha 155.835204
_cell_angle_beta 116.160322
_cell_angle_gamma 53.139500
_cell_volume 551.201558
_symmetry_space_group_name_H-M "P -1"
_symmetry_group_IT_number 2
_symmetry_cell_setting 'triclinic'
loop_
_space_group_symop_operation_xyz
x,y,z
-x,-y,-z
loop_
_atom_site_type_symbol
_atom_site_label
_atom_site_fract_x
_atom_site_fract_y
_atom_site_fract_z
Si Si1 0.909602 0.394809 0.026467
Si Si2 0.186056 0.484145 0.519702
Si Si3 0.928712 0.053461 0.764078
Si Si4 0.830671 0.427269 0.648451
Si Si5 0.564410 0.808447 0.595215
Si Si6 0.378446 0.532150 0.166784
Si Si7 0.382194 0.960562 0.496112
O O1 0.996419 0.163678 0.836291
O O2 0.808749 0.360059 0.831594
O O3 0.746893 0.623360 0.341406
O O4 0.045855 0.467953 0.135424
O O5 0.202209 0.526460 0.443285
O O6 0.337771 0.224770 0.283309
O O7 0.000000 0.500000 0.500000
O O8 0.188451 0.701413 0.876076
O O9 0.811871 0.962955 0.530475
O O10 0.061166 0.848723 0.635010
O O11 0.655897 0.546131 0.823652
O O12 0.439365 0.710851 0.449092
O O13 0.433757 0.003291 0.706199
O O14 0.525358 0.323245 0.860561
O O15 0.500000 0.000000 0.500000
#
# Coordination Sequence:
#
# PCOD9091942 Si02
#       7
#     2   2   2   2   2   2   2
#     4  10  19  40  64  87 126 164 202 250 312 374
#     4  11  22  41  66  84 123 177 212 245 301 385
#     4  11  21  41  67  90 119 167 217 246 302 383
#     4  12  25  38  63  97 127 163 205 260 315 365
#     4  10  19  40  64  84 119 167 207 244 311 361
#     4  11  21  40  61  95 127 156 203 270 319 347
#     4  11  21  39  69  96 119 161 215 257 303 379
#
# _framework density 25.399056999999999
#
# number of rings (size 3 to 8) (size 9 to 14) (size 15 to 20)
#    0.000    1.143    7.143    3.429    0.000    1.143 
#    2.571    0.000    0.000    1.714    0.000    0.000 
#    0.000    0.000    0.000    0.000    0.000    0.000 
#
# Total GULP energy -78150.378563 kJ/mol
# GULP energy per Si atom -5582.169897 kJ/mol
# Density = 2.534125 g / cm^3
# Si number density = 25.399057 Si / 1000 Ang^3
#
#
#
# Elastic Constant Matrix: (Units=GPa)
#
#
# Indices 1 2 3 4 5 6 
#
# 1 99.4697 13.8275 6.2262 6.5990 22.9003 16.3379
# 2 13.8275 165.4964 16.4248 4.5162 -1.0574 26.8767
# 3 6.2262 16.4248 70.7738 12.5686 -1.7469 4.0565
# 4 6.5990 4.5162 12.5686 26.0742 0.0972 7.5936
# 5 22.9003 -1.0574 -1.7469 0.0972 41.6586 3.0932
# 6 16.3379 26.8767 4.0565 7.5936 3.0932 55.0669
#
#
#
# Elastic Compliance Matrix: (Units=1/GPa)
#
#
# Indices 1 2 3 4 5 6 
#
# 1 0.012246 -0.000511 -0.000629 -0.001895 -0.006566 -0.002707
# 2 -0.000511 0.006724 -0.001420 0.000561 0.000624 -0.003138
# 3 -0.000629 -0.001420 0.015816 -0.007422 0.000939 0.000685
# 4 -0.001895 0.000561 -0.007422 0.043843 0.001033 -0.005269
# 5 -0.006566 0.000624 0.000939 0.001033 0.027676 -0.000123
# 6 -0.002707 -0.003138 0.000685 -0.005269 -0.000123 0.021178
#
#
# Mechanical properties :
#
#
# Convention : Reuss Voigt Hill
#
# Bulk Modulus (GPa) = 33.70879 45.41077 39.55978
# Shear Modulus (GPa) = 35.08983 44.51071 39.80027
#
# Velocity S-wave (km/s) = 3.72094 4.19078 3.96283
# Velocity P-wave (km/s) = 5.63569 6.42919 6.04548
#
# Compressibility (1/GPa) = 0.02966586
#
# Stress axis : x y z
#
# Youngs Moduli (GPa) = 81.66160 148.71276 63.22576
#
# Poissons Ratio (x) = 0.07604 0.03977
# Poissons Ratio (y) = 0.04175 0.08977
# Poissons Ratio (z) = 0.05137 0.21116
#
# Static dielectric constant tensor:
#      x y z
#    x 2.021090 -0.034970 -0.067070 
#    y -0.034970 2.101180 0.027950 
#    z -0.067070 0.027950 2.173350 
# 
# From -- ./inp_files/276560.got.cif
#   From: 2010.05.17/outbox.cif.g08.bks.cpg/sg2_139_cif.got.tgz:276560.got - 2010.06.03 11:33:40.
