data_PCOD9091910
_publ_section_title
;
Structure prediction by ZEFSAII (Michael W. Deem and Ramdas Pophale) SiO2 
 PCOD9091910
Probable space group: P -1
;
_chemical_formula_sum "Si O2"
_cell_formula_units_Z 16
_cell_length_a 11.852332
_cell_length_b 13.703093
_cell_length_c 16.654553
_cell_angle_alpha 151.665889
_cell_angle_beta 145.610010
_cell_angle_gamma 44.351016
_cell_volume 724.472719
_symmetry_space_group_name_H-M "P -1"
_symmetry_group_IT_number 2
_symmetry_cell_setting 'triclinic'
loop_
_space_group_symop_operation_xyz
x,y,z
-x,-y,-z
loop_
_atom_site_type_symbol
_atom_site_label
_atom_site_fract_x
_atom_site_fract_y
_atom_site_fract_z
Si Si1 0.295358 0.649357 0.763965
Si Si2 0.044059 0.448675 0.083279
Si Si3 0.565272 0.892481 0.382181
Si Si4 0.273044 0.509715 0.948318
Si Si5 0.169288 0.870876 0.546610
Si Si6 0.895753 0.640662 0.424814
Si Si7 0.346123 0.150993 0.981263
Si Si8 0.504469 0.088660 0.813286
O O1 0.235233 0.454756 0.645510
O O2 0.512479 0.693646 0.880122
O O3 0.120855 0.656100 0.600576
O O4 0.302005 0.830562 0.966534
O O5 0.116683 0.640274 0.321433
O O6 0.215293 0.285229 0.060266
O O7 0.840995 0.394127 0.973193
O O8 0.000000 0.500000 0.000000
O O9 0.799256 0.854677 0.499176
O O10 0.486796 0.999346 0.334130
O O11 0.500000 0.000000 0.500000
O O12 0.455206 0.667611 0.150302
O O13 0.139466 0.485168 0.770690
O O14 0.361985 0.288399 0.864049
O O15 0.386627 0.921930 0.675316
O O16 0.000000 0.000000 0.500000
O O17 0.193211 0.987714 0.729442
O O18 0.500000 0.000000 0.000000
#
# Coordination Sequence:
#
# PCOD9091910 Si02
#       8
#     2   2   2   2   2   2   2   2
#     4  10  20  41  67  87 123 169 215 255 331 386
#     4  12  25  42  73  99 131 179 224 271 330 399
#     4  11  23  35  61  95 127 161 215 271 323 375
#     4  11  21  40  64  96 128 162 223 268 326 380
#     4  11  22  41  67  96 127 173 225 268 327 388
#     4  10  21  39  68  87 119 172 210 265 323 385
#     4  11  27  44  66  97 139 172 218 275 330 397
#     4  10  19  40  63  90 130 163 213 278 318 385
#
# _framework density 22.085027
#
# number of rings (size 3 to 8) (size 9 to 14) (size 15 to 20)
#    0.000    1.250    5.000    1.500    3.500    1.500 
#    0.000    0.625    2.750    0.000    0.000    0.000 
#    0.000    0.000    0.000    0.000    0.000    0.000 
#
# Total GULP energy -89123.452205 kJ/mol
# GULP energy per Si atom -5570.215763 kJ/mol
# Density = 2.203476 g / cm^3
# Si number density = 22.085027 Si / 1000 Ang^3
#
#
#
# Elastic Constant Matrix: (Units=GPa)
#
#
# Indices 1 2 3 4 5 6 
#
# 1 115.7780 14.6631 18.2955 2.2084 -14.8754 -4.8571
# 2 14.6631 64.4147 38.7667 -19.2906 -12.1784 -13.5200
# 3 18.2955 38.7667 122.3349 -22.0445 -14.7418 -12.3297
# 4 2.2084 -19.2906 -22.0445 46.0060 1.3222 -4.0014
# 5 -14.8754 -12.1784 -14.7418 1.3222 39.9068 8.1286
# 6 -4.8571 -13.5200 -12.3297 -4.0014 8.1286 25.9603
#
#
#
# Elastic Compliance Matrix: (Units=1/GPa)
#
#
# Indices 1 2 3 4 5 6 
#
# 1 0.009366 -0.001734 -0.000899 -0.001753 0.002838 -0.000737
# 2 -0.001734 0.023906 -0.004333 0.008881 0.002590 0.010626
# 3 -0.000899 -0.004333 0.010806 0.003595 0.001656 0.002743
# 4 -0.001753 0.008881 0.003595 0.028146 0.000369 0.010227
# 5 0.002838 0.002590 0.001656 0.000369 0.028788 -0.006291
# 6 -0.000737 0.010626 0.002743 0.010227 -0.006291 0.048765
#
#
# Mechanical properties :
#
#
# Convention : Reuss Voigt Hill
#
# Bulk Modulus (GPa) = 33.17244 49.55313 41.36279
# Shear Modulus (GPa) = 28.77564 37.76142 33.26853
#
# Velocity S-wave (km/s) = 3.61355 4.13948 3.88543
# Velocity P-wave (km/s) = 5.69766 6.73300 6.23685
#
# Compressibility (1/GPa) = 0.03014550
#
# Stress axis : x y z
#
# Youngs Moduli (GPa) = 106.76778 41.82984 92.54353
#
# Poissons Ratio (x) = 0.07253 0.08324
# Poissons Ratio (y) = 0.18512 0.40099
# Poissons Ratio (z) = 0.09603 0.18125
#
# Static dielectric constant tensor:
#      x y z
#    x 1.978980 0.092560 0.062330 
#    y 0.092560 1.851300 -0.015840 
#    z 0.062330 -0.015840 1.938210 
# 
# From -- ./inp_files/522686.got.cif
#   From: 2010.05.17/outbox.cif.g08.bks.cpg/sg2_262_cif.got.tgz:522686.got - 2010.06.03 11:33:40.
