data_PCOD9091731
_publ_section_title
;
Structure prediction by ZEFSAII (Michael W. Deem and Ramdas Pophale) SiO2 
 PCOD9091731
Probable space group: P -1
;
_chemical_formula_sum "Si O2"
_cell_formula_units_Z 16
_cell_length_a 12.192514
_cell_length_b 10.906612
_cell_length_c 11.708340
_cell_angle_alpha 50.725487
_cell_angle_beta 96.959653
_cell_angle_gamma 54.523622
_cell_volume 620.292809
_symmetry_space_group_name_H-M "P -1"
_symmetry_group_IT_number 2
_symmetry_cell_setting 'triclinic'
loop_
_space_group_symop_operation_xyz
x,y,z
-x,-y,-z
loop_
_atom_site_type_symbol
_atom_site_label
_atom_site_fract_x
_atom_site_fract_y
_atom_site_fract_z
Si Si1 0.704650 0.582694 0.790105
Si Si2 0.152000 0.694507 0.267325
Si Si3 0.979790 0.327539 0.393694
Si Si4 0.556298 0.808446 0.970022
Si Si5 0.768245 0.853086 0.673332
Si Si6 0.858947 0.791906 0.193676
Si Si7 0.594899 0.127571 0.730998
Si Si8 0.720662 0.324160 0.122013
O O1 0.753307 0.524633 0.696838
O O2 0.798702 0.627675 0.828132
O O3 0.447528 0.884006 0.586607
O O4 0.783838 0.324697 0.009502
O O5 0.362095 0.496610 0.476879
O O6 0.002019 0.758148 0.278308
O O7 0.000000 0.000000 0.000000
O O8 0.008157 0.456795 0.388831
O O9 0.727831 0.610370 0.210126
O O10 0.049164 0.293719 0.293528
O O11 0.104039 0.014996 0.616684
O O12 0.337853 0.006471 0.869749
O O13 0.542175 0.003473 0.806270
O O14 0.670613 0.542442 0.059691
O O15 0.713943 0.003064 0.697845
O O16 0.746921 0.975432 0.948501
O O17 0.500000 0.500000 0.000000
#
# Coordination Sequence:
#
# PCOD9091731 Si02
#       8
#     2   2   2   2   2   2   2   2
#     4  10  21  40  64 101 136 169 227 283 339 405
#     4  11  26  43  69 102 136 183 233 282 345 416
#     4  11  23  43  70 101 136 179 231 284 344 405
#     4  11  26  45  65  99 143 182 228 284 342 417
#     4  10  19  39  71  96 131 172 227 284 333 413
#     4  11  26  47  69 100 142 184 231 287 339 418
#     4  10  23  44  70  99 134 181 231 282 348 408
#     4  12  25  41  70 104 135 180 226 287 346 399
#
# _framework density 25.794270000000001
#
# number of rings (size 3 to 8) (size 9 to 14) (size 15 to 20)
#    0.000    1.250    3.750    1.875    3.500    6.000 
#    0.000    0.000    0.000    0.000    0.000    0.000 
#    0.000    0.000    0.000    0.000    0.000    0.000 
#
# Total GULP energy -89589.230325 kJ/mol
# GULP energy per Si atom -5599.326895 kJ/mol
# Density = 2.573556 g / cm^3
# Si number density = 25.794270 Si / 1000 Ang^3
#
#
#
# Elastic Constant Matrix: (Units=GPa)
#
#
# Indices 1 2 3 4 5 6 
#
# 1 101.7626 12.1841 36.7274 -8.0896 -2.2812 -20.1844
# 2 12.1841 90.3684 19.0941 -4.5017 0.3139 -13.3974
# 3 36.7274 19.0941 161.8805 -20.5527 -9.3844 -5.4876
# 4 -8.0896 -4.5017 -20.5527 35.8783 0.9214 1.4324
# 5 -2.2812 0.3139 -9.3844 0.9214 46.3331 -3.2113
# 6 -20.1844 -13.3974 -5.4876 1.4324 -3.2113 39.9340
#
#
#
# Elastic Compliance Matrix: (Units=1/GPa)
#
#
# Indices 1 2 3 4 5 6 
#
# 1 0.011903 -0.000229 -0.002316 0.001091 0.000486 0.005621
# 2 -0.000229 0.011920 -0.001152 0.000638 -0.000082 0.003695
# 3 -0.002316 -0.001152 0.007341 0.003529 0.001271 -0.000573
# 4 0.001091 0.000638 0.003529 0.030208 0.000176 0.000181
# 5 0.000486 -0.000082 0.001271 0.000176 0.022011 0.002157
# 6 0.005621 0.003695 -0.000573 0.000181 0.002157 0.029210
#
#
# Mechanical properties :
#
#
# Convention : Reuss Voigt Hill
#
# Bulk Modulus (GPa) = 42.07336 54.44697 48.26016
# Shear Modulus (GPa) = 39.08960 43.49616 41.29288
#
# Velocity S-wave (km/s) = 3.89708 4.11088 4.00541
# Velocity P-wave (km/s) = 6.04948 6.60957 6.33572
#
# Compressibility (1/GPa) = 0.02376801
#
# Stress axis : x y z
#
# Youngs Moduli (GPa) = 84.01434 83.89147 136.21991
#
# Poissons Ratio (x) = 0.01925 0.31550
# Poissons Ratio (y) = 0.01928 0.15698
# Poissons Ratio (z) = 0.19459 0.09668
#
# Static dielectric constant tensor:
#      x y z
#    x 1.996230 0.041520 0.022740 
#    y 0.041520 2.094680 0.025840 
#    z 0.022740 0.025840 2.093480 
# 
# From -- ./inp_files/427592.got.cif
#   From: 2010.05.17/outbox.cif.g08.bks.cpg/sg2_214_cif.got.tgz:427592.got - 2010.06.03 11:33:40.
