data_PCOD9091746
_publ_section_title
;
Structure prediction by ZEFSAII (Michael W. Deem and Ramdas Pophale) SiO2 
 PCOD9091746
Probable space group: P -1
;
_chemical_formula_sum "Si O2"
_cell_formula_units_Z 16
_cell_length_a 8.244054
_cell_length_b 9.276919
_cell_length_c 16.155986
_cell_angle_alpha 40.101573
_cell_angle_beta 99.731606
_cell_angle_gamma 115.723127
_cell_volume 688.183395
_symmetry_space_group_name_H-M "P -1"
_symmetry_group_IT_number 2
_symmetry_cell_setting 'triclinic'
loop_
_space_group_symop_operation_xyz
x,y,z
-x,-y,-z
loop_
_atom_site_type_symbol
_atom_site_label
_atom_site_fract_x
_atom_site_fract_y
_atom_site_fract_z
Si Si1 0.983915 0.616136 0.153675
Si Si2 0.790904 0.579541 0.633033
Si Si3 0.878806 0.700514 0.285630
Si Si4 0.698220 0.048334 0.797219
Si Si5 0.523000 0.351337 0.346221
Si Si6 0.347439 0.090986 0.962755
Si Si7 0.391834 0.808851 0.743937
Si Si8 0.297621 0.241198 0.601390
O O1 0.062298 0.439120 0.282923
O O2 0.925016 0.727238 0.179168
O O3 0.802917 0.453910 0.154985
O O4 0.153601 0.851678 0.020374
O O5 0.665531 0.280972 0.726287
O O6 0.674841 0.709328 0.605338
O O7 0.846893 0.716801 0.488726
O O8 0.699076 0.412729 0.395500
O O9 0.790437 0.823541 0.286239
O O10 0.092283 0.800489 0.289188
O O11 0.681854 0.896564 0.946833
O O12 0.550327 0.862338 0.801003
O O13 0.529595 0.185438 0.343868
O O14 0.579684 0.635116 0.191226
O O15 0.500000 0.000000 0.000000
O O16 0.333559 0.022594 0.664197
O O17 0.500000 0.500000 0.500000
#
# Coordination Sequence:
#
# PCOD9091746 Si02
#       8
#     2   2   2   2   2   2   2   2
#     4   9  22  41  63  96 120 157 208 253 301 367
#     4  10  20  40  66  87 123 165 206 243 308 372
#     4   9  21  38  62  87 119 163 206 242 301 370
#     4  10  21  40  62  92 122 159 206 251 299 368
#     4  11  20  39  65  91 124 158 199 259 299 365
#     4  10  19  39  73  88 118 168 200 235 317 375
#     4  11  25  39  58  94 131 151 210 261 297 351
#     4  12  22  40  65  89 119 172 204 250 311 358
#
# _framework density 23.249614999999999
#
# number of rings (size 3 to 8) (size 9 to 14) (size 15 to 20)
#    0.000    2.000    5.000    0.000    0.000    9.000 
#    0.000    0.625    0.000    0.000    0.000    0.000 
#    0.000    0.000    0.000    0.000    0.000    0.000 
#
# Total GULP energy -89118.181917 kJ/mol
# GULP energy per Si atom -5569.886370 kJ/mol
# Density = 2.319670 g / cm^3
# Si number density = 23.249615 Si / 1000 Ang^3
#
#
#
# Elastic Constant Matrix: (Units=GPa)
#
#
# Indices 1 2 3 4 5 6 
#
# 1 119.1939 59.2689 24.6219 -4.4365 -22.0664 -7.1865
# 2 59.2689 147.4571 25.0077 -9.8123 -16.6253 6.5336
# 3 24.6219 25.0077 64.2480 1.7343 -4.3134 -8.2905
# 4 -4.4365 -9.8123 1.7343 27.8949 -1.8507 -5.1781
# 5 -22.0664 -16.6253 -4.3134 -1.8507 28.7175 6.5430
# 6 -7.1865 6.5336 -8.2905 -5.1781 6.5430 58.9065
#
#
#
# Elastic Compliance Matrix: (Units=1/GPa)
#
#
# Indices 1 2 3 4 5 6 
#
# 1 0.012076 -0.003583 -0.002710 0.001435 0.006692 0.000872
# 2 -0.003583 0.009193 -0.002328 0.002649 0.002815 -0.001864
# 3 -0.002710 -0.002328 0.017778 -0.002003 -0.001439 0.002414
# 4 0.001435 0.002649 -0.002003 0.037870 0.004215 0.002460
# 5 0.006692 0.002815 -0.001439 0.004215 0.042573 -0.004057
# 6 0.000872 -0.001864 0.002414 0.002460 -0.004057 0.018296
#
#
# Mechanical properties :
#
#
# Convention : Reuss Voigt Hill
#
# Bulk Modulus (GPa) = 45.86202 60.96623 53.41412
# Shear Modulus (GPa) = 30.80784 37.90381 34.35582
#
# Velocity S-wave (km/s) = 3.64413 4.04208 3.84825
# Velocity P-wave (km/s) = 6.12168 6.93281 6.53983
#
# Compressibility (1/GPa) = 0.02180454
#
# Stress axis : x y z
#
# Youngs Moduli (GPa) = 82.80960 108.78054 56.24790
#
# Poissons Ratio (x) = 0.38975 0.15244
# Poissons Ratio (y) = 0.29670 0.13096
# Poissons Ratio (z) = 0.22443 0.25326
#
# Static dielectric constant tensor:
#      x y z
#    x 2.008950 0.083530 0.058060 
#    y 0.083530 1.900590 0.041530 
#    z 0.058060 0.041530 1.984070 
# 
# From -- ./inp_files/556867.got.cif
#   From: 2010.05.17/outbox.cif.g08.bks.cpg/sg2_279_cif.got.tgz:556867.got - 2010.06.03 11:33:40.
