data_PCOD9091395
_publ_section_title
;
Structure prediction by ZEFSAII (Michael W. Deem and Ramdas Pophale) SiO2 
 PCOD9091395
Probable space group: P -1
;
_chemical_formula_sum "Si O2"
_cell_formula_units_Z 14
_cell_length_a 22.969293
_cell_length_b 10.915871
_cell_length_c 18.948445
_cell_angle_alpha 155.962500
_cell_angle_beta 18.763244
_cell_angle_gamma 149.184406
_cell_volume 621.843869
_symmetry_space_group_name_H-M "P -1"
_symmetry_group_IT_number 2
_symmetry_cell_setting 'triclinic'
loop_
_space_group_symop_operation_xyz
x,y,z
-x,-y,-z
loop_
_atom_site_type_symbol
_atom_site_label
_atom_site_fract_x
_atom_site_fract_y
_atom_site_fract_z
Si Si1 0.761217 0.276004 0.288602
Si Si2 0.161663 0.065617 0.192843
Si Si3 0.957638 0.319962 0.752046
Si Si4 0.099217 0.065207 0.690820
Si Si5 0.328404 0.660065 0.320517
Si Si6 0.630526 0.407642 0.367128
Si Si7 0.788949 0.905874 0.192520
O O1 0.606906 0.395419 0.473385
O O2 0.855127 0.532194 0.362024
O O3 0.715427 0.011611 0.256197
O O4 0.931224 0.158254 0.983272
O O5 0.213247 0.378323 0.330726
O O6 0.147058 0.785924 0.114440
O O7 0.977632 0.086691 0.370730
O O8 0.313656 0.938388 0.897314
O O9 0.825548 0.555917 0.986075
O O10 0.000000 0.000000 0.500000
O O11 0.209074 0.356757 0.698948
O O12 0.223864 0.833749 0.469230
O O13 0.321322 0.902181 0.519755
O O14 0.500000 0.500000 0.000000
O O15 0.500000 0.500000 0.500000
O O16 0.000000 0.000000 0.000000
#
# Coordination Sequence:
#
# PCOD9091395 Si02
#       7
#     2   2   2   2   2   2   2
#     4  10  19  39  65  97 131 171 229 274 326 407
#     4  11  21  37  62  94 125 175 235 272 329 407
#     4  11  20  35  67 101 123 165 230 284 327 391
#     4  11  20  40  63  91 133 173 231 285 324 405
#     4  12  24  39  64  99 140 176 220 281 346 400
#     4  11  21  38  65  95 137 177 219 282 347 390
#     4  10  20  40  66  95 137 177 219 284 332 401
#
# _framework density 22.513691000000001
#
# number of rings (size 3 to 8) (size 9 to 14) (size 15 to 20)
#    0.000    1.143    5.714    3.857    0.000    0.000 
#    0.000    0.000    3.143   12.857    0.000    0.000 
#    0.000    0.000    0.000    0.000    0.000    0.000 
#
# Total GULP energy -78066.239583 kJ/mol
# GULP energy per Si atom -5576.159970 kJ/mol
# Density = 2.246245 g / cm^3
# Si number density = 22.513691 Si / 1000 Ang^3
#
#
#
# Elastic Constant Matrix: (Units=GPa)
#
#
# Indices 1 2 3 4 5 6 
#
# 1 158.6732 46.4753 54.4364 12.9369 -34.7225 -18.5490
# 2 46.4753 83.2703 30.1107 23.8029 -11.2124 -5.8503
# 3 54.4364 30.1107 104.0052 10.2748 -13.9796 2.6794
# 4 12.9369 23.8029 10.2748 42.1674 -5.4335 -3.4936
# 5 -34.7225 -11.2124 -13.9796 -5.4335 36.3315 11.0509
# 6 -18.5490 -5.8503 2.6794 -3.4936 11.0509 41.7334
#
#
#
# Elastic Compliance Matrix: (Units=1/GPa)
#
#
# Indices 1 2 3 4 5 6 
#
# 1 0.010285 -0.003596 -0.003594 0.000825 0.006669 0.002601
# 2 -0.003596 0.017132 -0.002345 -0.008011 -0.000365 0.000380
# 3 -0.003594 -0.002345 0.012532 -0.000694 0.001531 -0.003194
# 4 0.000825 -0.008011 -0.000694 0.028502 0.001960 0.001155
# 5 0.006669 -0.000365 0.001531 0.001960 0.036719 -0.006744
# 6 0.002601 0.000380 -0.003194 0.001155 -0.006744 0.027259
#
#
# Mechanical properties :
#
#
# Convention : Reuss Voigt Hill
#
# Bulk Modulus (GPa) = 47.89766 67.55483 57.72624
# Shear Modulus (GPa) = 31.55448 38.37488 34.96468
#
# Velocity S-wave (km/s) = 3.74781 4.13305 3.94514
# Velocity P-wave (km/s) = 6.32845 7.26962 6.81530
#
# Compressibility (1/GPa) = 0.02087785
#
# Stress axis : x y z
#
# Youngs Moduli (GPa) = 97.23299 58.37199 79.79727
#
# Poissons Ratio (x) = 0.20988 0.28680
# Poissons Ratio (y) = 0.34961 0.18715
# Poissons Ratio (z) = 0.34947 0.13690
#
# Static dielectric constant tensor:
#      x y z
#    x 1.954250 -0.021850 0.050850 
#    y -0.021850 1.940020 -0.076520 
#    z 0.050850 -0.076520 1.927850 
# 
# From -- ./inp_files/602089.got.cif
#   From: 2010.05.17/outbox.cif.g08.bks.cpg/sg2_302_cif.got.tgz:602089.got - 2010.06.03 11:33:40.
