data_PCOD9091548
_publ_section_title
;
Structure prediction by ZEFSAII (Michael W. Deem and Ramdas Pophale) SiO2 
 PCOD9091548
Probable space group: P -1
;
_chemical_formula_sum "Si O2"
_cell_formula_units_Z 16
_cell_length_a 8.168171
_cell_length_b 12.495098
_cell_length_c 8.921546
_cell_angle_alpha 100.879363
_cell_angle_beta 73.700859
_cell_angle_gamma 76.474179
_cell_volume 817.537161
_symmetry_space_group_name_H-M "P -1"
_symmetry_group_IT_number 2
_symmetry_cell_setting 'triclinic'
loop_
_space_group_symop_operation_xyz
x,y,z
-x,-y,-z
loop_
_atom_site_type_symbol
_atom_site_label
_atom_site_fract_x
_atom_site_fract_y
_atom_site_fract_z
Si Si1 0.727747 0.776251 0.410459
Si Si2 0.488029 0.336325 0.332985
Si Si3 0.173904 0.766279 0.589225
Si Si4 0.132115 0.051381 0.384907
Si Si5 0.055891 0.582050 0.124786
Si Si6 0.589487 0.170662 0.706513
Si Si7 0.165352 0.534611 0.403207
Si Si8 0.591396 0.366759 0.987967
O O1 0.621595 0.729750 0.555795
O O2 0.801784 0.868430 0.497057
O O3 0.594504 0.830620 0.322368
O O4 0.883241 0.673415 0.267120
O O5 0.689808 0.297137 0.333810
O O6 0.355227 0.466487 0.409831
O O7 0.512630 0.324320 0.144771
O O8 0.291320 0.818570 0.464060
O O9 0.129147 0.667230 0.480307
O O10 0.988907 0.866638 0.689689
O O11 0.699491 0.055397 0.733319
O O12 0.000000 0.000000 0.500000
O O13 0.159300 0.511763 0.222571
O O14 0.199835 0.641035 0.040806
O O15 0.000000 0.500000 0.000000
O O16 0.570967 0.283716 0.838193
O O17 0.000000 0.500000 0.500000
O O18 0.500000 0.500000 0.000000
#
# Coordination Sequence:
#
# PCOD9091548 Si02
#       8
#     2   2   2   2   2   2   2   2
#     4  11  22  42  62  94 122 160 211 250 306 375
#     4  11  24  37  63  88 125 168 206 247 312 367
#     4  10  20  38  58  89 120 163 209 252 299 370
#     4  10  19  39  67  92 119 157 209 261 301 360
#     4  12  24  37  58  91 128 160 203 251 308 363
#     4  10  21  38  66  89 118 162 207 258 305 357
#     4  12  21  37  59  87 127 163 205 248 309 369
#     4  12  23  42  60  93 129 164 202 254 311 366
#
# _framework density 19.570976999999999
#
# number of rings (size 3 to 8) (size 9 to 14) (size 15 to 20)
#    0.000    1.000    5.000    2.250    1.750    2.000 
#    0.000    1.250    0.000    0.000    0.000    0.000 
#    0.000    0.000    0.000    0.000    0.000    0.000 
#
# Total GULP energy -89143.751228 kJ/mol
# GULP energy per Si atom -5571.484452 kJ/mol
# Density = 1.952643 g / cm^3
# Si number density = 19.570977 Si / 1000 Ang^3
#
#
#
# Elastic Constant Matrix: (Units=GPa)
#
#
# Indices 1 2 3 4 5 6 
#
# 1 114.1256 57.5136 24.9699 9.5409 2.8637 -17.5126
# 2 57.5136 101.9377 27.2339 16.2080 16.1420 -28.4087
# 3 24.9699 27.2339 67.5735 3.3062 -6.4066 -6.1766
# 4 9.5409 16.2080 3.3062 23.3322 4.5056 1.9643
# 5 2.8637 16.1420 -6.4066 4.5056 27.6846 -3.2794
# 6 -17.5126 -28.4087 -6.1766 1.9643 -3.2794 46.1926
#
#
#
# Elastic Compliance Matrix: (Units=1/GPa)
#
#
# Indices 1 2 3 4 5 6 
#
# 1 0.012636 -0.006813 -0.001597 -0.000738 0.002486 0.000595
# 2 -0.006813 0.020824 -0.005511 -0.009734 -0.010040 0.009188
# 3 -0.001597 -0.005511 0.018183 0.000572 0.007367 -0.001065
# 4 -0.000738 -0.009734 0.000572 0.051238 -0.003475 -0.008615
# 5 0.002486 -0.010040 0.007367 -0.003475 0.043872 -0.000985
# 6 0.000595 0.009188 -0.001065 -0.008615 -0.000985 0.027679
#
#
# Mechanical properties :
#
#
# Convention : Reuss Voigt Hill
#
# Bulk Modulus (GPa) = 42.01519 55.89684 48.95601
# Shear Modulus (GPa) = 23.78593 31.03651 27.41122
#
# Velocity S-wave (km/s) = 3.48999 3.98659 3.74653
# Velocity P-wave (km/s) = 6.14449 7.05787 6.61696
#
# Compressibility (1/GPa) = 0.02380092
#
# Stress axis : x y z
#
# Youngs Moduli (GPa) = 79.14073 48.02054 54.99606
#
# Poissons Ratio (x) = 0.32717 0.08784
# Poissons Ratio (y) = 0.53919 0.30308
# Poissons Ratio (z) = 0.12640 0.26464
#
# Static dielectric constant tensor:
#      x y z
#    x 1.741050 -0.063500 -0.035720 
#    y -0.063500 1.716380 -0.005960 
#    z -0.035720 -0.005960 1.686810 
# 
# From -- ./inp_files/187398.got.cif
#   From: 2010.05.17/outbox.cif.g08.bks.cpg/sg2_94_cif.got.tgz:187398.got - 2010.06.03 11:33:40.
