data_PCOD9091049
_publ_section_title
;
Structure prediction by ZEFSAII (Michael W. Deem and Ramdas Pophale) SiO2 
 PCOD9091049
Probable space group: P -1
;
_chemical_formula_sum "Si O2"
_cell_formula_units_Z 14
_cell_length_a 7.827817
_cell_length_b 15.822209
_cell_length_c 5.110758
_cell_angle_alpha 111.503989
_cell_angle_beta 75.410259
_cell_angle_gamma 86.542099
_cell_volume 561.682824
_symmetry_space_group_name_H-M "P -1"
_symmetry_group_IT_number 2
_symmetry_cell_setting 'triclinic'
loop_
_space_group_symop_operation_xyz
x,y,z
-x,-y,-z
loop_
_atom_site_type_symbol
_atom_site_label
_atom_site_fract_x
_atom_site_fract_y
_atom_site_fract_z
Si Si1 0.424016 0.732027 0.452120
Si Si2 0.309389 0.442770 0.793739
Si Si3 0.217407 0.790093 0.111008
Si Si4 0.043397 0.304139 0.589858
Si Si5 0.181764 0.543004 0.462860
Si Si6 0.362871 0.963753 0.310673
Si Si7 0.672816 0.853971 0.707223
O O1 0.512173 0.631049 0.401506
O O2 0.363232 0.729736 0.175322
O O3 0.579969 0.795063 0.467182
O O4 0.278921 0.779110 0.774695
O O5 0.150384 0.381641 0.748727
O O6 0.270120 0.524521 0.690940
O O7 0.301551 0.483011 0.131572
O O8 0.227099 0.892816 0.334925
O O9 0.040619 0.749952 0.209162
O O10 0.181163 0.223419 0.303785
O O11 0.891110 0.357379 0.518923
O O12 0.000000 0.500000 0.500000
O O13 0.500000 0.000000 0.500000
O O14 0.256663 0.057944 0.336253
O O15 0.507471 0.902228 0.998554
#
# Coordination Sequence:
#
# PCOD9091049 Si02
#       7
#     2   2   2   2   2   2   2
#     4  10  21  40  60  88 117 163 203 233 292 355
#     4  10  21  40  66  84 115 165 208 234 280 360
#     4  11  23  38  60  90 127 150 190 258 297 339
#     4  10  22  39  58  92 120 153 193 250 304 338
#     4  10  20  38  61  89 120 156 199 246 287 349
#     4  10  19  39  63  85 113 158 203 236 289 360
#     4   9  20  39  63  83 116 158 203 237 286 367
#
# _framework density 24.925098999999999
#
# number of rings (size 3 to 8) (size 9 to 14) (size 15 to 20)
#    0.000    2.000    1.429    2.571    0.000    5.143 
#    5.143    5.000    0.000    0.000    0.000    0.000 
#    0.000    0.000    0.000    0.000    0.000    0.000 
#
# Total GULP energy -78228.564979 kJ/mol
# GULP energy per Si atom -5587.754641 kJ/mol
# Density = 2.486837 g / cm^3
# Si number density = 24.925099 Si / 1000 Ang^3
#
#
#
# Elastic Constant Matrix: (Units=GPa)
#
#
# Indices 1 2 3 4 5 6 
#
# 1 48.0021 23.4394 9.5932 10.5761 4.4785 15.6080
# 2 23.4394 151.9494 23.6927 10.2786 -6.6495 20.7751
# 3 9.5932 23.6927 73.5249 8.5085 5.4019 -0.7230
# 4 10.5761 10.2786 8.5085 39.1778 -0.8162 -4.9383
# 5 4.4785 -6.6495 5.4019 -0.8162 32.8870 4.0648
# 6 15.6080 20.7751 -0.7230 -4.9383 4.0648 47.5598
#
#
#
# Elastic Compliance Matrix: (Units=1/GPa)
#
#
# Indices 1 2 3 4 5 6 
#
# 1 0.026968 -0.002377 -0.001758 -0.007390 -0.003016 -0.008349
# 2 -0.002377 0.007934 -0.002325 -0.001268 0.002659 -0.003080
# 3 -0.001758 -0.002325 0.015050 -0.002010 -0.002984 0.001868
# 4 -0.007390 -0.001268 -0.002010 0.029051 0.001075 0.005873
# 5 -0.003016 0.002659 -0.002984 0.001075 0.032226 -0.002860
# 6 -0.008349 -0.003080 0.001868 0.005873 -0.002860 0.025994
#
#
# Mechanical properties :
#
#
# Convention : Reuss Voigt Hill
#
# Bulk Modulus (GPa) = 27.00411 42.99191 34.99801
# Shear Modulus (GPa) = 30.77172 38.37499 34.57336
#
# Velocity S-wave (km/s) = 3.51745 3.92805 3.72841
# Velocity P-wave (km/s) = 5.23013 6.15294 5.71020
#
# Compressibility (1/GPa) = 0.03703140
#
# Stress axis : x y z
#
# Youngs Moduli (GPa) = 37.08039 126.04747 66.44606
#
# Poissons Ratio (x) = 0.29956 0.11683
# Poissons Ratio (y) = 0.08812 0.15451
# Poissons Ratio (z) = 0.06520 0.29311
#
# Static dielectric constant tensor:
#      x y z
#    x 2.075590 0.063430 -0.021470 
#    y 0.063430 2.049170 -0.022350 
#    z -0.021470 -0.022350 1.935280 
# 
# From -- ./inp_files/39608.got.cif
#   From: 2010.05.17/outbox.cif.g08.bks.cpg/sg2_20_cif.got.tgz:39608.got - 2010.06.03 11:33:40.
