data_PCOD9091777
_publ_section_title
;
Structure prediction by ZEFSAII (Michael W. Deem and Ramdas Pophale) SiO2 
 PCOD9091777
Probable space group: P -1
;
_chemical_formula_sum "Si O2"
_cell_formula_units_Z 16
_cell_length_a 15.637401
_cell_length_b 12.195850
_cell_length_c 15.614832
_cell_angle_alpha 135.862691
_cell_angle_beta 153.580989
_cell_angle_gamma 61.561344
_cell_volume 778.135866
_symmetry_space_group_name_H-M "P -1"
_symmetry_group_IT_number 2
_symmetry_cell_setting 'triclinic'
loop_
_space_group_symop_operation_xyz
x,y,z
-x,-y,-z
loop_
_atom_site_type_symbol
_atom_site_label
_atom_site_fract_x
_atom_site_fract_y
_atom_site_fract_z
Si Si1 0.594031 0.289087 0.970290
Si Si2 0.395717 0.483073 0.137484
Si Si3 0.630993 0.998208 0.250677
Si Si4 0.781922 0.088570 0.261042
Si Si5 0.165563 0.523629 0.415093
Si Si6 0.796412 0.676628 0.313299
Si Si7 0.352778 0.805926 0.211526
Si Si8 0.025428 0.615512 0.171976
O O1 0.371640 0.300186 0.764519
O O2 0.604757 0.168572 0.837522
O O3 0.539734 0.188774 0.956033
O O4 0.799015 0.503260 0.259482
O O5 0.614681 0.479496 0.361204
O O6 0.446465 0.683765 0.266750
O O7 0.298633 0.375008 0.898851
O O8 0.201828 0.418542 0.001659
O O9 0.771610 0.000446 0.294839
O O10 0.805124 0.161430 0.560667
O O11 0.459873 0.041363 0.072998
O O12 0.830113 0.297982 0.438596
O O13 0.971526 0.129399 0.385310
O O14 0.149376 0.557215 0.319359
O O15 0.923302 0.329183 0.105012
O O16 0.500000 0.000000 0.500000
O O17 0.000000 0.500000 0.000000
#
# Coordination Sequence:
#
# PCOD9091777 Si02
#       8
#     2   2   2   2   2   2   2   2
#     4  10  21  36  59  90 119 162 207 254 312 364
#     4  10  20  40  65  88 117 169 209 252 321 370
#     4  10  21  36  59  90 119 162 207 254 312 364
#     4  10  19  40  59  90 127 158 204 259 320 375
#     4  10  20  40  65  88 117 169 209 252 321 370
#     4  10  19  40  59  90 127 158 204 259 320 375
#     4  10  22  41  61  88 127 165 209 258 308 371
#     4  10  22  41  61  88 127 165 209 258 308 371
#
# _framework density 20.561962999999999
#
# number of rings (size 3 to 8) (size 9 to 14) (size 15 to 20)
#    0.000    2.000    5.000    0.750    3.500    2.000 
#   13.500    1.250    0.000    0.000    0.000    0.000 
#    0.000    0.000    0.000    0.000    0.000    0.000 
#
# Total GULP energy -89077.761385 kJ/mol
# GULP energy per Si atom -5567.360087 kJ/mol
# Density = 2.051516 g / cm^3
# Si number density = 20.561963 Si / 1000 Ang^3
#
#
#
# Elastic Constant Matrix: (Units=GPa)
#
#
# Indices 1 2 3 4 5 6 
#
# 1 90.9732 19.6204 42.5331 7.5672 12.5469 16.7641
# 2 19.6204 75.1323 30.7843 -13.5374 10.5512 12.0716
# 3 42.5331 30.7843 97.1755 -0.6539 10.4986 3.3829
# 4 7.5672 -13.5374 -0.6539 32.4099 3.1648 10.1997
# 5 12.5469 10.5512 10.4986 3.1648 31.4595 9.7356
# 6 16.7641 12.0716 3.3829 10.1997 9.7356 27.9198
#
#
#
# Elastic Compliance Matrix: (Units=1/GPa)
#
#
# Indices 1 2 3 4 5 6 
#
# 1 0.015757 -0.000347 -0.006365 -0.001451 -0.001591 -0.007455
# 2 -0.000347 0.019981 -0.005436 0.012128 -0.002458 -0.011346
# 3 -0.006365 -0.005436 0.014816 -0.002135 -0.002201 0.005924
# 4 -0.001451 0.012128 -0.002135 0.042369 -0.001094 -0.019211
# 5 -0.001591 -0.002458 -0.002201 -0.001094 0.037283 -0.010316
# 6 -0.007455 -0.011346 0.005924 -0.019211 -0.010316 0.055096
#
#
# Mechanical properties :
#
#
# Convention : Reuss Voigt Hill
#
# Bulk Modulus (GPa) = 38.08387 49.90631 43.99509
# Shear Modulus (GPa) = 22.89904 29.71406 26.30655
#
# Velocity S-wave (km/s) = 3.34078 3.80557 3.58072
# Velocity P-wave (km/s) = 5.78297 6.60558 6.20792
#
# Compressibility (1/GPa) = 0.02625784
#
# Stress axis : x y z
#
# Youngs Moduli (GPa) = 63.46441 50.04759 67.49531
#
# Poissons Ratio (x) = 0.01737 0.42962
# Poissons Ratio (y) = 0.02202 0.36689
# Poissons Ratio (z) = 0.40396 0.27205
#
# Static dielectric constant tensor:
#      x y z
#    x 1.757340 -0.010990 0.055260 
#    y -0.010990 1.817510 0.004460 
#    z 0.055260 0.004460 1.783730 
# 
# From -- ./inp_files/475443.got.cif
#   From: 2010.05.17/outbox.cif.g08.bks.cpg/sg2_238_cif.got.tgz:475443.got - 2010.06.03 11:33:40.
