data_PCOD9091865
_publ_section_title
;
Structure prediction by ZEFSAII (Michael W. Deem and Ramdas Pophale) SiO2 
 PCOD9091865
Probable space group: P -1
;
_chemical_formula_sum "Si O2"
_cell_formula_units_Z 16
_cell_length_a 15.979036
_cell_length_b 12.654551
_cell_length_c 18.714723
_cell_angle_alpha 40.341771
_cell_angle_beta 157.483865
_cell_angle_gamma 152.066906
_cell_volume 647.414025
_symmetry_space_group_name_H-M "P -1"
_symmetry_group_IT_number 2
_symmetry_cell_setting 'triclinic'
loop_
_space_group_symop_operation_xyz
x,y,z
-x,-y,-z
loop_
_atom_site_type_symbol
_atom_site_label
_atom_site_fract_x
_atom_site_fract_y
_atom_site_fract_z
Si Si1 0.258268 0.283509 0.974097
Si Si2 0.868521 0.047082 0.530302
Si Si3 0.834564 0.087284 0.322258
Si Si4 0.424725 0.581414 0.498100
Si Si5 0.559027 0.824361 0.621701
Si Si6 0.253110 0.576396 0.103559
Si Si7 0.679237 0.226753 0.393986
Si Si8 0.598566 0.482008 0.890943
O O1 0.402175 0.190011 0.163047
O O2 0.237598 0.397671 0.965841
O O3 0.500000 0.500000 0.000000
O O4 0.931699 0.061851 0.793946
O O5 0.821465 0.113294 0.383370
O O6 0.755294 0.112102 0.466625
O O7 0.243751 0.210058 0.753552
O O8 0.631760 0.765812 0.501133
O O9 0.061144 0.329412 0.332934
O O10 0.494195 0.858948 0.142084
O O11 0.000000 0.000000 0.500000
O O12 0.425870 0.715153 0.494536
O O13 0.593554 0.507041 0.699030
O O14 0.397688 0.843794 0.547363
O O15 0.522319 0.623048 0.731372
O O16 0.185037 0.484011 0.016284
O O17 0.000000 0.500000 0.000000
O O18 0.000000 0.500000 0.500000
#
# Coordination Sequence:
#
# PCOD9091865 Si02
#       8
#     2   2   2   2   2   2   2   2
#     4  11  23  40  63  93 137 174 210 262 332 389
#     4  12  21  38  68  93 127 168 218 267 317 383
#     4  10  20  42  64  88 125 166 207 273 323 373
#     4  10  22  40  66  95 128 171 212 261 334 380
#     4  10  20  39  62  89 137 169 204 263 326 378
#     4  10  22  42  71  88 126 170 215 274 330 381
#     4  11  21  38  64  93 124 172 222 261 310 384
#     4  10  19  40  62  90 128 168 209 271 324 374
#
# _framework density 24.713705000000001
#
# number of rings (size 3 to 8) (size 9 to 14) (size 15 to 20)
#    0.000    1.500    6.250    2.250    0.000    5.500 
#    2.250    0.625    5.500    0.000    0.000    0.000 
#    0.000    0.000    0.000    0.000    0.000    0.000 
#
# Total GULP energy -89452.697125 kJ/mol
# GULP energy per Si atom -5590.793570 kJ/mol
# Density = 2.465746 g / cm^3
# Si number density = 24.713705 Si / 1000 Ang^3
#
#
#
# Elastic Constant Matrix: (Units=GPa)
#
#
# Indices 1 2 3 4 5 6 
#
# 1 148.8685 24.2148 16.0442 3.8350 34.5134 -16.3222
# 2 24.2148 88.9544 28.6015 32.4337 7.5297 22.6735
# 3 16.0442 28.6015 62.3532 5.6628 15.8512 -3.5329
# 4 3.8350 32.4337 5.6628 50.6969 1.5990 2.3932
# 5 34.5134 7.5297 15.8512 1.5990 35.3241 1.7325
# 6 -16.3222 22.6735 -3.5329 2.3932 1.7325 45.9270
#
#
#
# Elastic Compliance Matrix: (Units=1/GPa)
#
#
# Indices 1 2 3 4 5 6 
#
# 1 0.010507 -0.005464 0.002713 0.002411 -0.010767 0.006921
# 2 -0.005464 0.024224 -0.010921 -0.013391 0.006382 -0.014284
# 3 0.002713 -0.010921 0.023344 0.004139 -0.011396 0.008366
# 4 0.002411 -0.013391 0.004139 0.027434 -0.002917 0.006467
# 5 -0.010767 0.006382 -0.011396 -0.002917 0.043172 -0.009331
# 6 0.006921 -0.014284 0.008366 0.006467 -0.009331 0.031943
#
#
# Mechanical properties :
#
#
# Convention : Reuss Voigt Hill
#
# Bulk Modulus (GPa) = 32.54099 48.65522 40.59810
# Shear Modulus (GPa) = 25.22559 41.81064 33.51812
#
# Velocity S-wave (km/s) = 3.19833 4.11761 3.68673
# Velocity P-wave (km/s) = 5.18023 6.50666 5.88096
#
# Compressibility (1/GPa) = 0.03073047
#
# Stress axis : x y z
#
# Youngs Moduli (GPa) = 95.17879 41.28206 42.83706
#
# Poissons Ratio (x) = 0.22557 -0.11622
# Poissons Ratio (y) = 0.52006 0.46783
# Poissons Ratio (z) = -0.25824 0.45085
#
# Static dielectric constant tensor:
#      x y z
#    x 2.097110 0.103450 -0.126340 
#    y 0.103450 2.129240 -0.095520 
#    z -0.126340 -0.095520 2.050230 
# 
# From -- ./inp_files/597995.got.cif
#   From: 2010.05.17/outbox.cif.g08.bks.cpg/sg2_299_cif.got.tgz:597995.got - 2010.06.03 11:33:40.
