data_PCOD9091053
_publ_section_title
;
Structure prediction by ZEFSAII (Michael W. Deem and Ramdas Pophale) SiO2 
 PCOD9091053
Probable space group: P -1
;
_chemical_formula_sum "Si O2"
_cell_formula_units_Z 16
_cell_length_a 11.076993
_cell_length_b 12.954285
_cell_length_c 9.852821
_cell_angle_alpha 117.640659
_cell_angle_beta 109.581742
_cell_angle_gamma 33.739343
_cell_volume 691.949087
_symmetry_space_group_name_H-M "P -1"
_symmetry_group_IT_number 2
_symmetry_cell_setting 'triclinic'
loop_
_space_group_symop_operation_xyz
x,y,z
-x,-y,-z
loop_
_atom_site_type_symbol
_atom_site_label
_atom_site_fract_x
_atom_site_fract_y
_atom_site_fract_z
Si Si1 0.129191 0.541155 0.786955
Si Si2 0.756049 0.669081 0.856957
Si Si3 0.946729 0.280404 0.676773
Si Si4 0.399930 0.896156 0.216102
Si Si5 0.073815 0.760239 0.656442
Si Si6 0.615350 0.947308 0.208850
Si Si7 0.191379 0.703224 0.105463
Si Si8 0.323287 0.743716 0.929856
O O1 0.376417 0.315356 0.763829
O O2 0.114273 0.619651 0.686353
O O3 0.951367 0.573858 0.775626
O O4 0.093194 0.665748 0.964852
O O5 0.811324 0.495035 0.803118
O O6 0.526257 0.856397 0.808716
O O7 0.732881 0.768128 0.041511
O O8 0.862203 0.308051 0.515252
O O9 0.925842 0.198600 0.735657
O O10 0.198322 0.133753 0.680113
O O11 0.443700 0.997303 0.259082
O O12 0.356317 0.856401 0.035000
O O13 0.187711 0.033713 0.309878
O O14 0.204047 0.773171 0.776945
O O15 0.442233 0.490748 0.108435
O O16 0.193534 0.799452 0.050533
#
# Coordination Sequence:
#
# PCOD9091053 Si02
#       8
#     2   2   2   2   2   2   2   2
#     4  10  19  39  63  85 124 160 210 248 296 367
#     4  11  21  38  63  94 122 165 207 252 307 365
#     4  12  24  40  63  93 136 162 194 261 324 369
#     4  11  21  40  66  89 124 166 214 257 299 366
#     4  11  25  39  59  97 127 165 208 251 314 375
#     4  11  23  38  65  99 123 160 214 253 303 380
#     4   9  19  39  66  91 116 161 212 258 305 363
#     4   9  20  40  68  90 116 164 216 263 298 359
#
# _framework density 23.123087000000002
#
# number of rings (size 3 to 8) (size 9 to 14) (size 15 to 20)
#    0.000    1.500    3.750    3.000    0.000    2.500 
#    0.000    1.875    0.000    0.000    0.000    0.000 
#    0.000    0.000    0.000    0.000    0.000    0.000 
#
# Total GULP energy -89487.631412 kJ/mol
# GULP energy per Si atom -5592.976963 kJ/mol
# Density = 2.307046 g / cm^3
# Si number density = 23.123087 Si / 1000 Ang^3
#
#
#
# Elastic Constant Matrix: (Units=GPa)
#
#
# Indices 1 2 3 4 5 6 
#
# 1 69.1144 1.4474 36.8900 -6.7340 -2.8574 -9.6226
# 2 1.4474 76.8926 25.7284 -11.4713 15.3087 -1.0522
# 3 36.8900 25.7284 95.8101 -41.5187 -8.7742 -1.0246
# 4 -6.7340 -11.4713 -41.5187 15.2942 -0.4188 -1.0117
# 5 -2.8574 15.3087 -8.7742 -0.4188 16.7206 -8.1128
# 6 -9.6226 -1.0522 -1.0246 -1.0117 -8.1128 17.4283
#
#
#
# Elastic Compliance Matrix: (Units=1/GPa)
#
#
# Indices 1 2 3 4 5 6 
#
# 1 0.017227 -0.001963 0.005230 0.022042 0.017265 0.019017
# 2 -0.001963 0.018635 0.003964 0.022930 -0.018037 -0.006791
# 3 0.005230 0.003964 -0.032619 -0.085312 -0.030751 -0.018058
# 4 0.022042 0.022930 -0.085312 -0.144218 -0.084644 -0.039235
# 5 0.017265 -0.018037 -0.030751 -0.084644 0.079894 0.038912
# 6 0.019017 -0.006791 -0.018058 -0.039235 0.038912 0.082242
#
#
# Mechanical properties :
#
#
# Convention : Reuss Voigt Hill
#
# Bulk Modulus (GPa) = 56.48221 41.10543 48.79382
# Shear Modulus (GPa) = 396.82886 21.73869 209.28378
#
# Velocity S-wave (km/s) = 13.11444 3.06948 9.52392
# Velocity P-wave (km/s) = 15.93103 5.51159 11.92005
#
# Compressibility (1/GPa) = 0.01770469
#
# Stress axis : x y z
#
# Youngs Moduli (GPa) = 58.04745 53.66304 -30.65660
#
# Poissons Ratio (x) = 0.10534 0.16034
# Poissons Ratio (y) = 0.11395 0.12152
# Poissons Ratio (z) = -0.30360 -0.21272
#
# Static dielectric constant tensor:
#      x y z
#    x 1.904810 0.008860 -0.013330 
#    y 0.008860 1.889480 0.011970 
#    z -0.013330 0.011970 1.839600 
# 
# From -- ./inp_files/273811.got.cif
#   From: 2010.05.17/outbox.cif.g08.bks.cpg/sg2_137_cif.got.tgz:273811.got - 2010.06.03 11:33:40.
