data_PCOD9091175
_publ_section_title
;
Structure prediction by ZEFSAII (Michael W. Deem and Ramdas Pophale) SiO2 
 PCOD9091175
Probable space group: P -1
;
_chemical_formula_sum "Si O2"
_cell_formula_units_Z 14
_cell_length_a 25.519276
_cell_length_b 5.045042
_cell_length_c 7.677557
_cell_angle_alpha 92.118649
_cell_angle_beta 36.747629
_cell_angle_gamma 78.298019
_cell_volume 544.487460
_symmetry_space_group_name_H-M "P -1"
_symmetry_group_IT_number 2
_symmetry_cell_setting 'triclinic'
loop_
_space_group_symop_operation_xyz
x,y,z
-x,-y,-z
loop_
_atom_site_type_symbol
_atom_site_label
_atom_site_fract_x
_atom_site_fract_y
_atom_site_fract_z
Si Si1 0.288134 0.524988 0.049629
Si Si2 0.148094 0.394167 0.204246
Si Si3 0.568305 0.732873 0.628298
Si Si4 0.526163 0.629014 0.255005
Si Si5 0.269003 0.431397 0.564596
Si Si6 0.949620 0.869073 0.768348
Si Si7 0.798105 0.014488 0.441075
O O1 0.219095 0.370503 0.170703
O O2 0.224594 0.835931 0.305923
O O3 0.348853 0.507901 0.713076
O O4 0.371050 0.375197 0.966091
O O5 0.135687 0.139864 0.125617
O O6 0.040166 0.572581 0.556767
O O7 0.192286 0.511248 0.928832
O O8 0.535469 0.041605 0.626593
O O9 0.488132 0.599836 0.845922
O O10 0.624991 0.749840 0.650786
O O11 0.500000 0.500000 0.500000
O O12 0.267732 0.727288 0.501115
O O13 0.227943 0.258410 0.536219
O O14 0.000000 0.000000 0.500000
O O15 0.901643 0.969796 0.086279
#
# Coordination Sequence:
#
# PCOD9091175 Si02
#       7
#     2   2   2   2   2   2   2
#     4  10  22  39  58  92 121 153 195 250 307 339
#     4   9  20  39  63  84 116 159 203 240 286 370
#     4  10  21  40  66  85 115 166 209 236 281 362
#     4  10  20  38  62  89 121 157 200 247 289 351
#     4  10  21  40  60  88 118 163 205 234 294 356
#     4  10  19  39  64  85 114 158 205 236 292 361
#     4  11  23  38  60  90 127 152 190 260 298 342
#
# _framework density 25.712250999999998
#
# number of rings (size 3 to 8) (size 9 to 14) (size 15 to 20)
#    0.000    2.000    1.429    2.571    0.000    4.000 
#    7.714    5.000    0.000    0.000    0.000    0.000 
#    0.000    0.000    0.000    0.000    0.000    0.000 
#
# Total GULP energy -78005.453122 kJ/mol
# GULP energy per Si atom -5571.818080 kJ/mol
# Density = 2.565373 g / cm^3
# Si number density = 25.712251 Si / 1000 Ang^3
#
#
#
# Elastic Constant Matrix: (Units=GPa)
#
#
# Indices 1 2 3 4 5 6 
#
# 1 112.4672 17.1526 38.2097 -9.3219 -12.4596 23.4825
# 2 17.1526 100.6619 31.5017 -5.9336 -2.7599 14.1812
# 3 38.2097 31.5017 122.0744 5.0952 6.3347 15.6566
# 4 -9.3219 -5.9336 5.0952 25.0137 11.4155 0.9200
# 5 -12.4596 -2.7599 6.3347 11.4155 42.8907 -7.9603
# 6 23.4825 14.1812 15.6566 0.9200 -7.9603 24.8369
#
#
#
# Elastic Compliance Matrix: (Units=1/GPa)
#
#
# Indices 1 2 3 4 5 6 
#
# 1 0.012494 0.000596 -0.003023 0.005435 0.000775 -0.010200
# 2 0.000596 0.011710 -0.002552 0.004172 -0.000938 -0.006096
# 3 -0.003023 -0.002552 0.010407 -0.002640 -0.002419 -0.002923
# 4 0.005435 0.004172 -0.002640 0.050043 -0.013304 -0.011974
# 5 0.000775 -0.000938 -0.002419 -0.013304 0.029469 0.011266
# 6 -0.010200 -0.006096 -0.002923 -0.011974 0.011266 0.059284
#
#
# Mechanical properties :
#
#
# Convention : Reuss Voigt Hill
#
# Bulk Modulus (GPa) = 40.56405 56.54794 48.55600
# Shear Modulus (GPa) = 26.09837 35.10423 30.60130
#
# Velocity S-wave (km/s) = 3.18939 3.69897 3.45359
# Velocity P-wave (km/s) = 5.41972 6.34693 5.90156
#
# Compressibility (1/GPa) = 0.02465237
#
# Stress axis : x y z
#
# Youngs Moduli (GPa) = 80.04054 85.39424 96.08827
#
# Poissons Ratio (x) = -0.05087 0.29049
# Poissons Ratio (y) = -0.04768 0.24521
# Poissons Ratio (z) = 0.24198 0.21792
#
# Static dielectric constant tensor:
#      x y z
#    x 2.131720 -0.027390 0.073890 
#    y -0.027390 2.059610 0.009340 
#    z 0.073890 0.009340 2.277100 
# 
# From -- ./inp_files/358222.got.cif
#   From: 2010.05.17/outbox.cif.g08.bks.cpg/sg2_180_cif.got.tgz:358222.got - 2010.06.03 11:33:40.
