data_PCOD9091709
_publ_section_title
;
Structure prediction by ZEFSAII (Michael W. Deem and Ramdas Pophale) SiO2 
 PCOD9091709
Probable space group: P -1
;
_chemical_formula_sum "Si O2"
_cell_formula_units_Z 12
_cell_length_a 9.166311
_cell_length_b 13.708677
_cell_length_c 7.022481
_cell_angle_alpha 38.712523
_cell_angle_beta 90.231893
_cell_angle_gamma 72.445329
_cell_volume 481.914119
_symmetry_space_group_name_H-M "P -1"
_symmetry_group_IT_number 2
_symmetry_cell_setting 'triclinic'
loop_
_space_group_symop_operation_xyz
x,y,z
-x,-y,-z
loop_
_atom_site_type_symbol
_atom_site_label
_atom_site_fract_x
_atom_site_fract_y
_atom_site_fract_z
Si Si1 0.467470 0.403762 0.471899
Si Si2 0.727252 0.793171 0.283261
Si Si3 0.921019 0.536159 0.196118
Si Si4 0.593732 0.811378 0.684710
Si Si5 0.290242 0.849240 0.417168
Si Si6 0.873369 0.325872 0.158021
O O1 0.500000 0.500000 0.500000
O O2 0.418541 0.245216 0.734792
O O3 0.640326 0.304061 0.508839
O O4 0.304506 0.546532 0.136026
O O5 0.690055 0.808823 0.489964
O O6 0.907310 0.627543 0.475516
O O7 0.728351 0.967842 0.941543
O O8 0.897557 0.433129 0.169652
O O9 0.727400 0.658516 0.054417
O O10 0.978831 0.688154 0.950712
O O11 0.444765 0.776561 0.674487
O O12 0.500000 0.000000 0.500000
O O13 0.130517 0.849506 0.507526
#
# Coordination Sequence:
#
# PCOD9091709 Si02
#       6
#     2   2   2   2   2   2
#     4  10  20  37  66  98 129 174 219 267 316 386
#     4  10  21  43  66  95 135 169 210 274 326 378
#     4  10  19  44  69  88 129 177 216 260 329 383
#     4  11  21  39  70  97 123 172 221 268 318 383
#     4  11  23  38  63 102 130 166 219 271 322 383
#     4  10  19  39  70  88 124 176 216 255 330 383
#
# _framework density 24.900700000000001
#
# number of rings (size 3 to 8) (size 9 to 14) (size 15 to 20)
#    0.000    1.667    6.667    2.500    0.000    3.333 
#    0.000    1.667   11.000    3.000    0.000    0.000 
#    0.000    0.000    0.000    0.000    0.000    0.000 
#
# Total GULP energy -66929.413985 kJ/mol
# GULP energy per Si atom -5577.451165 kJ/mol
# Density = 2.484403 g / cm^3
# Si number density = 24.900700 Si / 1000 Ang^3
#
#
#
# Elastic Constant Matrix: (Units=GPa)
#
#
# Indices 1 2 3 4 5 6 
#
# 1 108.8191 33.7341 67.1123 -4.9498 -16.3470 16.0497
# 2 33.7341 90.2160 28.8269 -14.2709 -5.4908 1.3709
# 3 67.1123 28.8269 83.7062 -10.6775 -18.6669 23.6813
# 4 -4.9498 -14.2709 -10.6775 30.7492 -2.3263 3.7329
# 5 -16.3470 -5.4908 -18.6669 -2.3263 57.3988 -8.9540
# 6 16.0497 1.3709 23.6813 3.7329 -8.9540 38.7466
#
#
#
# Elastic Compliance Matrix: (Units=1/GPa)
#
#
# Indices 1 2 3 4 5 6 
#
# 1 0.019093 -0.002861 -0.015287 -0.003777 0.000348 0.001980
# 2 -0.002861 0.013617 -0.002170 0.004928 0.000233 0.001609
# 3 -0.015287 -0.002170 0.030346 0.008826 0.003775 -0.012116
# 4 -0.003777 0.004928 0.008826 0.038329 0.002717 -0.007069
# 5 0.000348 0.000233 0.003775 0.002717 0.019147 0.001703
# 6 0.001980 0.001609 -0.012116 -0.007069 0.001703 0.033411
#
#
# Mechanical properties :
#
#
# Convention : Reuss Voigt Hill
#
# Bulk Modulus (GPa) = 44.60431 60.23199 52.41815
# Shear Modulus (GPa) = 24.74609 35.58346 30.16477
#
# Velocity S-wave (km/s) = 3.15586 3.78433 3.48430
# Velocity P-wave (km/s) = 5.58848 6.58303 6.10604
#
# Compressibility (1/GPa) = 0.02241936
#
# Stress axis : x y z
#
# Youngs Moduli (GPa) = 52.37540 73.43751 32.95348
#
# Poissons Ratio (x) = 0.21010 0.50376
# Poissons Ratio (y) = 0.14985 0.07152
# Poissons Ratio (z) = 0.80066 0.15938
#
# Static dielectric constant tensor:
#      x y z
#    x 1.943590 -0.083390 -0.050460 
#    y -0.083390 2.122120 0.113980 
#    z -0.050460 0.113980 2.078690 
# 
# From -- ./inp_files/198830.got.cif
#   From: 2010.05.17/outbox.cif.g08.bks.cpg/sg2_100_cif.got.tgz:198830.got - 2010.06.03 11:33:40.
