data_PCOD9091859
_publ_section_title
;
Structure prediction by ZEFSAII (Michael W. Deem and Ramdas Pophale) SiO2 
 PCOD9091859
Probable space group: P -1
;
_chemical_formula_sum "Si O2"
_cell_formula_units_Z 16
_cell_length_a 15.644124
_cell_length_b 31.320000
_cell_length_c 9.738827
_cell_angle_alpha 35.573978
_cell_angle_beta 43.737685
_cell_angle_gamma 18.583732
_cell_volume 853.949219
_symmetry_space_group_name_H-M "P -1"
_symmetry_group_IT_number 2
_symmetry_cell_setting 'triclinic'
loop_
_space_group_symop_operation_xyz
x,y,z
-x,-y,-z
loop_
_atom_site_type_symbol
_atom_site_label
_atom_site_fract_x
_atom_site_fract_y
_atom_site_fract_z
Si Si1 0.060981 0.003076 0.069678
Si Si2 0.206177 0.186478 0.180482
Si Si3 0.089172 0.506592 0.190824
Si Si4 0.503555 0.632773 0.113496
Si Si5 0.289765 0.603638 0.321330
Si Si6 0.205614 0.091463 0.703069
Si Si7 0.776740 0.395210 0.908294
Si Si8 0.629644 0.643638 0.458616
O O1 0.192086 0.014357 0.877730
O O2 0.773405 0.172573 0.042441
O O3 0.305987 0.827942 0.318555
O O4 0.000000 0.000000 0.000000
O O5 0.203914 0.137222 0.445430
O O6 0.528081 0.033434 0.185567
O O7 0.060239 0.339861 0.988508
O O8 0.033509 0.243882 0.106934
O O9 0.296661 0.374803 0.420246
O O10 0.842409 0.577829 0.288772
O O11 0.260340 0.438559 0.033896
O O12 0.468100 0.584719 0.168691
O O13 0.567709 0.548012 0.395432
O O14 0.165846 0.657806 0.174938
O O15 0.059273 0.743995 0.333938
O O16 0.706820 0.518255 0.675027
O O17 0.500000 0.500000 0.000000
#
# Coordination Sequence:
#
# PCOD9091859 Si02
#       8
#     2   2   2   2   2   2   2   2
#     4  11  23  38  59  91 125 158 199 257 303 359
#     4  10  20  38  62  91 120 164 204 248 303 362
#     4  10  19  40  62  88 117 165 205 243 295 375
#     4  10  21  37  64  89 124 161 205 246 304 362
#     4  10  20  37  61  93 122 160 207 252 296 359
#     4  10  21  38  65  86 122 166 205 245 302 368
#     4  11  24  38  64  92 121 157 206 259 304 359
#     4  10  22  38  63  85 125 161 199 245 311 360
#
# _framework density 18.736478999999999
#
# number of rings (size 3 to 8) (size 9 to 14) (size 15 to 20)
#    0.000    1.750    2.500    2.250    5.250    1.000 
#    0.000    5.000    0.000    0.000    0.000    0.000 
#    0.000    0.000    0.000    0.000    0.000    0.000 
#
# Total GULP energy -89188.009740 kJ/mol
# GULP energy per Si atom -5574.250609 kJ/mol
# Density = 1.869383 g / cm^3
# Si number density = 18.736479 Si / 1000 Ang^3
#
#
#
# Elastic Constant Matrix: (Units=GPa)
#
#
# Indices 1 2 3 4 5 6 
#
# 1 79.1416 17.1991 14.1601 3.1954 18.5715 -8.9050
# 2 17.1991 75.0609 22.9197 0.0484 4.0708 -13.8765
# 3 14.1601 22.9197 49.3608 -5.4788 15.3308 -3.9070
# 4 3.1954 0.0484 -5.4788 33.1840 -13.8146 -2.4603
# 5 18.5715 4.0708 15.3308 -13.8146 30.8102 -4.0273
# 6 -8.9050 -13.8765 -3.9070 -2.4603 -4.0273 24.1246
#
#
#
# Elastic Compliance Matrix: (Units=1/GPa)
#
#
# Indices 1 2 3 4 5 6 
#
# 1 0.016621 -0.002716 -0.000296 -0.006606 -0.012238 0.001808
# 2 -0.002716 0.017838 -0.008260 0.001770 0.005360 0.008996
# 3 -0.000296 -0.008260 0.028049 -0.001177 -0.013568 -0.002703
# 4 -0.006606 0.001770 -0.001177 0.040833 0.023489 0.006474
# 5 -0.012238 0.005360 -0.013568 0.023489 0.057501 0.008363
# 6 0.001808 0.008996 -0.002703 0.006474 0.008363 0.048912
#
#
# Mechanical properties :
#
#
# Convention : Reuss Voigt Hill
#
# Bulk Modulus (GPa) = 25.02247 34.68015 29.85131
# Shear Modulus (GPa) = 20.35680 27.57605 23.96643
#
# Velocity S-wave (km/s) = 3.29975 3.84055 3.58038
# Velocity P-wave (km/s) = 5.28221 6.18191 5.74969
#
# Compressibility (1/GPa) = 0.03996408
#
# Stress axis : x y z
#
# Youngs Moduli (GPa) = 60.16586 56.05974 35.65232
#
# Poissons Ratio (x) = 0.15224 0.01056
# Poissons Ratio (y) = 0.16339 0.29448
# Poissons Ratio (z) = 0.01782 0.46304
#
# Static dielectric constant tensor:
#      x y z
#    x 1.660450 -0.044190 0.014270 
#    y -0.044190 1.661090 0.006480 
#    z 0.014270 0.006480 1.673970 
# 
# From -- ./inp_files/321036.got.cif
#   From: 2010.05.17/outbox.cif.g08.bks.cpg/sg2_161_cif.got.tgz:321036.got - 2010.06.03 11:33:40.
