data_PCOD9091890
_publ_section_title
;
Structure prediction by ZEFSAII (Michael W. Deem and Ramdas Pophale) SiO2 
 PCOD9091890
Probable space group: P -1
;
_chemical_formula_sum "Si O2"
_cell_formula_units_Z 16
_cell_length_a 15.074797
_cell_length_b 10.812894
_cell_length_c 19.323327
_cell_angle_alpha 34.218297
_cell_angle_beta 150.918469
_cell_angle_gamma 125.572105
_cell_volume 737.671339
_symmetry_space_group_name_H-M "P -1"
_symmetry_group_IT_number 2
_symmetry_cell_setting 'triclinic'
loop_
_space_group_symop_operation_xyz
x,y,z
-x,-y,-z
loop_
_atom_site_type_symbol
_atom_site_label
_atom_site_fract_x
_atom_site_fract_y
_atom_site_fract_z
Si Si1 0.001782 0.171158 0.358541
Si Si2 0.574709 0.069466 0.686421
Si Si3 0.821477 0.423965 0.829692
Si Si4 0.671586 0.148034 0.462037
Si Si5 0.846593 0.133170 0.731439
Si Si6 0.889981 0.332020 0.066535
Si Si7 0.695710 0.342757 0.256309
Si Si8 0.084784 0.417958 0.781591
O O1 0.835900 0.274500 0.132720
O O2 0.984058 0.412714 0.273482
O O3 0.212828 0.955798 0.563016
O O4 0.000000 0.000000 0.500000
O O5 0.478652 0.956624 0.616666
O O6 0.378785 0.340716 0.453246
O O7 0.744617 0.113414 0.741850
O O8 0.699207 0.848143 0.930000
O O9 0.009354 0.490467 0.932071
O O10 0.743700 0.434759 0.851500
O O11 0.936795 0.141952 0.007292
O O12 0.682100 0.188399 0.531106
O O13 0.628563 0.374993 0.275145
O O14 0.914730 0.930263 0.710188
O O15 0.910798 0.347496 0.675680
O O16 0.864399 0.427303 0.312585
O O17 0.500000 0.500000 0.000000
#
# Coordination Sequence:
#
# PCOD9091890 Si02
#       8
#     2   2   2   2   2   2   2   2
#     4   9  19  34  56  81 109 146 185 240 284 338
#     4  11  21  37  59  87 118 157 200 230 279 347
#     4   9  19  35  55  81 115 155 189 235 280 335
#     4   9  19  36  63  85 110 154 196 240 279 342
#     4  11  23  38  55  90 125 151 188 235 300 346
#     4   8  15  32  56  82 109 145 197 234 278 329
#     4  10  19  40  63  86 106 146 206 240 281 344
#     4  11  23  37  57  88 119 152 188 240 297 341
#
# _framework density 21.689876999999999
#
# number of rings (size 3 to 8) (size 9 to 14) (size 15 to 20)
#    0.000    2.250    1.250    2.250    0.000    2.000 
#    2.250    0.000    0.000    0.750    0.000    0.000 
#    0.000    0.000    0.000    0.000    0.000    0.000 
#
# Total GULP energy -89223.767615 kJ/mol
# GULP energy per Si atom -5576.485476 kJ/mol
# Density = 2.164051 g / cm^3
# Si number density = 21.689877 Si / 1000 Ang^3
#
#
#
# Elastic Constant Matrix: (Units=GPa)
#
#
# Indices 1 2 3 4 5 6 
#
# 1 93.0420 7.8426 13.8769 -6.0434 -12.3974 12.4498
# 2 7.8426 55.3556 -2.4538 -1.9767 5.5656 19.5977
# 3 13.8769 -2.4538 65.3634 -10.7644 -5.7509 0.3686
# 4 -6.0434 -1.9767 -10.7644 21.7666 -1.2473 -3.8013
# 5 -12.3974 5.5656 -5.7509 -1.2473 36.9405 -1.5282
# 6 12.4498 19.5977 0.3686 -3.8013 -1.5282 23.9943
#
#
#
# Elastic Compliance Matrix: (Units=1/GPa)
#
#
# Indices 1 2 3 4 5 6 
#
# 1 0.012437 -0.000091 -0.002017 0.001636 0.003687 -0.005854
# 2 -0.000091 0.026331 0.000448 -0.001538 -0.004891 -0.022021
# 3 -0.002017 0.000448 0.017341 0.008524 0.002322 0.001912
# 4 0.001636 -0.001538 0.008524 0.052256 0.004237 0.008825
# 5 0.003687 -0.004891 0.002322 0.004237 0.029740 0.004612
# 6 -0.005854 -0.022021 0.001912 0.008825 0.004612 0.064362
#
#
# Mechanical properties :
#
#
# Convention : Reuss Voigt Hill
#
# Bulk Modulus (GPa) = 18.94321 28.03248 23.48784
# Shear Modulus (GPa) = 22.38299 29.50662 25.94480
#
# Velocity S-wave (km/s) = 3.21589 3.69234 3.46232
# Velocity P-wave (km/s) = 4.74783 5.57944 5.18035
#
# Compressibility (1/GPa) = 0.05278937
#
# Stress axis : x y z
#
# Youngs Moduli (GPa) = 80.40417 37.97846 57.66549
#
# Poissons Ratio (x) = 0.00347 0.11631
# Poissons Ratio (y) = 0.00734 -0.02586
# Poissons Ratio (z) = 0.16218 -0.01703
#
# Static dielectric constant tensor:
#      x y z
#    x 1.946920 -0.018930 -0.011720 
#    y -0.018930 1.785580 -0.004270 
#    z -0.011720 -0.004270 1.888260 
# 
# From -- ./inp_files/597801.got.cif
#   From: 2010.05.17/outbox.cif.g08.bks.cpg/sg2_299_cif.got.tgz:597801.got - 2010.06.03 11:33:40.
