data_PCOD9091917
_publ_section_title
;
Structure prediction by ZEFSAII (Michael W. Deem and Ramdas Pophale) SiO2 
 PCOD9091917
Probable space group: P -1
;
_chemical_formula_sum "Si O2"
_cell_formula_units_Z 14
_cell_length_a 11.840826
_cell_length_b 11.978824
_cell_length_c 11.445646
_cell_angle_alpha 46.486549
_cell_angle_beta 84.961744
_cell_angle_gamma 45.910603
_cell_volume 558.271608
_symmetry_space_group_name_H-M "P -1"
_symmetry_group_IT_number 2
_symmetry_cell_setting 'triclinic'
loop_
_space_group_symop_operation_xyz
x,y,z
-x,-y,-z
loop_
_atom_site_type_symbol
_atom_site_label
_atom_site_fract_x
_atom_site_fract_y
_atom_site_fract_z
Si Si1 0.927253 0.871589 0.629026
Si Si2 0.006198 0.289700 0.869812
Si Si3 0.241825 0.300580 0.866119
Si Si4 0.002386 0.745151 0.365175
Si Si5 0.212680 0.735191 0.845022
Si Si6 0.469113 0.281055 0.347552
Si Si7 0.681831 0.371282 0.658207
O O1 0.178107 0.510634 0.813028
O O2 0.997903 0.870676 0.742871
O O3 0.798087 0.155738 0.354284
O O4 0.750533 0.937004 0.593198
O O5 0.166083 0.221788 0.972496
O O6 0.065991 0.239826 0.763226
O O7 0.722756 0.625174 0.677932
O O8 0.092575 0.011444 0.080003
O O9 0.052184 0.565988 0.590360
O O10 0.500000 0.000000 0.000000
O O11 0.242371 0.557460 0.455980
O O12 0.829828 0.078824 0.192624
O O13 0.418006 0.393948 0.136983
O O14 0.407287 0.481432 0.310256
O O15 0.500000 0.500000 0.500000
#
# Coordination Sequence:
#
# PCOD9091917 Si02
#       7
#     2   2   2   2   2   2   2
#     4  10  24  40  64  95 128 175 215 260 329 377
#     4  11  22  39  66  97 130 170 210 264 327 379
#     4  11  25  45  62  89 131 172 219 264 320 392
#     4  10  19  40  63  92 124 165 215 258 316 377
#     4  10  19  41  65  95 131 165 216 268 311 387
#     4  11  21  39  66  96 134 162 217 269 321 377
#     4  11  20  35  67  99 128 166 212 268 316 374
#
# _framework density 25.077400000000001
#
# number of rings (size 3 to 8) (size 9 to 14) (size 15 to 20)
#    0.000    1.429    2.857    3.429    0.000    2.857 
#    7.714    0.714    0.000    0.000    0.000    0.000 
#    0.000    0.000    0.000    0.000    0.000    0.000 
#
# Total GULP energy -78105.990841 kJ/mol
# GULP energy per Si atom -5578.999346 kJ/mol
# Density = 2.502032 g / cm^3
# Si number density = 25.077400 Si / 1000 Ang^3
#
#
#
# Elastic Constant Matrix: (Units=GPa)
#
#
# Indices 1 2 3 4 5 6 
#
# 1 103.4506 4.2631 -8.6738 -8.8915 8.7685 9.9569
# 2 4.2631 71.3347 -5.8794 3.0760 -6.1962 -1.8714
# 3 -8.6738 -5.8794 25.4798 4.1569 7.7128 5.3005
# 4 -8.8915 3.0760 4.1569 34.7344 0.4868 12.2593
# 5 8.7685 -6.1962 7.7128 0.4868 37.6157 -4.2707
# 6 9.9569 -1.8714 5.3005 12.2593 -4.2707 30.2894
#
#
#
# Elastic Compliance Matrix: (Units=1/GPa)
#
#
# Indices 1 2 3 4 5 6 
#
# 1 0.011879 -0.001087 0.006145 0.005265 -0.005174 -0.007908
# 2 -0.001087 0.014661 0.002208 -0.002696 0.002514 0.002322
# 3 0.006145 0.002208 0.048068 0.000050 -0.012293 -0.012049
# 4 0.005265 -0.002696 0.000050 0.036523 -0.004115 -0.017269
# 5 -0.005174 0.002514 -0.012293 -0.004115 0.031934 0.010176
# 6 -0.007908 0.002322 -0.012049 -0.017269 0.010176 0.046290
#
#
# Mechanical properties :
#
#
# Convention : Reuss Voigt Hill
#
# Bulk Modulus (GPa) = 11.21830 19.96500 15.59165
# Shear Modulus (GPa) = 24.44558 34.56491 29.50524
#
# Velocity S-wave (km/s) = 3.12557 3.71661 3.43383
# Velocity P-wave (km/s) = 4.18435 5.13773 4.68535
#
# Compressibility (1/GPa) = 0.08914007
#
# Stress axis : x y z
#
# Youngs Moduli (GPa) = 84.18407 68.20824 20.80395
#
# Poissons Ratio (x) = 0.07417 -0.12784
# Poissons Ratio (y) = 0.09154 -0.04595
# Poissons Ratio (z) = -0.51732 -0.15064
#
# Static dielectric constant tensor:
#      x y z
#    x 2.045600 -0.085990 -0.029390 
#    y -0.085990 2.062820 -0.068170 
#    z -0.029390 -0.068170 1.999150 
# 
# From -- ./inp_files/425278.got.cif
#   From: 2010.05.17/outbox.cif.g08.bks.cpg/sg2_213_cif.got.tgz:425278.got - 2010.06.03 11:33:40.
