data_PCOD9091575
_publ_section_title
;
Structure prediction by ZEFSAII (Michael W. Deem and Ramdas Pophale) SiO2 
 PCOD9091575
Probable space group: P -1
;
_chemical_formula_sum "Si O2"
_cell_formula_units_Z 12
_cell_length_a 6.182050
_cell_length_b 7.818465
_cell_length_c 16.034538
_cell_angle_alpha 136.760979
_cell_angle_beta 108.167424
_cell_angle_gamma 78.533751
_cell_volume 503.973935
_symmetry_space_group_name_H-M "P -1"
_symmetry_group_IT_number 2
_symmetry_cell_setting 'triclinic'
loop_
_space_group_symop_operation_xyz
x,y,z
-x,-y,-z
loop_
_atom_site_type_symbol
_atom_site_label
_atom_site_fract_x
_atom_site_fract_y
_atom_site_fract_z
Si Si1 0.169042 0.457745 0.259494
Si Si2 0.058493 0.030147 0.761264
Si Si3 0.506032 0.027274 0.109960
Si Si4 0.401753 0.836195 0.292385
Si Si5 0.269768 0.524877 0.893413
Si Si6 0.840778 0.160761 0.478357
O O1 0.346281 0.244114 0.196216
O O2 0.274393 0.694895 0.303234
O O3 0.136459 0.559229 0.384855
O O4 0.929641 0.388935 0.161655
O O5 0.789771 0.044436 0.745636
O O6 0.855712 0.678390 0.134718
O O7 0.236068 0.928710 0.812008
O O8 0.094681 0.890317 0.627655
O O9 0.500000 0.000000 0.000000
O O10 0.395636 0.762561 0.034155
O O11 0.547804 0.628502 0.190922
O O12 0.583205 0.050979 0.417782
O O13 0.000000 0.000000 0.500000
#
# Coordination Sequence:
#
# PCOD9091575 Si02
#       6
#     2   2   2   2   2   2
#     4  11  22  39  67  94 126 166 207 263 318 367
#     4  10  24  41  66  98 122 167 216 256 308 380
#     4  12  25  44  62  92 136 168 206 262 320 367
#     4  10  19  39  67  96 122 161 217 256 305 379
#     4  10  21  43  66  93 121 174 214 253 308 376
#     4  11  20  39  70  95 122 165 212 259 315 373
#
# _framework density 23.810753999999999
#
# number of rings (size 3 to 8) (size 9 to 14) (size 15 to 20)
#    0.000    1.333    6.667    1.500    0.000    1.333 
#   12.000    0.833    0.000    0.000    0.000    0.000 
#    0.000    0.000    0.000    0.000    0.000    0.000 
#
# Total GULP energy -67191.446505 kJ/mol
# GULP energy per Si atom -5599.287209 kJ/mol
# Density = 2.375656 g / cm^3
# Si number density = 23.810754 Si / 1000 Ang^3
#
#
#
# Elastic Constant Matrix: (Units=GPa)
#
#
# Indices 1 2 3 4 5 6 
#
# 1 144.1429 42.7356 40.1778 -11.2587 28.8908 -53.3932
# 2 42.7356 76.1055 45.4302 -14.9806 0.1211 -39.8011
# 3 40.1778 45.4302 106.2467 -2.2620 9.2510 -32.6303
# 4 -11.2587 -14.9806 -2.2620 42.0151 -8.4834 -0.0270
# 5 28.8908 0.1211 9.2510 -8.4834 38.9808 -7.2393
# 6 -53.3932 -39.8011 -32.6303 -0.0270 -7.2393 58.8972
#
#
#
# Elastic Compliance Matrix: (Units=1/GPa)
#
#
# Indices 1 2 3 4 5 6 
#
# 1 0.012444 -0.001717 -0.000583 0.001253 -0.007150 0.008920
# 2 -0.001717 0.028158 -0.007455 0.010796 0.007964 0.014326
# 3 -0.000583 -0.007455 0.013500 -0.002703 -0.003051 0.001537
# 4 0.001253 0.010796 -0.002703 0.029366 0.007532 0.007873
# 5 -0.007150 0.007964 -0.003051 0.007532 0.033540 0.001335
# 6 0.008920 0.014326 0.001537 0.007873 0.001335 0.035765
#
#
# Mechanical properties :
#
#
# Convention : Reuss Voigt Hill
#
# Bulk Modulus (GPa) = 28.90763 64.79803 46.85283
# Shear Modulus (GPa) = 27.20139 41.18871 34.19505
#
# Velocity S-wave (km/s) = 3.38361 4.16364 3.79373
# Velocity P-wave (km/s) = 5.23756 7.09841 6.23776
#
# Compressibility (1/GPa) = 0.03459294
#
# Stress axis : x y z
#
# Youngs Moduli (GPa) = 80.35942 35.51375 74.07251
#
# Poissons Ratio (x) = 0.06098 0.04319
# Poissons Ratio (y) = 0.13797 0.55220
# Poissons Ratio (z) = 0.04685 0.26475
#
# Static dielectric constant tensor:
#      x y z
#    x 1.882730 0.043330 -0.011250 
#    y 0.043330 1.989920 -0.028460 
#    z -0.011250 -0.028460 1.868090 
# 
# From -- ./inp_files/480823.got.cif
#   From: 2010.05.17/outbox.cif.g08.bks.cpg/sg2_241_cif.got.tgz:480823.got - 2010.06.03 11:33:40.
