data_PCOD9091784
_publ_section_title
;
Structure prediction by ZEFSAII (Michael W. Deem and Ramdas Pophale) SiO2 
 PCOD9091784
Probable space group: P -1
;
_chemical_formula_sum "Si O2"
_cell_formula_units_Z 12
_cell_length_a 6.807597
_cell_length_b 6.316053
_cell_length_c 16.212281
_cell_angle_alpha 132.524583
_cell_angle_beta 109.850982
_cell_angle_gamma 84.583942
_cell_volume 473.942832
_symmetry_space_group_name_H-M "P -1"
_symmetry_group_IT_number 2
_symmetry_cell_setting 'triclinic'
loop_
_space_group_symop_operation_xyz
x,y,z
-x,-y,-z
loop_
_atom_site_type_symbol
_atom_site_label
_atom_site_fract_x
_atom_site_fract_y
_atom_site_fract_z
Si Si1 0.034863 0.406500 0.215487
Si Si2 0.505057 0.314023 0.623327
Si Si3 0.351833 0.057639 0.889262
Si Si4 0.646944 0.623981 0.873195
Si Si5 0.266528 0.482360 0.496888
Si Si6 0.875887 0.994066 0.324544
O O1 0.112810 0.359131 0.120438
O O2 0.090026 0.204906 0.374327
O O3 0.857440 0.145879 0.153268
O O4 0.943773 0.701211 0.286690
O O5 0.500000 0.500000 0.500000
O O6 0.518968 0.339866 0.731236
O O7 0.310520 0.436428 0.589368
O O8 0.500000 0.000000 0.500000
O O9 0.546293 0.890292 0.890112
O O10 0.293886 0.080377 0.792447
O O11 0.379858 0.347349 0.026066
O O12 0.266286 0.478146 0.311357
O O13 0.191755 0.788804 0.560201
#
# Coordination Sequence:
#
# PCOD9091784 Si02
#       6
#     2   2   2   2   2   2
#     4  10  22  38  62  92 121 161 203 250 302 363
#     4  10  19  40  60  85 125 156 196 251 300 357
#     4  11  21  42  65  87 123 168 200 249 315 350
#     4   9  22  40  62  88 127 160 204 256 297 370
#     4  11  22  40  58  89 128 161 198 254 309 355
#     4  11  23  38  62  93 121 156 213 251 292 376
#
# _framework density 25.319510000000001
#
# number of rings (size 3 to 8) (size 9 to 14) (size 15 to 20)
#    1.000    0.667    3.333    1.500    0.000    3.333 
#    0.000    6.667    0.000    0.000    0.000    0.000 
#    0.000    0.000    0.000    0.000    0.000    0.000 
#
# Total GULP energy -67086.471689 kJ/mol
# GULP energy per Si atom -5590.539307 kJ/mol
# Density = 2.526188 g / cm^3
# Si number density = 25.319510 Si / 1000 Ang^3
#
#
#
# Elastic Constant Matrix: (Units=GPa)
#
#
# Indices 1 2 3 4 5 6 
#
# 1 119.7838 16.5877 23.1805 12.0104 -6.3743 -0.0754
# 2 16.5877 33.0180 31.9022 2.4624 6.1909 -0.5854
# 3 23.1805 31.9022 152.9999 10.3618 -0.3450 4.6179
# 4 12.0104 2.4624 10.3618 42.5517 -2.2088 6.5490
# 5 -6.3743 6.1909 -0.3450 -2.2088 43.8597 2.0020
# 6 -0.0754 -0.5854 4.6179 6.5490 2.0020 39.1019
#
#
#
# Elastic Compliance Matrix: (Units=1/GPa)
#
#
# Indices 1 2 3 4 5 6 
#
# 1 0.009370 -0.004582 -0.000316 -0.002246 0.001881 0.000267
# 2 -0.004582 0.041666 -0.008080 0.000214 -0.006686 0.001876
# 3 -0.000316 -0.008080 0.008387 -0.001279 0.001140 -0.000956
# 4 -0.002246 0.000214 -0.001279 0.025123 0.001086 -0.004113
# 5 0.001881 -0.006686 0.001140 0.001086 0.024156 -0.001650
# 6 0.000267 0.001876 -0.000956 -0.004113 -0.001650 0.026489
#
#
# Mechanical properties :
#
#
# Convention : Reuss Voigt Hill
#
# Bulk Modulus (GPa) = 29.88077 49.90473 39.89275
# Shear Modulus (GPa) = 29.01880 40.71142 34.86511
#
# Velocity S-wave (km/s) = 3.38909 4.01422 3.71483
# Velocity P-wave (km/s) = 5.20977 6.42169 5.84721
#
# Compressibility (1/GPa) = 0.03346634
#
# Stress axis : x y z
#
# Youngs Moduli (GPa) = 106.72923 24.00027 119.23813
#
# Poissons Ratio (x) = 0.10998 0.03765
# Poissons Ratio (y) = 0.48908 0.96342
# Poissons Ratio (z) = 0.03370 0.19392
#
# Static dielectric constant tensor:
#      x y z
#    x 2.048140 0.110310 -0.061880 
#    y 0.110310 2.064550 -0.082340 
#    z -0.061880 -0.082340 2.085580 
# 
# From -- ./inp_files/488042.got.cif
#   From: 2010.05.17/outbox.cif.g08.bks.cpg/sg2_245_cif.got.tgz:488042.got - 2010.06.03 11:33:40.
