data_PCOD9091622
_publ_section_title
;
Structure prediction by ZEFSAII (Michael W. Deem and Ramdas Pophale) SiO2 
 PCOD9091622
Probable space group: P -1
;
_chemical_formula_sum "Si O2"
_cell_formula_units_Z 14
_cell_length_a 9.707701
_cell_length_b 8.163512
_cell_length_c 11.502078
_cell_angle_alpha 123.497748
_cell_angle_beta 51.373715
_cell_angle_gamma 93.895361
_cell_volume 537.664454
_symmetry_space_group_name_H-M "P -1"
_symmetry_group_IT_number 2
_symmetry_cell_setting 'triclinic'
loop_
_space_group_symop_operation_xyz
x,y,z
-x,-y,-z
loop_
_atom_site_type_symbol
_atom_site_label
_atom_site_fract_x
_atom_site_fract_y
_atom_site_fract_z
Si Si1 0.983928 0.781030 0.442217
Si Si2 0.392717 0.246827 0.799663
Si Si3 0.716055 0.753504 0.405802
Si Si4 0.215921 0.973240 0.893536
Si Si5 0.208867 0.160915 0.186586
Si Si6 0.598832 0.537571 0.809464
Si Si7 0.753249 0.386059 0.421042
O O1 0.927570 0.724783 0.324284
O O2 0.831915 0.821967 0.646452
O O3 0.190665 0.611630 0.307986
O O4 0.000000 0.000000 0.500000
O O5 0.310146 0.290554 0.730230
O O6 0.244416 0.186228 0.928544
O O7 0.449038 0.437454 0.889037
O O8 0.580748 0.009325 0.604663
O O9 0.703656 0.572757 0.426004
O O10 0.305899 0.794324 0.675857
O O11 0.264150 0.944149 0.993952
O O12 0.000000 0.000000 0.000000
O O13 0.383775 0.234621 0.099938
O O14 0.981960 0.300469 0.310581
O O15 0.623165 0.477767 0.637463
#
# Coordination Sequence:
#
# PCOD9091622 Si02
#       7
#     2   2   2   2   2   2   2
#     4  11  20  37  68  95 123 160 209 260 304 360
#     4  11  25  37  60  97 126 161 205 264 307 358
#     4  11  21  39  65  98 122 155 216 258 305 356
#     4  10  24  43  60  85 132 169 202 249 315 380
#     4  10  21  40  64  94 125 167 203 249 311 373
#     4  11  20  38  66  96 123 157 213 261 301 359
#     4  10  19  39  68  93 121 166 207 252 306 370
#
# _framework density 26.038544000000002
#
# number of rings (size 3 to 8) (size 9 to 14) (size 15 to 20)
#    0.000    1.429    4.286    2.571    4.000    2.857 
#    0.000    5.000    0.000    0.000    0.000    0.000 
#    0.000    0.000    0.000    0.000    0.000    0.000 
#
# Total GULP energy -78164.477608 kJ/mol
# GULP energy per Si atom -5583.176972 kJ/mol
# Density = 2.597928 g / cm^3
# Si number density = 26.038544 Si / 1000 Ang^3
#
#
#
# Elastic Constant Matrix: (Units=GPa)
#
#
# Indices 1 2 3 4 5 6 
#
# 1 161.9269 49.3473 40.1272 0.2376 31.9434 17.3780
# 2 49.3473 109.7170 13.3378 -6.9371 10.0301 30.3282
# 3 40.1272 13.3378 77.2470 2.0681 24.4264 10.8661
# 4 0.2376 -6.9371 2.0681 29.4075 15.2017 0.2144
# 5 31.9434 10.0301 24.4264 15.2017 47.1662 2.6228
# 6 17.3780 30.3282 10.8661 0.2144 2.6228 68.7697
#
#
#
# Elastic Compliance Matrix: (Units=1/GPa)
#
#
# Indices 1 2 3 4 5 6 
#
# 1 0.008616 -0.002972 -0.002576 0.001685 -0.004396 -0.000297
# 2 -0.002972 0.012059 0.000584 0.003804 -0.001825 -0.004602
# 3 -0.002576 0.000584 0.016922 0.003142 -0.008045 -0.001983
# 4 0.001685 0.003804 0.003142 0.043764 -0.017568 -0.002067
# 5 -0.004396 -0.001825 -0.008045 -0.017568 0.034288 0.001934
# 6 -0.000297 -0.004602 -0.001983 -0.002067 0.001934 0.016892
#
#
# Mechanical properties :
#
#
# Convention : Reuss Voigt Hill
#
# Bulk Modulus (GPa) = 36.14038 61.61282 48.87660
# Shear Modulus (GPa) = 32.96155 45.47392 39.21774
#
# Velocity S-wave (km/s) = 3.56177 4.18354 3.88511
# Velocity P-wave (km/s) = 5.55200 6.85927 6.23996
#
# Compressibility (1/GPa) = 0.02766988
#
# Stress axis : x y z
#
# Youngs Moduli (GPa) = 116.06054 82.92361 59.09577
#
# Poissons Ratio (x) = 0.24641 0.15223
# Poissons Ratio (y) = 0.34488 -0.03450
# Poissons Ratio (z) = 0.29897 -0.04841
#
# Static dielectric constant tensor:
#      x y z
#    x 2.001990 0.086320 -0.021670 
#    y 0.086320 2.051690 -0.094420 
#    z -0.021670 -0.094420 2.187410 
# 
# From -- ./inp_files/256211.got.cif
#   From: 2010.05.17/outbox.cif.g08.bks.cpg/sg2_129_cif.got.tgz:256211.got - 2010.06.03 11:33:40.
