data_PCOD9091082
_publ_section_title
;
Structure prediction by ZEFSAII (Michael W. Deem and Ramdas Pophale) SiO2 
 PCOD9091082
Probable space group: P -1
;
_chemical_formula_sum "Si O2"
_cell_formula_units_Z 14
_cell_length_a 11.092234
_cell_length_b 17.360131
_cell_length_c 12.910689
_cell_angle_alpha 151.181134
_cell_angle_beta 146.285243
_cell_angle_gamma 32.099115
_cell_volume 596.589244
_symmetry_space_group_name_H-M "P -1"
_symmetry_group_IT_number 2
_symmetry_cell_setting 'triclinic'
loop_
_space_group_symop_operation_xyz
x,y,z
-x,-y,-z
loop_
_atom_site_type_symbol
_atom_site_label
_atom_site_fract_x
_atom_site_fract_y
_atom_site_fract_z
Si Si1 0.767278 0.937993 0.157711
Si Si2 0.247758 0.848654 0.956415
Si Si3 0.551210 0.877842 0.524458
Si Si4 0.932142 0.422048 0.461351
Si Si5 0.953831 0.335544 0.800407
Si Si6 0.464945 0.707593 0.471718
Si Si7 0.019683 0.069423 0.344475
O O1 0.863726 0.772794 0.106371
O O2 0.724762 0.106645 0.396827
O O3 0.946171 0.928164 0.182065
O O4 0.500000 0.000000 0.000000
O O5 0.236886 0.678049 0.802139
O O6 0.185439 0.834916 0.775492
O O7 0.420980 0.946439 0.208833
O O8 0.000000 0.000000 0.000000
O O9 0.503242 0.770498 0.459325
O O10 0.809928 0.728111 0.487719
O O11 0.298906 0.961328 0.378875
O O12 0.734367 0.599753 0.586137
O O13 0.000000 0.500000 0.500000
O O14 0.688119 0.399918 0.736897
O O15 0.999323 0.213415 0.586460
O O16 0.000000 0.500000 0.000000
#
# Coordination Sequence:
#
# PCOD9091082 Si02
#       7
#     2   2   2   2   2   2   2
#     4  11  22  40  67  95 130 180 219 268 342 401
#     4  10  23  40  65  97 126 174 227 270 330 394
#     4  10  19  40  67  91 129 168 223 266 332 387
#     4   9  21  37  63  91 126 172 209 272 326 384
#     4  11  24  40  64 102 135 172 222 276 332 397
#     4  10  19  39  63  88 131 167 212 271 324 392
#     4  11  22  40  68  95 130 177 217 275 334 394
#
# _framework density 23.466732
#
# number of rings (size 3 to 8) (size 9 to 14) (size 15 to 20)
#    0.000    1.714    2.857    1.714    2.000    3.429 
#    0.000    2.857    6.286    9.429    0.000    0.000 
#    0.000    0.000    0.000    0.000    0.000    0.000 
#
# Total GULP energy -77966.475401 kJ/mol
# GULP energy per Si atom -5569.033957 kJ/mol
# Density = 2.341332 g / cm^3
# Si number density = 23.466732 Si / 1000 Ang^3
#
#
#
# Elastic Constant Matrix: (Units=GPa)
#
#
# Indices 1 2 3 4 5 6 
#
# 1 76.8493 46.4080 42.0850 -0.7252 30.6944 6.6088
# 2 46.4080 119.2520 44.2879 -8.4441 27.0719 -14.6058
# 3 42.0850 44.2879 88.3551 -4.7082 36.2344 21.0088
# 4 -0.7252 -8.4441 -4.7082 37.8312 6.8048 14.8473
# 5 30.6944 27.0719 36.2344 6.8048 38.6836 1.2113
# 6 6.6088 -14.6058 21.0088 14.8473 1.2113 47.3222
#
#
#
# Elastic Compliance Matrix: (Units=1/GPa)
#
#
# Indices 1 2 3 4 5 6 
#
# 1 0.023103 -0.005943 -0.000851 0.003649 -0.013845 -0.005473
# 2 -0.005943 0.013848 -0.006777 -0.001462 0.001362 0.008536
# 3 -0.000851 -0.006777 0.031170 0.014744 -0.025752 -0.019777
# 4 0.003649 -0.001462 0.014744 0.039573 -0.022038 -0.019358
# 5 -0.013845 0.001362 -0.025752 -0.022038 0.063284 0.019081
# 6 -0.005473 0.008536 -0.019777 -0.019358 0.019081 0.038896
#
#
# Mechanical properties :
#
#
# Convention : Reuss Voigt Hill
#
# Bulk Modulus (GPa) = 24.40359 61.11313 42.75836
# Shear Modulus (GPa) = 19.94603 34.87910 27.41256
#
# Velocity S-wave (km/s) = 2.91859 3.85947 3.42152
# Velocity P-wave (km/s) = 4.66683 6.77935 5.81975
#
# Compressibility (1/GPa) = 0.04097757
#
# Stress axis : x y z
#
# Youngs Moduli (GPa) = 43.28462 72.21213 32.08259
#
# Poissons Ratio (x) = 0.42919 0.02732
# Poissons Ratio (y) = 0.25726 0.21741
# Poissons Ratio (z) = 0.03685 0.48935
#
# Static dielectric constant tensor:
#      x y z
#    x 1.933550 0.113700 0.146400 
#    y 0.113700 1.922630 -0.148780 
#    z 0.146400 -0.148780 1.760140 
# 
# From -- ./inp_files/523335.got.cif
#   From: 2010.05.17/outbox.cif.g08.bks.cpg/sg2_262_cif.got.tgz:523335.got - 2010.06.03 11:33:40.
