data_PCOD9091771
_publ_section_title
;
Structure prediction by ZEFSAII (Michael W. Deem and Ramdas Pophale) SiO2 
 PCOD9091771
Probable space group: P -1
;
_chemical_formula_sum "Si O2"
_cell_formula_units_Z 12
_cell_length_a 14.598441
_cell_length_b 9.659803
_cell_length_c 7.194611
_cell_angle_alpha 49.066813
_cell_angle_beta 50.480079
_cell_angle_gamma 55.803647
_cell_volume 572.643769
_symmetry_space_group_name_H-M "P -1"
_symmetry_group_IT_number 2
_symmetry_cell_setting 'triclinic'
loop_
_space_group_symop_operation_xyz
x,y,z
-x,-y,-z
loop_
_atom_site_type_symbol
_atom_site_label
_atom_site_fract_x
_atom_site_fract_y
_atom_site_fract_z
Si Si1 0.832221 0.639759 0.445941
Si Si2 0.114989 0.542050 0.079019
Si Si3 0.677783 0.319283 0.457554
Si Si4 0.427555 0.887961 0.923338
Si Si5 0.339698 0.998763 0.529101
Si Si6 0.298449 0.308939 0.813397
O O1 0.741665 0.630550 0.400005
O O2 0.789290 0.853443 0.394142
O O3 0.836117 0.496194 0.738781
O O4 0.969825 0.598403 0.225916
O O5 0.178317 0.686121 0.761039
O O6 0.174000 0.348746 0.060173
O O7 0.632912 0.255301 0.765547
O O8 0.651367 0.172435 0.472312
O O9 0.628684 0.548035 0.316525
O O10 0.630004 0.905739 0.095821
O O11 0.572450 0.866941 0.765590
O O12 0.391338 0.904489 0.740227
#
# Coordination Sequence:
#
# PCOD9091771 Si02
#       6
#     2   2   2   2   2   2
#     4  10  19  40  59  80 120 149 182 234 283 332
#     4   9  21  35  61  85 110 150 191 227 281 333
#     4  10  22  35  60  88 108 149 194 227 279 334
#     4  10  21  42  56  83 118 147 187 234 279 334
#     4  10  22  38  59  83 116 151 183 234 285 326
#     4   9  21  37  60  84 110 151 186 230 284 324
#
# _framework density 20.955434
#
# number of rings (size 3 to 8) (size 9 to 14) (size 15 to 20)
#    1.000    1.333    0.000    2.000    2.333    1.333 
#    3.000    5.833    0.000    0.000    0.000    0.000 
#    0.000    0.000    0.000    0.000    0.000    0.000 
#
# Total GULP energy -66852.987768 kJ/mol
# GULP energy per Si atom -5571.082314 kJ/mol
# Density = 2.090774 g / cm^3
# Si number density = 20.955434 Si / 1000 Ang^3
#
#
#
# Elastic Constant Matrix: (Units=GPa)
#
#
# Indices 1 2 3 4 5 6 
#
# 1 24.6083 6.6976 10.4584 5.2588 -0.2989 3.5697
# 2 6.6976 62.8854 1.8918 13.0641 -7.9861 -2.4797
# 3 10.4584 1.8918 104.3314 10.8042 -12.1612 7.4485
# 4 5.2588 13.0641 10.8042 25.0571 5.1109 -7.7757
# 5 -0.2989 -7.9861 -12.1612 5.1109 28.8396 8.2807
# 6 3.5697 -2.4797 7.4485 -7.7757 8.2807 28.0976
#
#
#
# Elastic Compliance Matrix: (Units=1/GPa)
#
#
# Indices 1 2 3 4 5 6 
#
# 1 0.046094 -0.002474 -0.002341 -0.011051 0.003504 -0.009545
# 2 -0.002474 0.020716 0.003457 -0.016350 0.012031 -0.006844
# 3 -0.002341 0.003457 0.013026 -0.012210 0.011338 -0.009571
# 4 -0.011051 -0.016350 -0.012210 0.072738 -0.032095 0.032786
# 5 0.003504 0.012031 0.011338 -0.032095 0.056531 -0.027932
# 6 -0.009545 -0.006844 -0.009571 0.032786 -0.027932 0.056041
#
#
# Mechanical properties :
#
#
# Convention : Reuss Voigt Hill
#
# Bulk Modulus (GPa) = 12.96721 25.54675 19.25698
# Shear Modulus (GPa) = 17.03166 27.91735 22.47450
#
# Velocity S-wave (km/s) = 2.85398 3.65393 3.27844
# Velocity P-wave (km/s) = 4.13058 5.47896 4.85184
#
# Compressibility (1/GPa) = 0.07711757
#
# Stress axis : x y z
#
# Youngs Moduli (GPa) = 21.69491 48.27160 76.76846
#
# Poissons Ratio (x) = 0.11944 0.17975
# Poissons Ratio (y) = 0.05368 -0.26535
# Poissons Ratio (z) = 0.05080 -0.16685
#
# Static dielectric constant tensor:
#      x y z
#    x 1.789570 -0.016100 0.008010 
#    y -0.016100 1.757900 0.026810 
#    z 0.008010 0.026810 1.783890 
# 
# From -- ./inp_files/92024.got.cif
#   From: 2010.05.17/outbox.cif.g08.bks.cpg/sg2_47_cif.got.tgz:92024.got - 2010.06.03 11:33:40.
