data_PCOD9091457
_publ_section_title
;
Structure prediction by ZEFSAII (Michael W. Deem and Ramdas Pophale) SiO2 
 PCOD9091457
Probable space group: P -1
;
_chemical_formula_sum "Si O2"
_cell_formula_units_Z 16
_cell_length_a 11.876941
_cell_length_b 7.907982
_cell_length_c 11.908908
_cell_angle_alpha 40.546421
_cell_angle_beta 71.306145
_cell_angle_gamma 88.515379
_cell_volume 644.292780
_symmetry_space_group_name_H-M "P -1"
_symmetry_group_IT_number 2
_symmetry_cell_setting 'triclinic'
loop_
_space_group_symop_operation_xyz
x,y,z
-x,-y,-z
loop_
_atom_site_type_symbol
_atom_site_label
_atom_site_fract_x
_atom_site_fract_y
_atom_site_fract_z
Si Si1 0.360592 0.658082 0.568383
Si Si2 0.664431 0.859092 0.515953
Si Si3 0.871372 0.796045 0.597722
Si Si4 0.865083 0.223952 0.906517
Si Si5 0.601679 0.009529 0.224871
Si Si6 0.467603 0.278889 0.880042
Si Si7 0.892489 0.680009 0.086108
Si Si8 0.718316 0.608175 0.966806
O O1 0.454368 0.807299 0.360632
O O2 0.411294 0.428855 0.724572
O O3 0.208637 0.500977 0.695077
O O4 0.378829 0.914967 0.518864
O O5 0.811794 0.936771 0.454412
O O6 0.644837 0.864661 0.387690
O O7 0.591967 0.543191 0.739468
O O8 0.782548 0.732210 0.768257
O O9 0.880206 0.509345 0.696404
O O10 0.000000 0.000000 0.500000
O O11 0.718058 0.092199 0.058747
O O12 0.898524 0.996184 0.940384
O O13 0.966985 0.313265 0.932366
O O14 0.614915 0.308601 0.120401
O O15 0.358457 0.220951 0.037203
O O16 0.500000 0.000000 0.000000
O O17 0.821721 0.582751 0.038165
#
# Coordination Sequence:
#
# PCOD9091457 Si02
#       8
#     2   2   2   2   2   2   2   2
#     4  10  19  39  66  91 122 166 206 253 307 373
#     4  11  20  38  64  90 130 159 200 263 302 365
#     4  11  26  39  59  95 125 162 217 255 305 376
#     4  10  24  41  61  95 122 163 216 254 312 376
#     4  10  19  39  68  93 116 164 218 250 303 375
#     4  10  20  36  64  95 125 161 207 253 319 368
#     4  10  21  40  67  84 129 163 205 259 316 359
#     4  10  21  41  66  88 121 169 208 252 314 376
#
# _framework density 24.833428999999999
#
# number of rings (size 3 to 8) (size 9 to 14) (size 15 to 20)
#    0.000    1.750    3.750    1.500    5.250    2.000 
#    0.000    8.125    0.000    0.000    0.000    0.000 
#    0.000    0.000    0.000    0.000    0.000    0.000 
#
# Total GULP energy -89374.609930 kJ/mol
# GULP energy per Si atom -5585.913121 kJ/mol
# Density = 2.477691 g / cm^3
# Si number density = 24.833429 Si / 1000 Ang^3
#
#
#
# Elastic Constant Matrix: (Units=GPa)
#
#
# Indices 1 2 3 4 5 6 
#
# 1 89.7179 2.9401 33.6861 -12.4936 -3.3706 0.2069
# 2 2.9401 47.3953 22.7120 -31.9050 5.1699 -14.3635
# 3 33.6861 22.7120 109.2550 -23.5026 -10.0308 -4.0273
# 4 -12.4936 -31.9050 -23.5026 40.9742 -0.2292 8.5588
# 5 -3.3706 5.1699 -10.0308 -0.2292 41.4950 -8.2901
# 6 0.2069 -14.3635 -4.0273 8.5588 -8.2901 28.4043
#
#
#
# Elastic Compliance Matrix: (Units=1/GPa)
#
#
# Indices 1 2 3 4 5 6 
#
# 1 0.013219 0.004845 -0.003931 0.005547 -0.000451 -0.000007
# 2 0.004845 0.052164 -0.004321 0.036795 -0.004270 0.013397
# 3 -0.003931 -0.004321 0.012060 0.002429 0.003093 -0.000276
# 4 0.005547 0.036795 0.002429 0.055874 -0.002998 0.001200
# 5 -0.000451 -0.004270 0.003093 -0.002998 0.026721 0.006985
# 6 -0.000007 0.013397 -0.000276 0.001200 0.006985 0.043619
#
#
# Mechanical properties :
#
#
# Convention : Reuss Voigt Hill
#
# Bulk Modulus (GPa) = 14.15849 40.56052 27.35950
# Shear Modulus (GPa) = 21.36637 34.64336 28.00487
#
# Velocity S-wave (km/s) = 2.93642 3.73906 3.36178
# Velocity P-wave (km/s) = 4.14855 5.91686 5.10978
#
# Compressibility (1/GPa) = 0.07062901
#
# Stress axis : x y z
#
# Youngs Moduli (GPa) = 75.64920 19.17026 82.92202
#
# Poissons Ratio (x) = -0.09289 0.32599
# Poissons Ratio (y) = -0.36655 0.35830
# Poissons Ratio (z) = 0.29740 0.08283
#
# Static dielectric constant tensor:
#      x y z
#    x 2.051800 0.048000 0.006180 
#    y 0.048000 2.051600 0.017160 
#    z 0.006180 0.017160 1.975860 
# 
# From -- ./inp_files/218576.got.cif
#   From: 2010.05.17/outbox.cif.g08.bks.cpg/sg2_110_cif.got.tgz:218576.got - 2010.06.03 11:33:40.
