data_PCOD9091486
_publ_section_title
;
Structure prediction by ZEFSAII (Michael W. Deem and Ramdas Pophale) SiO2 
 PCOD9091486
Probable space group: P -1
;
_chemical_formula_sum "Si O2"
_cell_formula_units_Z 16
_cell_length_a 14.375879
_cell_length_b 11.506650
_cell_length_c 8.938436
_cell_angle_alpha 138.337863
_cell_angle_beta 54.876620
_cell_angle_gamma 130.445229
_cell_volume 735.868740
_symmetry_space_group_name_H-M "P -1"
_symmetry_group_IT_number 2
_symmetry_cell_setting 'triclinic'
loop_
_space_group_symop_operation_xyz
x,y,z
-x,-y,-z
loop_
_atom_site_type_symbol
_atom_site_label
_atom_site_fract_x
_atom_site_fract_y
_atom_site_fract_z
Si Si1 0.713371 0.432367 0.255327
Si Si2 0.259934 0.216127 0.267657
Si Si3 0.556248 0.850184 0.762319
Si Si4 0.043133 0.499578 0.788431
Si Si5 0.209565 0.590368 0.178193
Si Si6 0.261669 0.026951 0.572736
Si Si7 0.999903 0.059915 0.386064
Si Si8 0.646991 0.615687 0.966461
O O1 0.754546 0.657500 0.459025
O O2 0.567428 0.338812 0.333966
O O3 0.808076 0.380728 0.224620
O O4 0.738040 0.390587 0.022114
O O5 0.364253 0.153428 0.170315
O O6 0.125478 0.052739 0.198123
O O7 0.307276 0.353993 0.216417
O O8 0.646524 0.908715 0.593004
O O9 0.500000 0.000000 0.000000
O O10 0.940170 0.532917 0.815159
O O11 0.020931 0.281589 0.564686
O O12 0.000000 0.500000 0.000000
O O13 0.235287 0.805472 0.414663
O O14 0.280428 0.490794 0.113939
O O15 0.133289 0.046197 0.666981
O O16 0.320739 0.175112 0.792935
O O17 0.000000 0.000000 0.500000
O O18 0.500000 0.500000 0.000000
#
# Coordination Sequence:
#
# PCOD9091486 Si02
#       8
#     2   2   2   2   2   2   2   2
#     4  10  19  39  66  94 128 164 223 284 323 383
#     4  11  24  42  64 100 131 172 231 266 332 404
#     4  12  22  38  64  99 130 163 224 284 328 382
#     4   8  18  32  61  93 120 161 212 270 328 384
#     4  10  21  43  66  95 131 171 224 270 333 393
#     4  11  24  44  69  97 133 178 223 275 334 392
#     4  10  20  39  67  96 128 164 219 288 331 376
#     4  12  27  45  66  93 142 189 213 264 334 411
#
# _framework density 21.743009000000001
#
# number of rings (size 3 to 8) (size 9 to 14) (size 15 to 20)
#    0.000    1.500    2.500    2.625    3.500    1.000 
#    2.250    5.625    0.000    0.000    0.000    0.000 
#    0.000    0.000    0.000    0.000    0.000    0.000 
#
# Total GULP energy -89306.741633 kJ/mol
# GULP energy per Si atom -5581.671352 kJ/mol
# Density = 2.169352 g / cm^3
# Si number density = 21.743009 Si / 1000 Ang^3
#
#
#
# Elastic Constant Matrix: (Units=GPa)
#
#
# Indices 1 2 3 4 5 6 
#
# 1 161.2964 40.3217 44.9131 -0.8114 -38.7883 20.0768
# 2 40.3217 59.6782 14.4944 -11.7100 -11.2391 20.6933
# 3 44.9131 14.4944 66.3258 18.4837 1.5909 2.8543
# 4 -0.8114 -11.7100 18.4837 23.4510 6.0661 -9.1101
# 5 -38.7883 -11.2391 1.5909 6.0661 32.7713 -1.3510
# 6 20.0768 20.6933 2.8543 -9.1101 -1.3510 39.5750
#
#
#
# Elastic Compliance Matrix: (Units=1/GPa)
#
#
# Indices 1 2 3 4 5 6 
#
# 1 0.013539 -0.002456 -0.009025 0.000749 0.015307 -0.004238
# 2 -0.002456 0.027237 -0.008436 0.015905 0.003544 -0.008605
# 3 -0.009025 -0.008436 0.030389 -0.025601 -0.010289 0.000553
# 4 0.000749 0.015905 -0.025601 0.076472 -0.006136 0.010544
# 5 0.015307 0.003544 -0.010289 -0.006136 0.051131 -0.008544
# 6 -0.004238 -0.008605 0.000553 0.010544 -0.008544 0.034014
#
#
# Mechanical properties :
#
#
# Convention : Reuss Voigt Hill
#
# Bulk Modulus (GPa) = 31.91714 54.08432 43.00073
# Shear Modulus (GPa) = 17.66403 31.66420 24.66411
#
# Velocity S-wave (km/s) = 2.85336 3.82028 3.37166
# Velocity P-wave (km/s) = 5.05635 6.66241 5.91415
#
# Compressibility (1/GPa) = 0.03133113
#
# Stress axis : x y z
#
# Youngs Moduli (GPa) = 73.85910 36.71426 32.90627
#
# Poissons Ratio (x) = 0.09019 0.29698
# Poissons Ratio (y) = 0.18143 0.27760
# Poissons Ratio (z) = 0.66658 0.30972
#
# Static dielectric constant tensor:
#      x y z
#    x 1.779520 -0.062310 -0.065000 
#    y -0.062310 1.607700 -0.080830 
#    z -0.065000 -0.080830 1.759840 
# 
# From -- ./inp_files/285087.got.cif
#   From: 2010.05.17/outbox.cif.g08.bks.cpg/sg2_143_cif.got.tgz:285087.got - 2010.06.03 11:33:40.
