data_PCOD9091663
_publ_section_title
;
Structure prediction by ZEFSAII (Michael W. Deem and Ramdas Pophale) SiO2 
 PCOD9091663
Probable space group: P -1
;
_chemical_formula_sum "Si O2"
_cell_formula_units_Z 16
_cell_length_a 7.934494
_cell_length_b 11.269149
_cell_length_c 11.471892
_cell_angle_alpha 106.559533
_cell_angle_beta 51.362560
_cell_angle_gamma 120.547972
_cell_volume 689.227473
_symmetry_space_group_name_H-M "P -1"
_symmetry_group_IT_number 2
_symmetry_cell_setting 'triclinic'
loop_
_space_group_symop_operation_xyz
x,y,z
-x,-y,-z
loop_
_atom_site_type_symbol
_atom_site_label
_atom_site_fract_x
_atom_site_fract_y
_atom_site_fract_z
Si Si1 0.493027 0.236228 0.102118
Si Si2 0.651672 0.257539 0.778668
Si Si3 0.671148 0.368885 0.410677
Si Si4 0.028356 0.056051 0.371407
Si Si5 0.157588 0.321856 0.514909
Si Si6 0.490841 0.472858 0.859781
Si Si7 0.562251 0.882304 0.394848
Si Si8 0.040524 0.633811 0.943312
O O1 0.281018 0.105236 0.213094
O O2 0.470151 0.382127 0.175287
O O3 0.733516 0.247331 0.061131
O O4 0.521076 0.232931 0.951366
O O5 0.660722 0.397149 0.753717
O O6 0.492374 0.140414 0.723958
O O7 0.921158 0.274929 0.686139
O O8 0.406381 0.321092 0.450985
O O9 0.752747 0.513823 0.482422
O O10 0.614642 0.253241 0.498219
O O11 0.866956 0.379514 0.230423
O O12 0.037988 0.208577 0.432281
O O13 0.000000 0.000000 0.500000
O O14 0.833304 0.941156 0.341700
O O15 0.500000 0.500000 0.000000
O O16 0.213007 0.362372 0.931071
O O17 0.500000 0.000000 0.500000
O O18 0.000000 0.500000 0.000000
#
# Coordination Sequence:
#
# PCOD9091663 Si02
#       8
#     2   2   2   2   2   2   2   2
#     4  10  22  42  70  97 139 183 232 281 347 405
#     4  11  25  44  66 105 141 180 229 286 348 415
#     4  11  24  42  74 108 129 184 238 288 342 407
#     4  12  24  48  69  97 140 187 230 288 341 414
#     4  11  23  43  74 102 139 173 245 282 345 408
#     4   9  20  38  66 103 143 170 221 289 352 398
#     4  12  27  44  68  98 148 186 228 282 353 418
#     4  10  19  39  69 102 140 172 228 291 353 398
#
# _framework density 23.214397000000002
#
# number of rings (size 3 to 8) (size 9 to 14) (size 15 to 20)
#    0.000    1.250    3.750    2.250    1.750    6.000 
#    0.000    0.625    0.000    0.000    0.000    0.000 
#    0.000    0.000    0.000    0.000    0.000    0.000 
#
# Total GULP energy -89216.333039 kJ/mol
# GULP energy per Si atom -5576.020815 kJ/mol
# Density = 2.316156 g / cm^3
# Si number density = 23.214397 Si / 1000 Ang^3
#
#
#
# Elastic Constant Matrix: (Units=GPa)
#
#
# Indices 1 2 3 4 5 6 
#
# 1 69.3156 11.3208 23.8909 -13.4356 -2.6208 15.4372
# 2 11.3208 92.8537 32.2486 -4.4677 14.9611 24.0798
# 3 23.8909 32.2486 106.7667 -23.8917 7.3501 9.8413
# 4 -13.4356 -4.4677 -23.8917 47.6455 11.3554 -2.4562
# 5 -2.6208 14.9611 7.3501 11.3554 36.4307 4.0209
# 6 15.4372 24.0798 9.8413 -2.4562 4.0209 26.9308
#
#
#
# Elastic Compliance Matrix: (Units=1/GPa)
#
#
# Indices 1 2 3 4 5 6 
#
# 1 0.018200 0.001457 -0.003012 0.002828 0.001609 -0.010618
# 2 0.001457 0.015953 -0.003511 0.000534 -0.004459 -0.013102
# 3 -0.003012 -0.003511 0.012542 0.005968 -0.003311 0.001321
# 4 0.002828 0.000534 0.005968 0.027104 -0.009627 -0.000370
# 5 0.001609 -0.004459 -0.003311 -0.009627 0.033238 -0.001566
# 6 -0.010618 -0.013102 0.001321 -0.000370 -0.001566 0.054651
#
#
# Mechanical properties :
#
#
# Convention : Reuss Voigt Hill
#
# Bulk Modulus (GPa) = 27.34844 44.87295 36.11070
# Shear Modulus (GPa) = 27.17270 35.63312 31.40291
#
# Velocity S-wave (km/s) = 3.42498 3.92210 3.68194
# Velocity P-wave (km/s) = 5.23900 6.31524 5.80213
#
# Compressibility (1/GPa) = 0.03656515
#
# Stress axis : x y z
#
# Youngs Moduli (GPa) = 54.94357 62.68352 79.73008
#
# Poissons Ratio (x) = -0.09135 0.24016
# Poissons Ratio (y) = -0.08007 0.27990
# Poissons Ratio (z) = 0.16550 0.22006
#
# Static dielectric constant tensor:
#      x y z
#    x 2.168280 -0.019080 -0.114220 
#    y -0.019080 1.887000 0.040180 
#    z -0.114220 0.040180 1.936360 
# 
# From -- ./inp_files/392727.got.cif
#   From: 2010.05.17/outbox.cif.g08.bks.cpg/sg2_197_cif.got.tgz:392727.got - 2010.06.03 11:33:40.
