data_PCOD9091166
_publ_section_title
;
Structure prediction by ZEFSAII (Michael W. Deem and Ramdas Pophale) SiO2 
 PCOD9091166
Probable space group: P -1
;
_chemical_formula_sum "Si O2"
_cell_formula_units_Z 14
_cell_length_a 8.409375
_cell_length_b 9.867908
_cell_length_c 12.043652
_cell_angle_alpha 45.942713
_cell_angle_beta 107.158856
_cell_angle_gamma 127.222442
_cell_volume 557.968729
_symmetry_space_group_name_H-M "P -1"
_symmetry_group_IT_number 2
_symmetry_cell_setting 'triclinic'
loop_
_space_group_symop_operation_xyz
x,y,z
-x,-y,-z
loop_
_atom_site_type_symbol
_atom_site_label
_atom_site_fract_x
_atom_site_fract_y
_atom_site_fract_z
Si Si1 0.020956 0.859118 0.967311
Si Si2 0.853349 0.938983 0.681171
Si Si3 0.491837 0.844327 0.815341
Si Si4 0.681629 0.201544 0.847318
Si Si5 0.637283 0.660041 0.113709
Si Si6 0.605045 0.585438 0.590430
Si Si7 0.874984 0.137347 0.349984
O O1 0.189100 0.077673 0.954850
O O2 0.125508 0.726218 0.077164
O O3 0.997418 0.990979 0.787065
O O4 0.788310 0.653733 0.066583
O O5 0.913921 0.784272 0.714281
O O6 0.634142 0.851073 0.741703
O O7 0.896531 0.135025 0.489849
O O8 0.633736 0.087932 0.777737
O O9 0.280698 0.805139 0.758258
O O10 0.473884 0.665671 0.004425
O O11 0.682375 0.424438 0.713681
O O12 0.500000 0.000000 0.000000
O O13 0.548659 0.489934 0.294672
O O14 0.500000 0.500000 0.500000
O O15 0.744439 0.860221 0.457474
#
# Coordination Sequence:
#
# PCOD9091166 Si02
#       7
#     2   2   2   2   2   2   2
#     4   9  17  35  59  81 107 148 199 231 266 350
#     4  10  22  39  62  84 113 161 198 227 285 354
#     4  10  19  39  64  83 108 158 200 231 280 348
#     4  11  19  35  62  86 112 153 193 236 291 344
#     4   9  19  34  60  84 107 147 195 235 283 338
#     4  12  22  35  55  91 120 142 187 247 300 330
#     4  11  23  39  59  86 122 151 190 244 288 339
#
# _framework density 25.091010000000001
#
# number of rings (size 3 to 8) (size 9 to 14) (size 15 to 20)
#    0.000    1.714    4.286    3.000    0.000    0.000 
#    2.571    5.000    0.000    0.000    0.000    0.000 
#    0.000    0.000    0.000    0.000    0.000    0.000 
#
# Total GULP energy -77953.458509 kJ/mol
# GULP energy per Si atom -5568.104179 kJ/mol
# Density = 2.503390 g / cm^3
# Si number density = 25.091010 Si / 1000 Ang^3
#
#
#
# Elastic Constant Matrix: (Units=GPa)
#
#
# Indices 1 2 3 4 5 6 
#
# 1 166.8178 34.8212 80.9027 19.7015 17.7497 16.5097
# 2 34.8212 94.8166 46.6278 7.4775 1.4644 -6.3987
# 3 80.9027 46.6278 135.5777 25.0695 11.1667 19.5347
# 4 19.7015 7.4775 25.0695 49.1507 14.0923 7.7683
# 5 17.7497 1.4644 11.1667 14.0923 66.5895 8.5133
# 6 16.5097 -6.3987 19.5347 7.7683 8.5133 30.2511
#
#
#
# Elastic Compliance Matrix: (Units=1/GPa)
#
#
# Indices 1 2 3 4 5 6 
#
# 1 0.008705 -0.001097 -0.004387 -0.000461 -0.001248 -0.001680
# 2 -0.001097 0.013934 -0.005098 -0.000166 -0.000004 0.006882
# 3 -0.004387 -0.005098 0.013264 -0.003370 0.000608 -0.006556
# 4 -0.000461 -0.000166 -0.003370 0.023838 -0.004021 -0.002597
# 5 -0.001248 -0.000004 0.000608 -0.004021 0.016525 -0.003330
# 6 -0.001680 0.006882 -0.006556 -0.002597 -0.003330 0.041267
#
#
# Mechanical properties :
#
#
# Convention : Reuss Voigt Hill
#
# Bulk Modulus (GPa) = 67.84558 80.21281 74.02919
# Shear Modulus (GPa) = 34.81649 44.85564 39.83607
#
# Velocity S-wave (km/s) = 3.72910 4.23273 3.98887
# Velocity P-wave (km/s) = 6.75575 7.47838 7.12623
#
# Compressibility (1/GPa) = 0.01473935
#
# Stress axis : x y z
#
# Youngs Moduli (GPa) = 114.88149 71.76532 75.38973
#
# Poissons Ratio (x) = 0.07874 0.33071
# Poissons Ratio (y) = 0.12605 0.38434
# Poissons Ratio (z) = 0.50395 0.36586
#
# Static dielectric constant tensor:
#      x y z
#    x 2.417440 0.002770 -0.075480 
#    y 0.002770 2.360680 -0.131260 
#    z -0.075480 -0.131260 2.232880 
# 
# From -- ./inp_files/213787.got.cif
#   From: 2010.05.17/outbox.cif.g08.bks.cpg/sg2_107_cif.got.tgz:213787.got - 2010.06.03 11:33:40.
