data_PCOD9091462
_publ_section_title
;
Structure prediction by ZEFSAII (Michael W. Deem and Ramdas Pophale) SiO2 
 PCOD9091462
Probable space group: P -1
;
_chemical_formula_sum "Si O2"
_cell_formula_units_Z 16
_cell_length_a 9.670636
_cell_length_b 9.408782
_cell_length_c 15.117530
_cell_angle_alpha 70.416840
_cell_angle_beta 96.125701
_cell_angle_gamma 46.640749
_cell_volume 820.464096
_symmetry_space_group_name_H-M "P -1"
_symmetry_group_IT_number 2
_symmetry_cell_setting 'triclinic'
loop_
_space_group_symop_operation_xyz
x,y,z
-x,-y,-z
loop_
_atom_site_type_symbol
_atom_site_label
_atom_site_fract_x
_atom_site_fract_y
_atom_site_fract_z
Si Si1 0.868975 0.535484 0.402789
Si Si2 0.914963 0.894622 0.814094
Si Si3 0.920258 0.560824 0.880433
Si Si4 0.318602 0.027915 0.506739
Si Si5 0.679429 0.228444 0.094676
Si Si6 0.885279 0.927933 0.007633
Si Si7 0.464011 0.699593 0.428799
Si Si8 0.589667 0.047152 0.264072
O O1 0.682277 0.587753 0.422982
O O2 0.000000 0.500000 0.500000
O O3 0.743266 0.780447 0.297722
O O4 0.067122 0.287583 0.417560
O O5 0.000617 0.659861 0.833539
O O6 0.820534 0.956400 0.895133
O O7 0.107531 0.854269 0.846685
O O8 0.728577 0.113135 0.693044
O O9 0.661921 0.788904 0.797830
O O10 0.000000 0.500000 0.000000
O O11 0.986538 0.334680 0.902783
O O12 0.387298 0.839588 0.485343
O O13 0.350345 0.972767 0.625063
O O14 0.500000 0.000000 0.500000
O O15 0.619391 0.170936 0.182887
O O16 0.500000 0.500000 0.000000
O O17 0.711798 0.097414 0.037677
O O18 0.000000 0.000000 0.000000
O O19 0.500000 0.500000 0.500000
#
# Coordination Sequence:
#
# PCOD9091462 Si02
#       8
#     2   2   2   2   2   2   2   2
#     4  10  22  44  68  97 131 170 238 267 324 421
#     4  10  22  43  63  94 133 172 213 274 345 381
#     4  10  19  39  66  91 126 168 216 273 328 389
#     4  11  23  44  71  98 132 178 228 272 331 410
#     4  11  24  42  63  96 134 172 227 272 320 408
#     4   9  20  39  66  90 125 171 220 260 325 403
#     4  12  26  43  68 100 139 171 218 292 339 384
#     4  11  22  40  71  95 129 178 223 273 329 399
#
# _framework density 19.501159000000001
#
# number of rings (size 3 to 8) (size 9 to 14) (size 15 to 20)
#    0.000    1.500    3.750    2.250    3.500    5.500 
#    2.250    5.625    0.000    0.000    0.000    0.000 
#    0.000    0.000    0.000    0.000    0.000    0.000 
#
# Total GULP energy -89110.341603 kJ/mol
# GULP energy per Si atom -5569.396350 kJ/mol
# Density = 1.945677 g / cm^3
# Si number density = 19.501159 Si / 1000 Ang^3
#
#
#
# Elastic Constant Matrix: (Units=GPa)
#
#
# Indices 1 2 3 4 5 6 
#
# 1 81.6123 37.5289 29.6251 -3.4706 -11.9069 13.2026
# 2 37.5289 147.7792 43.4510 -15.1626 -6.9256 21.3833
# 3 29.6251 43.4510 108.0166 -6.3070 -12.3599 9.9159
# 4 -3.4706 -15.1626 -6.3070 33.6017 0.7319 -7.8415
# 5 -11.9069 -6.9256 -12.3599 0.7319 40.0078 -4.5167
# 6 13.2026 21.3833 9.9159 -7.8415 -4.5167 34.8189
#
#
#
# Elastic Compliance Matrix: (Units=1/GPa)
#
#
# Indices 1 2 3 4 5 6 
#
# 1 0.015310 -0.002614 -0.002560 -0.000911 0.002958 -0.003292
# 2 -0.002614 0.008859 -0.002449 0.002521 -0.000413 -0.003237
# 3 -0.002560 -0.002449 0.011267 0.000626 0.002249 -0.000301
# 4 -0.000911 0.002521 0.000626 0.032300 0.000439 0.005950
# 5 0.002958 -0.000413 0.002249 0.000439 0.026723 0.002057
# 6 -0.003292 -0.003237 -0.000301 0.005950 0.002057 0.033649
#
#
# Mechanical properties :
#
#
# Convention : Reuss Voigt Hill
#
# Bulk Modulus (GPa) = 49.53248 62.06867 55.80057
# Shear Modulus (GPa) = 33.31474 36.80590 35.06032
#
# Velocity S-wave (km/s) = 4.13770 4.34910 4.24472
# Velocity P-wave (km/s) = 6.94855 7.55757 7.25945
#
# Compressibility (1/GPa) = 0.02018877
#
# Stress axis : x y z
#
# Youngs Moduli (GPa) = 65.31826 112.88471 88.75614
#
# Poissons Ratio (x) = 0.29505 0.22722
# Poissons Ratio (y) = 0.17072 0.21740
# Poissons Ratio (z) = 0.16721 0.27651
#
# Static dielectric constant tensor:
#      x y z
#    x 1.668670 -0.009960 -0.017970 
#    y -0.009960 1.688050 -0.043990 
#    z -0.017970 -0.043990 1.545580 
# 
# From -- ./inp_files/494692.got.cif
#   From: 2010.05.17/outbox.cif.g08.bks.cpg/sg2_248_cif.got.tgz:494692.got - 2010.06.03 11:33:40.
