data_PCOD9091530
_publ_section_title
;
Structure prediction by ZEFSAII (Michael W. Deem and Ramdas Pophale) SiO2 
 PCOD9091530
Probable space group: P -1
;
_chemical_formula_sum "Si O2"
_cell_formula_units_Z 16
_cell_length_a 21.406434
_cell_length_b 9.741517
_cell_length_c 6.884025
_cell_angle_alpha 48.509880
_cell_angle_beta 109.265602
_cell_angle_gamma 133.347110
_cell_volume 761.180279
_symmetry_space_group_name_H-M "P -1"
_symmetry_group_IT_number 2
_symmetry_cell_setting 'triclinic'
loop_
_space_group_symop_operation_xyz
x,y,z
-x,-y,-z
loop_
_atom_site_type_symbol
_atom_site_label
_atom_site_fract_x
_atom_site_fract_y
_atom_site_fract_z
Si Si1 0.081509 0.553782 0.139298
Si Si2 0.996381 0.893503 0.297750
Si Si3 0.609307 0.867002 0.414261
Si Si4 0.458414 0.657082 0.132916
Si Si5 0.130782 0.254275 0.372185
Si Si6 0.672556 0.482839 0.559224
Si Si7 0.724067 0.987518 0.080732
Si Si8 0.392660 0.955530 0.350973
O O1 0.113615 0.438722 0.150600
O O2 0.953624 0.614523 0.544161
O O3 0.000000 0.500000 0.000000
O O4 0.170574 0.830734 0.006615
O O5 0.092978 0.070419 0.327670
O O6 0.933896 0.902844 0.364720
O O7 0.000000 0.000000 0.000000
O O8 0.533966 0.769984 0.269080
O O9 0.585198 0.619380 0.699595
O O10 0.698464 0.019833 0.236727
O O11 0.609827 0.008494 0.458297
O O12 0.386648 0.643651 0.188850
O O13 0.510544 0.827828 0.841765
O O14 0.229705 0.399622 0.394950
O O15 0.677990 0.704873 0.296165
O O16 0.635819 0.293460 0.525087
O O17 0.677178 0.032101 0.833990
#
# Coordination Sequence:
#
# PCOD9091530 Si02
#       8
#     2   2   2   2   2   2   2   2
#     4  10  19  39  67  88 123 173 209 262 323 382
#     4   9  19  39  62  89 119 162 213 260 318 378
#     4   9  20  39  62  88 125 163 212 263 312 377
#     4   9  20  37  62  89 123 166 210 260 319 374
#     4   9  20  39  62  87 128 165 205 263 323 374
#     4  11  21  39  61  92 127 168 211 261 321 382
#     4  10  22  40  60  89 128 166 210 261 320 380
#     4  11  20  40  62  90 123 167 212 264 315 375
#
# _framework density 21.019987
#
# number of rings (size 3 to 8) (size 9 to 14) (size 15 to 20)
#    0.750    1.500    1.250    2.250    0.000    0.500 
#    4.500   10.625    0.000    0.000    0.000    0.000 
#    0.000    0.000    0.000    0.000    0.000    0.000 
#
# Total GULP energy -89292.593731 kJ/mol
# GULP energy per Si atom -5580.787108 kJ/mol
# Density = 2.097214 g / cm^3
# Si number density = 21.019987 Si / 1000 Ang^3
#
#
#
# Elastic Constant Matrix: (Units=GPa)
#
#
# Indices 1 2 3 4 5 6 
#
# 1 76.2342 27.8681 21.2505 3.4764 1.9553 3.9063
# 2 27.8681 69.7992 41.9266 -4.4728 -14.2146 1.5776
# 3 21.2505 41.9266 107.9614 0.1429 -5.4661 -1.3734
# 4 3.4764 -4.4728 0.1429 25.8273 -3.1126 -4.6021
# 5 1.9553 -14.2146 -5.4661 -3.1126 15.6236 -2.8014
# 6 3.9063 1.5776 -1.3734 -4.6021 -2.8014 35.4593
#
#
#
# Elastic Compliance Matrix: (Units=1/GPa)
#
#
# Indices 1 2 3 4 5 6 
#
# 1 0.017591 -0.009800 -0.000354 -0.006239 -0.013086 -0.003359
# 2 -0.009800 0.029277 -0.008017 0.010298 0.027646 0.002987
# 3 -0.000354 -0.008017 0.012290 -0.001727 -0.003224 0.000393
# 4 -0.006239 0.010298 -0.001727 0.045101 0.019891 0.007587
# 5 -0.013086 0.027646 -0.003224 0.019891 0.095461 0.010210
# 6 -0.003359 0.002987 0.000393 0.007587 0.010210 0.030245
#
#
# Mechanical properties :
#
#
# Convention : Reuss Voigt Hill
#
# Bulk Modulus (GPa) = 43.82674 48.45391 46.14032
# Shear Modulus (GPa) = 18.25412 26.24535 22.24973
#
# Velocity S-wave (km/s) = 2.95009 3.53737 3.25699
# Velocity P-wave (km/s) = 5.70082 6.30757 6.01185
#
# Compressibility (1/GPa) = 0.02281712
#
# Stress axis : x y z
#
# Youngs Moduli (GPa) = 56.84831 34.15614 81.36962
#
# Poissons Ratio (x) = 0.33472 0.02879
# Poissons Ratio (y) = 0.55709 0.65233
# Poissons Ratio (z) = 0.02011 0.27382
#
# Static dielectric constant tensor:
#      x y z
#    x 1.784170 -0.011060 0.021150 
#    y -0.011060 1.765860 -0.029990 
#    z 0.021150 -0.029990 1.789590 
# 
# From -- ./inp_files/116677.got.cif
#   From: 2010.05.17/outbox.cif.g08.bks.cpg/sg2_59_cif.got.tgz:116677.got - 2010.06.03 11:33:40.
