data_PCOD9091713
_publ_section_title
;
Structure prediction by ZEFSAII (Michael W. Deem and Ramdas Pophale) SiO2 
 PCOD9091713
Probable space group: P -1
;
_chemical_formula_sum "Si O2"
_cell_formula_units_Z 12
_cell_length_a 9.012592
_cell_length_b 9.834009
_cell_length_c 9.437531
_cell_angle_alpha 102.282873
_cell_angle_beta 134.245415
_cell_angle_gamma 100.506554
_cell_volume 515.978030
_symmetry_space_group_name_H-M "P -1"
_symmetry_group_IT_number 2
_symmetry_cell_setting 'triclinic'
loop_
_space_group_symop_operation_xyz
x,y,z
-x,-y,-z
loop_
_atom_site_type_symbol
_atom_site_label
_atom_site_fract_x
_atom_site_fract_y
_atom_site_fract_z
Si Si1 0.192515 0.155910 0.089614
Si Si2 0.605407 0.176147 0.553959
Si Si3 0.690908 0.940609 0.153901
Si Si4 0.942838 0.271584 0.538982
Si Si5 0.932750 0.354698 0.023254
Si Si6 0.729957 0.381806 0.172530
O O1 0.428032 0.206353 0.346928
O O2 0.214089 0.103088 0.934067
O O3 0.099414 0.280870 0.077241
O O4 0.000000 0.000000 0.000000
O O5 0.830510 0.229737 0.612039
O O6 0.670920 0.255396 0.767607
O O7 0.500000 0.000000 0.500000
O O8 0.888689 0.099427 0.400416
O O9 0.526571 0.764059 0.069067
O O10 0.500000 0.000000 0.000000
O O11 0.793183 0.332835 0.355279
O O12 0.197805 0.431076 0.742151
O O13 0.913964 0.375373 0.180521
O O14 0.000000 0.500000 0.000000
#
# Coordination Sequence:
#
# PCOD9091713 Si02
#       6
#     2   2   2   2   2   2
#     4  12  24  44  73 105 143 193 237 293 372 425
#     4  12  23  43  73 103 140 184 240 294 354 431
#     4  10  19  39  70  96 135 193 229 285 360 426
#     4  10  20  38  71  98 134 193 229 284 370 417
#     4  12  26  45  71 105 146 183 241 304 353 426
#     4  10  20  41  71  94 144 190 225 298 364 415
#
# _framework density 23.256803999999999
#
# number of rings (size 3 to 8) (size 9 to 14) (size 15 to 20)
#    0.000    1.000    6.667    3.000    0.000    0.667 
#    0.000    3.333    3.667    0.000    0.000    0.000 
#    0.000    0.000    0.000    0.000    0.000    0.000 
#
# Total GULP energy -66846.433227 kJ/mol
# GULP energy per Si atom -5570.536102 kJ/mol
# Density = 2.320387 g / cm^3
# Si number density = 23.256804 Si / 1000 Ang^3
#
#
#
# Elastic Constant Matrix: (Units=GPa)
#
#
# Indices 1 2 3 4 5 6 
#
# 1 130.2127 63.1100 29.9158 -6.3137 -26.8840 0.5162
# 2 63.1100 181.1614 43.0696 23.3454 10.1820 2.2693
# 3 29.9158 43.0696 100.3265 23.1618 -12.5215 -8.6569
# 4 -6.3137 23.3454 23.1618 52.1035 10.9023 6.5801
# 5 -26.8840 10.1820 -12.5215 10.9023 32.3460 2.5391
# 6 0.5162 2.2693 -8.6569 6.5801 2.5391 48.0469
#
#
#
# Elastic Compliance Matrix: (Units=1/GPa)
#
#
# Indices 1 2 3 4 5 6 
#
# 1 0.012799 -0.005172 -0.000681 0.001889 0.011434 -0.000879
# 2 -0.005172 0.008607 -0.002715 -0.001685 -0.007474 -0.000214
# 3 -0.000681 -0.002715 0.014316 -0.007329 0.008042 0.003294
# 4 0.001889 -0.001685 -0.007329 0.025889 -0.009123 -0.004325
# 5 0.011434 -0.007474 0.008042 -0.009123 0.048933 0.000343
# 6 -0.000879 -0.000214 0.003294 -0.004325 0.000343 0.022000
#
#
# Mechanical properties :
#
#
# Convention : Reuss Voigt Hill
#
# Bulk Modulus (GPa) = 53.80504 75.98795 64.89650
# Shear Modulus (GPa) = 32.07705 44.87297 38.47501
#
# Velocity S-wave (km/s) = 3.71786 4.39732 4.07179
# Velocity P-wave (km/s) = 6.45100 7.65025 7.07608
#
# Compressibility (1/GPa) = 0.01858562
#
# Stress axis : x y z
#
# Youngs Moduli (GPa) = 78.13388 116.18483 69.85219
#
# Poissons Ratio (x) = 0.60087 0.04758
# Poissons Ratio (y) = 0.40409 0.18965
# Poissons Ratio (z) = 0.05322 0.31545
#
# Static dielectric constant tensor:
#      x y z
#    x 1.816450 0.007010 0.046580 
#    y 0.007010 1.817360 0.019940 
#    z 0.046580 0.019940 1.976250 
# 
# From -- ./inp_files/150571.got.cif
#   From: 2010.05.17/outbox.cif.g08.bks.cpg/sg2_76_cif.got.tgz:150571.got - 2010.06.03 11:33:40.
