data_PCOD9091751
_publ_section_title
;
Structure prediction by ZEFSAII (Michael W. Deem and Ramdas Pophale) SiO2 
 PCOD9091751
Probable space group: P -1
;
_chemical_formula_sum "Si O2"
_cell_formula_units_Z 16
_cell_length_a 7.817408
_cell_length_b 8.708912
_cell_length_c 15.920642
_cell_angle_alpha 117.218263
_cell_angle_beta 140.238568
_cell_angle_gamma 67.970553
_cell_volume 615.961944
_symmetry_space_group_name_H-M "P -1"
_symmetry_group_IT_number 2
_symmetry_cell_setting 'triclinic'
loop_
_space_group_symop_operation_xyz
x,y,z
-x,-y,-z
loop_
_atom_site_type_symbol
_atom_site_label
_atom_site_fract_x
_atom_site_fract_y
_atom_site_fract_z
Si Si1 0.946535 0.745382 0.743892
Si Si2 0.795828 0.294920 0.781149
Si Si3 0.446393 0.373214 0.203721
Si Si4 0.590985 0.344069 0.431237
Si Si5 0.277228 0.142961 0.487727
Si Si6 0.353794 0.454564 0.847990
Si Si7 0.963383 0.842593 0.337770
Si Si8 0.879529 0.937182 0.025854
O O1 0.068609 0.560179 0.769114
O O2 0.665478 0.776200 0.693212
O O3 0.865979 0.760166 0.619901
O O4 0.144506 0.893222 0.882362
O O5 0.811612 0.501362 0.839234
O O6 0.479281 0.258180 0.643792
O O7 0.948998 0.219266 0.738475
O O8 0.918381 0.195363 0.881670
O O9 0.629804 0.388023 0.359543
O O10 0.528708 0.457209 0.168084
O O11 0.378116 0.175346 0.113984
O O12 0.500000 0.500000 0.500000
O O13 0.837684 0.247190 0.542825
O O14 0.500000 0.000000 0.500000
O O15 0.044667 0.040790 0.419761
O O16 0.315118 0.248798 0.775995
O O17 0.500000 0.500000 0.000000
O O18 0.000000 0.000000 0.000000
#
# Coordination Sequence:
#
# PCOD9091751 Si02
#       8
#     2   2   2   2   2   2   2   2
#     4  12  22  45  72 102 135 178 235 288 345 401
#     4  11  21  43  73 103 132 170 237 294 343 397
#     4  12  27  43  65 102 144 184 232 275 344 423
#     4  12  20  41  75 104 123 172 234 298 338 389
#     4  10  19  39  74 106 125 164 232 297 343 387
#     4  12  30  47  63  96 149 201 223 260 347 437
#     4  11  21  42  72  98 135 172 233 284 342 401
#     4  12  25  39  70 105 135 175 236 298 338 395
#
# _framework density 25.975632000000001
#
# number of rings (size 3 to 8) (size 9 to 14) (size 15 to 20)
#    0.000    0.500    8.750    1.125    1.750    1.000 
#    0.000    0.625    0.000    0.000    0.000    0.000 
#    0.000    0.000    0.000    0.000    0.000    0.000 
#
# Total GULP energy -89540.776534 kJ/mol
# GULP energy per Si atom -5596.298533 kJ/mol
# Density = 2.591651 g / cm^3
# Si number density = 25.975632 Si / 1000 Ang^3
#
#
#
# Elastic Constant Matrix: (Units=GPa)
#
#
# Indices 1 2 3 4 5 6 
#
# 1 94.3556 17.6788 43.0562 1.1873 -25.2738 34.7803
# 2 17.6788 93.8680 41.4471 -4.2332 -10.8015 28.7183
# 3 43.0562 41.4471 137.8810 -13.7914 -26.6803 22.4000
# 4 1.1873 -4.2332 -13.7914 69.3638 16.4275 -4.2203
# 5 -25.2738 -10.8015 -26.6803 16.4275 30.7805 -5.0826
# 6 34.7803 28.7183 22.4000 -4.2203 -5.0826 48.3477
#
#
#
# Elastic Compliance Matrix: (Units=1/GPa)
#
#
# Indices 1 2 3 4 5 6 
#
# 1 0.021138 0.003320 -0.002492 -0.005552 0.016892 -0.014733
# 2 0.003320 0.014748 -0.003271 -0.001384 0.004269 -0.009305
# 3 -0.002492 -0.003271 0.010143 0.000602 0.005216 -0.000363
# 4 -0.005552 -0.001384 0.000602 0.017995 -0.013349 0.004704
# 5 0.016892 0.004269 0.005216 -0.013349 0.057483 -0.012226
# 6 -0.014733 -0.009305 -0.000363 0.004704 -0.012226 0.036103
#
#
# Mechanical properties :
#
#
# Convention : Reuss Voigt Hill
#
# Bulk Modulus (GPa) = 24.30536 58.94096 41.62316
# Shear Modulus (GPa) = 28.37543 44.62656 36.50099
#
# Velocity S-wave (km/s) = 3.30871 4.14939 3.75267
# Velocity P-wave (km/s) = 4.89633 6.75994 5.90215
#
# Compressibility (1/GPa) = 0.04114319
#
# Stress axis : x y z
#
# Youngs Moduli (GPa) = 47.30718 67.80679 98.59481
#
# Poissons Ratio (x) = -0.22512 0.24571
# Poissons Ratio (y) = -0.15706 0.32247
# Poissons Ratio (z) = 0.11790 0.22178
#
# Static dielectric constant tensor:
#      x y z
#    x 2.155600 -0.004210 0.014470 
#    y -0.004210 2.058410 0.118780 
#    z 0.014470 0.118780 2.096050 
# 
# From -- ./inp_files/495544.got.cif
#   From: 2010.05.17/outbox.cif.g08.bks.cpg/sg2_248_cif.got.tgz:495544.got - 2010.06.03 11:33:40.
