data_PCOD9091369
_publ_section_title
;
Structure prediction by ZEFSAII (Michael W. Deem and Ramdas Pophale) SiO2 
 PCOD9091369
Probable space group: P -1
;
_chemical_formula_sum "Si O2"
_cell_formula_units_Z 16
_cell_length_a 5.729911
_cell_length_b 17.170792
_cell_length_c 11.154845
_cell_angle_alpha 56.181792
_cell_angle_beta 48.742309
_cell_angle_gamma 71.967339
_cell_volume 682.543720
_symmetry_space_group_name_H-M "P -1"
_symmetry_group_IT_number 2
_symmetry_cell_setting 'triclinic'
loop_
_space_group_symop_operation_xyz
x,y,z
-x,-y,-z
loop_
_atom_site_type_symbol
_atom_site_label
_atom_site_fract_x
_atom_site_fract_y
_atom_site_fract_z
Si Si1 0.684095 0.941429 0.734743
Si Si2 0.087876 0.800042 0.815144
Si Si3 0.621900 0.408007 0.868485
Si Si4 0.813284 0.864549 0.506620
Si Si5 0.108064 0.776482 0.091333
Si Si6 0.736327 0.496411 0.311381
Si Si7 0.213172 0.080011 0.791154
Si Si8 0.045819 0.320632 0.271591
O O1 0.816340 0.930389 0.565716
O O2 0.916047 0.894931 0.784150
O O3 0.551570 0.041278 0.716115
O O4 0.384543 0.861473 0.912441
O O5 0.449125 0.829564 0.650709
O O6 0.004728 0.728344 0.798468
O O7 0.002505 0.755063 0.009905
O O8 0.745750 0.317043 0.837668
O O9 0.421960 0.458511 0.791567
O O10 0.927972 0.461583 0.781963
O O11 0.389510 0.373858 0.086346
O O12 0.899095 0.915351 0.310972
O O13 0.968346 0.768640 0.559084
O O14 0.839006 0.819407 0.220744
O O15 0.500000 0.500000 0.500000
O O16 0.807848 0.393005 0.330629
O O17 0.000000 0.000000 0.000000
#
# Coordination Sequence:
#
# PCOD9091369 Si02
#       8
#     2   2   2   2   2   2   2   2
#     4   9  19  39  62  91 130 172 225 288 340 412
#     4  10  19  39  65  93 134 169 237 282 346 413
#     4  12  24  47  75 103 145 195 239 294 353 434
#     4  10  21  38  68  93 135 177 228 289 345 422
#     4  10  21  38  65  96 127 179 222 289 347 415
#     4  12  30  46  72 110 150 185 234 304 361 430
#     4  10  22  39  62  95 135 179 226 285 355 425
#     4  11  24  44  73 103 130 189 237 289 352 427
#
# _framework density 23.441721000000001
#
# number of rings (size 3 to 8) (size 9 to 14) (size 15 to 20)
#    0.000    1.500    3.750    2.250    3.500    2.000 
#    0.000    7.500    0.000    0.000    0.000    0.000 
#    0.000    0.000    0.000    0.000    0.000    0.000 
#
# Total GULP energy -89424.748207 kJ/mol
# GULP energy per Si atom -5589.046763 kJ/mol
# Density = 2.338837 g / cm^3
# Si number density = 23.441721 Si / 1000 Ang^3
#
#
#
# Elastic Constant Matrix: (Units=GPa)
#
#
# Indices 1 2 3 4 5 6 
#
# 1 108.5921 56.2941 33.0764 -10.7702 9.4156 -11.2929
# 2 56.2941 231.7104 42.4687 0.7893 14.1969 -43.2885
# 3 33.0764 42.4687 74.3375 0.1022 9.9291 -5.9018
# 4 -10.7702 0.7893 0.1022 26.0097 -7.5229 1.3171
# 5 9.4156 14.1969 9.9291 -7.5229 33.5076 -7.8587
# 6 -11.2929 -43.2885 -5.9018 1.3171 -7.8587 33.9087
#
#
#
# Elastic Compliance Matrix: (Units=1/GPa)
#
#
# Indices 1 2 3 4 5 6 
#
# 1 0.012122 -0.002125 -0.004149 0.005067 -0.000046 0.000394
# 2 -0.002125 0.006639 -0.002237 -0.001491 -0.000152 0.007401
# 3 -0.004149 -0.002237 0.016950 -0.002775 -0.004028 -0.002113
# 4 0.005067 -0.001491 -0.002775 0.043428 0.009751 -0.000126
# 5 -0.000046 -0.000152 -0.004028 0.009751 0.034899 0.006799
# 6 0.000394 0.007401 -0.002113 -0.000126 0.006799 0.040284
#
#
# Mechanical properties :
#
#
# Convention : Reuss Voigt Hill
#
# Bulk Modulus (GPa) = 53.50956 75.36869 64.43912
# Shear Modulus (GPa) = 28.15717 37.53859 32.84788
#
# Velocity S-wave (km/s) = 3.46953 4.00604 3.74740
# Velocity P-wave (km/s) = 6.23910 7.32251 6.80241
#
# Compressibility (1/GPa) = 0.01868825
#
# Stress axis : x y z
#
# Youngs Moduli (GPa) = 82.49587 150.61875 58.99577
#
# Poissons Ratio (x) = 0.32012 0.24477
# Poissons Ratio (y) = 0.17533 0.13200
# Poissons Ratio (z) = 0.34226 0.33699
#
# Static dielectric constant tensor:
#      x y z
#    x 1.973930 0.019230 -0.068600 
#    y 0.019230 1.888550 -0.038820 
#    z -0.068600 -0.038820 1.938610 
# 
# From -- ./inp_files/217561.got.cif
#   From: 2010.05.17/outbox.cif.g08.bks.cpg/sg2_109_cif.got.tgz:217561.got - 2010.06.03 11:33:40.
