data_PCOD9091057
_publ_section_title
;
Structure prediction by ZEFSAII (Michael W. Deem and Ramdas Pophale) SiO2 
 PCOD9091057
Probable space group: P -1
;
_chemical_formula_sum "Si O2"
_cell_formula_units_Z 16
_cell_length_a 9.006044
_cell_length_b 8.202969
_cell_length_c 18.324736
_cell_angle_alpha 65.844714
_cell_angle_beta 102.979114
_cell_angle_gamma 50.039144
_cell_volume 678.966858
_symmetry_space_group_name_H-M "P -1"
_symmetry_group_IT_number 2
_symmetry_cell_setting 'triclinic'
loop_
_space_group_symop_operation_xyz
x,y,z
-x,-y,-z
loop_
_atom_site_type_symbol
_atom_site_label
_atom_site_fract_x
_atom_site_fract_y
_atom_site_fract_z
Si Si1 0.519588 0.916572 0.119170
Si Si2 0.835507 0.716270 0.680535
Si Si3 0.613862 0.961371 0.329466
Si Si4 0.375419 0.704818 0.800156
Si Si5 0.543018 0.591068 0.284912
Si Si6 0.045891 0.258845 0.458154
Si Si7 0.367509 0.842863 0.978165
Si Si8 0.893312 0.255453 0.741246
O O1 0.456728 0.873379 0.195222
O O2 0.358907 0.973387 0.026360
O O3 0.848343 0.573414 0.208051
O O4 0.483909 0.164067 0.060326
O O5 0.794843 0.554052 0.675973
O O6 0.804167 0.873503 0.578560
O O7 0.613622 0.945806 0.677324
O O8 0.859834 0.617325 0.382662
O O9 0.756588 0.931208 0.417372
O O10 0.490708 0.234648 0.215029
O O11 0.393186 0.567522 0.755552
O O12 0.494038 0.471843 0.921514
O O13 0.073971 0.043402 0.729525
O O14 0.811003 0.341981 0.408541
O O15 0.321931 0.690095 0.282787
O O16 0.086414 0.066933 0.868710
#
# Coordination Sequence:
#
# PCOD9091057 Si02
#       8
#     2   2   2   2   2   2   2   2
#     4   8  18  36  59  87 120 153 198 244 290 343
#     4  10  19  39  63  86 120 158 193 245 295 354
#     4  11  22  40  65  90 113 160 199 241 303 353
#     4  11  22  38  60  88 122 156 200 242 290 350
#     4  10  22  40  61  89 119 156 192 253 293 348
#     4  10  23  41  64  88 121 148 201 251 293 354
#     4   9  19  37  59  85 122 160 194 244 288 346
#     4  11  21  38  61  88 122 158 199 238 296 351
#
# _framework density 23.565215999999999
#
# number of rings (size 3 to 8) (size 9 to 14) (size 15 to 20)
#    0.000    2.000    2.500    0.750    0.000    5.500 
#    2.250    1.250    0.000    0.000    0.000    0.000 
#    0.000    0.000    0.000    0.000    0.000    0.000 
#
# Total GULP energy -89364.291679 kJ/mol
# GULP energy per Si atom -5585.268230 kJ/mol
# Density = 2.351158 g / cm^3
# Si number density = 23.565216 Si / 1000 Ang^3
#
#
#
# Elastic Constant Matrix: (Units=GPa)
#
#
# Indices 1 2 3 4 5 6 
#
# 1 137.3428 4.7220 16.7067 -3.1929 2.8191 -19.2720
# 2 4.7220 53.4474 -1.8650 6.4842 0.4255 -21.5537
# 3 16.7067 -1.8650 35.3396 12.3386 -2.7540 6.4649
# 4 -3.1929 6.4842 12.3386 31.3627 10.8061 -1.5051
# 5 2.8191 0.4255 -2.7540 10.8061 37.7475 -4.9353
# 6 -19.2720 -21.5537 6.4649 -1.5051 -4.9353 31.2582
#
#
#
# Elastic Compliance Matrix: (Units=1/GPa)
#
#
# Indices 1 2 3 4 5 6 
#
# 1 0.009513 0.001879 -0.007688 0.004522 -0.001444 0.008741
# 2 0.001879 0.027446 -0.001056 -0.005354 0.003703 0.020629
# 3 -0.007688 -0.001056 0.042182 -0.020483 0.007702 -0.013963
# 4 0.004522 -0.005354 -0.020483 0.046741 -0.014727 0.003258
# 5 -0.001444 0.003703 0.007702 -0.014727 0.031911 0.004399
# 6 0.008741 0.020629 -0.013963 0.003258 0.004399 0.055344
#
#
# Mechanical properties :
#
#
# Convention : Reuss Voigt Hill
#
# Bulk Modulus (GPa) = 15.28805 29.47304 22.38055
# Shear Modulus (GPa) = 20.10688 33.84475 26.97581
#
# Velocity S-wave (km/s) = 2.92420 3.79386 3.38706
# Velocity P-wave (km/s) = 4.23118 5.63252 4.98138
#
# Compressibility (1/GPa) = 0.06541056
#
# Stress axis : x y z
#
# Youngs Moduli (GPa) = 105.12003 36.43507 23.70684
#
# Poissons Ratio (x) = -0.06846 0.18227
# Poissons Ratio (y) = -0.19752 0.02503
# Poissons Ratio (z) = 0.80820 0.03847
#
# Static dielectric constant tensor:
#      x y z
#    x 1.921440 0.039300 -0.044660 
#    y 0.039300 1.916160 -0.014800 
#    z -0.044660 -0.014800 1.905460 
# 
# From -- ./inp_files/222698.got.cif
#   From: 2010.05.17/outbox.cif.g08.bks.cpg/sg2_112_cif.got.tgz:222698.got - 2010.06.03 11:33:40.
