data_PCOD9091236
_publ_section_title
;
Structure prediction by ZEFSAII (Michael W. Deem and Ramdas Pophale) SiO2 
 PCOD9091236
Probable space group: P -1
;
_chemical_formula_sum "Si O2"
_cell_formula_units_Z 16
_cell_length_a 5.184519
_cell_length_b 18.292258
_cell_length_c 9.476282
_cell_angle_alpha 58.674755
_cell_angle_beta 69.550898
_cell_angle_gamma 106.927252
_cell_volume 580.410218
_symmetry_space_group_name_H-M "P -1"
_symmetry_group_IT_number 2
_symmetry_cell_setting 'triclinic'
loop_
_space_group_symop_operation_xyz
x,y,z
-x,-y,-z
loop_
_atom_site_type_symbol
_atom_site_label
_atom_site_fract_x
_atom_site_fract_y
_atom_site_fract_z
Si Si1 0.112797 0.083799 0.547942
Si Si2 0.853372 0.915690 0.982448
Si Si3 0.421211 0.257017 0.563861
Si Si4 0.663894 0.143221 0.177794
Si Si5 0.022346 0.323264 0.727684
Si Si6 0.620403 0.414973 0.751057
Si Si7 0.125614 0.255936 0.222877
Si Si8 0.811988 0.584090 0.754783
O O1 0.328647 0.174085 0.538871
O O2 0.335884 0.067169 0.414652
O O3 0.014077 0.142693 0.405515
O O4 0.823961 0.981390 0.795856
O O5 0.127411 0.901048 0.872416
O O6 0.592221 0.804627 0.228228
O O7 0.000000 0.000000 0.000000
O O8 0.144458 0.280488 0.624339
O O9 0.787640 0.369954 0.355100
O O10 0.873779 0.234621 0.167060
O O11 0.696595 0.214732 0.969265
O O12 0.343016 0.374147 0.722460
O O13 0.911668 0.402036 0.661626
O O14 0.686070 0.520263 0.698702
O O15 0.478208 0.337020 0.994388
O O16 0.137373 0.310636 0.308350
O O17 0.500000 0.500000 0.000000
#
# Coordination Sequence:
#
# PCOD9091236 Si02
#       8
#     2   2   2   2   2   2   2   2
#     4  11  20  38  68  92 128 176 223 271 339 404
#     4   9  21  39  64  95 128 174 220 274 343 409
#     4  10  22  41  64  93 139 171 221 284 339 401
#     4  10  19  39  64  91 133 171 218 281 324 407
#     4  10  22  41  66  99 140 182 223 284 345 405
#     4  10  22  41  66  99 136 181 233 278 343 408
#     4  10  21  37  62 100 128 171 228 279 334 391
#     4  10  22  40  64  96 130 173 223 284 337 402
#
# _framework density 27.566711000000002
#
# number of rings (size 3 to 8) (size 9 to 14) (size 15 to 20)
#    0.000    2.000    2.500    0.375    0.000    3.500 
#    0.000    4.375    0.000    0.000    0.000    0.000 
#    0.000    0.000    0.000    0.000    0.000    0.000 
#
# Total GULP energy -89277.153742 kJ/mol
# GULP energy per Si atom -5579.822109 kJ/mol
# Density = 2.750397 g / cm^3
# Si number density = 27.566711 Si / 1000 Ang^3
#
#
#
# Elastic Constant Matrix: (Units=GPa)
#
#
# Indices 1 2 3 4 5 6 
#
# 1 51.7610 14.8817 34.1734 14.4798 12.6514 -10.3709
# 2 14.8817 195.6161 60.5733 20.6678 -3.5069 -2.1853
# 3 34.1734 60.5733 153.6519 44.0534 -2.7942 0.7561
# 4 14.4798 20.6678 44.0534 61.8102 7.7927 8.5831
# 5 12.6514 -3.5069 -2.7942 7.7927 46.8655 -8.5486
# 6 -10.3709 -2.1853 0.7561 8.5831 -8.5486 44.9758
#
#
#
# Elastic Compliance Matrix: (Units=1/GPa)
#
#
# Indices 1 2 3 4 5 6 
#
# 1 0.025974 -0.000174 -0.005174 -0.002334 -0.005964 0.005380
# 2 -0.000174 0.005850 -0.002101 -0.000553 0.000540 0.000488
# 3 -0.005174 -0.002101 0.010177 -0.005718 0.002827 0.000162
# 4 -0.002334 -0.000553 -0.005718 0.022326 -0.004483 -0.005582
# 5 -0.005964 0.000540 0.002827 -0.004483 0.024658 0.004146
# 6 0.005380 0.000488 0.000162 -0.005582 0.004146 0.025349
#
#
# Mechanical properties :
#
#
# Convention : Reuss Voigt Hill
#
# Bulk Modulus (GPa) = 36.89711 68.92062 52.90887
# Shear Modulus (GPa) = 36.16212 50.15698 43.15955
#
# Velocity S-wave (km/s) = 3.62581 4.27016 3.96111
# Velocity P-wave (km/s) = 5.56259 7.02624 6.33681
#
# Compressibility (1/GPa) = 0.02710239
#
# Stress axis : x y z
#
# Youngs Moduli (GPa) = 38.49997 170.95307 98.25864
#
# Poissons Ratio (x) = 0.02976 0.50838
# Poissons Ratio (y) = 0.00670 0.20646
# Poissons Ratio (z) = 0.19920 0.35921
#
# Static dielectric constant tensor:
#      x y z
#    x 1.586380 0.409650 0.721970 
#    y 0.409650 1.929610 -0.477650 
#    z 0.721970 -0.477650 1.431930 
# 
# From -- ./inp_files/369416.got.cif
#   From: 2010.05.17/outbox.cif.g08.bks.cpg/sg2_185_cif.got.tgz:369416.got - 2010.06.03 11:33:40.
