data_PCOD9091892
_publ_section_title
;
Structure prediction by ZEFSAII (Michael W. Deem and Ramdas Pophale) SiO2 
 PCOD9091892
Probable space group: P -1
;
_chemical_formula_sum "Si O2"
_cell_formula_units_Z 16
_cell_length_a 9.554621
_cell_length_b 6.911155
_cell_length_c 14.492598
_cell_angle_alpha 76.446441
_cell_angle_beta 90.633647
_cell_angle_gamma 58.598517
_cell_volume 783.791810
_symmetry_space_group_name_H-M "P -1"
_symmetry_group_IT_number 2
_symmetry_cell_setting 'triclinic'
loop_
_space_group_symop_operation_xyz
x,y,z
-x,-y,-z
loop_
_atom_site_type_symbol
_atom_site_label
_atom_site_fract_x
_atom_site_fract_y
_atom_site_fract_z
Si Si1 0.006719 0.266902 0.998301
Si Si2 0.682060 0.053959 0.853527
Si Si3 0.531225 0.570069 0.716775
Si Si4 0.909381 0.929804 0.701357
Si Si5 0.402991 0.009270 0.793671
Si Si6 0.089852 0.010274 0.852840
Si Si7 0.315089 0.595701 0.451203
Si Si8 0.770252 0.471866 0.349479
O O1 0.895110 0.212647 0.068888
O O2 0.193201 0.052976 0.049078
O O3 0.000000 0.500000 0.000000
O O4 0.981613 0.232710 0.895343
O O5 0.614532 0.326424 0.802207
O O6 0.531560 0.016397 0.862332
O O7 0.792376 0.915064 0.778560
O O8 0.647325 0.528223 0.634307
O O9 0.355896 0.607216 0.676734
O O10 0.498454 0.789782 0.750341
O O11 0.002608 0.026148 0.753734
O O12 0.052921 0.693417 0.680104
O O13 0.790689 0.126574 0.604433
O O14 0.314118 0.257777 0.711231
O O15 0.262436 0.985037 0.841912
O O16 0.500000 0.500000 0.500000
O O17 0.223852 0.548413 0.537342
#
# Coordination Sequence:
#
# PCOD9091892 Si02
#       8
#     2   2   2   2   2   2   2   2
#     4  10  23  42  64  92 123 154 200 252 299 364
#     4   9  22  38  61  91 118 163 199 244 309 358
#     4   9  19  39  59  85 128 161 200 248 299 359
#     4  10  19  40  63  86 124 162 203 253 298 355
#     4  11  22  38  64  89 122 165 199 247 301 362
#     4  10  23  39  62  91 120 159 199 244 308 353
#     4   9  19  36  62  86 124 164 202 249 302 349
#     4  10  20  36  61  90 119 162 208 249 297 352
#
# _framework density 20.413585000000001
#
# number of rings (size 3 to 8) (size 9 to 14) (size 15 to 20)
#    0.000    2.250    1.250    1.125    3.500    5.000 
#    0.000    1.875    0.000    0.000    0.000    0.000 
#    0.000    0.000    0.000    0.000    0.000    0.000 
#
# Total GULP energy -89275.415623 kJ/mol
# GULP energy per Si atom -5579.713476 kJ/mol
# Density = 2.036712 g / cm^3
# Si number density = 20.413585 Si / 1000 Ang^3
#
#
#
# Elastic Constant Matrix: (Units=GPa)
#
#
# Indices 1 2 3 4 5 6 
#
# 1 91.0909 15.7031 10.7780 -6.4773 1.4852 10.4160
# 2 15.7031 106.8087 23.9257 9.4746 5.8176 3.5721
# 3 10.7780 23.9257 49.2841 -0.7125 10.3739 6.7042
# 4 -6.4773 9.4746 -0.7125 12.3342 -4.9364 1.3912
# 5 1.4852 5.8176 10.3739 -4.9364 18.8225 -5.7150
# 6 10.4160 3.5721 6.7042 1.3912 -5.7150 31.7898
#
#
#
# Elastic Compliance Matrix: (Units=1/GPa)
#
#
# Indices 1 2 3 4 5 6 
#
# 1 0.012615 -0.002375 -0.001367 0.009535 0.001882 -0.003657
# 2 -0.002375 0.012090 -0.004676 -0.012504 -0.004191 0.000199
# 3 -0.001367 -0.004676 0.027265 -0.001129 -0.016083 -0.007619
# 4 0.009535 -0.012504 -0.001129 0.108501 0.032047 -0.000468
# 5 0.001882 -0.004191 -0.016083 0.032047 0.076266 0.015554
# 6 -0.003657 0.000199 -0.007619 -0.000468 0.015554 0.037056
#
#
# Mechanical properties :
#
#
# Convention : Reuss Voigt Hill
#
# Bulk Modulus (GPa) = 28.46145 38.66636 33.56390
# Shear Modulus (GPa) = 16.53781 25.70777 21.12279
#
# Velocity S-wave (km/s) = 2.84938 3.55258 3.22023
# Velocity P-wave (km/s) = 4.97975 5.98417 5.50492
#
# Compressibility (1/GPa) = 0.03513525
#
# Stress axis : x y z
#
# Youngs Moduli (GPa) = 79.27293 82.71470 36.67755
#
# Poissons Ratio (x) = 0.19641 0.05013
# Poissons Ratio (y) = 0.18823 0.17149
# Poissons Ratio (z) = 0.10835 0.38674
#
# Static dielectric constant tensor:
#      x y z
#    x 1.746140 -0.015640 0.003730 
#    y -0.015640 1.706970 0.012720 
#    z 0.003730 0.012720 1.750780 
# 
# From -- ./inp_files/83017.got.cif
#   From: 2010.05.17/outbox.cif.g08.bks.cpg/sg2_42_cif.got.tgz:83017.got - 2010.06.03 11:33:40.
