data_PCOD9091522
_publ_section_title
;
Structure prediction by ZEFSAII (Michael W. Deem and Ramdas Pophale) SiO2 
 PCOD9091522
Probable space group: P -1
;
_chemical_formula_sum "Si O2"
_cell_formula_units_Z 16
_cell_length_a 17.670364
_cell_length_b 7.644135
_cell_length_c 12.781269
_cell_angle_alpha 71.822959
_cell_angle_beta 43.040337
_cell_angle_gamma 39.537417
_cell_volume 611.396275
_symmetry_space_group_name_H-M "P -1"
_symmetry_group_IT_number 2
_symmetry_cell_setting 'triclinic'
loop_
_space_group_symop_operation_xyz
x,y,z
-x,-y,-z
loop_
_atom_site_type_symbol
_atom_site_label
_atom_site_fract_x
_atom_site_fract_y
_atom_site_fract_z
Si Si1 0.573719 0.461769 0.144430
Si Si2 0.812305 0.145135 0.607358
Si Si3 0.303879 0.176885 0.358038
Si Si4 0.715214 0.248159 0.276225
Si Si5 0.860482 0.744539 0.769026
Si Si6 0.426457 0.165168 0.657211
Si Si7 0.938007 0.522127 0.944129
Si Si8 0.805908 0.437189 0.789943
O O1 0.420025 0.506344 0.264069
O O2 0.687646 0.268177 0.175240
O O3 0.423796 0.840991 0.251956
O O4 0.723184 0.361059 0.932755
O O5 0.755547 0.064391 0.763491
O O6 0.000000 0.000000 0.500000
O O7 0.950810 0.909019 0.409443
O O8 0.307599 0.347246 0.244554
O O9 0.068910 0.457713 0.547882
O O10 0.380048 0.081186 0.417709
O O11 0.500000 0.500000 0.500000
O O12 0.723998 0.447852 0.265569
O O13 0.903825 0.854259 0.185469
O O14 0.768397 0.669492 0.857965
O O15 0.916988 0.697620 0.840653
O O16 0.500000 0.000000 0.500000
O O17 0.288915 0.224574 0.853388
O O18 0.000000 0.500000 0.000000
#
# Coordination Sequence:
#
# PCOD9091522 Si02
#       8
#     2   2   2   2   2   2   2   2
#     4  11  22  42  73 100 139 183 243 294 367 437
#     4  11  25  44  65 106 143 182 228 305 372 433
#     4  10  19  39  67 104 136 178 234 297 358 433
#     4  11  25  47  71 104 143 193 244 304 365 435
#     4  11  21  43  73  99 138 184 245 298 363 438
#     4  11  24  44  71 108 145 192 244 301 373 440
#     4  12  26  46  69 104 141 193 253 302 361 435
#     4  11  22  40  72 102 133 183 242 292 361 443
#
# _framework density 26.169604
#
# number of rings (size 3 to 8) (size 9 to 14) (size 15 to 20)
#    0.000    1.000    2.500    6.000    1.750    1.500 
#   11.250    0.000    0.000    0.000    0.000    0.000 
#    0.000    0.000    0.000    0.000    0.000    0.000 
#
# Total GULP energy -89316.391150 kJ/mol
# GULP energy per Si atom -5582.274447 kJ/mol
# Density = 2.611004 g / cm^3
# Si number density = 26.169604 Si / 1000 Ang^3
#
#
#
# Elastic Constant Matrix: (Units=GPa)
#
#
# Indices 1 2 3 4 5 6 
#
# 1 121.4509 21.5120 28.0064 -11.6843 17.3024 -3.2480
# 2 21.5120 112.5177 39.3736 3.5206 14.4115 -3.1284
# 3 28.0064 39.3736 138.1935 -13.5750 -5.0446 0.3819
# 4 -11.6843 3.5206 -13.5750 38.8245 -5.7302 9.9804
# 5 17.3024 14.4115 -5.0446 -5.7302 42.5897 -8.3434
# 6 -3.2480 -3.1284 0.3819 9.9804 -8.3434 29.1915
#
#
#
# Elastic Compliance Matrix: (Units=1/GPa)
#
#
# Indices 1 2 3 4 5 6 
#
# 1 0.009444 -0.000869 -0.001597 0.002021 -0.003606 -0.000743
# 2 -0.000869 0.010884 -0.003397 -0.003307 -0.003959 0.001113
# 3 -0.001597 -0.003397 0.009011 0.003708 0.003164 -0.001023
# 4 0.002021 -0.003307 0.003708 0.030947 0.002959 -0.009913
# 5 -0.003606 -0.003959 0.003164 0.002959 0.028272 0.006202
# 6 -0.000743 0.001113 -0.001023 -0.009913 0.006202 0.039468
#
#
# Mechanical properties :
#
#
# Convention : Reuss Voigt Hill
#
# Bulk Modulus (GPa) = 56.78079 61.10514 58.94296
# Shear Modulus (GPa) = 34.33505 41.00581 37.67043
#
# Velocity S-wave (km/s) = 3.62611 3.96273 3.79815
# Velocity P-wave (km/s) = 6.26705 6.65868 6.46583
#
# Compressibility (1/GPa) = 0.01761159
#
# Stress axis : x y z
#
# Youngs Moduli (GPa) = 105.88401 91.87824 110.98125
#
# Poissons Ratio (x) = 0.07981 0.17729
# Poissons Ratio (y) = 0.09198 0.37705
# Poissons Ratio (z) = 0.16915 0.31215
#
# Static dielectric constant tensor:
#      x y z
#    x 2.126990 0.200480 0.029560 
#    y 0.200480 2.257170 -0.034160 
#    z 0.029560 -0.034160 2.092230 
# 
# From -- ./inp_files/462107.got.cif
#   From: 2010.05.17/outbox.cif.g08.bks.cpg/sg2_232_cif.got.tgz:462107.got - 2010.06.03 11:33:40.
