data_PCOD9091877
_publ_section_title
;
Structure prediction by ZEFSAII (Michael W. Deem and Ramdas Pophale) SiO2 
 PCOD9091877
Probable space group: P -1
;
_chemical_formula_sum "Si O2"
_cell_formula_units_Z 14
_cell_length_a 12.189803
_cell_length_b 8.766186
_cell_length_c 8.596611
_cell_angle_alpha 109.879045
_cell_angle_beta 112.097319
_cell_angle_gamma 50.042423
_cell_volume 646.119130
_symmetry_space_group_name_H-M "P -1"
_symmetry_group_IT_number 2
_symmetry_cell_setting 'triclinic'
loop_
_space_group_symop_operation_xyz
x,y,z
-x,-y,-z
loop_
_atom_site_type_symbol
_atom_site_label
_atom_site_fract_x
_atom_site_fract_y
_atom_site_fract_z
Si Si1 0.077036 0.925799 0.257551
Si Si2 0.323812 0.122103 0.959754
Si Si3 0.773845 0.099232 0.991160
Si Si4 0.749476 0.069227 0.407393
Si Si5 0.296431 0.464287 0.215529
Si Si6 0.574183 0.439107 0.220368
Si Si7 0.477006 0.205160 0.516537
O O1 0.100950 0.019125 0.452539
O O2 0.160106 0.689964 0.252466
O O3 0.163917 0.928867 0.156731
O O4 0.912973 0.025870 0.150295
O O5 0.284377 0.032588 0.048226
O O6 0.263926 0.075564 0.761294
O O7 0.259031 0.350255 0.037290
O O8 0.500000 0.000000 0.000000
O O9 0.642741 0.324359 0.054062
O O10 0.692475 0.269573 0.348501
O O11 0.628226 0.144546 0.501951
O O12 0.428316 0.462944 0.208867
O O13 0.359936 0.330777 0.359539
O O14 0.560295 0.641982 0.309933
O O15 0.500000 0.000000 0.500000
#
# Coordination Sequence:
#
# PCOD9091877 Si02
#       7
#     2   2   2   2   2   2   2
#     4  11  23  43  65  91 130 175 215 255 319 384
#     4  11  21  39  64  97 131 160 214 266 317 371
#     4  10  25  41  65  93 129 171 215 265 313 376
#     4  10  20  38  63  89 128 166 206 259 315 378
#     4  11  21  39  66  92 130 166 210 264 319 380
#     4  10  19  40  62  94 122 166 214 258 319 375
#     4  11  21  34  62 101 127 159 213 269 321 366
#
# _framework density 21.667829999999999
#
# number of rings (size 3 to 8) (size 9 to 14) (size 15 to 20)
#    0.000    1.429    7.143    0.857    2.000    4.571 
#    0.000    0.000    0.000    2.571    0.000    0.000 
#    0.000    0.000    0.000    0.000    0.000    0.000 
#
# Total GULP energy -78268.777561 kJ/mol
# GULP energy per Si atom -5590.626969 kJ/mol
# Density = 2.161851 g / cm^3
# Si number density = 21.667830 Si / 1000 Ang^3
#
#
#
# Elastic Constant Matrix: (Units=GPa)
#
#
# Indices 1 2 3 4 5 6 
#
# 1 98.6990 37.1562 28.7126 5.3382 -6.1068 7.9880
# 2 37.1562 90.3831 50.4356 8.8251 13.1787 10.1013
# 3 28.7126 50.4356 119.1968 14.6470 35.6614 9.2364
# 4 5.3382 8.8251 14.6470 43.4728 4.5296 4.0198
# 5 -6.1068 13.1787 35.6614 4.5296 32.5543 4.4143
# 6 7.9880 10.1013 9.2364 4.0198 4.4143 30.6767
#
#
#
# Elastic Compliance Matrix: (Units=1/GPa)
#
#
# Indices 1 2 3 4 5 6 
#
# 1 0.013702 -0.004512 -0.003884 -0.000192 0.008973 -0.002179
# 2 -0.004512 0.016316 -0.005127 -0.000664 -0.001423 -0.002362
# 3 -0.003884 -0.005127 0.016771 -0.002424 -0.016738 0.000376
# 4 -0.000192 -0.000664 -0.002424 0.024196 -0.000188 -0.002145
# 5 0.008973 -0.001423 -0.016738 -0.000188 0.051919 -0.004275
# 6 -0.002179 -0.002362 0.000376 -0.002145 -0.004275 0.034726
#
#
# Mechanical properties :
#
#
# Convention : Reuss Voigt Hill
#
# Bulk Modulus (GPa) = 50.64758 60.09862 55.37310
# Shear Modulus (GPa) = 26.14304 34.13904 30.14104
#
# Velocity S-wave (km/s) = 3.47729 3.97364 3.73372
# Velocity P-wave (km/s) = 6.28867 6.98925 6.64820
#
# Compressibility (1/GPa) = 0.01974428
#
# Stress axis : x y z
#
# Youngs Moduli (GPa) = 72.98148 61.29012 59.62782
#
# Poissons Ratio (x) = 0.27653 0.23159
# Poissons Ratio (y) = 0.32928 0.30568
# Poissons Ratio (z) = 0.28345 0.31421
#
# Static dielectric constant tensor:
#      x y z
#    x 1.773480 -0.005810 -0.006470 
#    y -0.005810 1.777330 -0.027050 
#    z -0.006470 -0.027050 1.890210 
# 
# From -- ./inp_files/240571.got.cif
#   From: 2010.05.17/outbox.cif.g08.bks.cpg/sg2_121_cif.got.tgz:240571.got - 2010.06.03 11:33:40.
