data_PCOD9091336
_publ_section_title
;
Structure prediction by ZEFSAII (Michael W. Deem and Ramdas Pophale) SiO2 
 PCOD9091336
Probable space group: P -1
;
_chemical_formula_sum "Si O2"
_cell_formula_units_Z 14
_cell_length_a 11.665188
_cell_length_b 8.275101
_cell_length_c 6.492041
_cell_angle_alpha 80.666464
_cell_angle_beta 89.724560
_cell_angle_gamma 78.531243
_cell_volume 605.792901
_symmetry_space_group_name_H-M "P -1"
_symmetry_group_IT_number 2
_symmetry_cell_setting 'triclinic'
loop_
_space_group_symop_operation_xyz
x,y,z
-x,-y,-z
loop_
_atom_site_type_symbol
_atom_site_label
_atom_site_fract_x
_atom_site_fract_y
_atom_site_fract_z
Si Si1 0.717608 0.546994 0.175408
Si Si2 0.088781 0.596950 0.089453
Si Si3 0.434637 0.164400 0.084930
Si Si4 0.653375 0.202826 0.298267
Si Si5 0.785073 0.928378 0.671469
Si Si6 0.092965 0.278788 0.636737
Si Si7 0.148743 0.933930 0.959782
O O1 0.684954 0.381559 0.306078
O O2 0.809212 0.625516 0.293502
O O3 0.783002 0.496007 0.964625
O O4 0.601316 0.683421 0.104932
O O5 0.083081 0.781999 0.956771
O O6 0.036984 0.624197 0.316297
O O7 0.000000 0.500000 0.000000
O O8 0.518160 0.206739 0.256455
O O9 0.312193 0.137988 0.183052
O O10 0.500000 0.000000 0.000000
O O11 0.712964 0.064054 0.488124
O O12 0.718887 0.141288 0.095936
O O13 0.853790 0.022258 0.810168
O O14 0.871561 0.780782 0.581444
O O15 0.109735 0.101751 0.795646
#
# Coordination Sequence:
#
# PCOD9091336 Si02
#       7
#     2   2   2   2   2   2   2
#     4  10  21  41  62  90 127 161 202 254 307 362
#     4   9  20  38  65  89 125 166 196 248 315 357
#     4  12  21  41  66  87 122 167 206 250 309 364
#     4  10  22  39  62  91 127 161 202 255 306 355
#     4  11  22  39  63  94 122 159 213 249 295 369
#     4  10  20  40  62  91 122 165 203 254 298 363
#     4  10  19  39  65  90 126 160 207 247 299 370
#
# _framework density 23.110208
#
# number of rings (size 3 to 8) (size 9 to 14) (size 15 to 20)
#    0.000    1.714    2.857    2.143    0.000    0.571 
#    5.143    2.143    0.000    0.000    0.000    0.000 
#    0.000    0.000    0.000    0.000    0.000    0.000 
#
# Total GULP energy -78236.756006 kJ/mol
# GULP energy per Si atom -5588.339715 kJ/mol
# Density = 2.305761 g / cm^3
# Si number density = 23.110208 Si / 1000 Ang^3
#
#
#
# Elastic Constant Matrix: (Units=GPa)
#
#
# Indices 1 2 3 4 5 6 
#
# 1 57.6044 30.7334 -8.7567 1.8587 9.6057 14.9875
# 2 30.7334 127.5711 20.6085 7.9081 4.5878 15.9625
# 3 -8.7567 20.6085 57.2137 16.8185 3.3052 5.1495
# 4 1.8587 7.9081 16.8185 31.1710 -5.5505 -2.9745
# 5 9.6057 4.5878 3.3052 -5.5505 23.8468 -0.5159
# 6 14.9875 15.9625 5.1495 -2.9745 -0.5159 47.2040
#
#
#
# Elastic Compliance Matrix: (Units=1/GPa)
#
#
# Indices 1 2 3 4 5 6 
#
# 1 0.026864 -0.006088 0.010424 -0.008849 -0.013334 -0.008311
# 2 -0.006088 0.010107 -0.004698 0.000467 0.001248 -0.000929
# 3 0.010424 -0.004698 0.026723 -0.016347 -0.010929 -0.005786
# 4 -0.008849 0.000467 -0.016347 0.044934 0.016360 0.007445
# 5 -0.013334 0.001248 -0.010929 0.016360 0.052531 0.006609
# 6 -0.008311 -0.000929 -0.005786 0.007445 0.006609 0.025310
#
#
# Mechanical properties :
#
#
# Convention : Reuss Voigt Hill
#
# Bulk Modulus (GPa) = 15.88042 36.39550 26.13796
# Shear Modulus (GPa) = 24.01735 33.76462 28.89099
#
# Velocity S-wave (km/s) = 3.22724 3.82648 3.53957
# Velocity P-wave (km/s) = 4.55777 5.94184 5.29522
#
# Compressibility (1/GPa) = 0.06297063
#
# Stress axis : x y z
#
# Youngs Moduli (GPa) = 37.22473 98.94381 37.42050
#
# Poissons Ratio (x) = 0.60234 -0.39007
# Poissons Ratio (y) = 0.22661 0.17580
# Poissons Ratio (z) = -0.38803 0.46484
#
# Static dielectric constant tensor:
#      x y z
#    x 1.840220 -0.016390 -0.046040 
#    y -0.016390 1.883040 0.013660 
#    z -0.046040 0.013660 1.882280 
# 
# From -- ./inp_files/27741.got.cif
#   From: 2010.05.17/outbox.cif.g08.bks.cpg/sg2_14_cif.got.tgz:27741.got - 2010.06.03 11:33:40.
