data_PCOD9091941
_publ_section_title
;
Structure prediction by ZEFSAII (Michael W. Deem and Ramdas Pophale) SiO2 
 PCOD9091941
Probable space group: P -1
;
_chemical_formula_sum "Si O2"
_cell_formula_units_Z 14
_cell_length_a 11.476026
_cell_length_b 7.798719
_cell_length_c 14.436470
_cell_angle_alpha 79.534431
_cell_angle_beta 31.892229
_cell_angle_gamma 70.082737
_cell_volume 626.547704
_symmetry_space_group_name_H-M "P -1"
_symmetry_group_IT_number 2
_symmetry_cell_setting 'triclinic'
loop_
_space_group_symop_operation_xyz
x,y,z
-x,-y,-z
loop_
_atom_site_type_symbol
_atom_site_label
_atom_site_fract_x
_atom_site_fract_y
_atom_site_fract_z
Si Si1 0.873667 0.885837 0.042278
Si Si2 0.501277 0.033388 0.848639
Si Si3 0.513686 0.573778 0.206190
Si Si4 0.842963 0.262746 0.321383
Si Si5 0.662816 0.633067 0.301479
Si Si6 0.969400 0.751059 0.601757
Si Si7 0.465336 0.346108 0.104295
O O1 0.854146 0.721830 0.135981
O O2 0.603626 0.981048 0.180198
O O3 0.010812 0.830170 0.858137
O O4 0.000000 0.000000 0.000000
O O5 0.784998 0.943393 0.665875
O O6 0.435549 0.875982 0.966517
O O7 0.418949 0.255341 0.899932
O O8 0.611472 0.545330 0.247721
O O9 0.573233 0.389716 0.122799
O O10 0.229103 0.659590 0.394904
O O11 0.758496 0.482502 0.332078
O O12 0.597232 0.228767 0.505575
O O13 0.989832 0.219458 0.320464
O O14 0.813337 0.620201 0.706967
O O15 0.500000 0.500000 0.000000
#
# Coordination Sequence:
#
# PCOD9091941 Si02
#       7
#     2   2   2   2   2   2   2
#     4  11  24  39  61  89 122 162 200 251 311 361
#     4   9  23  38  59  87 123 152 201 246 305 357
#     4  10  19  40  64  84 118 162 199 250 304 354
#     4  10  21  40  64  88 120 159 206 249 302 366
#     4   9  22  40  64  89 115 162 206 252 301 357
#     4   9  21  38  60  88 119 158 202 246 306 357
#     4  10  23  34  57  90 122 154 197 244 299 367
#
# _framework density 22.344664999999999
#
# number of rings (size 3 to 8) (size 9 to 14) (size 15 to 20)
#    0.857    1.429    0.000    1.286    6.000    4.000 
#    0.000    0.000    0.000    0.000    0.000    0.000 
#    0.000    0.000    0.000    0.000    0.000    0.000 
#
# Total GULP energy -78000.282854 kJ/mol
# GULP energy per Si atom -5571.448775 kJ/mol
# Density = 2.229381 g / cm^3
# Si number density = 22.344665 Si / 1000 Ang^3
#
#
#
# Elastic Constant Matrix: (Units=GPa)
#
#
# Indices 1 2 3 4 5 6 
#
# 1 86.3453 21.9882 38.3506 1.8106 -23.0869 14.5771
# 2 21.9882 80.3833 21.0504 -12.2370 -3.5708 12.3779
# 3 38.3506 21.0504 86.0241 -10.3800 -2.4092 10.1704
# 4 1.8106 -12.2370 -10.3800 22.4234 -4.7925 -9.8210
# 5 -23.0869 -3.5708 -2.4092 -4.7925 32.1380 -0.2672
# 6 14.5771 12.3779 10.1704 -9.8210 -0.2672 40.2869
#
#
#
# Elastic Compliance Matrix: (Units=1/GPa)
#
#
# Indices 1 2 3 4 5 6 
#
# 1 0.020580 -0.003056 -0.008206 -0.007069 0.012725 -0.006075
# 2 -0.003056 0.014948 -0.001235 0.007322 0.000453 -0.001387
# 3 -0.008206 -0.001235 0.016225 0.007121 -0.003746 0.000964
# 4 -0.007069 0.007322 0.007121 0.059264 0.005215 0.012992
# 5 0.012725 0.000453 -0.003746 0.005215 0.040785 -0.002256
# 6 -0.006075 -0.001387 0.000964 0.012992 -0.002256 0.030355
#
#
# Mechanical properties :
#
#
# Convention : Reuss Voigt Hill
#
# Bulk Modulus (GPa) = 37.36886 46.17011 41.76949
# Shear Modulus (GPa) = 23.14033 30.39390 26.76712
#
# Velocity S-wave (km/s) = 3.22158 3.69213 3.46485
# Velocity P-wave (km/s) = 5.53157 6.23565 5.89413
#
# Compressibility (1/GPa) = 0.02676025
#
# Stress axis : x y z
#
# Youngs Moduli (GPa) = 48.58989 66.89752 61.63152
#
# Poissons Ratio (x) = 0.20445 0.50572
# Poissons Ratio (y) = 0.14850 0.07613
# Poissons Ratio (z) = 0.39871 0.08263
#
# Static dielectric constant tensor:
#      x y z
#    x 1.850240 -0.053600 -0.000370 
#    y -0.053600 1.902150 -0.007640 
#    z -0.000370 -0.007640 1.881190 
# 
# From -- ./inp_files/279465.got.cif
#   From: 2010.05.17/outbox.cif.g08.bks.cpg/sg2_140_cif.got.tgz:279465.got - 2010.06.03 11:33:40.
