data_PCOD9091460
_publ_section_title
;
Structure prediction by ZEFSAII (Michael W. Deem and Ramdas Pophale) SiO2 
 PCOD9091460
Probable space group: P -1
;
_chemical_formula_sum "Si O2"
_cell_formula_units_Z 14
_cell_length_a 19.643060
_cell_length_b 16.281980
_cell_length_c 8.849174
_cell_angle_alpha 46.031233
_cell_angle_beta 37.338576
_cell_angle_gamma 20.177170
_cell_volume 573.507304
_symmetry_space_group_name_H-M "P -1"
_symmetry_group_IT_number 2
_symmetry_cell_setting 'triclinic'
loop_
_space_group_symop_operation_xyz
x,y,z
-x,-y,-z
loop_
_atom_site_type_symbol
_atom_site_label
_atom_site_fract_x
_atom_site_fract_y
_atom_site_fract_z
Si Si1 0.418766 0.465578 0.346118
Si Si2 0.891427 0.930214 0.637703
Si Si3 0.358289 0.288413 0.859206
Si Si4 0.874625 0.734100 0.722018
Si Si5 0.932196 0.428603 0.711678
Si Si6 0.166528 0.013013 0.980529
Si Si7 0.792872 0.202603 0.233917
O O1 0.348221 0.413307 0.625700
O O2 0.550364 0.433782 0.269154
O O3 0.162835 0.738138 0.390454
O O4 0.611917 0.250539 0.155350
O O5 0.896786 0.794385 0.749312
O O6 0.752730 0.127172 0.503822
O O7 0.812588 0.010015 0.847413
O O8 0.623043 0.996552 0.749918
O O9 0.163469 0.366263 0.056323
O O10 0.305036 0.363665 0.032772
O O11 0.076796 0.590083 0.426738
O O12 0.132231 0.171803 0.772424
O O13 0.000000 0.500000 0.500000
O O14 0.909005 0.191636 0.151774
O O15 0.000000 0.000000 0.000000
#
# Coordination Sequence:
#
# PCOD9091460 Si02
#       7
#     2   2   2   2   2   2   2
#     4  11  23  43  66  94 129 169 214 258 321 376
#     4  12  24  42  65 100 126 166 215 262 318 378
#     4  10  19  39  66  91 122 175 208 256 317 373
#     4  10  21  38  66  90 132 166 213 260 315 377
#     4  10  20  39  66  93 124 171 212 254 318 380
#     4  11  23  41  64  96 131 164 215 268 310 377
#     4  10  23  45  67  90 131 169 210 266 317 374
#
# _framework density 24.411196
#
# number of rings (size 3 to 8) (size 9 to 14) (size 15 to 20)
#    0.000    1.429    4.286    1.286    0.000    4.571 
#    0.000    0.714    0.000    0.000    0.000    0.000 
#    0.000    0.000    0.000    0.000    0.000    0.000 
#
# Total GULP energy -78295.331063 kJ/mol
# GULP energy per Si atom -5592.523647 kJ/mol
# Density = 2.435564 g / cm^3
# Si number density = 24.411196 Si / 1000 Ang^3
#
#
#
# Elastic Constant Matrix: (Units=GPa)
#
#
# Indices 1 2 3 4 5 6 
#
# 1 139.4780 9.4488 56.4853 -2.7049 21.3735 -1.7735
# 2 9.4488 58.5447 17.3724 -6.4376 6.3296 -3.2975
# 3 56.4853 17.3724 150.8019 -7.3818 20.8913 13.2883
# 4 -2.7049 -6.4376 -7.3818 37.6696 2.9929 -3.0923
# 5 21.3735 6.3296 20.8913 2.9929 34.6327 10.4301
# 6 -1.7735 -3.2975 13.2883 -3.0923 10.4301 27.0817
#
#
#
# Elastic Compliance Matrix: (Units=1/GPa)
#
#
# Indices 1 2 3 4 5 6 
#
# 1 0.009295 0.000341 -0.003125 0.000889 -0.005293 0.004323
# 2 0.000341 0.018792 -0.001981 0.003638 -0.004386 0.005387
# 3 -0.003125 -0.001981 0.008677 0.000967 -0.001859 -0.003877
# 4 0.000889 0.003638 0.000967 0.028347 -0.005915 0.005542
# 5 -0.005293 -0.004386 -0.001859 -0.005915 0.039331 -0.015792
# 6 0.004323 0.005387 -0.003877 0.005542 -0.015792 0.046481
#
#
# Mechanical properties :
#
#
# Convention : Reuss Voigt Hill
#
# Bulk Modulus (GPa) = 36.72196 57.27083 46.99639
# Shear Modulus (GPa) = 29.49302 37.57801 33.53551
#
# Velocity S-wave (km/s) = 3.47965 3.92774 3.71047
# Velocity P-wave (km/s) = 5.58746 6.63938 6.13600
#
# Compressibility (1/GPa) = 0.02723166
#
# Stress axis : x y z
#
# Youngs Moduli (GPa) = 107.58008 53.21498 115.25310
#
# Poissons Ratio (x) = -0.01812 0.36020
# Poissons Ratio (y) = -0.03664 0.22836
# Poissons Ratio (z) = 0.33622 0.10544
#
# Static dielectric constant tensor:
#      x y z
#    x 1.958010 0.030690 -0.009950 
#    y 0.030690 1.945910 0.016170 
#    z -0.009950 0.016170 1.966530 
# 
# From -- ./inp_files/245840.got.cif
#   From: 2010.05.17/outbox.cif.g08.bks.cpg/sg2_123_cif.got.tgz:245840.got - 2010.06.03 11:33:40.
