data_PCOD9091761
_publ_section_title
;
Structure prediction by ZEFSAII (Michael W. Deem and Ramdas Pophale) SiO2 
 PCOD9091761
Probable space group: P -1
;
_chemical_formula_sum "Si O2"
_cell_formula_units_Z 16
_cell_length_a 17.888057
_cell_length_b 6.594292
_cell_length_c 11.831599
_cell_angle_alpha 144.924744
_cell_angle_beta 64.550620
_cell_angle_gamma 106.937239
_cell_volume 719.271733
_symmetry_space_group_name_H-M "P -1"
_symmetry_group_IT_number 2
_symmetry_cell_setting 'triclinic'
loop_
_space_group_symop_operation_xyz
x,y,z
-x,-y,-z
loop_
_atom_site_type_symbol
_atom_site_label
_atom_site_fract_x
_atom_site_fract_y
_atom_site_fract_z
Si Si1 0.140327 0.867216 0.637612
Si Si2 0.962217 0.138833 0.888014
Si Si3 0.646634 0.496395 0.186051
Si Si4 0.798492 0.884128 0.814076
Si Si5 0.468352 0.007928 0.895616
Si Si6 0.620494 0.366683 0.891100
Si Si7 0.172038 0.943294 0.893223
Si Si8 0.745792 0.816336 0.449303
O O1 0.191794 0.479437 0.424795
O O2 0.163307 0.064068 0.826570
O O3 0.168710 0.073847 0.605753
O O4 0.041956 0.847164 0.693074
O O5 0.884122 0.065206 0.827224
O O6 0.917990 0.140757 0.039983
O O7 0.000000 0.500000 0.000000
O O8 0.618382 0.561068 0.103928
O O9 0.719418 0.166333 0.974354
O O10 0.685741 0.793513 0.368199
O O11 0.575020 0.351540 0.243896
O O12 0.799721 0.802001 0.911585
O O13 0.547920 0.102540 0.816967
O O14 0.399970 0.335704 0.055578
O O15 0.500000 0.000000 0.000000
O O16 0.703499 0.107876 0.694271
O O17 0.234572 0.580455 0.696909
#
# Coordination Sequence:
#
# PCOD9091761 Si02
#       8
#     2   2   2   2   2   2   2   2
#     4  12  20  37  59  80 114 159 196 235 286 339
#     4  10  19  40  57  79 121 150 191 248 283 331
#     4  10  20  40  58  85 121 147 188 239 284 335
#     4   9  21  35  58  85 113 149 195 237 282 336
#     4   9  20  40  63  85 119 149 181 237 280 339
#     4  10  21  39  63  87 112 153 189 224 291 341
#     4   9  22  38  56  82 115 152 190 239 291 323
#     4  11  23  36  59  88 116 150 194 236 279 341
#
# _framework density 22.244721999999999
#
# number of rings (size 3 to 8) (size 9 to 14) (size 15 to 20)
#    0.750    1.250    1.250    2.250    0.000    4.500 
#    0.000    7.500    0.000    0.000    0.000    0.000 
#    0.000    0.000    0.000    0.000    0.000    0.000 
#
# Total GULP energy -89192.722221 kJ/mol
# GULP energy per Si atom -5574.545139 kJ/mol
# Density = 2.219409 g / cm^3
# Si number density = 22.244722 Si / 1000 Ang^3
#
#
#
# Elastic Constant Matrix: (Units=GPa)
#
#
# Indices 1 2 3 4 5 6 
#
# 1 55.4863 11.4946 -7.6775 -5.7523 6.2397 -2.7277
# 2 11.4946 55.8614 14.4877 -6.8621 1.8427 0.1178
# 3 -7.6775 14.4877 46.1560 -9.7727 10.3264 -5.8262
# 4 -5.7523 -6.8621 -9.7727 20.6649 0.8437 -1.7273
# 5 6.2397 1.8427 10.3264 0.8437 26.9318 1.2902
# 6 -2.7277 0.1178 -5.8262 -1.7273 1.2902 27.8097
#
#
#
# Elastic Compliance Matrix: (Units=1/GPa)
#
#
# Indices 1 2 3 4 5 6 
#
# 1 0.023230 -0.006000 0.010863 0.010483 -0.009737 0.005683
# 2 -0.006000 0.021377 -0.008549 0.001037 0.003295 -0.002559
# 3 0.010863 -0.008549 0.035002 0.018272 -0.016420 0.010331
# 4 0.010483 0.001037 0.018272 0.061551 -0.011876 0.009226
# 5 -0.009737 0.003295 -0.016420 -0.011876 0.046178 -0.007289
# 6 0.005683 -0.002559 0.010331 0.009226 -0.007289 0.039602
#
#
# Mechanical properties :
#
#
# Convention : Reuss Voigt Hill
#
# Bulk Modulus (GPa) = 13.84329 21.56814 17.70572
# Shear Modulus (GPa) = 19.35041 24.36123 21.85582
#
# Velocity S-wave (km/s) = 2.95259 3.31289 3.13791
# Velocity P-wave (km/s) = 4.22615 4.93463 4.59407
#
# Compressibility (1/GPa) = 0.07223717
#
# Stress axis : x y z
#
# Youngs Moduli (GPa) = 43.04833 46.77845 28.56945
#
# Poissons Ratio (x) = 0.28068 -0.31034
# Poissons Ratio (y) = 0.25830 0.24423
# Poissons Ratio (z) = -0.46763 0.39990
#
# Static dielectric constant tensor:
#      x y z
#    x 1.870910 0.010670 -0.010380 
#    y 0.010670 1.856210 -0.014070 
#    z -0.010380 -0.014070 1.788010 
# 
# From -- ./inp_files/468240.got.cif
#   From: 2010.05.17/outbox.cif.g08.bks.cpg/sg2_235_cif.got.tgz:468240.got - 2010.06.03 11:33:40.
