data_PCOD9091802
_publ_section_title
;
Structure prediction by ZEFSAII (Michael W. Deem and Ramdas Pophale) SiO2 
 PCOD9091802
Probable space group: P -1
;
_chemical_formula_sum "Si O2"
_cell_formula_units_Z 16
_cell_length_a 9.067977
_cell_length_b 20.828015
_cell_length_c 8.673576
_cell_angle_alpha 123.612717
_cell_angle_beta 53.940548
_cell_angle_gamma 147.846515
_cell_volume 698.946097
_symmetry_space_group_name_H-M "P -1"
_symmetry_group_IT_number 2
_symmetry_cell_setting 'triclinic'
loop_
_space_group_symop_operation_xyz
x,y,z
-x,-y,-z
loop_
_atom_site_type_symbol
_atom_site_label
_atom_site_fract_x
_atom_site_fract_y
_atom_site_fract_z
Si Si1 0.175223 0.414402 0.135152
Si Si2 0.848280 0.726422 0.835207
Si Si3 0.414300 0.801209 0.843427
Si Si4 0.121352 0.919513 0.175659
Si Si5 0.477753 0.779580 0.434329
Si Si6 0.113464 0.113256 0.171867
Si Si7 0.209161 0.567690 0.110584
Si Si8 0.651458 0.999494 0.536507
O O1 0.138500 0.361668 0.257312
O O2 0.132516 0.487671 0.198734
O O3 0.914809 0.289458 0.034660
O O4 0.500000 0.500000 0.000000
O O5 0.921868 0.810983 0.766803
O O6 0.515569 0.636828 0.953584
O O7 0.049825 0.830794 0.979976
O O8 0.406223 0.749808 0.619796
O O9 0.554971 0.796130 0.882905
O O10 0.642821 0.944130 0.857976
O O11 0.810496 0.858947 0.315816
O O12 0.252956 0.932015 0.271144
O O13 0.282806 0.671973 0.287719
O O14 0.458989 0.863761 0.519759
O O15 0.938211 0.057536 0.363310
O O16 0.000000 0.000000 0.000000
O O17 0.000000 0.500000 0.000000
O O18 0.500000 0.000000 0.500000
#
# Coordination Sequence:
#
# PCOD9091802 Si02
#       8
#     2   2   2   2   2   2   2   2
#     4  10  24  41  59  89 124 165 219 269 312 354
#     4  10  22  37  63  90 130 157 203 275 315 369
#     4  11  20  37  65  87 127 169 205 255 317 387
#     4  10  19  40  60  94 127 167 200 247 330 401
#     4  10  20  40  64  90 124 167 208 251 314 391
#     4  12  21  37  61 100 129 165 213 245 309 404
#     4  10  21  42  65  85 116 167 224 261 299 367
#     4  11  23  36  59  96 142 159 195 260 327 389
#
# _framework density 22.891608000000002
#
# number of rings (size 3 to 8) (size 9 to 14) (size 15 to 20)
#    0.000    1.500    3.750    2.250    3.500    3.000 
#    0.000    0.000    0.000    2.250    0.000    0.000 
#    0.000    0.000    0.000    0.000    0.000    0.000 
#
# Total GULP energy -89122.345245 kJ/mol
# GULP energy per Si atom -5570.146578 kJ/mol
# Density = 2.283951 g / cm^3
# Si number density = 22.891608 Si / 1000 Ang^3
#
#
#
# Elastic Constant Matrix: (Units=GPa)
#
#
# Indices 1 2 3 4 5 6 
#
# 1 141.2122 46.5905 16.4527 13.3567 21.7798 5.3541
# 2 46.5905 120.9288 31.3784 -1.1158 7.7619 15.4237
# 3 16.4527 31.3784 51.2465 11.6051 11.5167 6.2651
# 4 13.3567 -1.1158 11.6051 34.2155 7.2912 8.7654
# 5 21.7798 7.7619 11.5167 7.2912 30.1961 -3.7918
# 6 5.3541 15.4237 6.2651 8.7654 -3.7918 49.8380
#
#
#
# Elastic Compliance Matrix: (Units=1/GPa)
#
#
# Indices 1 2 3 4 5 6 
#
# 1 0.009234 -0.003522 0.001074 -0.002940 -0.005446 0.000066
# 2 -0.003522 0.011848 -0.006952 0.004820 0.000578 -0.003218
# 3 0.001074 -0.006952 0.026979 -0.008097 -0.007384 -0.000493
# 4 -0.002940 0.004820 -0.008097 0.036270 -0.005663 -0.006968
# 5 -0.005446 0.000578 -0.007384 -0.005663 0.041772 0.005509
# 6 0.000066 -0.003218 -0.000493 -0.006968 0.005509 0.022761
#
#
# Mechanical properties :
#
#
# Convention : Reuss Voigt Hill
#
# Bulk Modulus (GPa) = 34.17623 55.80342 44.98982
# Shear Modulus (GPa) = 28.18220 37.44764 32.81492
#
# Velocity S-wave (km/s) = 3.51253 4.04897 3.79025
# Velocity P-wave (km/s) = 5.60469 6.80361 6.23304
#
# Compressibility (1/GPa) = 0.02926010
#
# Stress axis : x y z
#
# Youngs Moduli (GPa) = 108.29383 84.40221 37.06626
#
# Poissons Ratio (x) = 0.29728 -0.03980
# Poissons Ratio (y) = 0.38143 0.25768
# Poissons Ratio (z) = -0.11628 0.58676
#
# Static dielectric constant tensor:
#      x y z
#    x 2.019930 -0.056460 -0.064750 
#    y -0.056460 1.944820 -0.017920 
#    z -0.064750 -0.017920 1.861050 
# 
# From -- ./inp_files/218703.got.cif
#   From: 2010.05.17/outbox.cif.g08.bks.cpg/sg2_110_cif.got.tgz:218703.got - 2010.06.03 11:33:40.
