data_PCOD9091203
_publ_section_title
;
Structure prediction by ZEFSAII (Michael W. Deem and Ramdas Pophale) SiO2 
 PCOD9091203
Probable space group: P -1
;
_chemical_formula_sum "Si O2"
_cell_formula_units_Z 16
_cell_length_a 10.436685
_cell_length_b 10.966904
_cell_length_c 8.008352
_cell_angle_alpha 89.877692
_cell_angle_beta 82.104002
_cell_angle_gamma 57.833839
_cell_volume 765.809797
_symmetry_space_group_name_H-M "P -1"
_symmetry_group_IT_number 2
_symmetry_cell_setting 'triclinic'
loop_
_space_group_symop_operation_xyz
x,y,z
-x,-y,-z
loop_
_atom_site_type_symbol
_atom_site_label
_atom_site_fract_x
_atom_site_fract_y
_atom_site_fract_z
Si Si1 0.386927 0.565492 0.673165
Si Si2 0.207420 0.872778 0.822822
Si Si3 0.926022 0.622788 0.263673
Si Si4 0.685073 0.450164 0.777485
Si Si5 0.300462 0.401287 0.899804
Si Si6 0.218153 0.356454 0.364027
Si Si7 0.935396 0.179515 0.822250
Si Si8 0.502120 0.862930 0.923934
O O1 0.500000 0.500000 0.500000
O O2 0.279805 0.736149 0.688385
O O3 0.504623 0.526196 0.806334
O O4 0.310195 0.478270 0.733918
O O5 0.343522 0.892616 0.870131
O O6 0.071301 0.017099 0.760975
O O7 0.131522 0.833535 0.988369
O O8 0.831940 0.625945 0.120756
O O9 0.821579 0.681322 0.450568
O O10 0.988023 0.725796 0.210367
O O11 0.058969 0.457476 0.290018
O O12 0.728508 0.529360 0.632517
O O13 0.781739 0.278477 0.740193
O O14 0.730342 0.491348 0.943156
O O15 0.449227 0.251842 0.933124
O O16 0.355838 0.223788 0.234382
O O17 0.500000 0.000000 0.000000
#
# Coordination Sequence:
#
# PCOD9091203 Si02
#       8
#     2   2   2   2   2   2   2   2
#     4  12  23  40  65  93 126 164 208 261 313 370
#     4  11  22  42  62  93 126 164 210 257 313 367
#     4  10  21  39  62  96 122 164 206 260 316 367
#     4  10  19  39  64  89 120 162 207 261 300 371
#     4  11  21  35  64  92 118 162 217 247 305 372
#     4   9  20  39  63  88 130 157 206 257 314 365
#     4  10  22  39  66  86 128 165 204 258 313 367
#     4  11  23  40  64  92 124 166 208 261 308 372
#
# _framework density 20.892916
#
# number of rings (size 3 to 8) (size 9 to 14) (size 15 to 20)
#    0.000    1.500    3.750    2.625    0.000    5.500 
#    2.250    1.875    0.000    0.000    0.000    0.000 
#    0.000    0.000    0.000    0.000    0.000    0.000 
#
# Total GULP energy -89162.798690 kJ/mol
# GULP energy per Si atom -5572.674918 kJ/mol
# Density = 2.084536 g / cm^3
# Si number density = 20.892916 Si / 1000 Ang^3
#
#
#
# Elastic Constant Matrix: (Units=GPa)
#
#
# Indices 1 2 3 4 5 6 
#
# 1 36.2320 11.8133 16.1519 -0.9717 -19.5814 4.2218
# 2 11.8133 161.6167 30.7481 22.4569 -12.6455 -1.3010
# 3 16.1519 30.7481 102.7207 12.4572 -19.2484 10.1317
# 4 -0.9717 22.4569 12.4572 21.6452 -7.2392 -9.0033
# 5 -19.5814 -12.6455 -19.2484 -7.2392 29.6772 -7.4885
# 6 4.2218 -1.3010 10.1317 -9.0033 -7.4885 30.4138
#
#
#
# Elastic Compliance Matrix: (Units=1/GPa)
#
#
# Indices 1 2 3 4 5 6 
#
# 1 0.050645 -0.003409 -0.003942 0.025600 0.038475 0.011189
# 2 -0.003409 0.007699 -0.000851 -0.009402 -0.002390 -0.002286
# 3 -0.003942 -0.000851 0.012491 -0.008287 0.001681 -0.005690
# 4 0.025600 -0.009402 -0.008287 0.088864 0.037877 0.034437
# 5 0.038475 -0.002390 0.001681 0.037877 0.074326 0.023510
# 6 0.011189 -0.002286 -0.005690 0.034437 0.023510 0.049107
#
#
# Mechanical properties :
#
#
# Convention : Reuss Voigt Hill
#
# Bulk Modulus (GPa) = 18.37136 46.44399 32.40767
# Shear Modulus (GPa) = 15.73919 32.47100 24.10509
#
# Velocity S-wave (km/s) = 2.74766 3.94656 3.40037
# Velocity P-wave (km/s) = 4.34492 6.56087 5.56432
#
# Compressibility (1/GPa) = 0.05443257
#
# Stress axis : x y z
#
# Youngs Moduli (GPa) = 19.74534 129.87892 80.05862
#
# Poissons Ratio (x) = 0.44271 0.31556
# Poissons Ratio (y) = 0.06730 0.06814
# Poissons Ratio (z) = 0.07783 0.11054
#
# Static dielectric constant tensor:
#      x y z
#    x 1.862930 -0.028910 0.010840 
#    y -0.028910 1.777950 -0.016990 
#    z 0.010840 -0.016990 1.830010 
# 
# From -- ./inp_files/258515.got.cif
#   From: 2010.05.17/outbox.cif.g08.bks.cpg/sg2_130_cif.got.tgz:258515.got - 2010.06.03 11:33:40.
