data_PCOD9091014
_publ_section_title
;
Structure prediction by ZEFSAII (Michael W. Deem and Ramdas Pophale) SiO2 
 PCOD9091014
Probable space group: P -1
;
_chemical_formula_sum "Si O2"
_cell_formula_units_Z 15
_cell_length_a 12.802076
_cell_length_b 8.153564
_cell_length_c 7.717688
_cell_angle_alpha 59.085048
_cell_angle_beta 68.922546
_cell_angle_gamma 56.905350
_cell_volume 575.500744
_symmetry_space_group_name_H-M "P -1"
_symmetry_group_IT_number 2
_symmetry_cell_setting 'triclinic'
loop_
_space_group_symop_operation_xyz
x,y,z
-x,-y,-z
loop_
_atom_site_type_symbol
_atom_site_label
_atom_site_fract_x
_atom_site_fract_y
_atom_site_fract_z
Si Si1 0.000000 0.000000 0.000000
Si Si2 0.434833 0.584270 0.239695
Si Si3 0.881086 0.849409 0.883386
Si Si4 0.489443 0.828050 0.780313
Si Si5 0.728530 0.187400 0.503145
Si Si6 0.719962 0.847809 0.461612
Si Si7 0.832412 0.463704 0.112926
Si Si8 0.170298 0.609319 0.259180
O O1 0.042399 0.825955 0.232892
O O2 0.897683 0.923736 0.024680
O O3 0.513732 0.334003 0.281165
O O4 0.404641 0.696535 0.382493
O O5 0.297476 0.619409 0.233045
O O6 0.487428 0.712154 0.019881
O O7 0.024086 0.687483 0.834858
O O8 0.821050 0.031657 0.678237
O O9 0.807740 0.705952 0.007345
O O10 0.615962 0.847681 0.663357
O O11 0.368207 0.053302 0.705437
O O12 0.751581 0.384639 0.318751
O O13 0.755532 0.025141 0.417158
O O14 0.822400 0.601866 0.538544
O O15 0.826707 0.404925 0.946254
#
# Coordination Sequence:
#
# PCOD9091014 Si02
#       8
#     1   2   2   2   2   2   2   2
#     4  10  20  38  66  88 130 160 208 254 318 366
#     4  10  21  39  64  88 131 163 220 255 324 369
#     4  10  21  42  60  93 126 169 207 260 306 384
#     4   9  21  43  61  89 125 174 204 273 316 377
#     4  12  22  39  63 100 122 166 213 266 305 388
#     4  10  21  39  65  92 126 164 221 254 328 369
#     4  10  22  39  66  86 134 167 209 251 323 368
#     4  10  19  39  62  92 125 171 202 265 308 387
#
# _framework density 26.064257999999999
#
# number of rings (size 3 to 8) (size 9 to 14) (size 15 to 20)
#    0.000    1.867    2.667    1.200    0.000    1.067 
#    7.200    0.667    0.000    0.000    0.000    0.000 
#    0.000    0.000    0.000    0.000    0.000    0.000 
#
# Total GULP energy -83629.184331 kJ/mol
# GULP energy per Si atom -5575.278955 kJ/mol
# Density = 2.600493 g / cm^3
# Si number density = 26.064258 Si / 1000 Ang^3
#
#
#
# Elastic Constant Matrix: (Units=GPa)
#
#
# Indices 1 2 3 4 5 6 
#
# 1 39.4065 -1.8576 3.5674 -7.9432 8.1579 6.5646
# 2 -1.8576 27.3412 16.9513 15.2153 -6.2780 -4.0949
# 3 3.5674 16.9513 72.8443 -11.3989 -6.9756 2.2762
# 4 -7.9432 15.2153 -11.3989 39.7293 -13.1297 6.8426
# 5 8.1579 -6.2780 -6.9756 -13.1297 41.5746 -20.4281
# 6 6.5646 -4.0949 2.2762 6.8426 -20.4281 40.5995
#
#
#
# Elastic Compliance Matrix: (Units=1/GPa)
#
#
# Indices 1 2 3 4 5 6 
#
# 1 0.030769 -0.006756 0.000609 0.007521 -0.010626 -0.012305
# 2 -0.006756 0.076915 -0.023653 -0.038884 0.006525 0.020013
# 3 0.000609 -0.023653 0.022396 0.017506 0.003066 -0.005148
# 4 0.007521 -0.038884 0.017506 0.050519 0.005783 -0.011724
# 5 -0.010626 0.006525 0.003066 0.005783 0.039944 0.021328
# 6 -0.012305 0.020013 -0.005148 -0.011724 0.021328 0.041635
#
#
# Mechanical properties :
#
#
# Convention : Reuss Voigt Hill
#
# Bulk Modulus (GPa) = 14.18830 19.65716 16.92273
# Shear Modulus (GPa) = 14.48145 32.44274 23.46209
#
# Velocity S-wave (km/s) = 2.35969 3.53189 3.00353
# Velocity P-wave (km/s) = 3.58881 4.91838 4.30523
#
# Compressibility (1/GPa) = 0.07048061
#
# Stress axis : x y z
#
# Youngs Moduli (GPa) = 32.50055 13.00143 44.65086
#
# Poissons Ratio (x) = 0.08783 -0.02720
# Poissons Ratio (y) = 0.21956 1.05612
# Poissons Ratio (z) = -0.01980 0.30752
#
# Static dielectric constant tensor:
#      x y z
#    x 2.145230 -0.079520 -0.018660 
#    y -0.079520 2.507030 -0.064740 
#    z -0.018660 -0.064740 2.021810 
# 
# From -- ./inp_files/291520.got.cif
#   From: 2010.05.17/outbox.cif.g08.bks.cpg/sg2_146_cif.got.tgz:291520.got - 2010.06.03 11:33:40.
