data_PCOD9091937
_publ_section_title
;
Structure prediction by ZEFSAII (Michael W. Deem and Ramdas Pophale) SiO2 
 PCOD9091937
Probable space group: P -1
;
_chemical_formula_sum "Si O2"
_cell_formula_units_Z 16
_cell_length_a 11.240482
_cell_length_b 13.484879
_cell_length_c 12.447212
_cell_angle_alpha 43.157023
_cell_angle_beta 116.922534
_cell_angle_gamma 82.166440
_cell_volume 740.945156
_symmetry_space_group_name_H-M "P -1"
_symmetry_group_IT_number 2
_symmetry_cell_setting 'triclinic'
loop_
_space_group_symop_operation_xyz
x,y,z
-x,-y,-z
loop_
_atom_site_type_symbol
_atom_site_label
_atom_site_fract_x
_atom_site_fract_y
_atom_site_fract_z
Si Si1 0.363835 0.525595 0.754825
Si Si2 0.595506 0.734815 0.729042
Si Si3 0.519290 0.539097 0.597483
Si Si4 0.468751 0.123264 0.637079
Si Si5 0.868983 0.289740 0.069576
Si Si6 0.839118 0.620369 0.242261
Si Si7 0.002875 0.539192 0.145738
Si Si8 0.281361 0.828592 0.667117
O O1 0.369195 0.598744 0.582146
O O2 0.233649 0.484996 0.725113
O O3 0.285534 0.692169 0.690202
O O4 0.597610 0.296157 0.073892
O O5 0.500404 0.905646 0.457026
O O6 0.422747 0.833857 0.663866
O O7 0.685012 0.514002 0.886047
O O8 0.807077 0.621792 0.950621
O O9 0.500000 0.500000 0.500000
O O10 0.508332 0.724793 0.443686
O O11 0.747736 0.301298 0.920748
O O12 0.228955 0.278292 0.431951
O O13 0.629389 0.890357 0.949814
O O14 0.973955 0.331806 0.011689
O O15 0.046521 0.074190 0.383138
O O16 0.000000 0.500000 0.500000
O O17 0.956273 0.588891 0.212168
#
# Coordination Sequence:
#
# PCOD9091937 Si02
#       8
#     2   2   2   2   2   2   2   2
#     4  11  25  44  64  97 138 167 217 280 326 390
#     4  10  19  40  64 102 131 160 224 267 330 399
#     4  10  23  47  68  95 130 177 225 266 315 401
#     4  10  23  44  68  92 130 172 220 269 320 390
#     4  10  22  38  69  96 125 177 218 263 330 396
#     4  12  28  44  63  96 134 175 220 268 326 390
#     4  10  22  39  67  97 128 173 215 269 326 397
#     4  11  22  42  64  99 137 167 212 281 340 377
#
# _framework density 21.594042000000002
#
# number of rings (size 3 to 8) (size 9 to 14) (size 15 to 20)
#    0.000    1.750    3.750    2.250    7.000    3.000 
#    2.250    1.250    0.000    0.000    0.000    0.000 
#    0.000    0.000    0.000    0.000    0.000    0.000 
#
# Total GULP energy -89338.804220 kJ/mol
# GULP energy per Si atom -5583.675264 kJ/mol
# Density = 2.154489 g / cm^3
# Si number density = 21.594042 Si / 1000 Ang^3
#
#
#
# Elastic Constant Matrix: (Units=GPa)
#
#
# Indices 1 2 3 4 5 6 
#
# 1 81.9950 24.1903 32.2697 1.0495 -2.4078 7.0042
# 2 24.1903 74.7551 32.5663 25.7020 -11.4053 3.5743
# 3 32.2697 32.5663 135.5216 17.7013 0.9359 4.8197
# 4 1.0495 25.7020 17.7013 34.7157 -1.9113 -2.4593
# 5 -2.4078 -11.4053 0.9359 -1.9113 20.0572 2.8696
# 6 7.0042 3.5743 4.8197 -2.4593 2.8696 29.5087
#
#
#
# Elastic Compliance Matrix: (Units=1/GPa)
#
#
# Indices 1 2 3 4 5 6 
#
# 1 0.014941 -0.005127 -0.002857 0.004642 -0.000253 -0.002047
# 2 -0.005127 0.023385 -0.002313 -0.015588 0.011832 -0.003688
# 3 -0.002857 -0.002313 0.009039 -0.002974 -0.002286 -0.000543
# 4 0.004642 -0.015588 -0.002974 0.041822 -0.004932 0.005237
# 5 -0.000253 0.011832 -0.002286 -0.004932 0.057189 -0.006972
# 6 -0.002047 -0.003688 -0.000543 0.005237 -0.006972 0.036024
#
#
# Mechanical properties :
#
#
# Convention : Reuss Voigt Hill
#
# Bulk Modulus (GPa) = 37.35538 52.25825 44.80682
# Shear Modulus (GPa) = 23.59401 30.40600 27.00001
#
# Velocity S-wave (km/s) = 3.30906 3.75650 3.53986
# Velocity P-wave (km/s) = 5.65122 6.56262 6.12390
#
# Compressibility (1/GPa) = 0.02676991
#
# Stress axis : x y z
#
# Youngs Moduli (GPa) = 66.93023 42.76285 110.63470
#
# Poissons Ratio (x) = 0.21923 0.31613
# Poissons Ratio (y) = 0.34313 0.25592
# Poissons Ratio (z) = 0.19125 0.09892
#
# Static dielectric constant tensor:
#      x y z
#    x 1.838620 0.013450 -0.027540 
#    y 0.013450 1.844270 -0.023420 
#    z -0.027540 -0.023420 1.818480 
# 
# From -- ./inp_files/427636.got.cif
#   From: 2010.05.17/outbox.cif.g08.bks.cpg/sg2_214_cif.got.tgz:427636.got - 2010.06.03 11:33:40.
