data_PCOD9091245
_publ_section_title
;
Structure prediction by ZEFSAII (Michael W. Deem and Ramdas Pophale) SiO2 
 PCOD9091245
Probable space group: P -1
;
_chemical_formula_sum "Si O2"
_cell_formula_units_Z 16
_cell_length_a 10.402572
_cell_length_b 7.386214
_cell_length_c 13.147719
_cell_angle_alpha 118.152577
_cell_angle_beta 101.299251
_cell_angle_gamma 42.093616
_cell_volume 576.401097
_symmetry_space_group_name_H-M "P -1"
_symmetry_group_IT_number 2
_symmetry_cell_setting 'triclinic'
loop_
_space_group_symop_operation_xyz
x,y,z
-x,-y,-z
loop_
_atom_site_type_symbol
_atom_site_label
_atom_site_fract_x
_atom_site_fract_y
_atom_site_fract_z
Si Si1 0.018926 0.241980 0.174876
Si Si2 0.055091 0.699202 0.421808
Si Si3 0.582377 0.124282 0.921959
Si Si4 0.253404 0.506661 0.141051
Si Si5 0.512645 0.260229 0.385891
Si Si6 0.608306 0.702370 0.282746
Si Si7 0.208709 0.014555 0.353542
Si Si8 0.871709 0.794180 0.201359
O O1 0.830005 0.349490 0.224400
O O2 0.904767 0.512252 0.143702
O O3 0.226315 0.948334 0.072371
O O4 0.117646 0.217144 0.288374
O O5 0.292542 0.426961 0.390242
O O6 0.965535 0.746276 0.312027
O O7 0.000000 0.000000 0.500000
O O8 0.936637 0.762787 0.518763
O O9 0.479111 0.237572 0.826944
O O10 0.669383 0.795035 0.874606
O O11 0.418564 0.360224 0.043716
O O12 0.224819 0.751722 0.263259
O O13 0.028900 0.706175 0.125089
O O14 0.500000 0.500000 0.500000
O O15 0.622336 0.931572 0.365197
O O16 0.641828 0.126140 0.264871
O O17 0.433773 0.821282 0.357473
#
# Coordination Sequence:
#
# PCOD9091245 Si02
#       8
#     2   2   2   2   2   2   2   2
#     4   9  21  41  58  85 123 160 194 248 300 357
#     4  12  22  37  61  87 116 157 201 243 302 361
#     4   9  20  40  67  87 119 156 205 249 301 357
#     4  10  19  39  64  93 118 156 199 258 302 347
#     4  11  21  37  61  85 115 162 200 246 290 347
#     4  10  23  41  61  88 124 162 202 244 304 361
#     4  11  23  39  60  89 124 156 199 252 302 360
#     4  10  21  40  59  84 122 155 203 248 296 357
#
# _framework density 27.758445999999999
#
# number of rings (size 3 to 8) (size 9 to 14) (size 15 to 20)
#    0.000    1.750    2.500    2.250    0.000    5.000 
#    2.250   17.500    0.000    0.000    0.000    0.000 
#    0.000    0.000    0.000    0.000    0.000    0.000 
#
# Total GULP energy -89338.022602 kJ/mol
# GULP energy per Si atom -5583.626413 kJ/mol
# Density = 2.769527 g / cm^3
# Si number density = 27.758446 Si / 1000 Ang^3
#
#
#
# Elastic Constant Matrix: (Units=GPa)
#
#
# Indices 1 2 3 4 5 6 
#
# 1 138.5978 47.8616 44.5860 37.2662 -37.2315 -38.4325
# 2 47.8616 108.0751 41.0529 29.6450 -11.1367 -12.9602
# 3 44.5860 41.0529 170.5521 24.6291 -41.0276 -18.7819
# 4 37.2662 29.6450 24.6291 37.4962 -17.6508 -8.0180
# 5 -37.2315 -11.1367 -41.0276 -17.6508 63.7302 34.5298
# 6 -38.4325 -12.9602 -18.7819 -8.0180 34.5298 68.3989
#
#
#
# Elastic Compliance Matrix: (Units=1/GPa)
#
#
# Indices 1 2 3 4 5 6 
#
# 1 0.011985 -0.002173 -0.000562 -0.008117 0.001632 0.004393
# 2 -0.002173 0.013029 -0.002045 -0.008052 -0.003303 0.001410
# 3 -0.000562 -0.002045 0.007607 -0.000918 0.004494 -0.000991
# 4 -0.008117 -0.008052 -0.000918 0.044567 0.008544 -0.005428
# 5 0.001632 -0.003303 0.004494 0.008544 0.027472 -0.011342
# 6 0.004393 0.001410 -0.000991 -0.005428 -0.011342 0.022173
#
#
# Mechanical properties :
#
#
# Convention : Reuss Voigt Hill
#
# Bulk Modulus (GPa) = 43.35935 76.02510 59.69223
# Shear Modulus (GPa) = 34.70311 52.84003 43.77157
#
# Velocity S-wave (km/s) = 3.53963 4.36772 3.97530
# Velocity P-wave (km/s) = 5.68853 7.27211 6.52851
#
# Compressibility (1/GPa) = 0.02306307
#
# Stress axis : x y z
#
# Youngs Moduli (GPa) = 83.43529 76.75148 131.45993
#
# Poissons Ratio (x) = 0.16677 0.07382
# Poissons Ratio (y) = 0.18130 0.26879
# Poissons Ratio (z) = 0.04685 0.15693
#
# Static dielectric constant tensor:
#      x y z
#    x 7.823730 0.787590 -0.629060 
#    y 0.787590 2.295870 -0.054590 
#    z -0.629060 -0.054590 2.306520 
# 
# From -- ./inp_files/515929.got.cif
#   From: 2010.05.17/outbox.cif.g08.bks.cpg/sg2_258_cif.got.tgz:515929.got - 2010.06.03 11:33:40.
