data_PCOD9091220
_publ_section_title
;
Structure prediction by ZEFSAII (Michael W. Deem and Ramdas Pophale) SiO2 
 PCOD9091220
Probable space group: P -1
;
_chemical_formula_sum "Si O2"
_cell_formula_units_Z 16
_cell_length_a 13.457457
_cell_length_b 8.887234
_cell_length_c 12.062933
_cell_angle_alpha 52.701468
_cell_angle_beta 48.121237
_cell_angle_gamma 69.846091
_cell_volume 850.115315
_symmetry_space_group_name_H-M "P -1"
_symmetry_group_IT_number 2
_symmetry_cell_setting 'triclinic'
loop_
_space_group_symop_operation_xyz
x,y,z
-x,-y,-z
loop_
_atom_site_type_symbol
_atom_site_label
_atom_site_fract_x
_atom_site_fract_y
_atom_site_fract_z
Si Si1 0.151433 0.288879 0.492463
Si Si2 0.861261 0.232358 0.957374
Si Si3 0.566855 0.525440 0.559157
Si Si4 0.599591 0.758414 0.820935
Si Si5 0.135429 0.718582 0.330899
Si Si6 0.601546 0.403020 0.133673
Si Si7 0.835698 0.806656 0.237829
Si Si8 0.380403 0.888788 0.208398
O O1 0.279694 0.301727 0.315576
O O2 0.144252 0.499506 0.454346
O O3 0.161077 0.153001 0.650273
O O4 0.014594 0.234587 0.552920
O O5 0.853480 0.278438 0.812023
O O6 0.017619 0.263353 0.865106
O O7 0.754456 0.350977 0.046181
O O8 0.823097 0.006303 0.099096
O O9 0.500000 0.500000 0.500000
O O10 0.475512 0.611600 0.684819
O O11 0.707215 0.656684 0.381882
O O12 0.589616 0.316802 0.680106
O O13 0.471535 0.732617 0.846890
O O14 0.635889 0.970589 0.740614
O O15 0.586260 0.611843 0.999521
O O16 0.249863 0.853054 0.244439
O O17 0.500000 0.000000 0.000000
#
# Coordination Sequence:
#
# PCOD9091220 Si02
#       8
#     2   2   2   2   2   2   2   2
#     4  10  19  39  64  91 120 165 210 261 306 369
#     4  10  22  38  70  92 120 170 211 258 303 376
#     4  12  27  43  62  91 133 169 203 259 322 374
#     4  11  22  36  65  95 126 159 212 267 308 363
#     4  10  20  37  65  90 123 166 211 252 317 368
#     4  11  22  41  64  94 124 164 217 257 308 374
#     4  10  22  42  61  94 128 161 212 252 315 374
#     4  12  24  39  59  92 128 164 207 261 313 371
#
# _framework density 18.820975000000001
#
# number of rings (size 3 to 8) (size 9 to 14) (size 15 to 20)
#    0.000    1.250    5.000    0.750    3.500    2.000 
#    0.000    0.625    0.000    0.000    0.000    0.000 
#    0.000    0.000    0.000    0.000    0.000    0.000 
#
# Total GULP energy -89283.607189 kJ/mol
# GULP energy per Si atom -5580.225449 kJ/mol
# Density = 1.877814 g / cm^3
# Si number density = 18.820975 Si / 1000 Ang^3
#
#
#
# Elastic Constant Matrix: (Units=GPa)
#
#
# Indices 1 2 3 4 5 6 
#
# 1 90.0987 27.6659 40.1564 5.9778 -17.9013 -1.5226
# 2 27.6659 55.9367 19.2931 -0.8216 -7.6147 -0.2842
# 3 40.1564 19.2931 101.7392 -2.5660 -15.9348 -6.8088
# 4 5.9778 -0.8216 -2.5660 27.6519 -2.1954 -3.6504
# 5 -17.9013 -7.6147 -15.9348 -2.1954 36.1102 -4.2471
# 6 -1.5226 -0.2842 -6.8088 -3.6504 -4.2471 17.9586
#
#
#
# Elastic Compliance Matrix: (Units=1/GPa)
#
#
# Indices 1 2 3 4 5 6 
#
# 1 0.016086 -0.005800 -0.004663 -0.003757 0.004441 -0.000209
# 2 -0.005800 0.021459 -0.001580 0.001810 0.001047 -0.000135
# 3 -0.004663 -0.001580 0.013103 0.003316 0.004067 0.006183
# 4 -0.003757 0.001810 0.003316 0.038895 0.003488 0.009698
# 5 0.004441 0.001047 0.004067 0.003488 0.033361 0.010533
# 6 -0.000209 -0.000135 0.006183 0.009698 0.010533 0.062471
#
#
# Mechanical properties :
#
#
# Convention : Reuss Voigt Hill
#
# Bulk Modulus (GPa) = 37.64384 46.88950 42.26667
# Shear Modulus (GPa) = 22.90291 27.05476 24.97884
#
# Velocity S-wave (km/s) = 3.49217 3.79552 3.64700
# Velocity P-wave (km/s) = 6.02534 6.64647 6.34351
#
# Compressibility (1/GPa) = 0.02656477
#
# Stress axis : x y z
#
# Youngs Moduli (GPa) = 62.16618 46.60045 76.31666
#
# Poissons Ratio (x) = 0.27026 0.35583
# Poissons Ratio (y) = 0.36053 0.12056
# Poissons Ratio (z) = 0.28985 0.07361
#
# Static dielectric constant tensor:
#      x y z
#    x 1.702480 0.011470 -0.007540 
#    y 0.011470 1.675600 0.016450 
#    z -0.007540 0.016450 1.668620 
# 
# From -- ./inp_files/182510.got.cif
#   From: 2010.05.17/outbox.cif.g08.bks.cpg/sg2_92_cif.got.tgz:182510.got - 2010.06.03 11:33:40.
