data_PCOD9091499
_publ_section_title
;
Structure prediction by ZEFSAII (Michael W. Deem and Ramdas Pophale) SiO2 
 PCOD9091499
Probable space group: P -1
;
_chemical_formula_sum "Si O2"
_cell_formula_units_Z 14
_cell_length_a 8.675523
_cell_length_b 26.971031
_cell_length_c 11.887315
_cell_angle_alpha 28.819493
_cell_angle_beta 155.660099
_cell_angle_gamma 150.625523
_cell_volume 513.781985
_symmetry_space_group_name_H-M "P -1"
_symmetry_group_IT_number 2
_symmetry_cell_setting 'triclinic'
loop_
_space_group_symop_operation_xyz
x,y,z
-x,-y,-z
loop_
_atom_site_type_symbol
_atom_site_label
_atom_site_fract_x
_atom_site_fract_y
_atom_site_fract_z
Si Si1 0.562569 0.666252 0.048493
Si Si2 0.411672 0.563257 0.712198
Si Si3 0.112580 0.025306 0.226836
Si Si4 0.779734 0.876238 0.648489
Si Si5 0.484716 0.224404 0.960640
Si Si6 0.316201 0.191971 0.524899
Si Si7 0.324073 0.423623 0.366560
O O1 0.511176 0.722811 0.018212
O O2 0.603678 0.548497 0.338266
O O3 0.835051 0.761908 0.955368
O O4 0.117537 0.621183 0.785019
O O5 0.442752 0.684165 0.524957
O O6 0.735306 0.570371 0.818192
O O7 0.000000 0.500000 0.500000
O O8 0.500000 0.500000 0.000000
O O9 0.244404 0.082657 0.321368
O O10 0.500000 0.000000 0.500000
O O11 0.094840 0.110176 0.947821
O O12 0.724855 0.913419 0.212840
O O13 0.557596 0.827451 0.478280
O O14 0.000000 0.000000 0.500000
O O15 0.471673 0.322194 0.679205
O O16 0.856894 0.192891 0.227397
#
# Coordination Sequence:
#
# PCOD9091499 Si02
#       7
#     2   2   2   2   2   2   2
#     4  10  21  39  63  93 133 172 234 287 353 416
#     4  12  26  44  69 101 145 188 242 296 363 427
#     4   8  17  34  69 102 134 182 229 291 354 427
#     4   9  18  36  68  98 133 182 229 286 358 425
#     4  10  19  39  66  95 134 177 233 288 354 424
#     4  10  19  39  66  97 139 183 236 293 356 423
#     4  11  23  39  65  94 130 182 231 289 350 419
#
# _framework density 27.248909000000001
#
# number of rings (size 3 to 8) (size 9 to 14) (size 15 to 20)
#    0.000    2.000    1.429    2.143    0.000    0.000 
#    2.571    0.714   12.571    2.571    0.000    0.000 
#    0.000    0.000    0.000    0.000    0.000    0.000 
#
# Total GULP energy -77980.377924 kJ/mol
# GULP energy per Si atom -5570.026995 kJ/mol
# Density = 2.718689 g / cm^3
# Si number density = 27.248909 Si / 1000 Ang^3
#
#
#
# Elastic Constant Matrix: (Units=GPa)
#
#
# Indices 1 2 3 4 5 6 
#
# 1 93.1607 49.1877 33.7744 -20.5805 -17.9532 13.1179
# 2 49.1877 193.3569 54.1403 -38.0032 -13.1910 4.2637
# 3 33.7744 54.1403 111.0447 -34.3573 -14.4979 32.3674
# 4 -20.5805 -38.0032 -34.3573 42.0526 2.1902 -12.3581
# 5 -17.9532 -13.1910 -14.4979 2.1902 43.2900 -12.3707
# 6 13.1179 4.2637 32.3674 -12.3581 -12.3707 39.8009
#
#
#
# Elastic Compliance Matrix: (Units=1/GPa)
#
#
# Indices 1 2 3 4 5 6 
#
# 1 0.014089 -0.002258 -0.001335 0.003253 0.004263 -0.000981
# 2 -0.002258 0.007324 -0.002375 0.004602 0.001334 0.003734
# 3 -0.001335 -0.002375 0.015688 0.007161 0.000881 -0.009567
# 4 0.003253 0.004602 0.007161 0.036754 0.004872 0.005538
# 5 0.004263 0.001334 0.000881 0.004872 0.027556 0.007814
# 6 -0.000981 0.003734 -0.009567 0.005538 0.007814 0.036976
#
#
# Mechanical properties :
#
#
# Convention : Reuss Voigt Hill
#
# Bulk Modulus (GPa) = 39.73760 74.64078 57.18919
# Shear Modulus (GPa) = 31.50353 42.39270 36.94812
#
# Velocity S-wave (km/s) = 3.40389 3.94859 3.68632
# Velocity P-wave (km/s) = 5.48302 6.94551 6.25714
#
# Compressibility (1/GPa) = 0.02516508
#
# Stress axis : x y z
#
# Youngs Moduli (GPa) = 70.97826 136.53212 63.74190
#
# Poissons Ratio (x) = 0.30834 0.08510
# Poissons Ratio (y) = 0.16030 0.15136
# Poissons Ratio (z) = 0.09476 0.32422
#
# Static dielectric constant tensor:
#      x y z
#    x 2.392000 -0.174160 -0.104620 
#    y -0.174160 2.505020 0.251510 
#    z -0.104620 0.251510 2.395400 
# 
# From -- ./inp_files/407339.got.cif
#   From: 2010.05.17/outbox.cif.g08.bks.cpg/sg2_204_cif.got.tgz:407339.got - 2010.06.03 11:33:40.
