data_PCOD9091899
_publ_section_title
;
Structure prediction by ZEFSAII (Michael W. Deem and Ramdas Pophale) SiO2 
 PCOD9091899
Probable space group: P -1
;
_chemical_formula_sum "Si O2"
_cell_formula_units_Z 15
_cell_length_a 8.610144
_cell_length_b 5.287058
_cell_length_c 18.661039
_cell_angle_alpha 71.829171
_cell_angle_beta 127.125004
_cell_angle_gamma 130.990915
_cell_volume 506.239921
_symmetry_space_group_name_H-M "P -1"
_symmetry_group_IT_number 2
_symmetry_cell_setting 'triclinic'
loop_
_space_group_symop_operation_xyz
x,y,z
-x,-y,-z
loop_
_atom_site_type_symbol
_atom_site_label
_atom_site_fract_x
_atom_site_fract_y
_atom_site_fract_z
Si Si1 0.674577 0.186464 0.662839
Si Si2 0.787968 0.692238 0.888768
Si Si3 0.694594 0.008700 0.965311
Si Si4 0.408452 0.442843 0.311347
Si Si5 0.500000 0.000000 0.500000
Si Si6 0.953683 0.158544 0.538078
Si Si7 0.793939 0.495366 0.173831
Si Si8 0.149174 0.040972 0.734943
O O1 0.493713 0.202505 0.660081
O O2 0.905376 0.262603 0.766344
O O3 0.519939 0.793440 0.623017
O O4 0.742942 0.329966 0.589272
O O5 0.732997 0.357895 0.938859
O O6 0.637550 0.579257 0.783450
O O7 0.750704 0.907056 0.913633
O O8 0.083100 0.920680 0.930988
O O9 0.408100 0.693281 0.929332
O O10 0.135734 0.245912 0.292405
O O11 0.317586 0.063123 0.483162
O O12 0.000000 0.500000 0.500000
O O13 0.140028 0.209148 0.647109
O O14 0.000000 0.000000 0.500000
O O15 0.736308 0.689699 0.192834
O O16 0.744835 0.164217 0.225101
#
# Coordination Sequence:
#
# PCOD9091899 Si02
#       8
#     2   2   2   2   1   2   2   2
#     4  10  23  40  68  90 129 180 225 281 362 410
#     4  10  21  39  62  96 130 173 231 270 359 433
#     4  10  21  38  62  92 137 175 213 296 344 416
#     4  10  20  41  62  90 126 170 223 279 336 426
#     4  12  26  54  74 100 156 192 236 324 360 424
#     4  12  28  49  73 106 142 191 250 303 371 443
#     4  10  19  40  63  88 127 177 214 273 352 405
#     4  10  21  43  63  89 137 168 225 294 340 423
#
# _framework density 29.630222
#
# number of rings (size 3 to 8) (size 9 to 14) (size 15 to 20)
#    0.000    1.600    2.667    2.400    1.867    2.133 
#   14.400    5.333    0.000    0.000    0.000    0.000 
#    0.000    0.000    0.000    0.000    0.000    0.000 
#
# Total GULP energy -83799.347413 kJ/mol
# GULP energy per Si atom -5586.623161 kJ/mol
# Density = 2.956278 g / cm^3
# Si number density = 29.630222 Si / 1000 Ang^3
#
#
#
# Elastic Constant Matrix: (Units=GPa)
#
#
# Indices 1 2 3 4 5 6 
#
# 1 163.2067 44.3046 49.5213 -7.1555 -2.6389 -39.3211
# 2 44.3046 86.4296 -4.4284 -18.0619 -5.1837 -30.1936
# 3 49.5213 -4.4284 160.6642 18.5493 12.1942 -3.5971
# 4 -7.1555 -18.0619 18.5493 45.1879 8.7289 13.0590
# 5 -2.6389 -5.1837 12.1942 8.7289 64.6167 7.8714
# 6 -39.3211 -30.1936 -3.5971 13.0590 7.8714 64.2799
#
#
#
# Elastic Compliance Matrix: (Units=1/GPa)
#
#
# Indices 1 2 3 4 5 6 
#
# 1 0.008729 -0.003332 -0.002726 0.000105 0.000153 0.003582
# 2 -0.003332 0.015787 0.001117 0.004018 -0.000189 0.004647
# 3 -0.002726 0.001117 0.007505 -0.002859 -0.001050 -0.000014
# 4 0.000105 0.004018 -0.002859 0.026315 -0.002290 -0.003274
# 5 0.000153 -0.000189 -0.001050 -0.002290 0.016165 -0.001568
# 6 0.003582 0.004647 -0.000014 -0.003274 -0.001568 0.020787
#
#
# Mechanical properties :
#
#
# Convention : Reuss Voigt Hill
#
# Bulk Modulus (GPa) = 45.17059 65.45505 55.31282
# Shear Modulus (GPa) = 44.42517 56.21043 50.31780
#
# Velocity S-wave (km/s) = 3.87631 4.36026 4.12538
# Velocity P-wave (km/s) = 5.94241 6.89113 6.43428
#
# Compressibility (1/GPa) = 0.02213830
#
# Stress axis : x y z
#
# Youngs Moduli (GPa) = 114.56343 63.34422 133.25153
#
# Poissons Ratio (x) = 0.21104 0.36322
# Poissons Ratio (y) = 0.38169 -0.14879
# Poissons Ratio (z) = 0.31228 -0.07073
#
# Static dielectric constant tensor:
#      x y z
#    x 2.137590 -0.246940 0.322020 
#    y -0.246940 2.706230 0.450190 
#    z 0.322020 0.450190 2.234080 
# 
# From -- ./inp_files/585668.got.cif
#   From: 2010.05.17/outbox.cif.g08.bks.cpg/sg2_293_cif.got.tgz:585668.got - 2010.06.03 11:33:40.
