data_PCOD9091840
_publ_section_title
;
Structure prediction by ZEFSAII (Michael W. Deem and Ramdas Pophale) SiO2 
 PCOD9091840
Probable space group: P -1
;
_chemical_formula_sum "Si O2"
_cell_formula_units_Z 12
_cell_length_a 13.806208
_cell_length_b 7.030086
_cell_length_c 8.660134
_cell_angle_alpha 90.048007
_cell_angle_beta 145.586540
_cell_angle_gamma 82.382578
_cell_volume 461.929707
_symmetry_space_group_name_H-M "P -1"
_symmetry_group_IT_number 2
_symmetry_cell_setting 'triclinic'
loop_
_space_group_symop_operation_xyz
x,y,z
-x,-y,-z
loop_
_atom_site_type_symbol
_atom_site_label
_atom_site_fract_x
_atom_site_fract_y
_atom_site_fract_z
Si Si1 0.560760 0.566200 0.911168
Si Si2 0.069677 0.192196 0.788501
Si Si3 0.863328 0.250095 0.207713
Si Si4 0.760780 0.762240 0.396915
Si Si5 0.834793 0.686514 0.804951
Si Si6 0.752570 0.108857 0.552268
O O1 0.673130 0.390496 0.959537
O O2 0.696831 0.691159 0.155221
O O3 0.500000 0.500000 0.000000
O O4 0.406387 0.713410 0.617695
O O5 0.949124 0.281639 0.486182
O O6 0.918346 0.187414 0.717509
O O7 0.151739 0.971436 0.841639
O O8 0.194844 0.301623 0.048621
O O9 0.025340 0.274446 0.312732
O O10 0.714222 0.664486 0.495342
O O11 0.696377 0.996171 0.329183
O O12 0.809191 0.925185 0.740519
O O13 0.000000 0.500000 0.000000
#
# Coordination Sequence:
#
# PCOD9091840 Si02
#       6
#     2   2   2   2   2   2
#     4  12  21  37  61  93 125 154 198 251 305 355
#     4  10  19  40  61  93 115 160 206 243 294 362
#     4  10  21  36  66  90 121 157 201 249 296 352
#     4   9  22  39  62  89 117 160 204 248 290 353
#     4  10  21  37  64  86 119 162 207 241 290 367
#     4   9  21  35  61  89 117 155 198 251 291 350
#
# _framework density 25.977979000000001
#
# number of rings (size 3 to 8) (size 9 to 14) (size 15 to 20)
#    1.000    1.000    1.667    2.500    0.000    0.000 
#    0.000    0.833    0.000    5.000    0.000    0.000 
#    0.000    0.000    0.000    0.000    0.000    0.000 
#
# Total GULP energy -66805.580475 kJ/mol
# GULP energy per Si atom -5567.131706 kJ/mol
# Density = 2.591885 g / cm^3
# Si number density = 25.977979 Si / 1000 Ang^3
#
#
#
# Elastic Constant Matrix: (Units=GPa)
#
#
# Indices 1 2 3 4 5 6 
#
# 1 51.4768 24.1774 35.7699 -23.9370 2.3605 -8.4097
# 2 24.1774 109.6658 40.3822 -36.3249 5.4238 -21.3791
# 3 35.7699 40.3822 99.3071 -29.2787 -2.4520 -22.3509
# 4 -23.9370 -36.3249 -29.2787 53.5051 -22.3126 -1.0595
# 5 2.3605 5.4238 -2.4520 -22.3126 46.4057 -0.5787
# 6 -8.4097 -21.3791 -22.3509 -1.0595 -0.5787 38.6453
#
#
#
# Elastic Compliance Matrix: (Units=1/GPa)
#
#
# Indices 1 2 3 4 5 6 
#
# 1 0.029502 0.000018 -0.006592 0.011139 0.003542 0.002976
# 2 0.000018 0.014422 -0.000718 0.011113 0.003718 0.007927
# 3 -0.006592 -0.000718 0.017285 0.008492 0.005522 0.008481
# 4 0.011139 0.011113 0.008492 0.044591 0.020210 0.015009
# 5 0.003542 0.003718 0.005522 0.020210 0.031031 0.007040
# 6 0.002976 0.007927 0.008481 0.015009 0.007040 0.036331
#
#
# Mechanical properties :
#
#
# Convention : Reuss Voigt Hill
#
# Bulk Modulus (GPa) = 21.44840 51.23431 36.34136
# Shear Modulus (GPa) = 24.59547 38.38590 31.49069
#
# Velocity S-wave (km/s) = 3.08032 3.84817 3.48545
# Velocity P-wave (km/s) = 4.57444 6.28566 5.49705
#
# Compressibility (1/GPa) = 0.04662352
#
# Stress axis : x y z
#
# Youngs Moduli (GPa) = 33.89564 69.33954 57.85258
#
# Poissons Ratio (x) = -0.00125 0.38139
# Poissons Ratio (y) = -0.00061 0.04157
# Poissons Ratio (z) = 0.22346 0.04982
#
# Static dielectric constant tensor:
#      x y z
#    x 2.165690 0.079430 -0.002380 
#    y 0.079430 2.124740 0.125960 
#    z -0.002380 0.125960 2.081910 
# 
# From -- ./inp_files/292672.got.cif
#   From: 2010.05.17/outbox.cif.g08.bks.cpg/sg2_147_cif.got.tgz:292672.got - 2010.06.03 11:33:40.
