data_PCOD9091873
_publ_section_title
;
Structure prediction by ZEFSAII (Michael W. Deem and Ramdas Pophale) SiO2 
 PCOD9091873
Probable space group: P -1
;
_chemical_formula_sum "Si O2"
_cell_formula_units_Z 16
_cell_length_a 17.098293
_cell_length_b 8.303220
_cell_length_c 8.677318
_cell_angle_alpha 129.841000
_cell_angle_beta 46.324083
_cell_angle_gamma 123.687329
_cell_volume 670.014827
_symmetry_space_group_name_H-M "P -1"
_symmetry_group_IT_number 2
_symmetry_cell_setting 'triclinic'
loop_
_space_group_symop_operation_xyz
x,y,z
-x,-y,-z
loop_
_atom_site_type_symbol
_atom_site_label
_atom_site_fract_x
_atom_site_fract_y
_atom_site_fract_z
Si Si1 0.970761 0.845698 0.094608
Si Si2 0.312114 0.279875 0.859344
Si Si3 0.277609 0.808583 0.454664
Si Si4 0.957831 0.500954 0.382026
Si Si5 0.140335 0.108446 0.239511
Si Si6 0.624581 0.522320 0.404167
Si Si7 0.755261 0.940755 0.617635
Si Si8 0.546482 0.250247 0.607078
O O1 0.862076 0.893927 0.351676
O O2 0.069840 0.915047 0.122041
O O3 0.963814 0.605488 0.898813
O O4 0.000000 0.000000 0.000000
O O5 0.304246 0.435624 0.822302
O O6 0.434845 0.340627 0.801095
O O7 0.294135 0.041790 0.659383
O O8 0.221159 0.256511 0.099548
O O9 0.160983 0.660966 0.564827
O O10 0.377886 0.709394 0.320980
O O11 0.278524 0.862637 0.305655
O O12 0.941398 0.735737 0.501344
O O13 0.000000 0.500000 0.500000
O O14 0.209511 0.038771 0.241355
O O15 0.500000 0.500000 0.500000
O O16 0.660102 0.732858 0.590488
O O17 0.623607 0.328012 0.401861
O O18 0.500000 0.000000 0.500000
#
# Coordination Sequence:
#
# PCOD9091873 Si02
#       8
#     2   2   2   2   2   2   2   2
#     4  12  22  45  69  92 136 179 222 281 341 385
#     4   9  19  39  68  91 133 179 212 279 340 383
#     4  10  19  40  62  92 132 176 218 278 328 385
#     4  12  24  38  68  97 127 174 231 273 331 405
#     4  12  24  42  66 102 138 176 228 272 335 402
#     4   9  18  37  63  95 130 173 222 271 333 396
#     4  11  23  39  67  96 136 184 219 276 335 395
#     4   9  18  35  67  98 124 171 225 268 333 401
#
# _framework density 23.880068000000001
#
# number of rings (size 3 to 8) (size 9 to 14) (size 15 to 20)
#    0.000    1.500    3.750    2.625    0.000    0.500 
#    0.000    8.750    0.000    0.000    0.000    0.000 
#    0.000    0.000    0.000    0.000    0.000    0.000 
#
# Total GULP energy -89506.476604 kJ/mol
# GULP energy per Si atom -5594.154788 kJ/mol
# Density = 2.382572 g / cm^3
# Si number density = 23.880068 Si / 1000 Ang^3
#
#
#
# Elastic Constant Matrix: (Units=GPa)
#
#
# Indices 1 2 3 4 5 6 
#
# 1 197.7887 31.0269 28.7238 -5.8478 24.3171 2.9778
# 2 31.0269 64.2608 27.7214 -12.4736 12.6386 -6.3565
# 3 28.7238 27.7214 77.1003 4.1296 16.1242 -4.6886
# 4 -5.8478 -12.4736 4.1296 33.3640 1.2876 2.1380
# 5 24.3171 12.6386 16.1242 1.2876 22.1152 -7.2535
# 6 2.9778 -6.3565 -4.6886 2.1380 -7.2535 49.1742
#
#
#
# Elastic Compliance Matrix: (Units=1/GPa)
#
#
# Indices 1 2 3 4 5 6 
#
# 1 0.006177 -0.001487 -0.000650 0.000940 -0.006034 -0.001559
# 2 -0.001487 0.022217 -0.006492 0.009038 -0.006531 0.000987
# 3 -0.000650 -0.006492 0.017467 -0.004381 -0.008101 -0.000139
# 4 0.000940 0.009038 -0.004381 0.034376 -0.005536 -0.001618
# 5 -0.006034 -0.006531 -0.008101 -0.005536 0.064608 0.008520
# 6 -0.001559 0.000987 -0.000139 -0.001618 0.008520 0.021872
#
#
# Mechanical properties :
#
#
# Convention : Reuss Voigt Hill
#
# Bulk Modulus (GPa) = 34.96243 57.12155 46.04199
# Shear Modulus (GPa) = 25.83887 37.70921 31.77404
#
# Velocity S-wave (km/s) = 3.29299 3.97811 3.65165
# Velocity P-wave (km/s) = 5.39731 6.71361 6.09112
#
# Compressibility (1/GPa) = 0.02860213
#
# Stress axis : x y z
#
# Youngs Moduli (GPa) = 161.90001 45.01151 57.25135
#
# Poissons Ratio (x) = 0.06693 0.03719
# Poissons Ratio (y) = 0.24074 0.37169
# Poissons Ratio (z) = 0.10518 0.29223
#
# Static dielectric constant tensor:
#      x y z
#    x 1.919320 -0.025870 -0.009300 
#    y -0.025870 1.934960 0.000590 
#    z -0.009300 0.000590 1.961920 
# 
# From -- ./inp_files/329523.got.cif
#   From: 2010.05.17/outbox.cif.g08.bks.cpg/sg2_165_cif.got.tgz:329523.got - 2010.06.03 11:33:40.
