data_PCOD9091478
_publ_section_title
;
Structure prediction by ZEFSAII (Michael W. Deem and Ramdas Pophale) SiO2 
 PCOD9091478
Probable space group: P -1
;
_chemical_formula_sum "Si O2"
_cell_formula_units_Z 16
_cell_length_a 25.809621
_cell_length_b 9.446365
_cell_length_c 21.896928
_cell_angle_alpha 37.222472
_cell_angle_beta 161.817844
_cell_angle_gamma 152.350598
_cell_volume 734.288412
_symmetry_space_group_name_H-M "P -1"
_symmetry_group_IT_number 2
_symmetry_cell_setting 'triclinic'
loop_
_space_group_symop_operation_xyz
x,y,z
-x,-y,-z
loop_
_atom_site_type_symbol
_atom_site_label
_atom_site_fract_x
_atom_site_fract_y
_atom_site_fract_z
Si Si1 0.869815 0.754423 0.360402
Si Si2 0.296513 0.561711 0.970257
Si Si3 0.163945 0.794202 0.497729
Si Si4 0.432445 0.593736 0.334526
Si Si5 0.013770 0.501991 0.941827
Si Si6 0.668568 0.883988 0.175858
Si Si7 0.141719 0.226971 0.399135
Si Si8 0.651316 0.768171 0.759304
O O1 0.806952 0.445232 0.366774
O O2 0.662265 0.679025 0.188200
O O3 0.071707 0.875961 0.591388
O O4 0.990128 0.059220 0.346945
O O5 0.499898 0.675229 0.114768
O O6 0.248450 0.332253 0.048463
O O7 0.078614 0.392674 0.741614
O O8 0.369396 0.886091 0.966571
O O9 0.356130 0.051657 0.575801
O O10 0.179553 0.996172 0.499834
O O11 0.500000 0.500000 0.500000
O O12 0.363549 0.357814 0.281701
O O13 0.235503 0.580237 0.139521
O O14 0.991796 0.742822 0.808985
O O15 0.804699 0.144542 0.805604
O O16 0.000000 0.500000 0.000000
O O17 0.397680 0.572598 0.568225
#
# Coordination Sequence:
#
# PCOD9091478 Si02
#       8
#     2   2   2   2   2   2   2   2
#     4  10  20  40  60  97 133 172 216 265 332 389
#     4  10  19  39  66  93 127 173 216 265 332 385
#     4  10  23  41  65  91 133 178 212 275 328 387
#     4  11  25  47  67  96 132 175 226 275 333 394
#     4  12  26  45  68 100 131 169 226 281 334 394
#     4   9  20  36  61  95 131 167 217 270 317 397
#     4  11  23  41  64  96 132 170 221 269 328 395
#     4  11  23  43  70  94 130 178 218 272 337 396
#
# _framework density 21.789804
#
# number of rings (size 3 to 8) (size 9 to 14) (size 15 to 20)
#    0.000    1.500    1.250    4.125    1.750    2.000 
#    6.750    1.250    0.000    0.000    0.000    0.000 
#    0.000    0.000    0.000    0.000    0.000    0.000 
#
# Total GULP energy -89443.312538 kJ/mol
# GULP energy per Si atom -5590.207034 kJ/mol
# Density = 2.174021 g / cm^3
# Si number density = 21.789804 Si / 1000 Ang^3
#
#
#
# Elastic Constant Matrix: (Units=GPa)
#
#
# Indices 1 2 3 4 5 6 
#
# 1 68.3805 10.7116 22.8341 -16.5757 36.4438 0.4829
# 2 10.7116 32.9497 11.6076 -12.8005 35.3903 -7.6271
# 3 22.8341 11.6076 60.9955 -6.3751 26.9376 -6.6769
# 4 -16.5757 -12.8005 -6.3751 32.4263 6.8435 -6.4921
# 5 36.4438 35.3903 26.9376 6.8435 27.0520 -1.4548
# 6 0.4829 -7.6271 -6.6769 -6.4921 -1.4548 24.9573
#
#
#
# Elastic Compliance Matrix: (Units=1/GPa)
#
#
# Indices 1 2 3 4 5 6 
#
# 1 0.013653 -0.014966 -0.007582 -0.003852 0.009316 -0.007325
# 2 -0.014966 0.004501 -0.008389 -0.013507 0.025905 -0.002583
# 3 -0.007582 -0.008389 0.019404 -0.003578 0.002880 0.002011
# 4 -0.003852 -0.013507 -0.003578 0.018443 0.021814 0.001059
# 5 0.009316 0.025905 0.002880 0.021814 -0.017152 0.013182
# 6 -0.007325 -0.002583 0.002011 0.001059 0.013182 0.041003
#
#
# Mechanical properties :
#
#
# Convention : Reuss Voigt Hill
#
# Bulk Modulus (GPa) = -41.12558 28.07026 -6.52766
# Shear Modulus (GPa) = 37.41989 24.69861 31.05925
#
# Velocity S-wave (km/s) = 4.14854 3.37039 3.77955
# Velocity P-wave (km/s) = 2.00810 5.29682 4.00554
#
# Compressibility (1/GPa) = -0.02431577
#
# Stress axis : x y z
#
# Youngs Moduli (GPa) = 73.24387 222.17977 51.53698
#
# Poissons Ratio (x) = 3.32512 0.39075
# Poissons Ratio (y) = 1.09616 0.43234
# Poissons Ratio (z) = 0.55532 1.86383
#
# Static dielectric constant tensor:
#      x y z
#    x 1.787820 -0.042010 -0.005570 
#    y -0.042010 1.815530 0.022110 
#    z -0.005570 0.022110 1.802050 
# 
# From -- ./inp_files/308181.got.cif
#   From: 2010.05.17/outbox.cif.g08.bks.cpg/sg2_155_cif.got.tgz:308181.got - 2010.06.03 11:33:40.
