data_PCOD9091317
_publ_section_title
;
Structure prediction by ZEFSAII (Michael W. Deem and Ramdas Pophale) SiO2 
 PCOD9091317
Probable space group: P -1
;
_chemical_formula_sum "Si O2"
_cell_formula_units_Z 16
_cell_length_a 6.689630
_cell_length_b 21.274820
_cell_length_c 11.715628
_cell_angle_alpha 33.821391
_cell_angle_beta 59.106019
_cell_angle_gamma 77.668537
_cell_volume 712.823732
_symmetry_space_group_name_H-M "P -1"
_symmetry_group_IT_number 2
_symmetry_cell_setting 'triclinic'
loop_
_space_group_symop_operation_xyz
x,y,z
-x,-y,-z
loop_
_atom_site_type_symbol
_atom_site_label
_atom_site_fract_x
_atom_site_fract_y
_atom_site_fract_z
Si Si1 0.277755 0.122820 0.208951
Si Si2 0.103890 0.965470 0.133934
Si Si3 0.476658 0.627033 0.792196
Si Si4 0.232931 0.369728 0.757887
Si Si5 0.444943 0.370545 0.476556
Si Si6 0.945961 0.624875 0.966950
Si Si7 0.737213 0.804509 0.659538
Si Si8 0.575703 0.163307 0.836906
O O1 0.396541 0.168817 0.231144
O O2 0.462774 0.108452 0.078951
O O3 0.241956 0.241470 0.989812
O O4 0.000000 0.000000 0.500000
O O5 0.906588 0.930006 0.350378
O O6 0.361951 0.078884 0.934547
O O7 0.172374 0.851565 0.251442
O O8 0.000000 0.000000 0.000000
O O9 0.635654 0.683186 0.544639
O O10 0.565512 0.711835 0.750787
O O11 0.500000 0.500000 0.000000
O O12 0.187279 0.607459 0.876515
O O13 0.500000 0.500000 0.500000
O O14 0.210131 0.360382 0.642116
O O15 0.037581 0.378341 0.894737
O O16 0.663918 0.513999 0.185204
O O17 0.590265 0.300321 0.606895
O O18 0.930467 0.749213 0.736900
#
# Coordination Sequence:
#
# PCOD9091317 Si02
#       8
#     2   2   2   2   2   2   2   2
#     4  10  19  40  66  89 119 164 208 254 305 366
#     4  11  23  40  60  91 125 158 205 254 301 365
#     4  12  24  36  59  97 127 160 203 250 310 369
#     4   8  18  36  65  88 115 162 207 248 307 367
#     4  10  19  39  65  87 123 159 203 250 309 370
#     4  10  21  40  63  89 123 163 198 254 309 365
#     4  11  23  41  64  87 128 160 206 255 305 365
#     4  10  22  40  65  88 117 166 204 247 312 363
#
# _framework density 22.445941999999999
#
# number of rings (size 3 to 8) (size 9 to 14) (size 15 to 20)
#    0.000    1.750    2.500    1.875    1.750    1.000 
#    0.000    6.250    0.000    0.000    0.000    0.000 
#    0.000    0.000    0.000    0.000    0.000    0.000 
#
# Total GULP energy -89211.640397 kJ/mol
# GULP energy per Si atom -5575.727525 kJ/mol
# Density = 2.239485 g / cm^3
# Si number density = 22.445942 Si / 1000 Ang^3
#
#
#
# Elastic Constant Matrix: (Units=GPa)
#
#
# Indices 1 2 3 4 5 6 
#
# 1 55.3800 18.6433 12.3208 17.0122 10.2788 24.0307
# 2 18.6433 96.4498 16.1756 37.8384 12.9666 31.6175
# 3 12.3208 16.1756 89.7959 12.5193 18.4192 13.2601
# 4 17.0122 37.8384 12.5193 53.2551 13.0352 14.3125
# 5 10.2788 12.9666 18.4192 13.0352 24.9747 2.3749
# 6 24.0307 31.6175 13.2601 14.3125 2.3749 32.7517
#
#
#
# Elastic Compliance Matrix: (Units=1/GPa)
#
#
# Indices 1 2 3 4 5 6 
#
# 1 0.030477 0.005495 0.001658 -0.004208 -0.011986 -0.025629
# 2 0.005495 0.020022 0.001184 -0.009433 -0.006778 -0.019225
# 3 0.001658 0.001184 0.014007 -0.000053 -0.010914 -0.007216
# 4 -0.004208 -0.009433 -0.000053 0.028833 -0.008402 0.000225
# 5 -0.011986 -0.006778 -0.010914 -0.008402 0.059106 0.019141
# 6 -0.025629 -0.019225 -0.007216 0.000225 0.019141 0.069332
#
#
# Mechanical properties :
#
#
# Convention : Reuss Voigt Hill
#
# Bulk Modulus (GPa) = 12.31838 37.32280 24.82059
# Shear Modulus (GPa) = 21.53655 35.16204 28.34929
#
# Velocity S-wave (km/s) = 3.10092 3.96222 3.55773
# Velocity P-wave (km/s) = 4.28028 6.13158 5.28758
#
# Compressibility (1/GPa) = 0.08117953
#
# Stress axis : x y z
#
# Youngs Moduli (GPa) = 32.81194 49.94541 71.39170
#
# Poissons Ratio (x) = -0.27443 -0.11840
# Poissons Ratio (y) = -0.18029 -0.08452
# Poissons Ratio (z) = -0.05441 -0.05913
#
# Static dielectric constant tensor:
#      x y z
#    x 1.806470 0.046410 0.004130 
#    y 0.046410 1.965500 -0.022770 
#    z 0.004130 -0.022770 1.857690 
# 
# From -- ./inp_files/370952.got.cif
#   From: 2010.05.17/outbox.cif.g08.bks.cpg/sg2_186_cif.got.tgz:370952.got - 2010.06.03 11:33:40.
