data_PCOD9091992
_publ_section_title
;
Structure prediction by ZEFSAII (Michael W. Deem and Ramdas Pophale) SiO2 
 PCOD9091992
Probable space group: P -1
;
_chemical_formula_sum "Si O2"
_cell_formula_units_Z 16
_cell_length_a 8.592460
_cell_length_b 12.383526
_cell_length_c 9.572337
_cell_angle_alpha 122.235877
_cell_angle_beta 46.267540
_cell_angle_gamma 128.767666
_cell_volume 564.621453
_symmetry_space_group_name_H-M "P -1"
_symmetry_group_IT_number 2
_symmetry_cell_setting 'triclinic'
loop_
_space_group_symop_operation_xyz
x,y,z
-x,-y,-z
loop_
_atom_site_type_symbol
_atom_site_label
_atom_site_fract_x
_atom_site_fract_y
_atom_site_fract_z
Si Si1 0.620446 0.111727 0.628264
Si Si2 0.070864 0.093422 0.337081
Si Si3 0.213373 0.683504 0.102240
Si Si4 0.277713 0.887017 0.982027
Si Si5 0.682629 0.658383 0.453782
Si Si6 0.155279 0.440418 0.156764
Si Si7 0.667727 0.367066 0.576498
Si Si8 0.981178 0.145646 0.126681
O O1 0.584265 0.189645 0.846065
O O2 0.689699 0.251353 0.584167
O O3 0.814333 0.061481 0.536828
O O4 0.500000 0.000000 0.500000
O O5 0.277492 0.210869 0.377853
O O6 0.047871 0.172040 0.264330
O O7 0.089714 0.949323 0.190615
O O8 0.234764 0.736399 0.966912
O O9 0.219430 0.539971 0.050940
O O10 0.946713 0.664587 0.291012
O O11 0.271037 0.890164 0.819922
O O12 0.500000 0.000000 0.000000
O O13 0.500000 0.500000 0.500000
O O14 0.569098 0.683963 0.400966
O O15 0.316633 0.513043 0.240663
O O16 0.894924 0.417760 0.365573
O O17 0.142233 0.285389 0.040351
O O18 0.000000 0.000000 0.000000
#
# Coordination Sequence:
#
# PCOD9091992 Si02
#       8
#     2   2   2   2   2   2   2   2
#     4  10  22  36  64  97 131 166 206 278 344 396
#     4  10  23  40  63  94 127 167 222 275 325 397
#     4  10  24  40  59 102 131 166 221 270 329 399
#     4  11  27  43  62  88 128 183 231 270 316 376
#     4  11  21  36  65 102 132 159 203 273 349 394
#     4  10  19  40  64  93 133 164 215 264 324 411
#     4  10  20  34  64 101 129 169 196 262 353 389
#     4  10  22  43  65  86 122 178 222 266 315 381
#
# _framework density 28.337572000000002
#
# number of rings (size 3 to 8) (size 9 to 14) (size 15 to 20)
#    0.000    1.750    2.500    0.750    7.000    1.500 
#    0.000    0.000    0.000    4.500    0.000    0.000 
#    0.000    0.000    0.000    0.000    0.000    0.000 
#
# Total GULP energy -89397.961608 kJ/mol
# GULP energy per Si atom -5587.372600 kJ/mol
# Density = 2.827307 g / cm^3
# Si number density = 28.337572 Si / 1000 Ang^3
#
#
#
# Elastic Constant Matrix: (Units=GPa)
#
#
# Indices 1 2 3 4 5 6 
#
# 1 182.5823 65.0691 50.1640 7.9767 35.3625 -4.3088
# 2 65.0691 134.6292 29.9534 35.4863 15.5424 -9.3657
# 3 50.1640 29.9534 72.4453 18.5888 11.9705 -7.3802
# 4 7.9767 35.4863 18.5888 43.5399 1.5039 11.2592
# 5 35.3625 15.5424 11.9705 1.5039 60.6333 1.8288
# 6 -4.3088 -9.3657 -7.3802 11.2592 1.8288 72.2819
#
#
#
# Elastic Compliance Matrix: (Units=1/GPa)
#
#
# Indices 1 2 3 4 5 6 
#
# 1 0.008627 -0.003838 -0.005022 0.004071 -0.003126 -0.001051
# 2 -0.003838 0.012133 0.000720 -0.010249 -0.000852 0.003035
# 3 -0.005022 0.000720 0.019768 -0.008905 -0.001035 0.003226
# 4 0.004071 -0.010249 -0.008905 0.036318 0.001342 -0.007686
# 5 -0.003126 -0.000852 -0.001035 0.001342 0.018737 -0.001085
# 6 -0.001051 0.003035 0.003226 -0.007686 -0.001085 0.015719
#
#
# Mechanical properties :
#
#
# Convention : Reuss Voigt Hill
#
# Bulk Modulus (GPa) = 41.23890 75.55886 58.39888
# Shear Modulus (GPa) = 36.85549 51.58905 44.22227
#
# Velocity S-wave (km/s) = 3.61028 4.27138 3.95467
# Velocity P-wave (km/s) = 5.65359 7.14479 6.44248
#
# Compressibility (1/GPa) = 0.02424895
#
# Stress axis : x y z
#
# Youngs Moduli (GPa) = 115.91192 82.41817 50.58726
#
# Poissons Ratio (x) = 0.31630 0.25407
# Poissons Ratio (y) = 0.44483 -0.03644
# Poissons Ratio (z) = 0.58215 -0.05937
#
# Static dielectric constant tensor:
#      x y z
#    x 2.261610 0.158740 -0.054840 
#    y 0.158740 2.334420 -0.127640 
#    z -0.054840 -0.127640 2.438800 
# 
# From -- ./inp_files/260615.got.cif
#   From: 2010.05.17/outbox.cif.g08.bks.cpg/sg2_131_cif.got.tgz:260615.got - 2010.06.03 11:33:40.
