data_PCOD9091559
_publ_section_title
;
Structure prediction by ZEFSAII (Michael W. Deem and Ramdas Pophale) SiO2 
 PCOD9091559
Probable space group: P -1
;
_chemical_formula_sum "Si O2"
_cell_formula_units_Z 14
_cell_length_a 7.345720
_cell_length_b 9.655154
_cell_length_c 25.604104
_cell_angle_alpha 39.276775
_cell_angle_beta 31.358745
_cell_angle_gamma 48.306071
_cell_volume 598.207484
_symmetry_space_group_name_H-M "P -1"
_symmetry_group_IT_number 2
_symmetry_cell_setting 'triclinic'
loop_
_space_group_symop_operation_xyz
x,y,z
-x,-y,-z
loop_
_atom_site_type_symbol
_atom_site_label
_atom_site_fract_x
_atom_site_fract_y
_atom_site_fract_z
Si Si1 0.678191 0.400709 0.226150
Si Si2 0.297561 0.275016 0.604262
Si Si3 0.586084 0.031183 0.706712
Si Si4 0.586146 0.463117 0.116418
Si Si5 0.250928 0.019999 0.483440
Si Si6 0.559518 0.721523 0.953141
Si Si7 0.500932 0.200419 0.790370
O O1 0.479784 0.464040 0.202558
O O2 0.451987 0.245462 0.362931
O O3 0.758506 0.620383 0.173589
O O4 0.017832 0.266205 0.162647
O O5 0.500000 0.500000 0.500000
O O6 0.386610 0.123720 0.677331
O O7 0.883857 0.277332 0.694513
O O8 0.472569 0.172187 0.539144
O O9 0.510159 0.180498 0.731580
O O10 0.997045 0.018182 0.595198
O O11 0.487506 0.779780 0.815431
O O12 0.443970 0.657693 0.058483
O O13 0.000000 0.500000 0.000000
O O14 0.000000 0.000000 0.500000
O O15 0.424092 0.956973 0.900479
O O16 0.500000 0.500000 0.000000
#
# Coordination Sequence:
#
# PCOD9091559 Si02
#       7
#     2   2   2   2   2   2   2
#     4  11  23  43  69  98 134 176 225 284 338 403
#     4  11  23  41  66 101 140 177 225 276 339 411
#     4  11  23  43  68  98 137 183 222 278 343 400
#     4  10  20  41  69  89 132 181 220 276 340 391
#     4  10  19  39  67  93 135 177 216 273 342 398
#     4  11  23  45  67  96 135 176 229 282 332 397
#     4  12  25  44  69 103 138 174 231 283 333 405
#
# _framework density 23.403251999999998
#
# number of rings (size 3 to 8) (size 9 to 14) (size 15 to 20)
#    0.000    1.143    5.714    2.571    0.000    4.000 
#    5.143    0.000    0.000    0.000    0.000    0.000 
#    0.000    0.000    0.000    0.000    0.000    0.000 
#
# Total GULP energy -78263.749263 kJ/mol
# GULP energy per Si atom -5590.267804 kJ/mol
# Density = 2.334999 g / cm^3
# Si number density = 23.403252 Si / 1000 Ang^3
#
#
#
# Elastic Constant Matrix: (Units=GPa)
#
#
# Indices 1 2 3 4 5 6 
#
# 1 61.3342 16.5465 20.5799 4.2141 -0.9897 13.2961
# 2 16.5465 127.4495 29.8070 -6.3599 8.8171 20.2323
# 3 20.5799 29.8070 110.9942 -29.8525 -2.3453 -0.7346
# 4 4.2141 -6.3599 -29.8525 37.9401 6.0680 -6.2481
# 5 -0.9897 8.8171 -2.3453 6.0680 25.7949 4.0246
# 6 13.2961 20.2323 -0.7346 -6.2481 4.0246 32.7987
#
#
#
# Elastic Compliance Matrix: (Units=1/GPa)
#
#
# Indices 1 2 3 4 5 6 
#
# 1 0.021911 -0.000288 -0.006764 -0.010409 0.004551 -0.011398
# 2 -0.000288 0.009598 -0.002953 -0.001265 -0.002354 -0.005822
# 3 -0.006764 -0.002953 0.014675 0.013442 -0.002285 0.007733
# 4 -0.010409 -0.001265 0.013442 0.042037 -0.010919 0.014649
# 5 0.004551 -0.002354 -0.002285 -0.010919 0.043331 -0.007841
# 6 -0.011398 -0.005822 0.007733 0.014649 -0.007841 0.042627
#
#
# Mechanical properties :
#
#
# Convention : Reuss Voigt Hill
#
# Bulk Modulus (GPa) = 38.20454 48.18273 43.19364
# Shear Modulus (GPa) = 24.64123 34.82972 29.73547
#
# Velocity S-wave (km/s) = 3.24836 3.86196 3.56837
# Velocity P-wave (km/s) = 5.51625 6.36546 5.95601
#
# Compressibility (1/GPa) = 0.02617490
#
# Stress axis : x y z
#
# Youngs Moduli (GPa) = 45.63963 104.18651 68.14429
#
# Poissons Ratio (x) = 0.02996 0.46094
# Poissons Ratio (y) = 0.01312 0.20121
# Poissons Ratio (z) = 0.30872 0.30763
#
# Static dielectric constant tensor:
#      x y z
#    x 1.991750 -0.040460 -0.031180 
#    y -0.040460 1.899390 0.036240 
#    z -0.031180 0.036240 1.897170 
# 
# From -- ./inp_files/202742.got.cif
#   From: 2010.05.17/outbox.cif.g08.bks.cpg/sg2_102_cif.got.tgz:202742.got - 2010.06.03 11:33:40.
