data_PCOD9091422
_publ_section_title
;
Structure prediction by ZEFSAII (Michael W. Deem and Ramdas Pophale) SiO2 
 PCOD9091422
Probable space group: P -1
;
_chemical_formula_sum "Si O2"
_cell_formula_units_Z 16
_cell_length_a 18.911862
_cell_length_b 24.794886
_cell_length_c 11.966789
_cell_angle_alpha 142.854366
_cell_angle_beta 152.399112
_cell_angle_gamma 18.242107
_cell_volume 774.478191
_symmetry_space_group_name_H-M "P -1"
_symmetry_group_IT_number 2
_symmetry_cell_setting 'triclinic'
loop_
_space_group_symop_operation_xyz
x,y,z
-x,-y,-z
loop_
_atom_site_type_symbol
_atom_site_label
_atom_site_fract_x
_atom_site_fract_y
_atom_site_fract_z
Si Si1 0.277022 0.923314 0.729600
Si Si2 0.182136 0.176547 0.777292
Si Si3 0.572016 0.044008 0.430300
Si Si4 0.332453 0.989085 0.251426
Si Si5 0.550638 0.412688 0.319437
Si Si6 0.003110 0.776515 0.037659
Si Si7 0.675931 0.725264 0.744450
Si Si8 0.700375 0.656990 0.087070
O O1 0.426341 0.830039 0.663715
O O2 0.542502 0.767241 0.932740
O O3 0.000000 0.000000 0.500000
O O4 0.122025 0.098446 0.828458
O O5 0.913180 0.241277 0.521883
O O6 0.267700 0.123979 0.680125
O O7 0.106009 0.311786 0.945841
O O8 0.500000 0.000000 0.000000
O O9 0.750180 0.984919 0.692036
O O10 0.513070 0.140344 0.404175
O O11 0.229366 0.189016 0.227707
O O12 0.571838 0.792604 0.220948
O O13 0.500000 0.000000 0.500000
O O14 0.061340 0.135958 0.021762
O O15 0.500000 0.500000 0.500000
O O16 0.343414 0.566330 0.188088
O O17 0.427710 0.375716 0.109637
O O18 0.932395 0.529716 0.728710
#
# Coordination Sequence:
#
# PCOD9091422 Si02
#       8
#     2   2   2   2   2   2   2   2
#     4  11  24  36  59  90 136 167 197 263 337 380
#     4  10  21  35  63  95 128 161 204 260 331 384
#     4  10  19  39  66  87 120 178 213 255 310 385
#     4   9  22  43  64  88 128 178 223 252 314 376
#     4  12  21  36  65 100 129 161 206 269 327 379
#     4  10  20  40  61  90 124 168 211 256 317 385
#     4  11  21  37  61  98 128 157 219 264 317 385
#     4  11  23  39  62  95 128 166 217 265 312 383
#
# _framework density 20.659071000000001
#
# number of rings (size 3 to 8) (size 9 to 14) (size 15 to 20)
#    0.000    1.500    3.750    1.875    5.250    0.500 
#    0.000    1.250    0.000    0.000    0.000    0.000 
#    0.000    0.000    0.000    0.000    0.000    0.000 
#
# Total GULP energy -89166.322378 kJ/mol
# GULP energy per Si atom -5572.895149 kJ/mol
# Density = 2.061205 g / cm^3
# Si number density = 20.659071 Si / 1000 Ang^3
#
#
#
# Elastic Constant Matrix: (Units=GPa)
#
#
# Indices 1 2 3 4 5 6 
#
# 1 135.2803 46.7497 46.3046 -7.7642 -22.2595 -11.8631
# 2 46.7497 111.2625 39.2463 -1.1193 -9.7969 2.9120
# 3 46.3046 39.2463 58.7906 -5.3242 2.0052 -6.1072
# 4 -7.7642 -1.1193 -5.3242 38.0219 -3.7821 -1.8454
# 5 -22.2595 -9.7969 2.0052 -3.7821 44.1066 0.4816
# 6 -11.8631 2.9120 -6.1072 -1.8454 0.4816 24.2109
#
#
#
# Elastic Compliance Matrix: (Units=1/GPa)
#
#
# Indices 1 2 3 4 5 6 
#
# 1 0.012329 -0.001884 -0.008026 0.002174 0.006308 0.004283
# 2 -0.001884 0.012798 -0.007704 -0.001088 0.002198 -0.004532
# 3 -0.008026 -0.007704 0.029359 0.001776 -0.006995 0.004674
# 4 0.002174 -0.001088 0.001776 0.027447 0.003088 0.003675
# 5 0.006308 0.002198 -0.006995 0.003088 0.026919 0.000762
# 6 0.004283 -0.004532 0.004674 0.003675 0.000762 0.045392
#
#
# Mechanical properties :
#
#
# Convention : Reuss Voigt Hill
#
# Bulk Modulus (GPa) = 51.92730 63.32606 57.62668
# Shear Modulus (GPa) = 25.52460 32.80340 29.16400
#
# Velocity S-wave (km/s) = 3.51880 3.98910 3.76131
# Velocity P-wave (km/s) = 6.45749 7.20671 6.84236
#
# Compressibility (1/GPa) = 0.01925769
#
# Stress axis : x y z
#
# Youngs Moduli (GPa) = 81.11263 78.13681 34.06125
#
# Poissons Ratio (x) = 0.14720 0.27337
# Poissons Ratio (y) = 0.15281 0.26241
# Poissons Ratio (z) = 0.65100 0.60197
#
# Static dielectric constant tensor:
#      x y z
#    x 1.829660 0.028690 0.021330 
#    y 0.028690 1.865940 0.037740 
#    z 0.021330 0.037740 1.805400 
# 
# From -- ./inp_files/467363.got.cif
#   From: 2010.05.17/outbox.cif.g08.bks.cpg/sg2_234_cif.got.tgz:467363.got - 2010.06.03 11:33:40.
