data_PCOD9091666
_publ_section_title
;
Structure prediction by ZEFSAII (Michael W. Deem and Ramdas Pophale) SiO2 
 PCOD9091666
Probable space group: P -1
;
_chemical_formula_sum "Si O2"
_cell_formula_units_Z 16
_cell_length_a 7.492130
_cell_length_b 9.479233
_cell_length_c 11.831942
_cell_angle_alpha 94.654227
_cell_angle_beta 93.273528
_cell_angle_gamma 49.963814
_cell_volume 641.231406
_symmetry_space_group_name_H-M "P -1"
_symmetry_group_IT_number 2
_symmetry_cell_setting 'triclinic'
loop_
_space_group_symop_operation_xyz
x,y,z
-x,-y,-z
loop_
_atom_site_type_symbol
_atom_site_label
_atom_site_fract_x
_atom_site_fract_y
_atom_site_fract_z
Si Si1 0.301450 0.613006 0.664661
Si Si2 0.937882 0.854839 0.064208
Si Si3 0.888699 0.611614 0.619030
Si Si4 0.683117 0.459568 0.095379
Si Si5 0.278301 0.784271 0.450511
Si Si6 0.947188 0.743192 0.306069
Si Si7 0.421565 0.986876 0.349158
Si Si8 0.650988 0.122942 0.891396
O O1 0.354289 0.613410 0.797394
O O2 0.272459 0.751405 0.581214
O O3 0.495135 0.410359 0.605605
O O4 0.067696 0.639605 0.668242
O O5 0.903884 0.797517 0.177767
O O6 0.123975 0.885447 0.103959
O O7 0.068256 0.692991 0.963534
O O8 0.699734 0.029431 0.009150
O O9 0.882738 0.477829 0.688546
O O10 0.650554 0.816777 0.612997
O O11 0.000000 0.500000 0.500000
O O12 0.698537 0.831153 0.355418
O O13 0.586957 0.667208 0.123457
O O14 0.500000 0.500000 0.000000
O O15 0.067067 0.810551 0.382070
O O16 0.297263 0.935218 0.421048
O O17 0.343079 0.987732 0.219177
#
# Coordination Sequence:
#
# PCOD9091666 Si02
#       8
#     2   2   2   2   2   2   2   2
#     4  11  22  46  78 107 154 196 251 313 382 446
#     4  10  22  39  75 107 149 194 254 311 371 440
#     4  12  27  50  72 110 158 197 249 318 380 452
#     4  10  19  39  69 107 146 189 241 315 369 434
#     4  11  23  47  79 110 144 205 254 308 379 455
#     4  12  25  50  72 115 154 198 254 312 375 461
#     4  12  26  48  78 108 157 201 251 316 377 454
#     4  10  20  42  69 108 143 194 256 308 364 449
#
# _framework density 24.951991
#
# number of rings (size 3 to 8) (size 9 to 14) (size 15 to 20)
#    0.000    1.000    5.000    1.500    0.000    2.500 
#    2.250    4.375    0.000    0.000    0.000    0.000 
#    0.000    0.000    0.000    0.000    0.000    0.000 
#
# Total GULP energy -89631.529500 kJ/mol
# GULP energy per Si atom -5601.970594 kJ/mol
# Density = 2.489520 g / cm^3
# Si number density = 24.951991 Si / 1000 Ang^3
#
#
#
# Elastic Constant Matrix: (Units=GPa)
#
#
# Indices 1 2 3 4 5 6 
#
# 1 97.1703 29.3496 29.8953 -12.4474 -0.4987 4.2549
# 2 29.3496 139.0422 50.8483 -10.7404 -10.7275 8.8546
# 3 29.8953 50.8483 206.6080 -36.2264 -4.9728 15.6781
# 4 -12.4474 -10.7404 -36.2264 42.9403 4.9398 -8.5326
# 5 -0.4987 -10.7275 -4.9728 4.9398 31.5526 -4.1752
# 6 4.2549 8.8546 15.6781 -8.5326 -4.1752 29.9310
#
#
#
# Elastic Compliance Matrix: (Units=1/GPa)
#
#
# Indices 1 2 3 4 5 6 
#
# 1 0.011429 -0.002024 -0.000777 0.002242 -0.000997 -0.000119
# 2 -0.002024 0.008480 -0.001726 -0.000426 0.002502 -0.001089
# 3 -0.000777 -0.001726 0.006244 0.004375 -0.000495 -0.001471
# 4 0.002242 -0.000426 0.004375 0.028953 -0.003249 0.005316
# 5 -0.000997 0.002502 -0.000495 -0.003249 0.033408 0.003395
# 6 -0.000119 -0.001089 -0.001471 0.005316 0.003395 0.036509
#
#
# Mechanical properties :
#
#
# Convention : Reuss Voigt Hill
#
# Bulk Modulus (GPa) = 58.48659 73.66743 66.07701
# Shear Modulus (GPa) = 35.77104 43.06661 39.41882
#
# Velocity S-wave (km/s) = 3.79039 4.15900 3.97897
# Velocity P-wave (km/s) = 6.53044 7.25609 6.90280
#
# Compressibility (1/GPa) = 0.01709794
#
# Stress axis : x y z
#
# Youngs Moduli (GPa) = 87.49591 117.92408 160.14678
#
# Poissons Ratio (x) = 0.23872 0.12450
# Poissons Ratio (y) = 0.17712 0.27640
# Poissons Ratio (z) = 0.06802 0.20353
#
# Static dielectric constant tensor:
#      x y z
#    x 1.863690 0.105050 -0.024560 
#    y 0.105050 1.978260 0.043150 
#    z -0.024560 0.043150 1.952840 
# 
# From -- ./inp_files/423581.got.cif
#   From: 2010.05.17/outbox.cif.g08.bks.cpg/sg2_212_cif.got.tgz:423581.got - 2010.06.03 11:33:40.
