data_PCOD9091707
_publ_section_title
;
Structure prediction by ZEFSAII (Michael W. Deem and Ramdas Pophale) SiO2 
 PCOD9091707
Probable space group: P -1
;
_chemical_formula_sum "Si O2"
_cell_formula_units_Z 12
_cell_length_a 6.065812
_cell_length_b 13.827043
_cell_length_c 7.123650
_cell_angle_alpha 119.625092
_cell_angle_beta 63.931864
_cell_angle_gamma 117.232629
_cell_volume 443.882167
_symmetry_space_group_name_H-M "P -1"
_symmetry_group_IT_number 2
_symmetry_cell_setting 'triclinic'
loop_
_space_group_symop_operation_xyz
x,y,z
-x,-y,-z
loop_
_atom_site_type_symbol
_atom_site_label
_atom_site_fract_x
_atom_site_fract_y
_atom_site_fract_z
Si Si1 0.869473 0.955182 0.307309
Si Si2 0.235462 0.698808 0.868183
Si Si3 0.249991 0.329251 0.424828
Si Si4 0.856051 0.393688 0.816008
Si Si5 0.301927 0.315793 0.838632
Si Si6 0.835428 0.119553 0.190645
O O1 0.715019 0.818909 0.252492
O O2 0.726416 0.033695 0.322148
O O3 0.000000 0.000000 0.500000
O O4 0.098498 0.952357 0.074690
O O5 0.452071 0.632469 0.710858
O O6 0.227915 0.719018 0.116285
O O7 0.316621 0.801450 0.780433
O O8 0.922075 0.658261 0.925973
O O9 0.261808 0.325062 0.641799
O O10 0.099765 0.207000 0.265370
O O11 0.030610 0.394332 0.569206
O O12 0.582351 0.397618 0.857596
O O13 0.000000 0.500000 0.000000
#
# Coordination Sequence:
#
# PCOD9091707 Si02
#       6
#     2   2   2   2   2   2
#     4  10  19  39  70 106 146 189 235 281 345 421
#     4  10  22  41  68 101 139 180 230 293 348 414
#     4  11  22  43  70  99 146 184 229 293 357 421
#     4  11  26  47  72 100 137 187 239 299 363 418
#     4  10  22  43  68 100 142 186 234 291 347 417
#     4  10  21  39  68 105 146 188 233 282 351 423
#
# _framework density 27.034202000000001
#
# number of rings (size 3 to 8) (size 9 to 14) (size 15 to 20)
#    0.000    1.667    1.667    3.000    0.000    3.333 
#    0.000   22.500    0.000    0.000    0.000    0.000 
#    0.000    0.000    0.000    0.000    0.000    0.000 
#
# Total GULP energy -66900.987297 kJ/mol
# GULP energy per Si atom -5575.082275 kJ/mol
# Density = 2.697267 g / cm^3
# Si number density = 27.034202 Si / 1000 Ang^3
#
#
#
# Elastic Constant Matrix: (Units=GPa)
#
#
# Indices 1 2 3 4 5 6 
#
# 1 114.0615 44.0772 60.0617 -5.8365 -13.8914 8.4918
# 2 44.0772 101.5310 42.5110 4.9041 -8.1085 6.7591
# 3 60.0617 42.5110 196.6469 -14.3556 -11.2595 32.0014
# 4 -5.8365 4.9041 -14.3556 40.5376 9.9170 1.2260
# 5 -13.8914 -8.1085 -11.2595 9.9170 67.3304 -21.9015
# 6 8.4918 6.7591 32.0014 1.2260 -21.9015 52.4888
#
#
#
# Elastic Compliance Matrix: (Units=1/GPa)
#
#
# Indices 1 2 3 4 5 6 
#
# 1 0.011955 -0.003984 -0.002796 0.000760 0.001728 0.000987
# 2 -0.003984 0.012492 -0.001738 -0.002968 0.001021 0.000591
# 3 -0.002796 -0.001738 0.007145 0.002816 -0.001417 -0.004337
# 4 0.000760 -0.002968 0.002816 0.027527 -0.005169 -0.004257
# 5 0.001728 0.001021 -0.001417 -0.005169 0.018562 0.008319
# 6 0.000987 0.000591 -0.004337 -0.004257 0.008319 0.025031
#
#
# Mechanical properties :
#
#
# Convention : Reuss Voigt Hill
#
# Bulk Modulus (GPa) = 68.70030 78.39324 73.54677
# Shear Modulus (GPa) = 40.12817 49.77732 44.95274
#
# Velocity S-wave (km/s) = 3.85690 4.29566 4.08218
# Velocity P-wave (km/s) = 6.73066 7.32559 7.03442
#
# Compressibility (1/GPa) = 0.01455598
#
# Stress axis : x y z
#
# Youngs Moduli (GPa) = 83.64713 80.05183 139.95070
#
# Poissons Ratio (x) = 0.31889 0.39136
# Poissons Ratio (y) = 0.33321 0.24326
# Poissons Ratio (z) = 0.23391 0.13915
#
# Static dielectric constant tensor:
#      x y z
#    x 2.402090 -0.116370 -0.150350 
#    y -0.116370 2.204480 -0.037320 
#    z -0.150350 -0.037320 2.154590 
# 
# From -- ./inp_files/119604.got.cif
#   From: 2010.05.17/outbox.cif.g08.bks.cpg/sg2_60_cif.got.tgz:119604.got - 2010.06.03 11:33:40.
