data_PCOD9091409
_publ_section_title
;
Structure prediction by ZEFSAII (Michael W. Deem and Ramdas Pophale) SiO2 
 PCOD9091409
Probable space group: P -1
;
_chemical_formula_sum "Si O2"
_cell_formula_units_Z 12
_cell_length_a 11.476650
_cell_length_b 9.966711
_cell_length_c 13.580573
_cell_angle_alpha 70.783433
_cell_angle_beta 22.629585
_cell_angle_gamma 78.846886
_cell_volume 537.733784
_symmetry_space_group_name_H-M "P -1"
_symmetry_group_IT_number 2
_symmetry_cell_setting 'triclinic'
loop_
_space_group_symop_operation_xyz
x,y,z
-x,-y,-z
loop_
_atom_site_type_symbol
_atom_site_label
_atom_site_fract_x
_atom_site_fract_y
_atom_site_fract_z
Si Si1 0.054147 0.971860 0.776260
Si Si2 0.222185 0.858302 0.208828
Si Si3 0.438514 0.338005 0.137908
Si Si4 0.695703 0.385265 0.147450
Si Si5 0.701407 0.647303 0.208537
Si Si6 0.411254 0.160853 0.591357
O O1 0.064807 0.064421 0.846673
O O2 0.951394 0.059098 0.749894
O O3 0.395703 0.948530 0.499595
O O4 0.849577 0.801143 0.995915
O O5 0.937144 0.754869 0.526105
O O6 0.394193 0.756178 0.039067
O O7 0.500000 0.000000 0.000000
O O8 0.609771 0.364472 0.105408
O O9 0.500000 0.500000 0.000000
O O10 0.587547 0.519214 0.247892
O O11 0.526023 0.242282 0.378932
O O12 0.056787 0.403055 0.894896
O O13 0.504510 0.707298 0.427186
#
# Coordination Sequence:
#
# PCOD9091409 Si02
#       6
#     2   2   2   2   2   2
#     4  10  22  37  66 102 141 182 237 299 370 430
#     4  12  28  52  77 109 146 196 256 312 364 434
#     4  12  28  53  78 105 148 203 252 306 369 437
#     4  10  22  40  64 103 144 188 241 296 366 442
#     4  10  21  37  65 105 142 186 232 298 370 445
#     4  10  19  39  66 100 142 183 236 294 376 436
#
# _framework density 22.315874000000001
#
# number of rings (size 3 to 8) (size 9 to 14) (size 15 to 20)
#    0.000    1.333    1.667    3.000    4.667    0.000 
#    0.000    0.000    0.000    0.000    0.000    0.000 
#    0.000    0.000    0.000    0.000    0.000    0.000 
#
# Total GULP energy -66857.424120 kJ/mol
# GULP energy per Si atom -5571.452010 kJ/mol
# Density = 2.226508 g / cm^3
# Si number density = 22.315874 Si / 1000 Ang^3
#
#
#
# Elastic Constant Matrix: (Units=GPa)
#
#
# Indices 1 2 3 4 5 6 
#
# 1 296.3522 1004.2327 -976.3804 1564.8110 -210.1381 945.8369
# 2 1004.2327 4473.8852-4599.1971 7075.1847 -970.3341 4301.3751
# 3 -976.3804-4599.1971 5234.5875-7770.4873 1093.6855-4711.1194
# 4 1564.8110 7075.1847-7770.487311795.2712-1634.4307 7136.3028
# 5 -210.1381 -970.3341 1093.6855-1634.4307 254.9038 -994.7659
# 6 945.8369 4301.3751-4711.1194 7136.3028 -994.7659 4366.9782
#
#
#
# Elastic Compliance Matrix: (Units=1/GPa)
#
#
# Indices 1 2 3 4 5 6 
#
# 1 0.017798 -0.003373 -0.006707 -0.004926 0.001114 0.000536
# 2 -0.003373 0.006119 -0.001810 -0.002664 -0.000936 -0.003109
# 3 -0.006707 -0.001810 0.013820 0.008662 -0.005453 0.002747
# 4 -0.004926 -0.002664 0.008662 0.013769 -0.000167 -0.009502
# 5 0.001114 -0.000936 -0.005453 -0.000167 0.039339 0.004032
# 6 0.000536 -0.003109 0.002747 -0.009502 0.004032 0.022585
#
#
# Mechanical properties :
#
#
# Convention : Reuss Voigt Hill
#
# Bulk Modulus (GPa) = 71.64359 95.79281 83.71820
# Shear Modulus (GPa) = 35.24572 4255.17530 2145.21051
#
# Velocity S-wave (km/s) = 3.97848 43.71421 31.03837
# Velocity P-wave (km/s) = 7.29921 50.90117 36.36074
#
# Compressibility (1/GPa) = 0.01395798
#
# Stress axis : x y z
#
# Youngs Moduli (GPa) = 56.18537 163.41901 72.36072
#
# Poissons Ratio (x) = 0.55119 0.48530
# Poissons Ratio (y) = 0.18951 0.13098
# Poissons Ratio (z) = 0.37681 0.29580
#
# Static dielectric constant tensor:
#      x y z
#    x 1.835600 0.099840 -0.057730 
#    y 0.099840 1.863680 -0.061130 
#    z -0.057730 -0.061130 2.067140 
# 
# From -- ./inp_files/393488.got.cif
#   From: 2010.05.17/outbox.cif.g08.bks.cpg/sg2_197_cif.got.tgz:393488.got - 2010.06.03 11:33:40.
