data_PCOD9091975
_publ_section_title
;
Structure prediction by ZEFSAII (Michael W. Deem and Ramdas Pophale) SiO2 
 PCOD9091975
Probable space group: P -1
;
_chemical_formula_sum "Si O2"
_cell_formula_units_Z 14
_cell_length_a 21.883061
_cell_length_b 17.495387
_cell_length_c 8.083664
_cell_angle_alpha 35.692626
_cell_angle_beta 148.122583
_cell_angle_gamma 161.561266
_cell_volume 516.545467
_symmetry_space_group_name_H-M "P -1"
_symmetry_group_IT_number 2
_symmetry_cell_setting 'triclinic'
loop_
_space_group_symop_operation_xyz
x,y,z
-x,-y,-z
loop_
_atom_site_type_symbol
_atom_site_label
_atom_site_fract_x
_atom_site_fract_y
_atom_site_fract_z
Si Si1 0.928650 0.486469 0.684994
Si Si2 0.376615 0.044576 0.470991
Si Si3 0.067893 0.377463 0.996886
Si Si4 0.210684 0.979421 0.543940
Si Si5 0.560802 0.167167 0.159025
Si Si6 0.351553 0.283527 0.910214
Si Si7 0.922988 0.981207 0.562532
O O1 0.999060 0.703664 0.484193
O O2 0.693050 0.256233 0.470840
O O3 0.067462 0.519049 0.834517
O O4 0.000000 0.500000 0.000000
O O5 0.363372 0.090727 0.543864
O O6 0.475028 0.998145 0.742950
O O7 0.139044 0.810636 0.263040
O O8 0.467437 0.253557 0.210767
O O9 0.030152 0.218470 0.313124
O O10 0.274868 0.578234 0.004634
O O11 0.158391 0.066201 0.357448
O O12 0.335283 0.024050 0.902646
O O13 0.117567 0.064205 0.850042
O O14 0.269984 0.243773 0.608798
O O15 0.500000 0.500000 0.000000
#
# Coordination Sequence:
#
# PCOD9091975 Si02
#       7
#     2   2   2   2   2   2   2
#     4  11  21  38  59  95 136 168 198 255 321 371
#     4  10  21  41  65  91 130 170 211 256 309 381
#     4  10  19  40  64  90 132 169 200 253 316 385
#     4  12  23  38  63 101 130 161 207 264 316 373
#     4  11  23  38  64 100 133 165 206 246 323 394
#     4  10  24  46  67  85 120 175 220 258 316 367
#     4  10  24  43  64  94 126 160 218 268 305 371
#
# _framework density 27.10313
#
# number of rings (size 3 to 8) (size 9 to 14) (size 15 to 20)
#    0.000    1.429    4.286    1.286    2.000    2.286 
#    0.000    0.714    0.000    0.000    0.000    0.000 
#    0.000    0.000    0.000    0.000    0.000    0.000 
#
# Total GULP energy -78197.676893 kJ/mol
# GULP energy per Si atom -5585.548350 kJ/mol
# Density = 2.704144 g / cm^3
# Si number density = 27.103130 Si / 1000 Ang^3
#
#
#
# Elastic Constant Matrix: (Units=GPa)
#
#
# Indices 1 2 3 4 5 6 
#
# 1 129.8412 10.5452 19.2544 7.1416 -5.0838 -27.6174
# 2 10.5452 90.9881 28.1597 23.2001 -5.9664 -20.5568
# 3 19.2544 28.1597 103.9814 12.8643 0.3085 -10.3655
# 4 7.1416 23.2001 12.8643 51.5602 -14.9419 -6.0713
# 5 -5.0838 -5.9664 0.3085 -14.9419 43.6439 3.0336
# 6 -27.6174 -20.5568 -10.3655 -6.0713 3.0336 40.1369
#
#
#
# Elastic Compliance Matrix: (Units=1/GPa)
#
#
# Indices 1 2 3 4 5 6 
#
# 1 0.009219 0.000917 -0.001267 -0.000446 0.000613 0.006372
# 2 0.000917 0.014570 -0.002810 -0.005246 -0.000135 0.006584
# 3 -0.001267 -0.002810 0.010844 -0.001564 -0.001167 0.000341
# 4 -0.000446 -0.005246 -0.001564 0.024378 0.007608 -0.000285
# 5 0.000613 -0.000135 -0.001167 0.007608 0.025630 -0.000735
# 6 0.006372 0.006584 0.000341 -0.000285 -0.000735 0.032772
#
#
# Mechanical properties :
#
#
# Convention : Reuss Voigt Hill
#
# Bulk Modulus (GPa) = 35.31904 48.96993 42.14448
# Shear Modulus (GPa) = 37.54597 44.85829 41.20213
#
# Velocity S-wave (km/s) = 3.72600 4.07270 3.90320
# Velocity P-wave (km/s) = 5.61875 6.34217 5.99139
#
# Compressibility (1/GPa) = 0.02831334
#
# Stress axis : x y z
#
# Youngs Moduli (GPa) = 108.47185 68.63366 92.22031
#
# Poissons Ratio (x) = -0.06294 0.11684
# Poissons Ratio (y) = -0.09948 0.25913
# Poissons Ratio (z) = 0.13743 0.19285
#
# Static dielectric constant tensor:
#      x y z
#    x 2.166020 0.101350 -0.145180 
#    y 0.101350 2.195350 -0.144260 
#    z -0.145180 -0.144260 2.161370 
# 
# From -- ./inp_files/182016.got.cif
#   From: 2010.05.17/outbox.cif.g08.bks.cpg/sg2_92_cif.got.tgz:182016.got - 2010.06.03 11:33:40.
