data_PCOD9091808
_publ_section_title
;
Structure prediction by ZEFSAII (Michael W. Deem and Ramdas Pophale) SiO2 
 PCOD9091808
Probable space group: P -1
;
_chemical_formula_sum "Si O2"
_cell_formula_units_Z 16
_cell_length_a 15.764740
_cell_length_b 13.009420
_cell_length_c 9.152745
_cell_angle_alpha 80.457386
_cell_angle_beta 72.461784
_cell_angle_gamma 26.670298
_cell_volume 779.553447
_symmetry_space_group_name_H-M "P -1"
_symmetry_group_IT_number 2
_symmetry_cell_setting 'triclinic'
loop_
_space_group_symop_operation_xyz
x,y,z
-x,-y,-z
loop_
_atom_site_type_symbol
_atom_site_label
_atom_site_fract_x
_atom_site_fract_y
_atom_site_fract_z
Si Si1 0.581849 0.307750 0.075768
Si Si2 0.258359 0.332143 0.670262
Si Si3 0.540856 0.443937 0.660985
Si Si4 0.813709 0.828500 0.769796
Si Si5 0.708058 0.493826 0.235280
Si Si6 0.660241 0.810174 0.668276
Si Si7 0.887094 0.984349 0.741883
Si Si8 0.395531 0.302447 0.045071
O O1 0.580214 0.340920 0.237550
O O2 0.444004 0.353295 0.104600
O O3 0.500000 0.500000 0.000000
O O4 0.784053 0.077929 0.933168
O O5 0.337896 0.363958 0.663795
O O6 0.263607 0.309868 0.498816
O O7 0.027015 0.565807 0.787603
O O8 0.420191 0.083163 0.712818
O O9 0.500000 0.500000 0.500000
O O10 0.458738 0.414243 0.745330
O O11 0.769335 0.196062 0.662020
O O12 0.763976 0.808858 0.662214
O O13 0.861607 0.899411 0.695946
O O14 0.610353 0.040742 0.923419
O O15 0.747440 0.512929 0.058231
O O16 0.881889 0.245060 0.282196
O O17 0.691688 0.695671 0.809031
#
# Coordination Sequence:
#
# PCOD9091808 Si02
#       8
#     2   2   2   2   2   2   2   2
#     4   9  18  40  58  82 114 149 191 241 288 342
#     4  10  23  38  60  86 121 159 190 247 293 351
#     4  11  22  38  62  85 118 153 188 239 298 348
#     4  10  19  40  61  80 120 156 195 234 298 343
#     4  11  21  40  61  83 116 158 193 238 299 340
#     4  11  22  38  58  89 120 153 200 242 295 344
#     4   9  20  39  61  84 113 152 194 239 286 351
#     4  11  21  38  63  86 118 157 198 250 283 350
#
# _framework density 20.524570000000001
#
# number of rings (size 3 to 8) (size 9 to 14) (size 15 to 20)
#    0.000    1.750    5.000    0.750    1.750    1.500 
#    4.500    2.500    0.000    0.000    0.000    0.000 
#    0.000    0.000    0.000    0.000    0.000    0.000 
#
# Total GULP energy -89147.583917 kJ/mol
# GULP energy per Si atom -5571.723995 kJ/mol
# Density = 2.047786 g / cm^3
# Si number density = 20.524570 Si / 1000 Ang^3
#
#
#
# Elastic Constant Matrix: (Units=GPa)
#
#
# Indices 1 2 3 4 5 6 
#
# 1 71.4039 10.6142 24.3043 15.1003 35.3647 1.9407
# 2 10.6142 87.3551 20.9261 -13.3687 0.9445 -11.7061
# 3 24.3043 20.9261 72.1195 -14.1733 33.2841 10.0042
# 4 15.1003 -13.3687 -14.1733 21.5396 7.0128 5.5696
# 5 35.3647 0.9445 33.2841 7.0128 36.8308 5.6630
# 6 1.9407 -11.7061 10.0042 5.5696 5.6630 24.5196
#
#
#
# Elastic Compliance Matrix: (Units=1/GPa)
#
#
# Indices 1 2 3 4 5 6 
#
# 1 0.033036 -0.005481 -0.002701 -0.021609 -0.026071 0.006800
# 2 -0.005481 0.015401 -0.007943 0.002750 0.010288 0.008027
# 3 -0.002701 -0.007943 0.062952 0.066366 -0.062117 -0.029992
# 4 -0.021609 0.002750 0.066366 0.136890 -0.058976 -0.041528
# 5 -0.026071 0.010288 -0.062117 -0.058976 0.116389 0.018835
# 6 0.006800 0.008027 -0.029992 -0.041528 0.018835 0.061397
#
#
# Mechanical properties :
#
#
# Convention : Reuss Voigt Hill
#
# Bulk Modulus (GPa) = 12.63590 38.06309 25.34949
# Shear Modulus (GPa) = 10.31573 28.24692 19.28133
#
# Velocity S-wave (km/s) = 2.24432 3.71381 3.06833
# Velocity P-wave (km/s) = 3.58968 6.08072 4.99304
#
# Compressibility (1/GPa) = 0.07913959
#
# Stress axis : x y z
#
# Youngs Moduli (GPa) = 30.26980 64.92882 15.88516
#
# Poissons Ratio (x) = 0.35587 0.04291
# Poissons Ratio (y) = 0.16591 0.12617
# Poissons Ratio (z) = 0.08176 0.51573
#
# Static dielectric constant tensor:
#      x y z
#    x 1.725420 -0.007260 -0.001970 
#    y -0.007260 1.771020 0.027760 
#    z -0.001970 0.027760 1.769030 
# 
# From -- ./inp_files/207174.got.cif
#   From: 2010.05.17/outbox.cif.g08.bks.cpg/sg2_104_cif.got.tgz:207174.got - 2010.06.03 11:33:40.
