data_PCOD9091831
_publ_section_title
;
Structure prediction by ZEFSAII (Michael W. Deem and Ramdas Pophale) SiO2 
 PCOD9091831
Probable space group: P -1
;
_chemical_formula_sum "Si O2"
_cell_formula_units_Z 16
_cell_length_a 8.968891
_cell_length_b 10.572717
_cell_length_c 11.338189
_cell_angle_alpha 77.444559
_cell_angle_beta 75.989847
_cell_angle_gamma 127.427384
_cell_volume 729.835084
_symmetry_space_group_name_H-M "P -1"
_symmetry_group_IT_number 2
_symmetry_cell_setting 'triclinic'
loop_
_space_group_symop_operation_xyz
x,y,z
-x,-y,-z
loop_
_atom_site_type_symbol
_atom_site_label
_atom_site_fract_x
_atom_site_fract_y
_atom_site_fract_z
Si Si1 0.837345 0.281949 0.684097
Si Si2 0.390400 0.165368 0.525150
Si Si3 0.832334 0.313220 0.402450
Si Si4 0.652902 0.969920 0.942358
Si Si5 0.607176 0.822616 0.211098
Si Si6 0.569880 0.670542 0.883683
Si Si7 0.522075 0.544779 0.675373
Si Si8 0.961353 0.811786 0.652257
O O1 0.846393 0.270771 0.543859
O O2 0.632177 0.257722 0.745262
O O3 0.039426 0.477393 0.657425
O O4 0.810513 0.130869 0.787066
O O5 0.585972 0.190902 0.443206
O O6 0.332075 0.101770 0.684183
O O7 0.482894 0.364754 0.453949
O O8 0.169860 0.013051 0.529215
O O9 0.945633 0.272585 0.309780
O O10 0.533737 0.780422 0.939396
O O11 0.739881 0.959626 0.049442
O O12 0.500000 0.000000 0.000000
O O13 0.595071 0.660040 0.248817
O O14 0.462844 0.599044 0.789409
O O15 0.823941 0.805405 0.778806
O O16 0.500000 0.500000 0.000000
O O17 0.775831 0.668982 0.622844
#
# Coordination Sequence:
#
# PCOD9091831 Si02
#       8
#     2   2   2   2   2   2   2   2
#     4   9  19  35  62  92 120 165 214 250 311 377
#     4  11  23  37  59 101 127 160 206 268 317 364
#     4  10  20  38  61  91 131 161 206 265 315 365
#     4  10  20  37  65  94 121 164 215 259 302 376
#     4  10  19  40  61  90 126 167 205 258 313 373
#     4  10  21  40  67  90 122 166 214 257 308 380
#     4  10  21  38  65  87 128 163 209 252 321 373
#     4  10  22  39  64  88 125 164 212 255 314 378
#
# _framework density 21.92276
#
# number of rings (size 3 to 8) (size 9 to 14) (size 15 to 20)
#    0.750    1.250    2.500    1.125    3.500    0.000 
#    4.500    1.875    0.000    1.500    0.000    0.000 
#    0.000    0.000    0.000    0.000    0.000    0.000 
#
# Total GULP energy -89163.646180 kJ/mol
# GULP energy per Si atom -5572.727886 kJ/mol
# Density = 2.187286 g / cm^3
# Si number density = 21.922760 Si / 1000 Ang^3
#
#
#
# Elastic Constant Matrix: (Units=GPa)
#
#
# Indices 1 2 3 4 5 6 
#
# 1 56.7725 25.8854 -1.0824 -1.7097 -5.5290 -12.5017
# 2 25.8854 78.8980 17.2794 -12.5375 3.2569 -28.7049
# 3 -1.0824 17.2794 64.5250 -13.5818 25.9028 -14.8055
# 4 -1.7097 -12.5375 -13.5818 35.1663 -13.4178 0.1148
# 5 -5.5290 3.2569 25.9028 -13.4178 33.8003 -5.2591
# 6 -12.5017 -28.7049 -14.8055 0.1148 -5.2591 34.3302
#
#
#
# Elastic Compliance Matrix: (Units=1/GPa)
#
#
# Indices 1 2 3 4 5 6 
#
# 1 0.021693 -0.005910 0.001522 0.001059 0.004030 0.004228
# 2 -0.005910 0.022077 -0.002431 0.008330 0.004554 0.015929
# 3 0.001522 -0.002431 0.024882 0.002477 -0.016558 0.006707
# 4 0.001059 0.008330 0.002477 0.037755 0.014086 0.010451
# 5 0.004030 0.004554 -0.016558 0.014086 0.048956 0.005587
# 6 0.004228 0.015929 0.006707 0.010451 0.005587 0.047701
#
#
# Mechanical properties :
#
#
# Convention : Reuss Voigt Hill
#
# Bulk Modulus (GPa) = 18.17747 31.59560 24.88653
# Shear Modulus (GPa) = 21.27283 31.20023 26.23653
#
# Velocity S-wave (km/s) = 3.11843 3.77661 3.46319
# Velocity P-wave (km/s) = 4.61256 5.78451 5.23146
#
# Compressibility (1/GPa) = 0.05501316
#
# Stress axis : x y z
#
# Youngs Moduli (GPa) = 46.09680 45.29566 40.18978
#
# Poissons Ratio (x) = 0.26772 -0.06117
# Poissons Ratio (y) = 0.27245 0.09771
# Poissons Ratio (z) = -0.07016 0.11013
#
# Static dielectric constant tensor:
#      x y z
#    x 1.809100 -0.026360 -0.004850 
#    y -0.026360 1.829670 0.020780 
#    z -0.004850 0.020780 1.874600 
# 
# From -- ./inp_files/389751.got.cif
#   From: 2010.05.17/outbox.cif.g08.bks.cpg/sg2_195_cif.got.tgz:389751.got - 2010.06.03 11:33:40.
