data_PCOD9091318
_publ_section_title
;
Structure prediction by ZEFSAII (Michael W. Deem and Ramdas Pophale) SiO2 
 PCOD9091318
Probable space group: P -1
;
_chemical_formula_sum "Si O2"
_cell_formula_units_Z 14
_cell_length_a 8.472790
_cell_length_b 15.968318
_cell_length_c 7.131300
_cell_angle_alpha 85.977685
_cell_angle_beta 54.395209
_cell_angle_gamma 120.437352
_cell_volume 577.387053
_symmetry_space_group_name_H-M "P -1"
_symmetry_group_IT_number 2
_symmetry_cell_setting 'triclinic'
loop_
_space_group_symop_operation_xyz
x,y,z
-x,-y,-z
loop_
_atom_site_type_symbol
_atom_site_label
_atom_site_fract_x
_atom_site_fract_y
_atom_site_fract_z
Si Si1 0.875239 0.333908 0.251051
Si Si2 0.812993 0.889775 0.017495
Si Si3 0.110629 0.953533 0.314735
Si Si4 0.478360 0.497222 0.790489
Si Si5 0.631161 0.357818 0.703176
Si Si6 0.453003 0.295806 0.278222
Si Si7 0.262621 0.899189 0.551291
O O1 0.892358 0.394389 0.423814
O O2 0.693740 0.324121 0.219681
O O3 0.780365 0.211668 0.378924
O O4 0.172638 0.410795 0.961284
O O5 0.006691 0.876362 0.799915
O O6 0.570631 0.760778 0.255001
O O7 0.707205 0.938334 0.964409
O O8 0.000000 0.000000 0.000000
O O9 0.831308 0.830642 0.467411
O O10 0.272217 0.935414 0.327376
O O11 0.000000 0.000000 0.500000
O O12 0.500000 0.500000 0.000000
O O13 0.604614 0.446546 0.649253
O O14 0.591100 0.620780 0.643411
O O15 0.541208 0.319693 0.989869
O O16 0.500000 0.000000 0.500000
#
# Coordination Sequence:
#
# PCOD9091318 Si02
#       7
#     2   2   2   2   2   2   2
#     4  12  24  43  67 101 133 169 230 272 327 403
#     4  11  21  40  65  95 129 177 221 265 339 397
#     4  10  19  39  65  87 134 171 206 276 329 376
#     4  10  23  45  69  95 135 176 219 276 333 389
#     4  11  23  44  68  94 134 179 216 271 340 389
#     4  11  22  42  68  98 132 174 223 277 329 395
#     4  11  21  37  61  92 132 169 212 276 323 383
#
# _framework density 24.247164999999999
#
# number of rings (size 3 to 8) (size 9 to 14) (size 15 to 20)
#    0.000    1.143    4.286    4.714    0.000    2.857 
#    2.571    4.286    0.000    0.000    0.000    0.000 
#    0.000    0.000    0.000    0.000    0.000    0.000 
#
# Total GULP energy -78103.114936 kJ/mol
# GULP energy per Si atom -5578.793924 kJ/mol
# Density = 2.419198 g / cm^3
# Si number density = 24.247165 Si / 1000 Ang^3
#
#
#
# Elastic Constant Matrix: (Units=GPa)
#
#
# Indices 1 2 3 4 5 6 
#
# 1 139.3979 53.3570 11.9863 -6.7400 -6.6644 -17.2964
# 2 53.3570 193.1374 32.1490 -18.2339 4.1912 -46.4792
# 3 11.9863 32.1490 44.0945 4.3069 -8.2329 -9.3722
# 4 -6.7400 -18.2339 4.3069 49.1444 -1.5455 -2.8634
# 5 -6.6644 4.1912 -8.2329 -1.5455 29.7439 3.1319
# 6 -17.2964 -46.4792 -9.3722 -2.8634 3.1319 48.6808
#
#
#
# Elastic Compliance Matrix: (Units=1/GPa)
#
#
# Indices 1 2 3 4 5 6 
#
# 1 0.008190 -0.002012 -0.000260 0.000511 0.001984 0.000842
# 2 -0.002012 0.008772 -0.005407 0.003748 -0.003734 0.007081
# 3 -0.000260 -0.005407 0.028573 -0.004313 0.008446 -0.000551
# 4 0.000511 0.003748 -0.004313 0.022409 -0.000896 0.004306
# 5 0.001984 -0.003734 0.008446 -0.000896 0.037270 -0.003685
# 6 0.000842 0.007081 -0.000551 0.004306 -0.003685 0.027985
#
#
# Mechanical properties :
#
#
# Convention : Reuss Voigt Hill
#
# Bulk Modulus (GPa) = 33.13801 63.51271 48.32536
# Shear Modulus (GPa) = 31.52231 44.12300 37.82266
#
# Velocity S-wave (km/s) = 3.60952 4.27044 3.95382
# Velocity P-wave (km/s) = 5.57386 7.11100 6.38883
#
# Compressibility (1/GPa) = 0.03017682
#
# Stress axis : x y z
#
# Youngs Moduli (GPa) = 122.09919 113.99530 34.99834
#
# Poissons Ratio (x) = 0.22931 0.00911
# Poissons Ratio (y) = 0.24561 0.18925
# Poissons Ratio (z) = 0.03177 0.61641
#
# Static dielectric constant tensor:
#      x y z
#    x 2.001550 0.093800 0.042590 
#    y 0.093800 1.877690 0.155230 
#    z 0.042590 0.155230 1.790150 
# 
# From -- ./inp_files/206710.got.cif
#   From: 2010.05.17/outbox.cif.g08.bks.cpg/sg2_104_cif.got.tgz:206710.got - 2010.06.03 11:33:40.
