data_PCOD9091809
_publ_section_title
;
Structure prediction by ZEFSAII (Michael W. Deem and Ramdas Pophale) SiO2 
 PCOD9091809
Probable space group: P -1
;
_chemical_formula_sum "Si O2"
_cell_formula_units_Z 16
_cell_length_a 7.472006
_cell_length_b 15.333369
_cell_length_c 14.970163
_cell_angle_alpha 28.175827
_cell_angle_beta 65.985144
_cell_angle_gamma 83.485255
_cell_volume 608.475854
_symmetry_space_group_name_H-M "P -1"
_symmetry_group_IT_number 2
_symmetry_cell_setting 'triclinic'
loop_
_space_group_symop_operation_xyz
x,y,z
-x,-y,-z
loop_
_atom_site_type_symbol
_atom_site_label
_atom_site_fract_x
_atom_site_fract_y
_atom_site_fract_z
Si Si1 0.944072 0.092012 0.805482
Si Si2 0.766765 0.725042 0.911856
Si Si3 0.591137 0.727691 0.348655
Si Si4 0.899992 0.563725 0.879740
Si Si5 0.369286 0.736135 0.562321
Si Si6 0.176654 0.100667 0.584971
Si Si7 0.894454 0.461534 0.455610
Si Si8 0.716090 0.398126 0.889382
O O1 0.828122 0.211995 0.680053
O O2 0.205997 0.272781 0.633480
O O3 0.003535 0.984611 0.810820
O O4 0.761489 0.920258 0.070062
O O5 0.723238 0.525242 0.166229
O O6 0.556441 0.756195 0.944644
O O7 0.751610 0.641895 0.888428
O O8 0.028015 0.944480 0.674931
O O9 0.484424 0.798412 0.385817
O O10 0.340642 0.543848 0.513854
O O11 0.756701 0.372981 0.007209
O O12 0.144209 0.744290 0.616083
O O13 0.000000 0.500000 0.000000
O O14 0.577078 0.868401 0.472918
O O15 0.231553 0.350132 0.347942
O O16 0.000000 0.500000 0.500000
O O17 0.105675 0.607474 0.209591
#
# Coordination Sequence:
#
# PCOD9091809 Si02
#       8
#     2   2   2   2   2   2   2   2
#     4   9  21  39  59  87 119 163 199 244 299 358
#     4  10  21  37  63  86 114 155 202 243 295 360
#     4  10  19  40  61  81 124 162 195 243 306 349
#     4  10  20  38  62  85 119 156 194 249 300 350
#     4   9  19  39  58  85 121 155 193 248 299 350
#     4   9  20  38  60  85 117 156 198 242 296 355
#     4  11  23  38  61  92 122 157 200 247 299 363
#     4  10  21  41  59  84 122 155 193 247 302 348
#
# _framework density 26.295207000000001
#
# number of rings (size 3 to 8) (size 9 to 14) (size 15 to 20)
#    0.000    2.250    1.250    1.500    1.750    1.500 
#    6.750    2.500    0.000    0.000    0.000    0.000 
#    0.000    0.000    0.000    0.000    0.000    0.000 
#
# Total GULP energy -89378.327324 kJ/mol
# GULP energy per Si atom -5586.145458 kJ/mol
# Density = 2.623536 g / cm^3
# Si number density = 26.295207 Si / 1000 Ang^3
#
#
#
# Elastic Constant Matrix: (Units=GPa)
#
#
# Indices 1 2 3 4 5 6 
#
# 1 147.8276 17.8295 20.6239 -3.5260 -30.7925 3.9421
# 2 17.8295 61.9821 15.0759 1.7155 -6.0427 20.8943
# 3 20.6239 15.0759 71.9306 -1.9137 -10.5527 -10.8641
# 4 -3.5260 1.7155 -1.9137 41.1390 3.3174 -15.0086
# 5 -30.7925 -6.0427 -10.5527 3.3174 45.1132 1.3670
# 6 3.9421 20.8943 -10.8641 -15.0086 1.3670 41.8169
#
#
#
# Elastic Compliance Matrix: (Units=1/GPa)
#
#
# Indices 1 2 3 4 5 6 
#
# 1 0.008202 -0.001297 -0.001427 0.000043 0.005107 -0.000647
# 2 -0.001297 0.024259 -0.007179 -0.007683 0.001755 -0.016679
# 3 -0.001427 -0.007179 0.017654 0.004470 0.001566 0.009861
# 4 0.000043 -0.007683 0.004470 0.030970 -0.002723 0.016201
# 5 0.005107 0.001755 0.001566 -0.002723 0.026539 -0.002796
# 6 -0.000647 -0.016679 0.009861 0.016201 -0.002796 0.040777
#
#
# Mechanical properties :
#
#
# Convention : Reuss Voigt Hill
#
# Bulk Modulus (GPa) = 32.99294 43.19988 38.09641
# Shear Modulus (GPa) = 28.04093 40.82789 34.43441
#
# Velocity S-wave (km/s) = 3.26910 3.94467 3.62267
# Velocity P-wave (km/s) = 5.17917 6.10014 5.65842
#
# Compressibility (1/GPa) = 0.03030951
#
# Stress axis : x y z
#
# Youngs Moduli (GPa) = 121.91558 41.22138 56.64395
#
# Poissons Ratio (x) = 0.05348 0.08084
# Poissons Ratio (y) = 0.15816 0.40662
# Poissons Ratio (z) = 0.17400 0.29591
#
# Static dielectric constant tensor:
#      x y z
#    x 2.068730 0.033950 0.035900 
#    y 0.033950 2.288920 -0.041010 
#    z 0.035900 -0.041010 2.069810 
# 
# From -- ./inp_files/135145.got.cif
#   From: 2010.05.17/outbox.cif.g08.bks.cpg/sg2_68_cif.got.tgz:135145.got - 2010.06.03 11:33:40.
