data_PCOD9091694
_publ_section_title
;
Structure prediction by ZEFSAII (Michael W. Deem and Ramdas Pophale) SiO2 
 PCOD9091694
Probable space group: P -1
;
_chemical_formula_sum "Si O2"
_cell_formula_units_Z 16
_cell_length_a 13.819082
_cell_length_b 8.278374
_cell_length_c 8.894174
_cell_angle_alpha 75.566485
_cell_angle_beta 103.745972
_cell_angle_gamma 137.525321
_cell_volume 663.135238
_symmetry_space_group_name_H-M "P -1"
_symmetry_group_IT_number 2
_symmetry_cell_setting 'triclinic'
loop_
_space_group_symop_operation_xyz
x,y,z
-x,-y,-z
loop_
_atom_site_type_symbol
_atom_site_label
_atom_site_fract_x
_atom_site_fract_y
_atom_site_fract_z
Si Si1 0.532951 0.345155 0.566857
Si Si2 0.851072 0.039921 0.793819
Si Si3 0.994853 0.955292 0.683320
Si Si4 0.730243 0.176998 0.559889
Si Si5 0.628498 0.196571 0.846473
Si Si6 0.730924 0.516298 0.342173
Si Si7 0.457180 0.264938 0.097415
Si Si8 0.058030 0.384155 0.049753
O O1 0.500000 0.500000 0.500000
O O2 0.549016 0.272465 0.750542
O O3 0.681971 0.510147 0.492503
O O4 0.404826 0.087160 0.497869
O O5 0.866651 0.893048 0.737072
O O6 0.856357 0.201579 0.642595
O O7 0.697306 0.880186 0.851740
O O8 0.973860 0.192426 0.929255
O O9 0.141623 0.217991 0.733654
O O10 0.985660 0.754806 0.777080
O O11 0.000000 0.000000 0.500000
O O12 0.678989 0.194723 0.696418
O O13 0.769069 0.368902 0.412755
O O14 0.770175 0.409281 0.944766
O O15 0.563134 0.942126 0.944250
O O16 0.588323 0.373853 0.228350
O O17 0.500000 0.500000 0.000000
O O18 0.000000 0.500000 0.000000
#
# Coordination Sequence:
#
# PCOD9091694 Si02
#       8
#     2   2   2   2   2   2   2   2
#     4  11  21  37  69 105 138 180 234 306 367 419
#     4  11  25  46  73 105 147 199 236 296 377 444
#     4  12  29  47  71 106 147 195 254 301 357 437
#     4  10  19  39  69  98 138 183 238 295 369 425
#     4  10  20  40  69 101 136 187 233 291 367 435
#     4  11  22  41  65 101 138 181 240 309 352 421
#     4  11  21  40  75 103 138 190 249 294 369 434
#     4  12  24  46  71 102 148 199 236 290 377 450
#
# _framework density 24.12781
#
# number of rings (size 3 to 8) (size 9 to 14) (size 15 to 20)
#    0.000    1.000    6.250    3.375    3.500    0.500 
#    0.000    0.000    2.750    2.250    0.000    0.000 
#    0.000    0.000    0.000    0.000    0.000    0.000 
#
# Total GULP energy -89381.884267 kJ/mol
# GULP energy per Si atom -5586.367767 kJ/mol
# Density = 2.407289 g / cm^3
# Si number density = 24.127810 Si / 1000 Ang^3
#
#
#
# Elastic Constant Matrix: (Units=GPa)
#
#
# Indices 1 2 3 4 5 6 
#
# 1 81.7453 33.4476 39.2327 -14.4932 26.0377 -22.9838
# 2 33.4476 134.6444 53.1655 -13.6744 23.8078 -4.0697
# 3 39.2327 53.1655 125.2156 -10.9556 43.2655 -6.4921
# 4 -14.4932 -13.6744 -10.9556 56.1947 -8.3613 20.3937
# 5 26.0377 23.8078 43.2655 -8.3613 40.3919 -4.4858
# 6 -22.9838 -4.0697 -6.4921 20.3937 -4.4858 33.6018
#
#
#
# Elastic Compliance Matrix: (Units=1/GPa)
#
#
# Indices 1 2 3 4 5 6 
#
# 1 0.020240 -0.002609 -0.001760 -0.001796 -0.008537 0.013139
# 2 -0.002609 0.009464 -0.002949 0.001835 -0.000625 -0.002405
# 3 -0.001760 -0.002949 0.013955 -0.000104 -0.012143 -0.000423
# 4 -0.001796 0.001835 -0.000104 0.023694 0.003433 -0.014949
# 5 -0.008537 -0.000625 -0.012143 0.003433 0.043848 -0.004491
# 6 0.013139 -0.002405 -0.000423 -0.014949 -0.004491 0.046848
#
#
# Mechanical properties :
#
#
# Convention : Reuss Voigt Hill
#
# Bulk Modulus (GPa) = 34.45607 65.92188 50.18897
# Shear Modulus (GPa) = 27.41857 40.42162 33.92010
#
# Velocity S-wave (km/s) = 3.37469 4.09750 3.75354
# Velocity P-wave (km/s) = 5.43106 7.05459 6.29538
#
# Compressibility (1/GPa) = 0.02902246
#
# Stress axis : x y z
#
# Youngs Moduli (GPa) = 49.40641 105.66782 71.66090
#
# Poissons Ratio (x) = 0.27566 0.12614
# Poissons Ratio (y) = 0.12889 0.21133
# Poissons Ratio (z) = 0.08697 0.31162
#
# Static dielectric constant tensor:
#      x y z
#    x 1.970320 -0.052850 -0.009570 
#    y -0.052850 1.969500 -0.016190 
#    z -0.009570 -0.016190 2.013770 
# 
# From -- ./inp_files/297960.got.cif
#   From: 2010.05.17/outbox.cif.g08.bks.cpg/sg2_149_cif.got.tgz:297960.got - 2010.06.03 11:33:40.
