data_PCOD9091111
_publ_section_title
;
Structure prediction by ZEFSAII (Michael W. Deem and Ramdas Pophale) SiO2 
 PCOD9091111
Probable space group: P -1
;
_chemical_formula_sum "Si O2"
_cell_formula_units_Z 16
_cell_length_a 27.020947
_cell_length_b 8.162204
_cell_length_c 8.722974
_cell_angle_alpha 123.897663
_cell_angle_beta 34.057477
_cell_angle_gamma 144.426521
_cell_volume 585.593908
_symmetry_space_group_name_H-M "P -1"
_symmetry_group_IT_number 2
_symmetry_cell_setting 'triclinic'
loop_
_space_group_symop_operation_xyz
x,y,z
-x,-y,-z
loop_
_atom_site_type_symbol
_atom_site_label
_atom_site_fract_x
_atom_site_fract_y
_atom_site_fract_z
Si Si1 0.846831 0.185137 0.514896
Si Si2 0.047469 0.088122 0.650265
Si Si3 0.528318 0.153899 0.664577
Si Si4 0.704729 0.314634 0.770035
Si Si5 0.923051 0.258704 0.931037
Si Si6 0.159330 0.277319 0.797813
Si Si7 0.604066 0.746090 0.124803
Si Si8 0.374432 0.089823 0.502311
O O1 0.776419 0.250842 0.641360
O O2 0.002386 0.521670 0.294112
O O3 0.845544 0.972162 0.319028
O O4 0.755950 0.983304 0.792116
O O5 0.193380 0.328310 0.319010
O O6 0.097676 0.237727 0.771918
O O7 0.970564 0.116120 0.757399
O O8 0.920196 0.753035 0.871588
O O9 0.684311 0.418894 0.435381
O O10 0.475679 0.284236 0.826154
O O11 0.500000 0.000000 0.500000
O O12 0.432654 0.888796 0.894320
O O13 0.666202 0.167867 0.626660
O O14 0.000000 0.500000 0.000000
O O15 0.763195 0.011165 0.216997
O O16 0.508602 0.403417 0.240509
O O17 0.609722 0.877297 0.337929
#
# Coordination Sequence:
#
# PCOD9091111 Si02
#       8
#     2   2   2   2   2   2   2   2
#     4  10  19  39  63  92 114 154 205 246 294 347
#     4  10  21  36  61  95 113 154 204 247 288 352
#     4  11  25  41  58  87 126 160 191 242 302 355
#     4  10  20  40  66  86 113 159 207 239 290 360
#     4  11  18  35  65  87 118 155 206 243 289 349
#     4  11  21  37  64  88 124 155 198 244 299 349
#     4  10  24  38  59  93 123 151 197 249 296 349
#     4  11  20  38  65  89 118 152 200 249 293 346
#
# _framework density 27.322687999999999
#
# number of rings (size 3 to 8) (size 9 to 14) (size 15 to 20)
#    0.000    1.500    3.750    2.250    1.750    3.000 
#    4.500    0.625    0.000    0.000    0.000    0.000 
#    0.000    0.000    0.000    0.000    0.000    0.000 
#
# Total GULP energy -89371.534270 kJ/mol
# GULP energy per Si atom -5585.720892 kJ/mol
# Density = 2.726050 g / cm^3
# Si number density = 27.322688 Si / 1000 Ang^3
#
#
#
# Elastic Constant Matrix: (Units=GPa)
#
#
# Indices 1 2 3 4 5 6 
#
# 1 116.6639 40.7889 35.0062 -24.9295 0.9133 -12.3997
# 2 40.7889 33.3514 20.8377 -2.0494 12.8028 -2.5161
# 3 35.0062 20.8377 177.7929 -47.3182 28.5739 -3.0087
# 4 -24.9295 -2.0494 -47.3182 46.9079 -5.4799 6.7163
# 5 0.9133 12.8028 28.5739 -5.4799 48.0157 -14.7187
# 6 -12.3997 -2.5161 -3.0087 6.7163 -14.7187 34.1662
#
#
#
# Elastic Compliance Matrix: (Units=1/GPa)
#
#
# Indices 1 2 3 4 5 6 
#
# 1 0.022354 -0.030667 0.000465 0.011105 0.011384 0.008616
# 2 -0.030667 0.077064 -0.004326 -0.018254 -0.023230 -0.012255
# 3 0.000465 -0.004326 0.009092 0.009167 -0.004116 -0.002925
# 4 0.011105 -0.018254 0.009167 0.036334 0.002568 -0.002543
# 5 0.011384 -0.023230 -0.004116 0.002568 0.034591 0.016455
# 6 0.008616 -0.012255 -0.002925 -0.002543 0.016455 0.038824
#
#
# Mechanical properties :
#
#
# Convention : Reuss Voigt Hill
#
# Bulk Modulus (GPa) = 25.34665 57.89709 41.62187
# Shear Modulus (GPa) = 16.64080 41.22966 28.93523
#
# Velocity S-wave (km/s) = 2.47057 3.88879 3.25779
# Velocity P-wave (km/s) = 4.17554 6.43426 5.42378
#
# Compressibility (1/GPa) = 0.03945294
#
# Stress axis : x y z
#
# Youngs Moduli (GPa) = 44.73500 12.97629 109.98830
#
# Poissons Ratio (x) = 0.39794 -0.05111
# Poissons Ratio (y) = 1.37188 0.47582
# Poissons Ratio (z) = -0.02079 0.05614
#
# Static dielectric constant tensor:
#      x y z
#    x 2.161100 -0.072500 -0.001210 
#    y -0.072500 2.196420 -0.012380 
#    z -0.001210 -0.012380 2.347260 
# 
# From -- ./inp_files/356612.got.cif
#   From: 2010.05.17/outbox.cif.g08.bks.cpg/sg2_179_cif.got.tgz:356612.got - 2010.06.03 11:33:40.
