data_PCOD9091389
_publ_section_title
;
Structure prediction by ZEFSAII (Michael W. Deem and Ramdas Pophale) SiO2 
 PCOD9091389
Probable space group: P -1
;
_chemical_formula_sum "Si O2"
_cell_formula_units_Z 14
_cell_length_a 17.514314
_cell_length_b 5.213974
_cell_length_c 9.354788
_cell_angle_alpha 136.431782
_cell_angle_beta 73.886084
_cell_angle_gamma 118.447161
_cell_volume 514.457726
_symmetry_space_group_name_H-M "P -1"
_symmetry_group_IT_number 2
_symmetry_cell_setting 'triclinic'
loop_
_space_group_symop_operation_xyz
x,y,z
-x,-y,-z
loop_
_atom_site_type_symbol
_atom_site_label
_atom_site_fract_x
_atom_site_fract_y
_atom_site_fract_z
Si Si1 0.177592 0.397477 0.201486
Si Si2 0.009065 0.443982 0.306438
Si Si3 0.451224 0.873389 0.324971
Si Si4 0.291650 0.896923 0.572755
Si Si5 0.390182 0.003493 0.858210
Si Si6 0.221660 0.652661 0.962163
Si Si7 0.865849 0.672010 0.391048
O O1 0.071836 0.210343 0.168566
O O2 0.212249 0.785781 0.448235
O O3 0.215912 0.539875 0.082503
O O4 0.214902 0.078412 0.109615
O O5 0.000000 0.500000 0.500000
O O6 0.915864 0.376751 0.267068
O O7 0.074695 0.894931 0.396132
O O8 0.363590 0.924211 0.426479
O O9 0.527688 0.104651 0.262799
O O10 0.500000 0.000000 0.500000
O O11 0.421948 0.402233 0.103044
O O12 0.225741 0.526497 0.560654
O O13 0.354786 0.104400 0.766026
O O14 0.310454 0.658355 0.847407
O O15 0.144999 0.340055 0.778824
#
# Coordination Sequence:
#
# PCOD9091389 Si02
#       7
#     2   2   2   2   2   2   2
#     4  12  25  43  69 100 138 184 231 293 346 412
#     4  11  24  42  67  94 138 184 237 287 355 407
#     4   9  17  34  69 100 140 177 230 282 344 410
#     4  10  19  39  65  96 138 183 230 282 348 411
#     4   9  19  37  67 102 138 182 229 283 342 415
#     4  11  26  44  70 104 140 181 238 285 349 415
#     4  10  24  44  67  99 137 187 231 293 348 415
#
# _framework density 27.213118000000001
#
# number of rings (size 3 to 8) (size 9 to 14) (size 15 to 20)
#    0.000    1.714    2.857    0.857    4.000    1.143 
#    0.000    0.714    0.000    4.286    0.000    0.000 
#    0.000    0.000    0.000    0.000    0.000    0.000 
#
# Total GULP energy -78012.572389 kJ/mol
# GULP energy per Si atom -5572.326599 kJ/mol
# Density = 2.715118 g / cm^3
# Si number density = 27.213118 Si / 1000 Ang^3
#
#
#
# Elastic Constant Matrix: (Units=GPa)
#
#
# Indices 1 2 3 4 5 6 
#
# 1 -59.0490 205.1969 31.7280 46.7208 -99.7668 -116.5835
# 2 205.1969 -146.9627 5.7028 -89.4567 103.0543 129.7111
# 3 31.7280 5.7028 130.4120 -24.0151 13.9792 -8.4584
# 4 46.7208 -89.4567 -24.0151 30.8715 33.3069 39.5469
# 5 -99.7668 103.0543 13.9792 33.3069 15.3318 -75.0543
# 6 -116.5835 129.7111 -8.4584 39.5469 -75.0543 -42.6439
#
#
#
# Elastic Compliance Matrix: (Units=1/GPa)
#
#
# Indices 1 2 3 4 5 6 
#
# 1 0.007484 0.003217 -0.001366 0.003948 -0.001380 -0.004316
# 2 0.003217 0.008474 -0.000862 0.001581 0.005456 0.009015
# 3 -0.001366 -0.000862 0.008882 0.002925 -0.000774 0.003427
# 4 0.003948 0.001581 0.002925 0.020685 0.003039 0.007267
# 5 -0.001380 0.005456 -0.000774 0.003039 0.013304 -0.000076
# 6 -0.004316 0.009015 0.003427 0.007267 -0.000076 0.021962
#
#
# Mechanical properties :
#
#
# Convention : Reuss Voigt Hill
#
# Bulk Modulus (GPa) = 37.29172 45.51729 41.40450
# Shear Modulus (GPa) = 56.97757 -20.50328 18.23714
#
# Velocity S-wave (km/s) = 4.58072 -2.74785 2.59155
# Velocity P-wave (km/s) = 6.45838 2.58746 4.91963
#
# Compressibility (1/GPa) = 0.02681561
#
# Stress axis : x y z
#
# Youngs Moduli (GPa) = 133.61939 118.01166 112.58751
#
# Poissons Ratio (x) = -0.37959 0.15384
# Poissons Ratio (y) = -0.42979 0.09707
# Poissons Ratio (z) = 0.18257 0.10175
#
# Static dielectric constant tensor:
#      x y z
#    x 2.258700 -0.104480 -0.082630 
#    y -0.104480 2.398440 0.212040 
#    z -0.082630 0.212040 2.237250 
# 
# From -- ./inp_files/324221.got.cif
#   From: 2010.05.17/outbox.cif.g08.bks.cpg/sg2_163_cif.got.tgz:324221.got - 2010.06.03 11:33:40.
