data_PCOD9091943
_publ_section_title
;
Structure prediction by ZEFSAII (Michael W. Deem and Ramdas Pophale) SiO2 
 PCOD9091943
Probable space group: P -1
;
_chemical_formula_sum "Si O2"
_cell_formula_units_Z 12
_cell_length_a 8.821623
_cell_length_b 8.226365
_cell_length_c 14.756063
_cell_angle_alpha 136.816473
_cell_angle_beta 44.274482
_cell_angle_gamma 125.612389
_cell_volume 507.499269
_symmetry_space_group_name_H-M "P -1"
_symmetry_group_IT_number 2
_symmetry_cell_setting 'triclinic'
loop_
_space_group_symop_operation_xyz
x,y,z
-x,-y,-z
loop_
_atom_site_type_symbol
_atom_site_label
_atom_site_fract_x
_atom_site_fract_y
_atom_site_fract_z
Si Si1 0.681545 0.046566 0.703035
Si Si2 0.991885 0.596045 0.187664
Si Si3 0.790564 0.800788 0.012853
Si Si4 0.224880 0.526550 0.290581
Si Si5 0.231609 0.494668 0.560547
Si Si6 0.457632 0.272343 0.614276
O O1 0.442755 0.657944 0.499597
O O2 0.724750 0.776766 0.579570
O O3 0.827819 0.183464 0.775199
O O4 0.427346 0.080844 0.827617
O O5 0.862703 0.489908 0.291402
O O6 0.794221 0.682780 0.252337
O O7 0.137851 0.384541 0.017774
O O8 0.730381 0.642631 0.882621
O O9 0.000000 0.000000 0.000000
O O10 0.399201 0.550438 0.305218
O O11 0.972647 0.444022 0.387895
O O12 0.229971 0.797912 0.359347
O O13 0.500000 0.000000 0.500000
#
# Coordination Sequence:
#
# PCOD9091943 Si02
#       6
#     2   2   2   2   2   2
#     4  10  19  40  64  85 115 157 202 244 287 356
#     4  10  21  38  61  89 117 158 200 239 293 356
#     4  10  21  40  63  85 115 161 203 239 289 356
#     4  10  22  38  60  91 121 153 197 249 294 341
#     4  10  20  38  61  86 118 160 201 240 287 352
#     4  12  23  36  58  94 126 153 191 249 301 345
#
# _framework density 23.645354999999999
#
# number of rings (size 3 to 8) (size 9 to 14) (size 15 to 20)
#    0.000    2.000    0.000    8.000    0.000    4.000 
#    0.000    6.667    0.000    4.000    0.000    1.167 
#    0.000    0.000    0.000    0.000    0.000    0.000 
#
# Total GULP energy -67010.737712 kJ/mol
# GULP energy per Si atom -5584.228143 kJ/mol
# Density = 2.359154 g / cm^3
# Si number density = 23.645355 Si / 1000 Ang^3
#
#
#
# Elastic Constant Matrix: (Units=GPa)
#
#
# Indices 1 2 3 4 5 6 
#
# 1 96.4114 14.8475 39.5400 -6.6769 -10.5408 49.2934
# 2 14.8475 95.0055 22.6377 -1.6441 -4.5806 18.0879
# 3 39.5400 22.6377 107.2727 -0.5382 -25.6552 9.1604
# 4 -6.6769 -1.6441 -0.5382 43.3327 8.8888 -16.9353
# 5 -10.5408 -4.5806 -25.6552 8.8888 38.0301 -15.1326
# 6 49.2934 18.0879 9.1604 -16.9353 -15.1326 53.9984
#
#
#
# Elastic Compliance Matrix: (Units=1/GPa)
#
#
# Indices 1 2 3 4 5 6 
#
# 1 0.027421 0.003121 -0.010591 -0.004998 -0.009325 -0.028462
# 2 0.003121 0.012215 -0.003778 -0.001469 -0.002880 -0.007568
# 3 -0.010591 -0.003778 0.015855 0.000583 0.011843 0.011745
# 4 -0.004998 -0.001469 0.000583 0.027849 -0.002511 0.012987
# 5 -0.009325 -0.002880 0.011843 -0.002511 0.038940 0.017594
# 6 -0.028462 -0.007568 0.011745 0.012987 0.017594 0.054047
#
#
# Mechanical properties :
#
#
# Convention : Reuss Voigt Hill
#
# Bulk Modulus (GPa) = 30.30718 50.30445 40.30581
# Shear Modulus (GPa) = 23.82975 41.84987 32.83981
#
# Velocity S-wave (km/s) = 3.17803 4.21158 3.73077
# Velocity P-wave (km/s) = 5.12949 6.70601 5.97002
#
# Compressibility (1/GPa) = 0.03299549
#
# Stress axis : x y z
#
# Youngs Moduli (GPa) = 36.46794 81.86882 63.07045
#
# Poissons Ratio (x) = -0.25550 0.66796
# Poissons Ratio (y) = -0.11381 0.23828
# Poissons Ratio (z) = 0.38622 0.30930
#
# Static dielectric constant tensor:
#      x y z
#    x 2.009020 0.029600 0.041010 
#    y 0.029600 1.904610 -0.020690 
#    z 0.041010 -0.020690 1.914980 
# 
# From -- ./inp_files/389915.got.cif
#   From: 2010.05.17/outbox.cif.g08.bks.cpg/sg2_195_cif.got.tgz:389915.got - 2010.06.03 11:33:40.
