data_PCOD9091998
_publ_section_title
;
Structure prediction by ZEFSAII (Michael W. Deem and Ramdas Pophale) SiO2 
 PCOD9091998
Probable space group: P -1
;
_chemical_formula_sum "Si O2"
_cell_formula_units_Z 10
_cell_length_a 8.681026
_cell_length_b 7.307157
_cell_length_c 9.007715
_cell_angle_alpha 77.050655
_cell_angle_beta 132.686672
_cell_angle_gamma 80.992892
_cell_volume 369.436462
_symmetry_space_group_name_H-M "P -1"
_symmetry_group_IT_number 2
_symmetry_cell_setting 'triclinic'
loop_
_space_group_symop_operation_xyz
x,y,z
-x,-y,-z
loop_
_atom_site_type_symbol
_atom_site_label
_atom_site_fract_x
_atom_site_fract_y
_atom_site_fract_z
Si Si1 0.794779 0.552334 0.042676
Si Si2 0.271899 0.994449 0.774420
Si Si3 0.253124 0.325970 0.486627
Si Si4 0.220641 0.994037 0.063980
Si Si5 0.672432 0.402966 0.299599
O O1 0.715935 0.527952 0.166773
O O2 0.061274 0.390402 0.221992
O O3 0.596832 0.511501 0.838576
O O4 0.766788 0.784284 0.959149
O O5 0.281684 0.820563 0.695732
O O6 0.170799 0.204259 0.576692
O O7 0.164558 0.963011 0.861144
O O8 0.500000 0.000000 0.000000
O O9 0.527160 0.176213 0.678928
O O10 0.212171 0.546034 0.492844
O O11 0.000000 0.000000 0.000000
#
# Coordination Sequence:
#
# PCOD9091998 Si02
#       5
#     2   2   2   2   2
#     4  11  21  40  66  98 126 164 214 260 324 369
#     4  10  19  40  64  94 125 160 210 261 314 362
#     4  11  23  42  68  96 128 163 214 270 311 372
#     4  11  23  42  63  91 137 171 204 261 314 380
#     4  11  21  40  70 102 123 158 215 277 314 363
#
# _framework density 27.068252999999999
#
# number of rings (size 3 to 8) (size 9 to 14) (size 15 to 20)
#    0.000    1.200    6.000    4.200    0.000    1.600 
#    3.600    4.000    0.000    6.000    0.000    0.000 
#    0.000    0.000    0.000    0.000    0.000    0.000 
#
# Total GULP energy -55901.649602 kJ/mol
# GULP energy per Si atom -5590.164960 kJ/mol
# Density = 2.700664 g / cm^3
# Si number density = 27.068253 Si / 1000 Ang^3
#
#
#
# Elastic Constant Matrix: (Units=GPa)
#
#
# Indices 1 2 3 4 5 6 
#
# 1 154.1095 49.4960 39.1407 0.4589 39.2187 5.3381
# 2 49.4960 172.3622 58.5833 -4.8060 17.3118 20.8032
# 3 39.1407 58.5833 110.5974 -7.7264 37.3170 -6.0104
# 4 0.4589 -4.8060 -7.7264 40.4343 -7.6906 11.1388
# 5 39.2187 17.3118 37.3170 -7.6906 36.6821 3.5166
# 6 5.3381 20.8032 -6.0104 11.1388 3.5166 35.9468
#
#
#
# Elastic Compliance Matrix: (Units=1/GPa)
#
#
# Indices 1 2 3 4 5 6 
#
# 1 0.009866 -0.002666 0.001947 -0.003070 -0.012158 0.002544
# 2 -0.002666 0.008999 -0.006086 0.003151 0.006166 -0.007409
# 3 0.001947 -0.006086 0.018457 -0.003520 -0.019618 0.009329
# 4 -0.003070 0.003151 -0.003520 0.030419 0.012967 -0.012651
# 5 -0.012158 0.006166 -0.019618 0.012967 0.061471 -0.015075
# 6 0.002544 -0.007409 0.009329 -0.012651 -0.015075 0.038683
#
#
# Mechanical properties :
#
#
# Convention : Reuss Voigt Hill
#
# Bulk Modulus (GPa) = 42.17559 81.27880 61.72720
# Shear Modulus (GPa) = 26.39777 41.93592 34.16685
#
# Velocity S-wave (km/s) = 3.12626 3.94034 3.55667
# Velocity P-wave (km/s) = 5.35223 7.12701 6.30240
#
# Compressibility (1/GPa) = 0.02371040
#
# Stress axis : x y z
#
# Youngs Moduli (GPa) = 101.36033 111.12695 54.17989
#
# Poissons Ratio (x) = 0.29630 -0.10548
# Poissons Ratio (y) = 0.27026 0.32974
# Poissons Ratio (z) = -0.19733 0.67632
#
# Static dielectric constant tensor:
#      x y z
#    x 2.251700 -0.089700 0.075260 
#    y -0.089700 2.069150 -0.094840 
#    z 0.075260 -0.094840 2.216050 
# 
# From -- ./inp_files/158315.got.cif
#   From: 2010.05.17/outbox.cif.g08.bks.cpg/sg2_80_cif.got.tgz:158315.got - 2010.06.03 11:33:40.
