data_PCOD9091504
_publ_section_title
;
Structure prediction by ZEFSAII (Michael W. Deem and Ramdas Pophale) SiO2 
 PCOD9091504
Probable space group: P -1
;
_chemical_formula_sum "Si O2"
_cell_formula_units_Z 14
_cell_length_a 16.606553
_cell_length_b 8.633327
_cell_length_c 10.024947
_cell_angle_alpha 101.632439
_cell_angle_beta 43.667425
_cell_angle_gamma 132.283370
_cell_volume 609.270480
_symmetry_space_group_name_H-M "P -1"
_symmetry_group_IT_number 2
_symmetry_cell_setting 'triclinic'
loop_
_space_group_symop_operation_xyz
x,y,z
-x,-y,-z
loop_
_atom_site_type_symbol
_atom_site_label
_atom_site_fract_x
_atom_site_fract_y
_atom_site_fract_z
Si Si1 0.348130 0.284892 0.411322
Si Si2 0.222597 0.740924 0.777742
Si Si3 0.038729 0.108592 0.321010
Si Si4 0.512939 0.153471 0.318948
Si Si5 0.617733 0.899348 0.905115
Si Si6 0.263157 0.649506 0.190340
Si Si7 0.323803 0.157254 0.888869
O O1 0.424602 0.234315 0.414200
O O2 0.392127 0.260021 0.207606
O O3 0.466795 0.566205 0.340971
O O4 0.130635 0.081922 0.614284
O O5 0.327523 0.721859 0.741569
O O6 0.335869 0.860105 0.523657
O O7 0.264880 0.960673 0.823456
O O8 0.000000 0.500000 0.000000
O O9 0.098018 0.353283 0.315456
O O10 0.203028 0.187829 0.062202
O O11 0.000000 0.000000 0.500000
O O12 0.615245 0.224261 0.069921
O O13 0.745988 0.174518 0.738142
O O14 0.403897 0.725807 0.142224
O O15 0.694422 0.942201 0.963218
#
# Coordination Sequence:
#
# PCOD9091504 Si02
#       7
#     2   2   2   2   2   2   2
#     4  11  24  41  68  98 137 179 211 271 335 402
#     4  11  27  47  71  95 126 172 234 290 320 386
#     4  12  24  40  64 107 142 174 214 259 331 409
#     4  10  23  47  69  93 131 172 227 273 335 381
#     4  10  19  39  66  96 136 176 207 271 332 400
#     4  10  21  40  67 100 135 176 217 266 331 403
#     4  12  23  44  64  98 139 172 218 275 338 389
#
# _framework density 22.978300000000001
#
# number of rings (size 3 to 8) (size 9 to 14) (size 15 to 20)
#    0.000    1.143    5.714    1.286    2.000    3.429 
#    7.714    1.429    0.000    0.000    0.000    0.000 
#    0.000    0.000    0.000    0.000    0.000    0.000 
#
# Total GULP energy -78103.357109 kJ/mol
# GULP energy per Si atom -5578.811222 kJ/mol
# Density = 2.292600 g / cm^3
# Si number density = 22.978300 Si / 1000 Ang^3
#
#
#
# Elastic Constant Matrix: (Units=GPa)
#
#
# Indices 1 2 3 4 5 6 
#
# 1 60.5152 10.4743 37.7635 -6.1856 -6.5616 -1.9332
# 2 10.4743 130.7720 30.2116 -31.5783 -11.1091 12.9231
# 3 37.7635 30.2116 96.3340 -18.9968 -16.6124 9.9910
# 4 -6.1856 -31.5783 -18.9968 41.5923 7.2581 -0.4949
# 5 -6.5616 -11.1091 -16.6124 7.2581 43.2519 5.1457
# 6 -1.9332 12.9231 9.9910 -0.4949 5.1457 17.0631
#
#
#
# Elastic Compliance Matrix: (Units=1/GPa)
#
#
# Indices 1 2 3 4 5 6 
#
# 1 0.023157 -0.000962 -0.010406 -0.001637 -0.001633 0.009890
# 2 -0.000962 0.010561 -0.000236 0.007272 0.002260 -0.008440
# 3 -0.010406 -0.000236 0.017965 0.005286 0.005939 -0.013157
# 4 -0.001637 0.007272 0.005286 0.031780 -0.000775 -0.007633
# 5 -0.001633 0.002260 0.005939 -0.000775 0.027493 -0.013687
# 6 0.009890 -0.008440 -0.013157 -0.007633 -0.013687 0.077729
#
#
# Mechanical properties :
#
#
# Convention : Reuss Voigt Hill
#
# Bulk Modulus (GPa) = 35.11909 49.39110 42.25510
# Shear Modulus (GPa) = 22.58545 34.32624 28.45584
#
# Velocity S-wave (km/s) = 3.13853 3.86923 3.52288
# Velocity P-wave (km/s) = 5.33391 6.44225 5.91410
#
# Compressibility (1/GPa) = 0.02847454
#
# Stress axis : x y z
#
# Youngs Moduli (GPa) = 43.18441 94.69243 55.66472
#
# Poissons Ratio (x) = 0.09110 0.57924
# Poissons Ratio (y) = 0.04154 0.01312
# Poissons Ratio (z) = 0.44937 0.02232
#
# Static dielectric constant tensor:
#      x y z
#    x 1.902570 -0.031290 -0.037670 
#    y -0.031290 1.888940 0.040900 
#    z -0.037670 0.040900 1.934440 
# 
# From -- ./inp_files/462194.got.cif
#   From: 2010.05.17/outbox.cif.g08.bks.cpg/sg2_232_cif.got.tgz:462194.got - 2010.06.03 11:33:40.
