data_PCOD9091589
_publ_section_title
;
Structure prediction by ZEFSAII (Michael W. Deem and Ramdas Pophale) SiO2 
 PCOD9091589
Probable space group: P -1
;
_chemical_formula_sum "Si O2"
_cell_formula_units_Z 14
_cell_length_a 25.389916
_cell_length_b 7.674156
_cell_length_c 8.405672
_cell_angle_alpha 113.177655
_cell_angle_beta 40.987915
_cell_angle_gamma 141.541619
_cell_volume 584.589131
_symmetry_space_group_name_H-M "P -1"
_symmetry_group_IT_number 2
_symmetry_cell_setting 'triclinic'
loop_
_space_group_symop_operation_xyz
x,y,z
-x,-y,-z
loop_
_atom_site_type_symbol
_atom_site_label
_atom_site_fract_x
_atom_site_fract_y
_atom_site_fract_z
Si Si1 0.713603 0.163292 0.116902
Si Si2 0.490924 0.457384 0.818664
Si Si3 0.715447 0.623802 0.864284
Si Si4 0.017231 0.177734 0.379212
Si Si5 0.226357 0.487058 0.604939
Si Si6 0.251294 0.117779 0.824955
Si Si7 0.049361 0.893294 0.977121
O O1 0.690249 0.280061 0.348406
O O2 0.590014 0.880396 0.181376
O O3 0.739489 0.027542 0.117393
O O4 0.846212 0.444171 0.804266
O O5 0.637160 0.722373 0.501221
O O6 0.500000 0.500000 0.000000
O O7 0.404850 0.471840 0.954854
O O8 0.713853 0.439347 0.681519
O O9 0.708573 0.613769 0.070269
O O10 0.871732 0.997674 0.626945
O O11 0.037926 0.077640 0.149455
O O12 0.000000 0.000000 0.500000
O O13 0.105538 0.415572 0.836199
O O14 0.164560 0.163144 0.682508
O O15 0.109145 0.873027 0.969260
#
# Coordination Sequence:
#
# PCOD9091589 Si02
#       7
#     2   2   2   2   2   2   2
#     4  10  23  41  65  99 129 165 222 268 318 390
#     4  11  25  46  64  87 132 180 219 265 318 380
#     4  10  20  39  68  90 132 170 208 262 328 377
#     4  10  19  39  67  99 130 165 203 269 334 383
#     4   9  19  37  63  95 129 165 209 268 325 386
#     4  11  22  41  65  90 131 177 216 265 315 380
#     4   9  18  36  61  91 133 170 204 257 332 379
#
# _framework density 23.948440999999999
#
# number of rings (size 3 to 8) (size 9 to 14) (size 15 to 20)
#    0.000    2.000    1.429    3.429    0.000    2.857 
#    5.143    9.286    0.000    0.000    0.000    0.000 
#    0.000    0.000    0.000    0.000    0.000    0.000 
#
# Total GULP energy -77977.334112 kJ/mol
# GULP energy per Si atom -5569.809579 kJ/mol
# Density = 2.389393 g / cm^3
# Si number density = 23.948441 Si / 1000 Ang^3
#
#
#
# Elastic Constant Matrix: (Units=GPa)
#
#
# Indices 1 2 3 4 5 6 
#
# 1 103.4974 20.2084 26.5178 7.3142 11.3472 28.2369
# 2 20.2084 77.1891 19.9631 17.4013 11.5221 26.9965
# 3 26.5178 19.9631 119.4615 19.0767 6.6545 7.6002
# 4 7.3142 17.4013 19.0767 32.2450 9.7417 7.0699
# 5 11.3472 11.5221 6.6545 9.7417 39.9162 3.7463
# 6 28.2369 26.9965 7.6002 7.0699 3.7463 35.6339
#
#
#
# Elastic Compliance Matrix: (Units=1/GPa)
#
#
# Indices 1 2 3 4 5 6 
#
# 1 0.013243 0.001109 -0.002453 0.001085 -0.002935 -0.010718
# 2 0.001109 0.019770 -0.001527 -0.006044 -0.002977 -0.014019
# 3 -0.002453 -0.001527 0.009818 -0.005019 0.000544 0.001945
# 4 0.001085 -0.006044 -0.005019 0.039681 -0.007193 -0.002327
# 5 -0.002935 -0.002977 0.000544 -0.007193 0.028136 0.002934
# 6 -0.010718 -0.014019 0.001945 -0.002327 0.002934 0.046916
#
#
# Mechanical properties :
#
#
# Convention : Reuss Voigt Hill
#
# Bulk Modulus (GPa) = 26.96185 48.16962 37.56573
# Shear Modulus (GPa) = 28.46288 37.12293 32.79291
#
# Velocity S-wave (km/s) = 3.45121 3.94143 3.70444
# Velocity P-wave (km/s) = 5.21190 6.39302 5.83243
#
# Compressibility (1/GPa) = 0.03708944
#
# Stress axis : x y z
#
# Youngs Moduli (GPa) = 75.50992 50.58267 101.85373
#
# Poissons Ratio (x) = -0.05611 0.24985
# Poissons Ratio (y) = -0.08377 0.15554
# Poissons Ratio (z) = 0.18523 0.07724
#
# Static dielectric constant tensor:
#      x y z
#    x 2.034680 -0.000610 0.075880 
#    y -0.000610 2.044870 -0.041940 
#    z 0.075880 -0.041940 2.057580 
# 
# From -- ./inp_files/356611.got.cif
#   From: 2010.05.17/outbox.cif.g08.bks.cpg/sg2_179_cif.got.tgz:356611.got - 2010.06.03 11:33:40.
