data_PCOD9091734
_publ_section_title
;
Structure prediction by ZEFSAII (Michael W. Deem and Ramdas Pophale) SiO2 
 PCOD9091734
Probable space group: P -1
;
_chemical_formula_sum "Si O2"
_cell_formula_units_Z 16
_cell_length_a 12.262303
_cell_length_b 14.658846
_cell_length_c 9.129600
_cell_angle_alpha 109.266272
_cell_angle_beta 111.687232
_cell_angle_gamma 129.866527
_cell_volume 710.345692
_symmetry_space_group_name_H-M "P -1"
_symmetry_group_IT_number 2
_symmetry_cell_setting 'triclinic'
loop_
_space_group_symop_operation_xyz
x,y,z
-x,-y,-z
loop_
_atom_site_type_symbol
_atom_site_label
_atom_site_fract_x
_atom_site_fract_y
_atom_site_fract_z
Si Si1 0.694319 0.554416 0.604834
Si Si2 0.248592 0.216735 0.675083
Si Si3 0.661712 0.418500 0.816836
Si Si4 0.431341 0.861958 0.288107
Si Si5 0.493784 0.300687 0.094944
Si Si6 0.107067 0.560656 0.744333
Si Si7 0.091685 0.755449 0.421034
Si Si8 0.967842 0.154551 0.304312
O O1 0.500000 0.500000 0.500000
O O2 0.708673 0.500543 0.727879
O O3 0.613218 0.428968 0.364774
O O4 0.940569 0.772800 0.777319
O O5 0.401777 0.261933 0.663902
O O6 0.170468 0.251074 0.557888
O O7 0.408552 0.325939 0.958400
O O8 0.000000 0.000000 0.500000
O O9 0.656623 0.298209 0.758813
O O10 0.864582 0.608714 0.125554
O O11 0.500000 0.000000 0.500000
O O12 0.226301 0.729740 0.991664
O O13 0.681684 0.028257 0.416463
O O14 0.672383 0.356491 0.128190
O O15 0.265674 0.076912 0.915389
O O16 0.905288 0.358741 0.628169
O O17 0.000000 0.500000 0.500000
O O18 0.074623 0.777010 0.592496
#
# Coordination Sequence:
#
# PCOD9091734 Si02
#       8
#     2   2   2   2   2   2   2   2
#     4  12  26  41  63 105 148 181 219 281 353 413
#     4  10  19  39  71  97 131 184 230 274 333 413
#     4  11  24  44  65 102 144 178 232 287 344 421
#     4  11  25  48  73 104 136 179 240 303 357 404
#     4  11  23  44  67  99 140 178 238 281 334 427
#     4  11  24  45  74 103 137 180 239 295 351 422
#     4  11  23  45  75  99 132 184 238 280 348 429
#     4  11  22  42  71 100 136 186 229 274 344 418
#
# _framework density 22.524243999999999
#
# number of rings (size 3 to 8) (size 9 to 14) (size 15 to 20)
#    0.000    1.000    6.250    0.750    1.750    7.000 
#    2.250    0.000    0.000    0.000    0.000    0.000 
#    0.000    0.000    0.000    0.000    0.000    0.000 
#
# Total GULP energy -89279.214299 kJ/mol
# GULP energy per Si atom -5579.950894 kJ/mol
# Density = 2.247298 g / cm^3
# Si number density = 22.524244 Si / 1000 Ang^3
#
#
#
# Elastic Constant Matrix: (Units=GPa)
#
#
# Indices 1 2 3 4 5 6 
#
# 1 31.6403 9.3970 -1.7260 6.9031 -9.3388 13.3244
# 2 9.3970 163.8082 34.6611 -3.2054 7.3007 13.7598
# 3 -1.7260 34.6611 83.8877 -2.4634 -4.8180 -8.6311
# 4 6.9031 -3.2054 -2.4634 41.5500 0.3779 -5.0961
# 5 -9.3388 7.3007 -4.8180 0.3779 31.1653 -0.9528
# 6 13.3244 13.7598 -8.6311 -5.0961 -0.9528 29.0047
#
#
#
# Elastic Compliance Matrix: (Units=1/GPa)
#
#
# Indices 1 2 3 4 5 6 
#
# 1 0.048426 -0.001661 -0.000189 -0.011136 0.014303 -0.023001
# 2 -0.001661 0.007442 -0.003676 0.000177 -0.002932 -0.003926
# 3 -0.000189 -0.003676 0.014322 0.001357 0.003199 0.006436
# 4 -0.011136 0.000177 0.001357 0.027282 -0.003190 0.010124
# 5 0.014303 -0.002932 0.003199 -0.003190 0.037484 -0.003557
# 6 -0.023001 -0.003926 0.006436 0.010124 -0.003557 0.050483
#
#
# Mechanical properties :
#
#
# Convention : Reuss Voigt Hill
#
# Bulk Modulus (GPa) = 16.91031 40.44450 28.67740
# Shear Modulus (GPa) = 23.12630 36.14426 29.63528
#
# Velocity S-wave (km/s) = 3.20774 4.01019 3.63120
# Velocity P-wave (km/s) = 4.60905 6.27990 5.50820
#
# Compressibility (1/GPa) = 0.05913552
#
# Stress axis : x y z
#
# Youngs Moduli (GPa) = 20.65022 134.37619 69.82498
#
# Poissons Ratio (x) = 0.22322 0.01322
# Poissons Ratio (y) = 0.03430 0.25669
# Poissons Ratio (z) = 0.00391 0.49399
#
# Static dielectric constant tensor:
#      x y z
#    x 1.907560 0.000640 0.008040 
#    y 0.000640 1.875180 0.009810 
#    z 0.008040 0.009810 1.835890 
# 
# From -- ./inp_files/273838.got.cif
#   From: 2010.05.17/outbox.cif.g08.bks.cpg/sg2_137_cif.got.tgz:273838.got - 2010.06.03 11:33:40.
