data_PCOD9091162
_publ_section_title
;
Structure prediction by ZEFSAII (Michael W. Deem and Ramdas Pophale) SiO2 
 PCOD9091162
Probable space group: P -1
;
_chemical_formula_sum "Si O2"
_cell_formula_units_Z 16
_cell_length_a 21.074090
_cell_length_b 5.161120
_cell_length_c 10.850415
_cell_angle_alpha 125.079380
_cell_angle_beta 141.758587
_cell_angle_gamma 63.427954
_cell_volume 597.780514
_symmetry_space_group_name_H-M "P -1"
_symmetry_group_IT_number 2
_symmetry_cell_setting 'triclinic'
loop_
_space_group_symop_operation_xyz
x,y,z
-x,-y,-z
loop_
_atom_site_type_symbol
_atom_site_label
_atom_site_fract_x
_atom_site_fract_y
_atom_site_fract_z
Si Si1 0.344430 0.641871 0.298147
Si Si2 0.901210 0.404009 0.899987
Si Si3 0.171943 0.912523 0.960672
Si Si4 0.265943 0.946885 0.605202
Si Si5 0.010858 0.519867 0.690943
Si Si6 0.837538 0.043068 0.299772
Si Si7 0.488649 0.353160 0.629760
Si Si8 0.621494 0.698146 0.334271
O O1 0.385401 0.480260 0.441100
O O2 0.417018 0.494740 0.261701
O O3 0.354013 0.008651 0.456983
O O4 0.233962 0.673460 0.076591
O O5 0.827790 0.144806 0.654977
O O6 0.950759 0.311345 0.079805
O O7 0.000000 0.500000 0.000000
O O8 0.838332 0.730493 0.910523
O O9 0.055070 0.773734 0.729505
O O10 0.227452 0.917912 0.913916
O O11 0.217666 0.070763 0.692336
O O12 0.314884 0.616636 0.633492
O O13 0.347953 0.159323 0.713080
O O14 0.897696 0.379186 0.501369
O O15 0.080729 0.217592 0.687368
O O16 0.486698 0.388359 0.784497
O O17 0.500000 0.000000 0.500000
#
# Coordination Sequence:
#
# PCOD9091162 Si02
#       8
#     2   2   2   2   2   2   2   2
#     4  10  19  39  64 103 131 166 218 272 338 399
#     4  11  23  39  59  94 133 173 221 283 330 375
#     4  11  23  39  67  91 131 179 226 273 321 401
#     4  12  24  40  65  97 135 174 226 272 331 392
#     4  10  22  41  60  86 129 173 235 271 327 379
#     4  10  24  41  58  89 131 183 224 271 324 388
#     4   9  20  36  65  99 134 164 203 280 346 399
#     4  11  22  38  65  97 134 164 216 276 334 393
#
# _framework density 26.765678000000001
#
# number of rings (size 3 to 8) (size 9 to 14) (size 15 to 20)
#    0.000    1.500    3.750    1.125    1.750    2.500 
#    0.000    0.000    0.000    1.500    0.000    0.000 
#    0.000    0.000    0.000    0.000    0.000    0.000 
#
# Total GULP energy -89331.808594 kJ/mol
# GULP energy per Si atom -5583.238037 kJ/mol
# Density = 2.670476 g / cm^3
# Si number density = 26.765678 Si / 1000 Ang^3
#
#
#
# Elastic Constant Matrix: (Units=GPa)
#
#
# Indices 1 2 3 4 5 6 
#
# 1 221.9996 27.7998 20.9240 3.0878 -4.5962 22.3368
# 2 27.7998 115.0511 21.1849 -10.9359 -10.6279 19.4843
# 3 20.9240 21.1849 83.5696 7.8671 6.1321 2.3670
# 4 3.0878 -10.9359 7.8671 21.7026 -1.3769 -0.3205
# 5 -4.5962 -10.6279 6.1321 -1.3769 21.2350 -1.7020
# 6 22.3368 19.4843 2.3670 -0.3205 -1.7020 43.0645
#
#
#
# Elastic Compliance Matrix: (Units=1/GPa)
#
#
# Indices 1 2 3 4 5 6 
#
# 1 0.004924 -0.000612 -0.001019 -0.000619 0.000838 -0.002192
# 2 -0.000612 0.011702 -0.003936 0.007790 0.007011 -0.004425
# 3 -0.001019 -0.003936 0.014381 -0.007461 -0.006731 0.001197
# 4 -0.000619 0.007790 -0.007461 0.053350 0.009216 -0.002032
# 5 0.000838 0.007011 -0.006731 0.009216 0.053238 -0.001064
# 6 -0.002192 -0.004425 0.001197 -0.002032 -0.001064 0.026237
#
#
# Mechanical properties :
#
#
# Convention : Reuss Voigt Hill
#
# Bulk Modulus (GPa) = 50.31772 62.27084 56.29428
# Shear Modulus (GPa) = 27.53451 40.58120 34.05785
#
# Velocity S-wave (km/s) = 3.21085 3.89802 3.57100
# Velocity P-wave (km/s) = 5.70844 6.60114 6.17096
#
# Compressibility (1/GPa) = 0.01987371
#
# Stress axis : x y z
#
# Youngs Moduli (GPa) = 203.09777 85.45552 69.53569
#
# Poissons Ratio (x) = 0.05233 0.07083
# Poissons Ratio (y) = 0.12437 0.27366
# Poissons Ratio (z) = 0.20688 0.33632
#
# Static dielectric constant tensor:
#      x y z
#    x 2.358420 0.097350 0.095690 
#    y 0.097350 2.088040 0.021580 
#    z 0.095690 0.021580 2.193530 
# 
# From -- ./inp_files/468516.got.cif
#   From: 2010.05.17/outbox.cif.g08.bks.cpg/sg2_235_cif.got.tgz:468516.got - 2010.06.03 11:33:40.
