data_PCOD9091013
_publ_section_title
;
Structure prediction by ZEFSAII (Michael W. Deem and Ramdas Pophale) SiO2 
 PCOD9091013
Probable space group: P -1
;
_chemical_formula_sum "Si O2"
_cell_formula_units_Z 16
_cell_length_a 13.678958
_cell_length_b 14.721501
_cell_length_c 12.164796
_cell_angle_alpha 39.668891
_cell_angle_beta 59.445551
_cell_angle_gamma 31.536921
_cell_volume 733.538219
_symmetry_space_group_name_H-M "P -1"
_symmetry_group_IT_number 2
_symmetry_cell_setting 'triclinic'
loop_
_space_group_symop_operation_xyz
x,y,z
-x,-y,-z
loop_
_atom_site_type_symbol
_atom_site_label
_atom_site_fract_x
_atom_site_fract_y
_atom_site_fract_z
Si Si1 0.002038 0.768470 0.078477
Si Si2 0.268515 0.012707 0.776320
Si Si3 0.908864 0.368455 0.482115
Si Si4 0.144350 0.297369 0.942629
Si Si5 0.085613 0.018591 0.522040
Si Si6 0.308024 0.298455 0.499938
Si Si7 0.349608 0.567529 0.946694
Si Si8 0.748819 0.846296 0.753136
O O1 0.865850 0.830872 0.006861
O O2 0.180859 0.476575 0.299232
O O3 0.139921 0.744870 0.965781
O O4 0.850828 0.957151 0.092424
O O5 0.250030 0.195974 0.653894
O O6 0.140511 0.136956 0.619529
O O7 0.507422 0.716221 0.904952
O O8 0.764794 0.519147 0.531184
O O9 0.842427 0.578811 0.257334
O O10 0.921991 0.228559 0.517328
O O11 0.916767 0.554244 0.889872
O O12 0.301252 0.129951 0.112049
O O13 0.148362 0.105722 0.356494
O O14 0.282754 0.734518 0.728104
O O15 0.000000 0.000000 0.500000
O O16 0.555316 0.046450 0.594912
O O17 0.500000 0.500000 0.000000
#
# Coordination Sequence:
#
# PCOD9091013 Si02
#       8
#     2   2   2   2   2   2   2   2
#     4  11  22  39  66  93 128 166 207 262 323 371
#     4  11  22  41  66 101 131 155 208 271 320 380
#     4  10  20  40  65  90 132 157 197 272 318 367
#     4  10  19  39  62  92 124 162 200 262 330 368
#     4  11  24  46  61  84 131 175 213 252 305 377
#     4  11  21  39  65 101 123 153 205 272 333 365
#     4  12  25  41  65  92 126 178 217 251 304 375
#     4  10  23  37  63  93 125 161 215 260 310 380
#
# _framework density 21.812086000000001
#
# number of rings (size 3 to 8) (size 9 to 14) (size 15 to 20)
#    0.000    1.250    3.750    3.000    1.750    4.000 
#    4.500    0.625    0.000    0.000    0.000    0.000 
#    0.000    0.000    0.000    0.000    0.000    0.000 
#
# Total GULP energy -89363.168654 kJ/mol
# GULP energy per Si atom -5585.198041 kJ/mol
# Density = 2.176244 g / cm^3
# Si number density = 21.812086 Si / 1000 Ang^3
#
#
#
# Elastic Constant Matrix: (Units=GPa)
#
#
# Indices 1 2 3 4 5 6 
#
# 1 73.1033 13.0920 -0.6090 -1.2622 -0.3093 18.0465
# 2 13.0920 59.6429 4.4833 6.3585 -5.3694 8.4538
# 3 -0.6090 4.4833 71.4715 8.2123 1.3442 2.4929
# 4 -1.2622 6.3585 8.2123 26.7754 0.4496 1.7291
# 5 -0.3093 -5.3694 1.3442 0.4496 27.7215 2.6176
# 6 18.0465 8.4538 2.4929 1.7291 2.6176 31.8755
#
#
#
# Elastic Compliance Matrix: (Units=1/GPa)
#
#
# Indices 1 2 3 4 5 6 
#
# 1 0.016325 -0.002524 0.000386 0.001807 0.000471 -0.008740
# 2 -0.002524 0.018687 -0.000663 -0.004190 0.004029 -0.003579
# 3 0.000386 -0.000663 0.014566 -0.004222 -0.000677 -0.000897
# 4 0.001807 -0.004190 -0.004222 0.039848 -0.001077 -0.001655
# 5 0.000471 0.004029 -0.000677 -0.001077 0.037314 -0.004288
# 6 -0.008740 -0.003579 -0.000897 -0.001655 -0.004288 0.037782
#
#
# Mechanical properties :
#
#
# Convention : Reuss Voigt Hill
#
# Bulk Modulus (GPa) = 22.74015 26.46116 24.60065
# Shear Modulus (GPa) = 27.05882 29.75791 28.40837
#
# Velocity S-wave (km/s) = 3.52595 3.69763 3.61281
# Velocity P-wave (km/s) = 5.19852 5.51251 5.35781
#
# Compressibility (1/GPa) = 0.04397509
#
# Stress axis : x y z
#
# Youngs Moduli (GPa) = 61.25456 53.51308 68.65454
#
# Poissons Ratio (x) = 0.13507 -0.02649
# Poissons Ratio (y) = 0.15461 0.04553
# Poissons Ratio (z) = -0.02363 0.03549
#
# Static dielectric constant tensor:
#      x y z
#    x 1.773140 0.018090 -0.005070 
#    y 0.018090 1.853880 0.009640 
#    z -0.005070 0.009640 1.807050 
# 
# From -- ./inp_files/186825.got.cif
#   From: 2010.05.17/outbox.cif.g08.bks.cpg/sg2_94_cif.got.tgz:186825.got - 2010.06.03 11:33:40.
