data_PCOD9091152
_publ_section_title
;
Structure prediction by ZEFSAII (Michael W. Deem and Ramdas Pophale) SiO2 
 PCOD9091152
Probable space group: P -1
;
_chemical_formula_sum "Si O2"
_cell_formula_units_Z 16
_cell_length_a 8.431714
_cell_length_b 10.559595
_cell_length_c 12.220933
_cell_angle_alpha 107.019672
_cell_angle_beta 56.540564
_cell_angle_gamma 131.050171
_cell_volume 680.408328
_symmetry_space_group_name_H-M "P -1"
_symmetry_group_IT_number 2
_symmetry_cell_setting 'triclinic'
loop_
_space_group_symop_operation_xyz
x,y,z
-x,-y,-z
loop_
_atom_site_type_symbol
_atom_site_label
_atom_site_fract_x
_atom_site_fract_y
_atom_site_fract_z
Si Si1 0.909748 0.130393 0.041089
Si Si2 0.671192 0.481690 0.355502
Si Si3 0.031001 0.094272 0.374667
Si Si4 0.748734 0.815697 0.906296
Si Si5 0.478276 0.089243 0.702014
Si Si6 0.723178 0.337256 0.089222
Si Si7 0.921150 0.167529 0.658023
Si Si8 0.457571 0.801946 0.518151
O O1 0.776859 0.211251 0.083154
O O2 0.172308 0.239269 0.030983
O O3 0.751633 0.985293 0.156809
O O4 0.870546 0.014520 0.925537
O O5 0.500000 0.500000 0.500000
O O6 0.614694 0.386140 0.238418
O O7 0.697108 0.368276 0.398172
O O8 0.897622 0.674979 0.295483
O O9 0.046314 0.196747 0.498456
O O10 0.118184 0.189949 0.252009
O O11 0.751977 0.920849 0.441884
O O12 0.169202 0.016000 0.319711
O O13 0.468894 0.724128 0.953289
O O14 0.691037 0.156240 0.721801
O O15 0.580048 0.227088 0.603993
O O16 0.414245 0.927296 0.618236
O O17 0.000000 0.500000 0.000000
#
# Coordination Sequence:
#
# PCOD9091152 Si02
#       8
#     2   2   2   2   2   2   2   2
#     4  11  24  46  73  99 134 179 242 288 333 413
#     4  12  24  42  64 103 139 181 226 280 347 428
#     4  10  19  39  63  97 126 170 224 289 331 392
#     4  11  25  44  74 101 130 181 246 283 335 413
#     4  10  20  39  62  94 125 170 224 278 338 398
#     4  12  29  47  69 101 148 189 221 285 360 415
#     4  10  22  33  65  92 132 170 221 272 345 407
#     4  10  20  37  64  91 131 169 213 281 346 395
#
# _framework density 23.515288999999999
#
# number of rings (size 3 to 8) (size 9 to 14) (size 15 to 20)
#    0.000    1.250    3.750    1.875    5.250    1.000 
#    0.000    1.250    0.000    0.000    0.000    0.000 
#    0.000    0.000    0.000    0.000    0.000    0.000 
#
# Total GULP energy -89137.200502 kJ/mol
# GULP energy per Si atom -5571.075031 kJ/mol
# Density = 2.346177 g / cm^3
# Si number density = 23.515289 Si / 1000 Ang^3
#
#
#
# Elastic Constant Matrix: (Units=GPa)
#
#
# Indices 1 2 3 4 5 6 
#
# 1 123.6859 23.9247 6.9907 13.3602 -1.4296 33.2468
# 2 23.9247 69.7929 7.0752 10.0485 -1.9686 13.1559
# 3 6.9907 7.0752 71.5541 9.7976 -5.3476 -0.4613
# 4 13.3602 10.0485 9.7976 31.4787 -4.8581 -1.3657
# 5 -1.4296 -1.9686 -5.3476 -4.8581 12.4019 -3.9734
# 6 33.2468 13.1559 -0.4613 -1.3657 -3.9734 27.3865
#
#
#
# Elastic Compliance Matrix: (Units=1/GPa)
#
#
# Indices 1 2 3 4 5 6 
#
# 1 0.013760 -0.000377 -0.000979 -0.007360 -0.007547 -0.018002
# 2 -0.000377 0.016883 -0.001115 -0.005667 -0.002740 -0.008351
# 3 -0.000979 -0.001115 0.015036 -0.002876 0.005930 0.002695
# 4 -0.007360 -0.005667 -0.002876 0.041137 0.018356 0.016324
# 5 -0.007547 -0.002740 0.005930 0.018356 0.097279 0.025607
# 6 -0.018002 -0.008351 0.002695 0.016324 0.025607 0.066954
#
#
# Mechanical properties :
#
#
# Convention : Reuss Voigt Hill
#
# Bulk Modulus (GPa) = 24.54860 37.89045 31.21953
# Shear Modulus (GPa) = 18.54794 29.38957 23.96875
#
# Velocity S-wave (km/s) = 2.81154 3.53910 3.19609
# Velocity P-wave (km/s) = 4.58276 5.73135 5.18893
#
# Compressibility (1/GPa) = 0.04073552
#
# Stress axis : x y z
#
# Youngs Moduli (GPa) = 72.67442 59.22975 66.50816
#
# Poissons Ratio (x) = 0.02236 0.06513
# Poissons Ratio (y) = 0.02743 0.07417
# Poissons Ratio (z) = 0.07116 0.06605
#
# Static dielectric constant tensor:
#      x y z
#    x 2.058080 0.029900 0.004130 
#    y 0.029900 2.018850 -0.039570 
#    z 0.004130 -0.039570 1.936080 
# 
# From -- ./inp_files/390663.got.cif
#   From: 2010.05.17/outbox.cif.g08.bks.cpg/sg2_196_cif.got.tgz:390663.got - 2010.06.03 11:33:40.
