data_PCOD9091599
_publ_section_title
;
Structure prediction by ZEFSAII (Michael W. Deem and Ramdas Pophale) SiO2 
 PCOD9091599
Probable space group: P -1
;
_chemical_formula_sum "Si O2"
_cell_formula_units_Z 12
_cell_length_a 11.120082
_cell_length_b 9.168908
_cell_length_c 5.820305
_cell_angle_alpha 100.780190
_cell_angle_beta 63.091095
_cell_angle_gamma 113.079471
_cell_volume 486.791891
_symmetry_space_group_name_H-M "P -1"
_symmetry_group_IT_number 2
_symmetry_cell_setting 'triclinic'
loop_
_space_group_symop_operation_xyz
x,y,z
-x,-y,-z
loop_
_atom_site_type_symbol
_atom_site_label
_atom_site_fract_x
_atom_site_fract_y
_atom_site_fract_z
Si Si1 0.610666 0.102861 0.240598
Si Si2 0.762668 0.658485 0.951445
Si Si3 0.866599 0.906283 0.314605
Si Si4 0.837494 0.398398 0.032304
Si Si5 0.391416 0.185528 0.140130
Si Si6 0.036341 0.771450 0.462468
O O1 0.747329 0.256031 0.236271
O O2 0.529889 0.181876 0.154868
O O3 0.500000 0.000000 0.500000
O O4 0.652375 0.972968 0.023370
O O5 0.833080 0.824009 0.075586
O O6 0.753580 0.518491 0.091695
O O7 0.619938 0.672960 0.966879
O O8 0.884537 0.656750 0.661483
O O9 0.726569 0.829144 0.568855
O O10 0.993224 0.861360 0.311925
O O11 0.895584 0.091322 0.370555
O O12 0.861423 0.314214 0.752066
O O13 0.000000 0.500000 0.000000
#
# Coordination Sequence:
#
# PCOD9091599 Si02
#       6
#     2   2   2   2   2   2
#     4  11  25  49  74 100 141 195 245 290 343 440
#     4  11  23  39  71 105 148 182 227 306 363 418
#     4  10  19  39  68 103 142 186 242 285 345 437
#     4  12  25  46  71 112 148 182 234 302 368 409
#     4  10  23  45  70 101 138 193 244 283 353 429
#     4  10  21  39  65 104 146 190 233 287 357 428
#
# _framework density 24.651194
#
# number of rings (size 3 to 8) (size 9 to 14) (size 15 to 20)
#    0.000    1.333    3.333    2.000    0.000    3.333 
#    6.000    3.333    0.000    0.000    0.000    0.000 
#    0.000    0.000    0.000    0.000    0.000    0.000 
#
# Total GULP energy -67078.605557 kJ/mol
# GULP energy per Si atom -5589.883796 kJ/mol
# Density = 2.459509 g / cm^3
# Si number density = 24.651194 Si / 1000 Ang^3
#
#
#
# Elastic Constant Matrix: (Units=GPa)
#
#
# Indices 1 2 3 4 5 6 
#
# 1 117.4373 72.2940 16.2831 -9.9184 5.1557 -39.4876
# 2 72.2940 137.7178 24.6286 -12.8924 3.0806 -1.8299
# 3 16.2831 24.6286 85.0559 5.5611 -6.6154 4.5837
# 4 -9.9184 -12.8924 5.5611 34.8979 -7.5823 -7.1939
# 5 5.1557 3.0806 -6.6154 -7.5823 21.3626 -3.2239
# 6 -39.4876 -1.8299 4.5837 -7.1939 -3.2239 46.5608
#
#
#
# Elastic Compliance Matrix: (Units=1/GPa)
#
#
# Indices 1 2 3 4 5 6 
#
# 1 0.022893 -0.010555 -0.002853 0.007474 0.000859 0.020496
# 2 -0.010555 0.012963 -0.001363 0.000069 -0.000982 -0.008365
# 3 -0.002853 -0.001363 0.013401 -0.003623 0.003125 -0.004136
# 4 0.007474 0.000069 -0.003623 0.036733 0.012096 0.013211
# 5 0.000859 -0.000982 0.003125 0.012096 0.052899 0.005914
# 6 0.020496 -0.008365 -0.004136 0.013211 0.005914 0.041388
#
#
# Mechanical properties :
#
#
# Convention : Reuss Voigt Hill
#
# Bulk Modulus (GPa) = 50.72116 62.95804 56.83960
# Shear Modulus (GPa) = 23.10651 35.69794 29.40222
#
# Velocity S-wave (km/s) = 3.06492 3.80955 3.45734
# Velocity P-wave (km/s) = 5.75719 6.70412 6.24862
#
# Compressibility (1/GPa) = 0.01971564
#
# Stress axis : x y z
#
# Youngs Moduli (GPa) = 43.68120 77.14384 74.62368
#
# Poissons Ratio (x) = 0.81423 0.21289
# Poissons Ratio (y) = 0.46104 0.10171
# Poissons Ratio (z) = 0.12461 0.10514
#
# Static dielectric constant tensor:
#      x y z
#    x 2.043080 0.033440 0.020470 
#    y 0.033440 1.979930 -0.060680 
#    z 0.020470 -0.060680 1.944490 
# 
# From -- ./inp_files/28747.got.cif
#   From: 2010.05.17/outbox.cif.g08.bks.cpg/sg2_15_cif.got.tgz:28747.got - 2010.06.03 11:33:40.
