data_PCOD9091258
_publ_section_title
;
Structure prediction by ZEFSAII (Michael W. Deem and Ramdas Pophale) SiO2 
 PCOD9091258
Probable space group: P -1
;
_chemical_formula_sum "Si O2"
_cell_formula_units_Z 14
_cell_length_a 16.903254
_cell_length_b 9.251720
_cell_length_c 15.079568
_cell_angle_alpha 144.338961
_cell_angle_beta 135.374711
_cell_angle_gamma 72.534656
_cell_volume 708.879425
_symmetry_space_group_name_H-M "P -1"
_symmetry_group_IT_number 2
_symmetry_cell_setting 'triclinic'
loop_
_space_group_symop_operation_xyz
x,y,z
-x,-y,-z
loop_
_atom_site_type_symbol
_atom_site_label
_atom_site_fract_x
_atom_site_fract_y
_atom_site_fract_z
Si Si1 0.437256 0.463481 0.083327
Si Si2 0.342533 0.496114 0.840778
Si Si3 0.976648 0.097356 0.936880
Si Si4 0.162746 0.718398 0.289052
Si Si5 0.951005 0.707553 0.550918
Si Si6 0.861026 0.825554 0.234050
Si Si7 0.290264 0.896857 0.298153
O O1 0.533471 0.379504 0.074963
O O2 0.539448 0.737220 0.379602
O O3 0.419173 0.613126 0.056423
O O4 0.265861 0.163183 0.832038
O O5 0.224587 0.535997 0.744813
O O6 0.232009 0.086869 0.552388
O O7 0.828646 0.058607 0.796810
O O8 0.959846 0.876972 0.733296
O O9 0.124612 0.487095 0.224886
O O10 0.000000 0.000000 0.000000
O O11 0.268399 0.780634 0.325519
O O12 0.000000 0.500000 0.000000
O O13 0.000000 0.500000 0.500000
O O14 0.062239 0.996342 0.709854
O O15 0.764968 0.425146 0.958887
O O16 0.000000 0.000000 0.500000
#
# Coordination Sequence:
#
# PCOD9091258 Si02
#       7
#     2   2   2   2   2   2   2
#     4  10  21  36  68  95 124 159 206 271 314 371
#     4  10  19  39  64  94 120 164 213 251 324 375
#     4  11  22  36  63  92 126 173 213 251 319 382
#     4   9  15  33  62  85 116 153 206 265 289 363
#     4  12  24  41  61  94 135 164 208 272 312 374
#     4  12  24  38  65 100 124 160 220 264 319 366
#     4  10  20  40  65  89 127 160 213 263 310 378
#
# _framework density 19.749479000000001
#
# number of rings (size 3 to 8) (size 9 to 14) (size 15 to 20)
#    0.000    1.429    7.143    1.286    2.000    0.000 
#    0.000    0.714    9.429    1.714    0.000    0.000 
#    0.000    0.000    0.000    0.000    0.000    0.000 
#
# Total GULP energy -78058.226953 kJ/mol
# GULP energy per Si atom -5575.587640 kJ/mol
# Density = 1.970453 g / cm^3
# Si number density = 19.749479 Si / 1000 Ang^3
#
#
#
# Elastic Constant Matrix: (Units=GPa)
#
#
# Indices 1 2 3 4 5 6 
#
# 1 96.9901 40.1669 29.8088 -12.8266 17.7536 -6.8260
# 2 40.1669 93.8422 18.0495 -16.0304 2.5795 -2.4356
# 3 29.8088 18.0495 92.3451 -18.3484 5.8569 -6.8910
# 4 -12.8266 -16.0304 -18.3484 21.6792 -5.1952 0.2105
# 5 17.7536 2.5795 5.8569 -5.1952 39.2626 -3.0192
# 6 -6.8260 -2.4356 -6.8910 0.2105 -3.0192 39.3173
#
#
#
# Elastic Compliance Matrix: (Units=1/GPa)
#
#
# Indices 1 2 3 4 5 6 
#
# 1 0.014712 -0.005388 -0.003100 0.000732 -0.005644 0.001240
# 2 -0.005388 0.014232 0.000466 0.008339 0.002549 0.000179
# 3 -0.003100 0.000466 0.013909 0.010463 0.000830 0.001936
# 4 0.000732 0.008339 0.010463 0.063018 0.006100 0.002608
# 5 -0.005644 0.002549 0.000830 0.006100 0.028652 0.001491
# 6 0.001240 0.000179 0.001936 0.002608 0.001491 0.026100
#
#
# Mechanical properties :
#
#
# Convention : Reuss Voigt Hill
#
# Bulk Modulus (GPa) = 37.30109 51.02533 44.16321
# Shear Modulus (GPa) = 26.93913 33.06197 30.00055
#
# Velocity S-wave (km/s) = 3.69730 4.09598 3.90173
# Velocity P-wave (km/s) = 6.09548 6.94707 6.53516
#
# Compressibility (1/GPa) = 0.02680887
#
# Stress axis : x y z
#
# Youngs Moduli (GPa) = 67.97337 70.26412 71.89478
#
# Poissons Ratio (x) = 0.37861 0.22286
# Poissons Ratio (y) = 0.36627 -0.03352
# Poissons Ratio (z) = 0.21071 -0.03276
#
# Static dielectric constant tensor:
#      x y z
#    x 1.788870 -0.012590 0.002460 
#    y -0.012590 1.688850 0.014240 
#    z 0.002460 0.014240 1.771000 
# 
# From -- ./inp_files/537236.got.cif
#   From: 2010.05.17/outbox.cif.g08.bks.cpg/sg2_269_cif.got.tgz:537236.got - 2010.06.03 11:33:40.
