data_PCOD9091635
_publ_section_title
;
Structure prediction by ZEFSAII (Michael W. Deem and Ramdas Pophale) SiO2 
 PCOD9091635
Probable space group: P -1
;
_chemical_formula_sum "Si O2"
_cell_formula_units_Z 14
_cell_length_a 21.079676
_cell_length_b 9.006725
_cell_length_c 15.857749
_cell_angle_alpha 31.742291
_cell_angle_beta 153.605167
_cell_angle_gamma 148.955480
_cell_volume 643.445348
_symmetry_space_group_name_H-M "P -1"
_symmetry_group_IT_number 2
_symmetry_cell_setting 'triclinic'
loop_
_space_group_symop_operation_xyz
x,y,z
-x,-y,-z
loop_
_atom_site_type_symbol
_atom_site_label
_atom_site_fract_x
_atom_site_fract_y
_atom_site_fract_z
Si Si1 0.332237 0.779446 0.656537
Si Si2 0.096183 0.366721 0.450072
Si Si3 0.863920 0.696975 0.055375
Si Si4 0.616933 0.359106 0.457951
Si Si5 0.837497 0.788513 0.795349
Si Si6 0.571213 0.290935 0.006879
Si Si7 0.591460 0.343028 0.627185
O O1 0.215889 0.464293 0.625652
O O2 0.402832 0.768734 0.836606
O O3 0.226839 0.979823 0.437184
O O4 0.480524 0.982914 0.676626
O O5 0.210711 0.540136 0.424742
O O6 0.972074 0.518066 0.244802
O O7 0.000000 0.000000 0.500000
O O8 0.738932 0.504759 0.066237
O O9 0.785056 0.742611 0.853188
O O10 0.977952 0.027345 0.068153
O O11 0.620242 0.464228 0.508132
O O12 0.500000 0.000000 0.500000
O O13 0.539413 0.532208 0.223673
O O14 0.759876 0.461832 0.815035
O O15 0.500000 0.000000 0.000000
O O16 0.500000 0.500000 0.500000
#
# Coordination Sequence:
#
# PCOD9091635 Si02
#       7
#     2   2   2   2   2   2   2
#     4  10  21  39  65  97 132 172 223 283 328 397
#     4  11  25  44  65  96 145 179 217 284 355 392
#     4  10  22  40  67  95 132 175 225 274 334 406
#     4  12  26  45  69 100 141 178 225 284 344 404
#     4   9  19  36  65  92 122 166 226 273 321 388
#     4  12  24  41  71 101 132 181 235 276 337 416
#     4  10  19  39  68  95 128 173 228 271 327 404
#
# _framework density 21.757867999999998
#
# number of rings (size 3 to 8) (size 9 to 14) (size 15 to 20)
#    0.000    1.429    1.429    5.143    4.000    4.000 
#    2.571    0.714    0.000    0.000    0.000    0.000 
#    0.000    0.000    0.000    0.000    0.000    0.000 
#
# Total GULP energy -78157.500172 kJ/mol
# GULP energy per Si atom -5582.678584 kJ/mol
# Density = 2.170835 g / cm^3
# Si number density = 21.757868 Si / 1000 Ang^3
#
#
#
# Elastic Constant Matrix: (Units=GPa)
#
#
# Indices 1 2 3 4 5 6 
#
# 1 91.5074 6.5902 24.4914 13.8693 -11.9588 10.7653
# 2 6.5902 147.2129 17.9314 11.7578 -2.6574 -12.7080
# 3 24.4914 17.9314 103.4959 12.5720 -23.2546 -9.9192
# 4 13.8693 11.7578 12.5720 27.2598 -8.3363 -6.2184
# 5 -11.9588 -2.6574 -23.2546 -8.3363 45.8312 6.7473
# 6 10.7653 -12.7080 -9.9192 -6.2184 6.7473 40.5500
#
#
#
# Elastic Compliance Matrix: (Units=1/GPa)
#
#
# Indices 1 2 3 4 5 6 
#
# 1 0.013463 -0.000242 -0.002482 -0.006279 0.001913 -0.005539
# 2 -0.000242 0.007255 -0.000911 -0.002407 -0.000820 0.001882
# 3 -0.002482 -0.000911 0.011899 -0.001900 0.004665 0.002217
# 4 -0.006279 -0.002407 -0.001900 0.044638 0.004412 0.006559
# 5 0.001913 -0.000820 0.004665 0.004412 0.025920 -0.003260
# 6 -0.005539 0.001882 0.002217 0.006559 -0.003260 0.028812
#
#
# Mechanical properties :
#
#
# Convention : Reuss Voigt Hill
#
# Bulk Modulus (GPa) = 39.45505 48.91580 44.18543
# Shear Modulus (GPa) = 33.85090 42.27508 38.06299
#
# Velocity S-wave (km/s) = 3.94864 4.41271 4.18711
# Velocity P-wave (km/s) = 6.24196 6.96371 6.61269
#
# Compressibility (1/GPa) = 0.02534530
#
# Stress axis : x y z
#
# Youngs Moduli (GPa) = 74.27709 137.84303 84.04178
#
# Poissons Ratio (x) = 0.03342 0.20861
# Poissons Ratio (y) = 0.01801 0.07656
# Poissons Ratio (z) = 0.18437 0.12557
#
# Static dielectric constant tensor:
#      x y z
#    x 1.796650 -0.031640 0.034780 
#    y -0.031640 1.882770 0.032870 
#    z 0.034780 0.032870 1.773880 
# 
# From -- ./inp_files/326398.got.cif
#   From: 2010.05.17/outbox.cif.g08.bks.cpg/sg2_164_cif.got.tgz:326398.got - 2010.06.03 11:33:40.
