data_PCOD9091607
_publ_section_title
;
Structure prediction by ZEFSAII (Michael W. Deem and Ramdas Pophale) SiO2 
 PCOD9091607
Probable space group: P -1
;
_chemical_formula_sum "Si O2"
_cell_formula_units_Z 16
_cell_length_a 8.671806
_cell_length_b 14.912669
_cell_length_c 9.361521
_cell_angle_alpha 35.475903
_cell_angle_beta 91.225875
_cell_angle_gamma 96.198217
_cell_volume 693.835112
_symmetry_space_group_name_H-M "P -1"
_symmetry_group_IT_number 2
_symmetry_cell_setting 'triclinic'
loop_
_space_group_symop_operation_xyz
x,y,z
-x,-y,-z
loop_
_atom_site_type_symbol
_atom_site_label
_atom_site_fract_x
_atom_site_fract_y
_atom_site_fract_z
Si Si1 0.342236 0.914080 0.035699
Si Si2 0.393419 0.623791 0.794809
Si Si3 0.169416 0.968290 0.237209
Si Si4 0.203151 0.774042 0.750153
Si Si5 0.304011 0.309284 0.832790
Si Si6 0.832874 0.953568 0.386893
Si Si7 0.493123 0.637724 0.473821
Si Si8 0.126044 0.360910 0.030724
O O1 0.379881 0.736308 0.252225
O O2 0.204138 0.927509 0.128807
O O3 0.299454 0.002094 0.779283
O O4 0.500000 0.000000 0.000000
O O5 0.369146 0.717626 0.818536
O O6 0.473524 0.696497 0.557328
O O7 0.500000 0.500000 0.000000
O O8 0.231241 0.516812 0.884011
O O9 0.994319 0.986497 0.256818
O O10 0.202067 0.825459 0.518766
O O11 0.289873 0.122018 0.087812
O O12 0.171985 0.921060 0.649938
O O13 0.057780 0.643308 0.951725
O O14 0.433820 0.451560 0.706525
O O15 0.335441 0.329573 0.636417
O O16 0.161353 0.338778 0.892317
O O17 0.828969 0.785137 0.683331
#
# Coordination Sequence:
#
# PCOD9091607 Si02
#       8
#     2   2   2   2   2   2   2   2
#     4  12  25  41  63  90 136 176 213 259 323 386
#     4  11  25  41  65  95 133 169 215 263 319 390
#     4  11  20  42  66  95 127 171 210 272 322 375
#     4  11  21  42  69  97 130 162 221 268 321 381
#     4  10  19  39  68  88 128 166 210 264 317 378
#     4  11  24  40  67  99 127 164 225 266 317 383
#     4  10  23  40  61  92 129 174 209 255 326 376
#     4  10  21  41  68  98 127 172 209 271 325 368
#
# _framework density 23.060234999999999
#
# number of rings (size 3 to 8) (size 9 to 14) (size 15 to 20)
#    0.000    1.250    5.000    1.500    1.750    3.000 
#    0.000    2.500    0.000    0.000    0.000    0.000 
#    0.000    0.000    0.000    0.000    0.000    0.000 
#
# Total GULP energy -89103.895629 kJ/mol
# GULP energy per Si atom -5568.993477 kJ/mol
# Density = 2.300775 g / cm^3
# Si number density = 23.060235 Si / 1000 Ang^3
#
#
#
# Elastic Constant Matrix: (Units=GPa)
#
#
# Indices 1 2 3 4 5 6 
#
# 1 44.9420 28.5846 44.4239 8.5813 1.1774 -21.4400
# 2 28.5846 94.1849 35.5045 -0.9837 -11.6800 -32.9375
# 3 44.4239 35.5045 102.8792 3.6180 -21.6727 -5.9405
# 4 8.5813 -0.9837 3.6180 48.5948 -9.5800 -10.8655
# 5 1.1774 -11.6800 -21.6727 -9.5800 38.0680 6.3473
# 6 -21.4400 -32.9375 -5.9405 -10.8655 6.3473 43.0152
#
#
#
# Elastic Compliance Matrix: (Units=1/GPa)
#
#
# Indices 1 2 3 4 5 6 
#
# 1 0.084761 -0.001460 -0.040983 -0.010408 -0.035367 0.038059
# 2 -0.001460 0.017487 -0.004431 0.004166 0.001796 0.012837
# 3 -0.040983 -0.004431 0.032403 0.004449 0.023081 -0.021627
# 4 -0.010408 0.004166 0.004449 0.024877 0.009818 0.003452
# 5 -0.035367 0.001796 0.023081 0.009818 0.046432 -0.017437
# 6 0.038059 0.012837 -0.021627 0.003452 -0.017437 0.052505
#
#
# Mechanical properties :
#
#
# Convention : Reuss Voigt Hill
#
# Bulk Modulus (GPa) = 24.44904 51.00358 37.72631
# Shear Modulus (GPa) = 13.66689 34.83514 24.25101
#
# Velocity S-wave (km/s) = 2.43710 3.89088 3.24641
# Velocity P-wave (km/s) = 4.30634 6.50775 5.51794
#
# Compressibility (1/GPa) = 0.04090140
#
# Stress axis : x y z
#
# Youngs Moduli (GPa) = 11.79793 57.18668 30.86110
#
# Poissons Ratio (x) = 0.08350 1.26478
# Poissons Ratio (y) = 0.01723 0.13675
# Poissons Ratio (z) = 0.48352 0.25341
#
# Static dielectric constant tensor:
#      x y z
#    x 2.010440 -0.120620 0.033810 
#    y -0.120620 1.989050 -0.031220 
#    z 0.033810 -0.031220 1.930110 
# 
# From -- ./inp_files/205171.got.cif
#   From: 2010.05.17/outbox.cif.g08.bks.cpg/sg2_103_cif.got.tgz:205171.got - 2010.06.03 11:33:40.
