data_PCOD9091319
_publ_section_title
;
Structure prediction by ZEFSAII (Michael W. Deem and Ramdas Pophale) SiO2 
 PCOD9091319
Probable space group: P -1
;
_chemical_formula_sum "Si O2"
_cell_formula_units_Z 16
_cell_length_a 8.157454
_cell_length_b 8.865747
_cell_length_c 22.111866
_cell_angle_alpha 47.151903
_cell_angle_beta 58.885226
_cell_angle_gamma 92.959298
_cell_volume 769.494502
_symmetry_space_group_name_H-M "P -1"
_symmetry_group_IT_number 2
_symmetry_cell_setting 'triclinic'
loop_
_space_group_symop_operation_xyz
x,y,z
-x,-y,-z
loop_
_atom_site_type_symbol
_atom_site_label
_atom_site_fract_x
_atom_site_fract_y
_atom_site_fract_z
Si Si1 0.642550 0.431147 0.268985
Si Si2 0.829753 0.637586 0.051715
Si Si3 0.355382 0.612727 0.298804
Si Si4 0.424446 0.213697 0.585856
Si Si5 0.447078 0.734095 0.104719
Si Si6 0.188006 0.866024 0.491911
Si Si7 0.664529 0.081304 0.192457
Si Si8 0.906231 0.217761 0.328127
O O1 0.838920 0.617056 0.128306
O O2 0.552339 0.564967 0.286811
O O3 0.746788 0.315988 0.319421
O O4 0.390607 0.179000 0.350821
O O5 0.673238 0.736881 0.045186
O O6 0.692224 0.340915 0.131692
O O7 0.099470 0.820245 0.920244
O O8 0.398464 0.697252 0.196729
O O9 0.075037 0.336275 0.435772
O O10 0.420783 0.847391 0.265262
O O11 0.500000 0.500000 0.500000
O O12 0.665222 0.246805 0.511006
O O13 0.335455 0.046539 0.710581
O O14 0.209783 0.027653 0.628028
O O15 0.194401 0.471565 0.194705
O O16 0.500000 0.000000 0.000000
O O17 0.130848 0.869874 0.571796
#
# Coordination Sequence:
#
# PCOD9091319 Si02
#       8
#     2   2   2   2   2   2   2   2
#     4  10  19  39  65  88 119 164 210 255 308 372
#     4  10  23  43  63  89 130 168 209 256 315 379
#     4  10  24  36  63  94 121 161 209 260 315 365
#     4  11  24  40  63  95 128 170 210 253 318 381
#     4  10  24  41  65  95 122 164 218 268 312 369
#     4  10  21  41  58  92 126 158 210 258 312 367
#     4  11  24  41  63  93 130 171 210 251 319 383
#     4  10  22  40  65  90 126 162 211 264 318 366
#
# _framework density 20.792870000000001
#
# number of rings (size 3 to 8) (size 9 to 14) (size 15 to 20)
#    0.000    1.750    2.500    1.875    7.000    3.500 
#    0.000    1.250    0.000    0.000    0.000    0.000 
#    0.000    0.000    0.000    0.000    0.000    0.000 
#
# Total GULP energy -89431.232132 kJ/mol
# GULP energy per Si atom -5589.452008 kJ/mol
# Density = 2.074554 g / cm^3
# Si number density = 20.792870 Si / 1000 Ang^3
#
#
#
# Elastic Constant Matrix: (Units=GPa)
#
#
# Indices 1 2 3 4 5 6 
#
# 1 40.0649 12.7242 16.1180 -9.7985 0.2367 -2.7149
# 2 12.7242 74.6226 25.6793 -19.2849 0.2494 4.4877
# 3 16.1180 25.6793 88.3073 1.3778 2.9080 0.9383
# 4 -9.7985 -19.2849 1.3778 32.2772 -8.9614 1.7644
# 5 0.2367 0.2494 2.9080 -8.9614 23.2772 -9.3089
# 6 -2.7149 4.4877 0.9383 1.7644 -9.3089 35.2653
#
#
#
# Elastic Compliance Matrix: (Units=1/GPa)
#
#
# Indices 1 2 3 4 5 6 
#
# 1 0.030243 -0.000741 -0.005698 0.010411 0.005860 0.003600
# 2 -0.000741 0.018845 -0.005680 0.012680 0.004720 -0.001693
# 3 -0.005698 -0.005680 0.014293 -0.007001 -0.004763 -0.001003
# 4 0.010411 0.012680 -0.007001 0.047382 0.019762 0.002220
# 5 0.005860 0.004720 -0.004763 0.019762 0.056627 0.013936
# 6 0.003600 -0.001693 -0.001003 0.002220 0.013936 0.032443
#
#
# Mechanical properties :
#
#
# Convention : Reuss Voigt Hill
#
# Bulk Modulus (GPa) = 25.54847 34.67087 30.10967
# Shear Modulus (GPa) = 21.08650 28.06214 24.57432
#
# Velocity S-wave (km/s) = 3.18798 3.67768 3.44155
# Velocity P-wave (km/s) = 5.08574 5.89444 5.50496
#
# Compressibility (1/GPa) = 0.03914129
#
# Stress axis : x y z
#
# Youngs Moduli (GPa) = 33.06567 53.06566 69.96662
#
# Poissons Ratio (x) = 0.03935 0.39867
# Poissons Ratio (y) = 0.02452 0.39740
# Poissons Ratio (z) = 0.18841 0.30141
#
# Static dielectric constant tensor:
#      x y z
#    x 1.742490 0.005380 -0.011540 
#    y 0.005380 1.752200 -0.016140 
#    z -0.011540 -0.016140 1.749200 
# 
# From -- ./inp_files/175119.got.cif
#   From: 2010.05.17/outbox.cif.g08.bks.cpg/sg2_88_cif.got.tgz:175119.got - 2010.06.03 11:33:40.
