data_PCOD9091722
_publ_section_title
;
Structure prediction by ZEFSAII (Michael W. Deem and Ramdas Pophale) SiO2 
 PCOD9091722
Probable space group: P -1
;
_chemical_formula_sum "Si O2"
_cell_formula_units_Z 12
_cell_length_a 9.491901
_cell_length_b 16.188436
_cell_length_c 7.215132
_cell_angle_alpha 110.707532
_cell_angle_beta 65.423056
_cell_angle_gamma 151.752421
_cell_volume 476.966299
_symmetry_space_group_name_H-M "P -1"
_symmetry_group_IT_number 2
_symmetry_cell_setting 'triclinic'
loop_
_space_group_symop_operation_xyz
x,y,z
-x,-y,-z
loop_
_atom_site_type_symbol
_atom_site_label
_atom_site_fract_x
_atom_site_fract_y
_atom_site_fract_z
Si Si1 0.205486 0.732872 0.482622
Si Si2 0.243625 0.946765 0.083431
Si Si3 0.138084 0.164965 0.099640
Si Si4 0.655281 0.862787 0.567703
Si Si5 0.288852 0.582847 0.258314
Si Si6 0.843173 0.708413 0.466208
O O1 0.547109 0.888337 0.502836
O O2 0.082599 0.753738 0.452470
O O3 0.825782 0.375151 0.699183
O O4 0.533658 0.668804 0.048876
O O5 0.973690 0.795432 0.260468
O O6 0.396251 0.115869 0.191323
O O7 0.093457 0.882990 0.915923
O O8 0.500000 0.000000 0.000000
O O9 0.172880 0.215262 0.327875
O O10 0.000000 0.000000 0.000000
O O11 0.462596 0.689371 0.443633
O O12 0.000000 0.000000 0.500000
O O13 0.500000 0.500000 0.500000
O O14 0.010452 0.384569 0.310823
#
# Coordination Sequence:
#
# PCOD9091722 Si02
#       6
#     2   2   2   2   2   2
#     4   9  21  42  71 104 151 191 238 307 368 434
#     4  12  27  44  71 107 146 190 245 306 370 435
#     4  12  27  47  76 106 145 198 250 302 370 441
#     4  10  19  39  71 102 141 187 240 296 360 430
#     4   9  20  42  72 103 146 195 238 302 367 435
#     4  12  29  47  73 108 153 194 247 305 374 444
#
# _framework density 25.159013000000002
#
# number of rings (size 3 to 8) (size 9 to 14) (size 15 to 20)
#    1.000    0.333    1.667    3.000    2.333    5.333 
#    0.000    0.833    0.000    0.000    0.000    0.000 
#    0.000    0.000    0.000    0.000    0.000    0.000 
#
# Total GULP energy -67058.264764 kJ/mol
# GULP energy per Si atom -5588.188730 kJ/mol
# Density = 2.510175 g / cm^3
# Si number density = 25.159013 Si / 1000 Ang^3
#
#
#
# Elastic Constant Matrix: (Units=GPa)
#
#
# Indices 1 2 3 4 5 6 
#
# 1 135.7488 32.8915 21.9712 -0.9750 -15.8012 10.8174
# 2 32.8915 114.9472 44.7106 -9.1970 -0.3106 10.9248
# 3 21.9712 44.7106 110.4180 -2.3652 -1.5252 8.4159
# 4 -0.9750 -9.1970 -2.3652 35.8617 1.9529 -8.9383
# 5 -15.8012 -0.3106 -1.5252 1.9529 46.5631 -6.5345
# 6 10.8174 10.9248 8.4159 -8.9383 -6.5345 37.1505
#
#
#
# Elastic Compliance Matrix: (Units=1/GPa)
#
#
# Indices 1 2 3 4 5 6 
#
# 1 0.008394 -0.002050 -0.000714 -0.000842 0.002648 -0.001416
# 2 -0.002050 0.011139 -0.003960 0.002241 -0.001045 -0.001426
# 3 -0.000714 -0.003960 0.010883 -0.000627 -0.000062 -0.001255
# 4 -0.000842 0.002241 -0.000627 0.030141 -0.000590 0.006876
# 5 0.002648 -0.001045 -0.000062 -0.000590 0.022872 0.003431
# 6 -0.001416 -0.001426 -0.001255 0.006876 0.003431 0.030291
#
#
# Mechanical properties :
#
#
# Convention : Reuss Voigt Hill
#
# Bulk Modulus (GPa) = 58.93266 62.25118 60.59192
# Shear Modulus (GPa) = 37.64377 41.35112 39.49745
#
# Velocity S-wave (km/s) = 3.87232 4.05852 3.96651
# Velocity P-wave (km/s) = 6.59303 6.83805 6.71666
#
# Compressibility (1/GPa) = 0.01696852
#
# Stress axis : x y z
#
# Youngs Moduli (GPa) = 119.13611 89.77815 91.88303
#
# Poissons Ratio (x) = 0.18403 0.06558
# Poissons Ratio (y) = 0.24420 0.36387
# Poissons Ratio (z) = 0.08503 0.35553
#
# Static dielectric constant tensor:
#      x y z
#    x 2.023710 -0.053550 0.006830 
#    y -0.053550 2.077220 0.023290 
#    z 0.006830 0.023290 1.988460 
# 
# From -- ./inp_files/197453.got.cif
#   From: 2010.05.17/outbox.cif.g08.bks.cpg/sg2_99_cif.got.tgz:197453.got - 2010.06.03 11:33:40.
