data_PCOD9091158
_publ_section_title
;
Structure prediction by ZEFSAII (Michael W. Deem and Ramdas Pophale) SiO2 
 PCOD9091158
Probable space group: P -1
;
_chemical_formula_sum "Si O2"
_cell_formula_units_Z 16
_cell_length_a 9.075969
_cell_length_b 11.466375
_cell_length_c 9.944238
_cell_angle_alpha 121.981460
_cell_angle_beta 122.256451
_cell_angle_gamma 64.305602
_cell_volume 725.722262
_symmetry_space_group_name_H-M "P -1"
_symmetry_group_IT_number 2
_symmetry_cell_setting 'triclinic'
loop_
_space_group_symop_operation_xyz
x,y,z
-x,-y,-z
loop_
_atom_site_type_symbol
_atom_site_label
_atom_site_fract_x
_atom_site_fract_y
_atom_site_fract_z
Si Si1 0.376451 0.126707 0.098765
Si Si2 0.341132 0.747597 0.808745
Si Si3 0.785875 0.038056 0.886748
Si Si4 0.056516 0.328461 0.993451
Si Si5 0.118430 0.852624 0.517831
Si Si6 0.607368 0.543724 0.207912
Si Si7 0.057015 0.416705 0.761637
Si Si8 0.298002 0.782567 0.297927
O O1 0.479105 0.248836 0.185329
O O2 0.181743 0.175987 0.970917
O O3 0.500000 0.000000 0.000000
O O4 0.323477 0.078796 0.189764
O O5 0.307225 0.828532 0.984240
O O6 0.191408 0.839104 0.695588
O O7 0.343107 0.586962 0.745713
O O8 0.746672 0.084954 0.743188
O O9 0.000000 0.000000 0.000000
O O10 0.067589 0.427570 0.187879
O O11 0.124701 0.396567 0.936575
O O12 0.857649 0.303539 0.863879
O O13 0.276750 0.824324 0.468418
O O14 0.025573 0.718773 0.382092
O O15 0.000000 0.000000 0.500000
O O16 0.788047 0.578697 0.262167
O O17 0.483091 0.679751 0.294527
O O18 0.500000 0.500000 0.000000
#
# Coordination Sequence:
#
# PCOD9091158 Si02
#       8
#     2   2   2   2   2   2   2   2
#     4  10  23  35  62  97 133 169 220 274 330 382
#     4  11  25  42  64  94 138 176 217 273 332 393
#     4  11  20  38  65  99 125 168 228 276 318 378
#     4  10  19  39  63  99 129 171 224 272 335 389
#     4  11  27  48  65  92 140 186 219 260 340 419
#     4  12  22  42  68 105 132 160 227 291 330 374
#     4  10  23  38  69  94 129 177 221 272 333 393
#     4  11  23  41  69  97 133 173 217 280 332 388
#
# _framework density 22.047001000000002
#
# number of rings (size 3 to 8) (size 9 to 14) (size 15 to 20)
#    0.000    1.250    3.750    1.500   10.500    1.000 
#    0.000    3.750    0.000    0.000    0.000    0.000 
#    0.000    0.000    0.000    0.000    0.000    0.000 
#
# Total GULP energy -89240.740915 kJ/mol
# GULP energy per Si atom -5577.546307 kJ/mol
# Density = 2.199682 g / cm^3
# Si number density = 22.047001 Si / 1000 Ang^3
#
#
#
# Elastic Constant Matrix: (Units=GPa)
#
#
# Indices 1 2 3 4 5 6 
#
# 1 157.4714 50.8804 2.2958 -5.3611 -16.3198 18.6425
# 2 50.8804 87.4048 3.2837 -17.8164 -9.4630 -1.7211
# 3 2.2958 3.2837 26.0556 -8.6213 -9.6453 2.9126
# 4 -5.3611 -17.8164 -8.6213 28.0258 4.8344 -9.5545
# 5 -16.3198 -9.4630 -9.6453 4.8344 25.1301 -3.9771
# 6 18.6425 -1.7211 2.9126 -9.5545 -3.9771 49.0410
#
#
#
# Elastic Compliance Matrix: (Units=1/GPa)
#
#
# Indices 1 2 3 4 5 6 
#
# 1 0.008924 -0.005628 0.000613 -0.003746 0.003993 -0.004032
# 2 -0.005628 0.017464 0.002640 0.012183 0.002408 0.005165
# 3 0.000613 0.002640 0.049127 0.014250 0.017689 0.001153
# 4 -0.003746 0.012183 0.014250 0.050879 -0.000442 0.010882
# 5 0.003993 0.002408 0.017689 -0.000442 0.050407 0.001518
# 6 -0.004032 0.005165 0.001153 0.010882 0.001518 0.024280
#
#
# Mechanical properties :
#
#
# Convention : Reuss Voigt Hill
#
# Bulk Modulus (GPa) = 14.13155 42.65018 28.39086
# Shear Modulus (GPa) = 21.79405 34.73750 28.26577
#
# Velocity S-wave (km/s) = 3.14750 3.97370 3.58448
# Velocity P-wave (km/s) = 4.43087 6.35931 5.48058
#
# Compressibility (1/GPa) = 0.07076366
#
# Stress axis : x y z
#
# Youngs Moduli (GPa) = 112.06149 57.26076 20.35537
#
# Poissons Ratio (x) = 0.32228 -0.01247
# Poissons Ratio (y) = 0.63072 -0.05374
# Poissons Ratio (z) = -0.06864 -0.15118
#
# Static dielectric constant tensor:
#      x y z
#    x 1.806540 0.014570 0.030840 
#    y 0.014570 1.915410 0.017910 
#    z 0.030840 0.017910 1.862220 
# 
# From -- ./inp_files/189560.got.cif
#   From: 2010.05.17/outbox.cif.g08.bks.cpg/sg2_95_cif.got.tgz:189560.got - 2010.06.03 11:33:40.
