data_PCOD9091664
_publ_section_title
;
Structure prediction by ZEFSAII (Michael W. Deem and Ramdas Pophale) SiO2 
 PCOD9091664
Probable space group: P -1
;
_chemical_formula_sum "Si O2"
_cell_formula_units_Z 16
_cell_length_a 14.041202
_cell_length_b 9.455555
_cell_length_c 9.057974
_cell_angle_alpha 116.317416
_cell_angle_beta 111.167531
_cell_angle_gamma 39.380814
_cell_volume 683.573626
_symmetry_space_group_name_H-M "P -1"
_symmetry_group_IT_number 2
_symmetry_cell_setting 'triclinic'
loop_
_space_group_symop_operation_xyz
x,y,z
-x,-y,-z
loop_
_atom_site_type_symbol
_atom_site_label
_atom_site_fract_x
_atom_site_fract_y
_atom_site_fract_z
Si Si1 0.388803 0.162149 0.143119
Si Si2 0.068855 0.592350 0.203765
Si Si3 0.921682 0.534189 0.319462
Si Si4 0.423897 0.492163 0.318645
Si Si5 0.067126 0.086667 0.015033
Si Si6 0.345959 0.641349 0.813227
Si Si7 0.418699 0.189313 0.673185
Si Si8 0.169945 0.767381 0.479178
O O1 0.211878 0.338532 0.097848
O O2 0.427850 0.301616 0.263669
O O3 0.448864 0.977582 0.212919
O O4 0.500000 0.000000 0.000000
O O5 0.001345 0.772150 0.115354
O O6 0.158554 0.591620 0.378705
O O7 0.949724 0.629787 0.248533
O O8 0.744016 0.702022 0.323682
O O9 0.000000 0.500000 0.500000
O O10 0.013723 0.278373 0.191212
O O11 0.500000 0.500000 0.500000
O O12 0.501265 0.443424 0.185998
O O13 0.249992 0.733006 0.357573
O O14 0.241572 0.847408 0.968292
O O15 0.000000 0.000000 0.000000
O O16 0.382752 0.415510 0.747540
O O17 0.250002 0.745766 0.655654
O O18 0.500000 0.000000 0.500000
O O19 0.000000 0.000000 0.500000
#
# Coordination Sequence:
#
# PCOD9091664 Si02
#       8
#     2   2   2   2   2   2   2   2
#     4  11  25  44  70  99 141 183 234 287 355 430
#     4  11  25  45  74 107 141 191 241 291 363 433
#     4  12  27  47  75 109 144 191 249 297 364 438
#     4   9  21  40  66 100 134 178 231 277 348 426
#     4  12  26  47  74 106 151 187 242 310 363 424
#     4  11  23  43  70 105 141 187 238 297 367 420
#     4  12  25  47  72 100 147 190 233 296 363 433
#     4  10  19  39  69 104 138 177 235 292 351 428
#
# _framework density 23.406402
#
# number of rings (size 3 to 8) (size 9 to 14) (size 15 to 20)
#    0.000    1.000    2.500    4.875    3.500    1.000 
#    0.000    6.875    0.000    0.000    0.000    0.000 
#    0.000    0.000    0.000    0.000    0.000    0.000 
#
# Total GULP energy -89252.797281 kJ/mol
# GULP energy per Si atom -5578.299830 kJ/mol
# Density = 2.335313 g / cm^3
# Si number density = 23.406402 Si / 1000 Ang^3
#
#
#
# Elastic Constant Matrix: (Units=GPa)
#
#
# Indices 1 2 3 4 5 6 
#
# 1 153.1267 61.8976 31.7489 23.2062 -36.8497 -12.3369
# 2 61.8976 131.7492 46.6973 14.6759 -35.8912 -14.2901
# 3 31.7489 46.6973 119.2377 33.2797 -10.2903 -2.4257
# 4 23.2062 14.6759 33.2797 43.7501 -9.2960 -11.8624
# 5 -36.8497 -35.8912 -10.2903 -9.2960 42.2972 8.4260
# 6 -12.3369 -14.2901 -2.4257 -11.8624 8.4260 32.3753
#
#
#
# Elastic Compliance Matrix: (Units=1/GPa)
#
#
# Indices 1 2 3 4 5 6 
#
# 1 0.009297 -0.002527 -0.000260 -0.002758 0.005281 0.000023
# 2 -0.002527 0.012272 -0.004253 0.002880 0.007147 0.003330
# 3 -0.000260 -0.004253 0.012502 -0.009463 -0.002083 -0.003964
# 4 -0.002758 0.002880 -0.009463 0.034251 0.003021 0.011275
# 5 0.005281 0.007147 -0.002083 0.003021 0.035064 -0.003008
# 6 0.000023 0.003330 -0.003964 0.011275 -0.003008 0.036983
#
#
# Mechanical properties :
#
#
# Convention : Reuss Voigt Hill
#
# Bulk Modulus (GPa) = 50.02147 76.08902 63.05524
# Shear Modulus (GPa) = 31.03431 41.26917 36.15174
#
# Velocity S-wave (km/s) = 3.64523 4.20355 3.93431
# Velocity P-wave (km/s) = 6.25573 7.49254 6.90189
#
# Compressibility (1/GPa) = 0.01999142
#
# Stress axis : x y z
#
# Youngs Moduli (GPa) = 107.56633 81.48541 79.98705
#
# Poissons Ratio (x) = 0.20594 0.02078
# Poissons Ratio (y) = 0.27186 0.34015
# Poissons Ratio (z) = 0.02794 0.34653
#
# Static dielectric constant tensor:
#      x y z
#    x 1.952290 -0.002600 0.002170 
#    y -0.002600 1.823660 -0.028100 
#    z 0.002170 -0.028100 1.796500 
# 
# From -- ./inp_files/299238.got.cif
#   From: 2010.05.17/outbox.cif.g08.bks.cpg/sg2_150_cif.got.tgz:299238.got - 2010.06.03 11:33:40.
