data_PCOD9091659
_publ_section_title
;
Structure prediction by ZEFSAII (Michael W. Deem and Ramdas Pophale) SiO2 
 PCOD9091659
Probable space group: P -1
;
_chemical_formula_sum "Si O2"
_cell_formula_units_Z 16
_cell_length_a 8.720366
_cell_length_b 14.286421
_cell_length_c 11.078999
_cell_angle_alpha 139.815109
_cell_angle_beta 113.518560
_cell_angle_gamma 60.644074
_cell_volume 775.515386
_symmetry_space_group_name_H-M "P -1"
_symmetry_group_IT_number 2
_symmetry_cell_setting 'triclinic'
loop_
_space_group_symop_operation_xyz
x,y,z
-x,-y,-z
loop_
_atom_site_type_symbol
_atom_site_label
_atom_site_fract_x
_atom_site_fract_y
_atom_site_fract_z
Si Si1 0.628090 0.096373 0.968576
Si Si2 0.106808 0.567063 0.198223
Si Si3 0.171505 0.856381 0.380346
Si Si4 0.603972 0.605718 0.695497
Si Si5 0.083185 0.904776 0.130765
Si Si6 0.919093 0.762794 0.554480
Si Si7 0.508955 0.944596 0.584734
Si Si8 0.163903 0.237484 0.209446
O O1 0.792143 0.120066 0.971392
O O2 0.495548 0.082319 0.807923
O O3 0.694827 0.929655 0.885296
O O4 0.539792 0.232769 0.162391
O O5 0.148738 0.705429 0.280131
O O6 0.285676 0.458483 0.210444
O O7 0.990233 0.641363 0.352474
O O8 0.000000 0.500000 0.000000
O O9 0.182641 0.851678 0.234158
O O10 0.352114 0.879691 0.503270
O O11 0.000000 0.000000 0.500000
O O12 0.500000 0.500000 0.500000
O O13 0.742141 0.642717 0.684395
O O14 0.009589 0.090802 0.297387
O O15 0.952381 0.807405 0.973984
O O16 0.706484 0.829281 0.544694
O O17 0.946809 0.712104 0.652387
O O18 0.500000 0.000000 0.500000
#
# Coordination Sequence:
#
# PCOD9091659 Si02
#       8
#     2   2   2   2   2   2   2   2
#     4  10  23  42  72  96 130 168 229 277 323 400
#     4  12  29  46  64 100 143 180 219 275 341 402
#     4  12  23  40  72  99 135 175 226 274 332 396
#     4  12  30  45  63 101 144 179 217 276 343 403
#     4  10  20  40  73 104 121 170 231 283 322 385
#     4  10  22  43  70  97 131 170 224 284 323 400
#     4  10  19  39  69 100 125 166 229 279 323 377
#     4  10  23  45  73  94 125 177 233 271 333 390
#
# _framework density 20.631442
#
# number of rings (size 3 to 8) (size 9 to 14) (size 15 to 20)
#    0.000    1.500    3.750    2.625   12.250    0.500 
#    2.250    1.250    0.000    0.000    0.000    0.000 
#    0.000    0.000    0.000    0.000    0.000    0.000 
#
# Total GULP energy -89316.642899 kJ/mol
# GULP energy per Si atom -5582.290181 kJ/mol
# Density = 2.058448 g / cm^3
# Si number density = 20.631442 Si / 1000 Ang^3
#
#
#
# Elastic Constant Matrix: (Units=GPa)
#
#
# Indices 1 2 3 4 5 6 
#
# 1 69.5685 12.9678 52.9958 15.1865 22.9778 8.6446
# 2 12.9678 63.8497 12.6429 2.0932 9.4003 13.7410
# 3 52.9958 12.6429 141.2509 -6.1617 18.1921 1.9512
# 4 15.1865 2.0932 -6.1617 26.6987 -1.5787 6.1679
# 5 22.9778 9.4003 18.1921 -1.5787 45.3629 3.4069
# 6 8.6446 13.7410 1.9512 6.1679 3.4069 32.2247
#
#
#
# Elastic Compliance Matrix: (Units=1/GPa)
#
#
# Indices 1 2 3 4 5 6 
#
# 1 0.031920 -0.001382 -0.011193 -0.020868 -0.011966 -0.002036
# 2 -0.001382 0.017908 -0.000672 0.000747 -0.002179 -0.007137
# 3 -0.011193 -0.000672 0.011536 0.009002 0.001442 0.000715
# 4 -0.020868 0.000747 0.009002 0.053375 0.009147 -0.006449
# 5 -0.011966 -0.002179 0.001442 0.009147 0.028350 -0.000696
# 6 -0.002036 -0.007137 0.000715 -0.006449 -0.000696 0.035886
#
#
# Mechanical properties :
#
#
# Convention : Reuss Voigt Hill
#
# Bulk Modulus (GPa) = 28.67953 47.98689 38.33321
# Shear Modulus (GPa) = 23.03154 33.92807 28.47981
#
# Velocity S-wave (km/s) = 3.34478 4.05962 3.71941
# Velocity P-wave (km/s) = 5.37101 6.72931 6.08816
#
# Compressibility (1/GPa) = 0.03486808
#
# Stress axis : x y z
#
# Youngs Moduli (GPa) = 31.32868 55.84093 86.68197
#
# Poissons Ratio (x) = 0.07720 0.97025
# Poissons Ratio (y) = 0.04331 0.05828
# Poissons Ratio (z) = 0.35067 0.03755
#
# Static dielectric constant tensor:
#      x y z
#    x 1.760230 -0.038060 0.040160 
#    y -0.038060 1.804020 -0.086380 
#    z 0.040160 -0.086380 1.870280 
# 
# From -- ./inp_files/399844.got.cif
#   From: 2010.05.17/outbox.cif.g08.bks.cpg/sg2_200_cif.got.tgz:399844.got - 2010.06.03 11:33:40.
