data_PCOD9091699
_publ_section_title
;
Structure prediction by ZEFSAII (Michael W. Deem and Ramdas Pophale) SiO2 
 PCOD9091699
Probable space group: P -1
;
_chemical_formula_sum "Si O2"
_cell_formula_units_Z 16
_cell_length_a 9.465144
_cell_length_b 11.182463
_cell_length_c 10.702195
_cell_angle_alpha 123.016110
_cell_angle_beta 110.416250
_cell_angle_gamma 46.772581
_cell_volume 691.541394
_symmetry_space_group_name_H-M "P -1"
_symmetry_group_IT_number 2
_symmetry_cell_setting 'triclinic'
loop_
_space_group_symop_operation_xyz
x,y,z
-x,-y,-z
loop_
_atom_site_type_symbol
_atom_site_label
_atom_site_fract_x
_atom_site_fract_y
_atom_site_fract_z
Si Si1 0.027652 0.666791 0.911252
Si Si2 0.369278 0.283849 0.901752
Si Si3 0.671411 0.304694 0.001806
Si Si4 0.169504 0.353568 0.377973
Si Si5 0.360961 0.988890 0.367933
Si Si6 0.790316 0.933822 0.203066
Si Si7 0.538294 0.326370 0.472696
Si Si8 0.176250 0.851920 0.314774
O O1 0.177725 0.496108 0.954176
O O2 0.919787 0.611798 0.766673
O O3 0.167559 0.687341 0.883342
O O4 0.867223 0.853162 0.041750
O O5 0.548720 0.258245 0.013166
O O6 0.306650 0.159934 0.842752
O O7 0.478092 0.209112 0.759107
O O8 0.787149 0.187614 0.845657
O O9 0.500000 0.500000 0.000000
O O10 0.257910 0.146955 0.323373
O O11 0.337697 0.366383 0.456328
O O12 0.000000 0.500000 0.500000
O O13 0.500000 0.000000 0.500000
O O14 0.194934 0.012840 0.413300
O O15 0.987637 0.872008 0.296988
O O16 0.650230 0.148416 0.314580
O O17 0.500000 0.500000 0.500000
O O18 0.656101 0.284513 0.613292
#
# Coordination Sequence:
#
# PCOD9091699 Si02
#       8
#     2   2   2   2   2   2   2   2
#     4  10  23  42  67 105 137 171 226 282 347 402
#     4  10  19  39  69  99 132 178 227 276 332 403
#     4   8  18  37  65  97 128 170 224 274 324 388
#     4  12  27  44  69  99 139 178 231 283 342 393
#     4  11  20  41  67  94 126 180 230 279 324 396
#     4  11  23  45  67  99 139 182 227 270 341 417
#     4  12  28  46  64 100 143 184 220 281 347 398
#     4  10  22  41  69  94 127 175 232 270 329 400
#
# _framework density 23.136721999999999
#
# number of rings (size 3 to 8) (size 9 to 14) (size 15 to 20)
#    0.000    1.500    2.500    1.500    7.000    0.500 
#    0.000    6.875    0.000    0.000    0.000    0.000 
#    0.000    0.000    0.000    0.000    0.000    0.000 
#
# Total GULP energy -89127.409888 kJ/mol
# GULP energy per Si atom -5570.463118 kJ/mol
# Density = 2.308406 g / cm^3
# Si number density = 23.136722 Si / 1000 Ang^3
#
#
#
# Elastic Constant Matrix: (Units=GPa)
#
#
# Indices 1 2 3 4 5 6 
#
# 1 181.0036 48.4522 21.6695 3.5852 33.5330 -3.5822
# 2 48.4522 76.3795 10.9315 15.8429 3.7635 0.5890
# 3 21.6695 10.9315 48.0618 13.8055 5.1715 -18.9123
# 4 3.5852 15.8429 13.8055 28.4005 -1.0462 -1.9140
# 5 33.5330 3.7635 5.1715 -1.0462 30.1663 10.4389
# 6 -3.5822 0.5890 -18.9123 -1.9140 10.4389 38.5669
#
#
#
# Elastic Compliance Matrix: (Units=1/GPa)
#
#
# Indices 1 2 3 4 5 6 
#
# 1 0.009076 -0.005610 -0.001100 0.002362 -0.010255 0.003282
# 2 -0.005610 0.018461 -0.000620 -0.009307 0.004699 -0.002841
# 3 -0.001100 -0.000620 0.034870 -0.015594 -0.011956 0.019469
# 4 0.002362 -0.009307 -0.015594 0.047446 0.005032 -0.006293
# 5 -0.010255 0.004699 -0.011956 0.005032 0.053494 -0.021117
# 6 0.003282 -0.002841 0.019469 -0.006293 -0.021117 0.041228
#
#
# Mechanical properties :
#
#
# Convention : Reuss Voigt Hill
#
# Bulk Modulus (GPa) = 20.94286 51.95015 36.44650
# Shear Modulus (GPa) = 21.26307 34.38619 27.82463
#
# Velocity S-wave (km/s) = 3.03482 3.85933 3.47164
# Velocity P-wave (km/s) = 4.62078 6.50857 5.64416
#
# Compressibility (1/GPa) = 0.04774897
#
# Stress axis : x y z
#
# Youngs Moduli (GPa) = 110.17979 54.16865 28.67772
#
# Poissons Ratio (x) = 0.30389 0.03153
# Poissons Ratio (y) = 0.61811 0.01777
# Poissons Ratio (z) = 0.12115 0.03356
#
# Static dielectric constant tensor:
#      x y z
#    x 1.972100 0.033110 0.080330 
#    y 0.033110 1.939350 -0.007290 
#    z 0.080330 -0.007290 2.028120 
# 
# From -- ./inp_files/391084.got.cif
#   From: 2010.05.17/outbox.cif.g08.bks.cpg/sg2_196_cif.got.tgz:391084.got - 2010.06.03 11:33:40.
