data_PCOD9091308
_publ_section_title
;
Structure prediction by ZEFSAII (Michael W. Deem and Ramdas Pophale) SiO2 
 PCOD9091308
Probable space group: P -1
;
_chemical_formula_sum "Si O2"
_cell_formula_units_Z 14
_cell_length_a 11.911293
_cell_length_b 19.025815
_cell_length_c 14.993325
_cell_angle_alpha 25.812159
_cell_angle_beta 29.389444
_cell_angle_gamma 47.075663
_cell_volume 635.495326
_symmetry_space_group_name_H-M "P -1"
_symmetry_group_IT_number 2
_symmetry_cell_setting 'triclinic'
loop_
_space_group_symop_operation_xyz
x,y,z
-x,-y,-z
loop_
_atom_site_type_symbol
_atom_site_label
_atom_site_fract_x
_atom_site_fract_y
_atom_site_fract_z
Si Si1 0.774477 0.528806 0.245426
Si Si2 0.414953 0.144237 0.433422
Si Si3 0.286374 0.370528 0.024038
Si Si4 0.270543 0.656436 0.174893
Si Si5 0.078089 0.817730 0.258901
Si Si6 0.252418 0.865026 0.269442
Si Si7 0.783308 0.412431 0.018609
O O1 0.500000 0.500000 0.500000
O O2 0.764624 0.332406 0.479468
O O3 0.805593 0.601498 0.040775
O O4 0.004836 0.641457 0.027642
O O5 0.118099 0.099163 0.703644
O O6 0.571894 0.249745 0.291940
O O7 0.500000 0.000000 0.500000
O O8 0.528247 0.290161 0.106710
O O9 0.039915 0.178967 0.448520
O O10 0.568288 0.380107 0.817083
O O11 0.321163 0.530444 0.886684
O O12 0.000000 0.500000 0.500000
O O13 0.208274 0.810062 0.084883
O O14 0.278483 0.913908 0.091183
O O15 0.916930 0.600206 0.650889
O O16 0.500000 0.000000 0.000000
#
# Coordination Sequence:
#
# PCOD9091308 Si02
#       7
#     2   2   2   2   2   2   2
#     4  10  21  38  61  95 123 162 219 255 303 384
#     4  12  25  42  61  95 131 159 211 273 314 364
#     4  10  20  41  67  94 123 167 220 258 307 384
#     4  12  22  40  70  92 121 174 213 252 316 382
#     4  10  21  42  64  90 125 166 216 247 313 388
#     4  10  21  40  63  90 129 166 202 267 320 368
#     4  10  19  39  65  85 122 171 205 255 307 377
#
# _framework density 22.030059999999999
#
# number of rings (size 3 to 8) (size 9 to 14) (size 15 to 20)
#    0.000    1.714    4.286    4.714    0.000    1.714 
#    5.143    1.429    0.000    0.000    0.000    0.000 
#    0.000    0.000    0.000    0.000    0.000    0.000 
#
# Total GULP energy -78101.639547 kJ/mol
# GULP energy per Si atom -5578.688539 kJ/mol
# Density = 2.197992 g / cm^3
# Si number density = 22.030060 Si / 1000 Ang^3
#
#
#
# Elastic Constant Matrix: (Units=GPa)
#
#
# Indices 1 2 3 4 5 6 
#
# 1 148.1874 43.3194 30.5422 -0.3187 -38.5379 4.9129
# 2 43.3194 103.5010 21.2828 26.0525 -22.5009 -0.8419
# 3 30.5422 21.2828 35.7548 5.5723 -27.7087 5.8341
# 4 -0.3187 26.0525 5.5723 32.7727 7.3583 -4.5725
# 5 -38.5379 -22.5009 -27.7087 7.3583 46.0753 4.0306
# 6 4.9129 -0.8419 5.8341 -4.5725 4.0306 47.5480
#
#
#
# Elastic Compliance Matrix: (Units=1/GPa)
#
#
# Indices 1 2 3 4 5 6 
#
# 1 0.009374 -0.002750 -0.002985 0.001649 0.004516 -0.000875
# 2 -0.002750 0.016605 0.004212 -0.016818 0.011247 -0.002509
# 3 -0.002985 0.004212 0.074070 -0.029443 0.050188 -0.015791
# 4 0.001649 -0.016818 -0.029443 0.058373 -0.034887 0.011715
# 5 0.004516 0.011247 0.050188 -0.034887 0.068087 -0.015552
# 6 -0.000875 -0.002509 -0.015791 0.011715 -0.015552 0.025460
#
#
# Mechanical properties :
#
#
# Convention : Reuss Voigt Hill
#
# Bulk Modulus (GPa) = 10.30904 53.08132 31.69518
# Shear Modulus (GPa) = 17.40038 38.09912 27.74975
#
# Velocity S-wave (km/s) = 2.81347 4.16314 3.55298
# Velocity P-wave (km/s) = 3.90434 6.87431 5.59017
#
# Compressibility (1/GPa) = 0.09700222
#
# Stress axis : x y z
#
# Youngs Moduli (GPa) = 106.67356 60.22395 13.50069
#
# Poissons Ratio (x) = 0.16563 0.04030
# Poissons Ratio (y) = 0.29337 -0.05686
# Poissons Ratio (z) = 0.31846 -0.25366
#
# Static dielectric constant tensor:
#      x y z
#    x 1.917090 -0.037470 0.035480 
#    y -0.037470 1.840420 0.039340 
#    z 0.035480 0.039340 1.905630 
# 
# From -- ./inp_files/178559.got.cif
#   From: 2010.05.17/outbox.cif.g08.bks.cpg/sg2_90_cif.got.tgz:178559.got - 2010.06.03 11:33:40.
