data_PCOD9091687
_publ_section_title
;
Structure prediction by ZEFSAII (Michael W. Deem and Ramdas Pophale) SiO2 
 PCOD9091687
Probable space group: P -1
;
_chemical_formula_sum "Si O2"
_cell_formula_units_Z 14
_cell_length_a 17.559680
_cell_length_b 20.159028
_cell_length_c 12.042340
_cell_angle_alpha 151.664491
_cell_angle_beta 40.280937
_cell_angle_gamma 158.775720
_cell_volume 690.089500
_symmetry_space_group_name_H-M "P -1"
_symmetry_group_IT_number 2
_symmetry_cell_setting 'triclinic'
loop_
_space_group_symop_operation_xyz
x,y,z
-x,-y,-z
loop_
_atom_site_type_symbol
_atom_site_label
_atom_site_fract_x
_atom_site_fract_y
_atom_site_fract_z
Si Si1 0.697349 0.264060 0.593243
Si Si2 0.486986 0.150947 0.212486
Si Si3 0.681792 0.776619 0.341940
Si Si4 0.902983 0.729153 0.681701
Si Si5 0.590435 0.759503 0.164216
Si Si6 0.808843 0.152795 0.117561
Si Si7 0.985721 0.062920 0.913636
O O1 0.591818 0.305877 0.741721
O O2 0.731504 0.196138 0.351064
O O3 0.954920 0.558471 0.775833
O O4 0.500000 0.000000 0.500000
O O5 0.338121 0.106133 0.388568
O O6 0.737604 0.454405 0.405585
O O7 0.500000 0.000000 0.000000
O O8 0.382367 0.063460 0.078687
O O9 0.629367 0.768395 0.262764
O O10 0.508217 0.480704 0.134650
O O11 0.909541 0.919618 0.278790
O O12 0.890068 0.849588 0.790703
O O13 0.164108 0.949614 0.722214
O O14 0.846410 0.698589 0.829571
O O15 0.851097 0.054423 0.997079
#
# Coordination Sequence:
#
# PCOD9091687 Si02
#       7
#     2   2   2   2   2   2   2
#     4  11  24  43  69  97 131 175 225 268 320 402
#     4  12  27  42  59  97 139 173 209 272 345 391
#     4  10  20  38  67  92 126 165 220 271 319 385
#     4  10  22  39  71  97 128 167 221 280 318 391
#     4  10  19  39  69  97 117 171 228 266 310 388
#     4  11  26  44  68  96 138 178 211 279 334 384
#     4  10  20  43  70  97 120 174 232 266 319 387
#
# _framework density 20.287223999999998
#
# number of rings (size 3 to 8) (size 9 to 14) (size 15 to 20)
#    0.000    1.429    1.429    5.143    6.000    1.143 
#    5.143    3.571    0.000    0.000    0.000    0.000 
#    0.000    0.000    0.000    0.000    0.000    0.000 
#
# Total GULP energy -77985.215533 kJ/mol
# GULP energy per Si atom -5570.372538 kJ/mol
# Density = 2.024105 g / cm^3
# Si number density = 20.287224 Si / 1000 Ang^3
#
#
#
# Elastic Constant Matrix: (Units=GPa)
#
#
# Indices 1 2 3 4 5 6 
#
# 1 96.2879 16.2754 52.3056 -2.9259 -10.5251 12.5486
# 2 16.2754 111.7217 33.9569 -15.0092 -9.9056 6.0584
# 3 52.3056 33.9569 136.2327 -5.9946 -7.1194 12.8083
# 4 -2.9259 -15.0092 -5.9946 36.5428 3.7585 -9.3764
# 5 -10.5251 -9.9056 -7.1194 3.7585 25.3153 -4.1843
# 6 12.5486 6.0584 12.8083 -9.3764 -4.1843 25.8581
#
#
#
# Elastic Compliance Matrix: (Units=1/GPa)
#
#
# Indices 1 2 3 4 5 6 
#
# 1 0.013934 -0.000174 -0.004765 -0.001206 0.003875 -0.004171
# 2 -0.000174 0.010391 -0.002263 0.003737 0.002901 0.000595
# 3 -0.004765 -0.002263 0.009911 -0.000210 -0.000413 -0.002210
# 4 -0.001206 0.003737 -0.000210 0.031803 -0.001998 0.011022
# 5 0.003875 0.002901 -0.000413 -0.001998 0.043071 0.003890
# 6 -0.004171 0.000595 -0.002210 0.011022 0.003890 0.046278
#
#
# Mechanical properties :
#
#
# Convention : Reuss Voigt Hill
#
# Bulk Modulus (GPa) = 50.42432 61.03534 55.72983
# Shear Modulus (GPa) = 28.34432 33.65686 31.00059
#
# Velocity S-wave (km/s) = 3.74190 4.07752 3.91331
# Velocity P-wave (km/s) = 6.60139 7.23320 6.92450
#
# Compressibility (1/GPa) = 0.01983170
#
# Stress axis : x y z
#
# Youngs Moduli (GPa) = 71.76795 96.23725 100.89977
#
# Poissons Ratio (x) = 0.01674 0.48077
# Poissons Ratio (y) = 0.01248 0.22836
# Poissons Ratio (z) = 0.34196 0.21780
#
# Static dielectric constant tensor:
#      x y z
#    x 1.715530 -0.002620 -0.040720 
#    y -0.002620 1.842130 0.010000 
#    z -0.040720 0.010000 1.740510 
# 
# From -- ./inp_files/467172.got.cif
#   From: 2010.05.17/outbox.cif.g08.bks.cpg/sg2_234_cif.got.tgz:467172.got - 2010.06.03 11:33:40.
