data_PCOD9091023
_publ_section_title
;
Structure prediction by ZEFSAII (Michael W. Deem and Ramdas Pophale) SiO2 
 PCOD9091023
Probable space group: P -1
;
_chemical_formula_sum "Si O2"
_cell_formula_units_Z 16
_cell_length_a 22.795673
_cell_length_b 9.143262
_cell_length_c 9.420758
_cell_angle_alpha 113.648698
_cell_angle_beta 129.683381
_cell_angle_gamma 32.854865
_cell_volume 775.569433
_symmetry_space_group_name_H-M "P -1"
_symmetry_group_IT_number 2
_symmetry_cell_setting 'triclinic'
loop_
_space_group_symop_operation_xyz
x,y,z
-x,-y,-z
loop_
_atom_site_type_symbol
_atom_site_label
_atom_site_fract_x
_atom_site_fract_y
_atom_site_fract_z
Si Si1 0.935721 0.275566 0.959054
Si Si2 0.395613 0.916903 0.602184
Si Si3 0.653385 0.051789 0.141419
Si Si4 0.564667 0.554722 0.270893
Si Si5 0.945893 0.548029 0.282333
Si Si6 0.364242 0.723052 0.246616
Si Si7 0.348918 0.269195 0.436197
Si Si8 0.943758 0.748089 0.100365
O O1 0.772494 0.561624 0.793958
O O2 0.990760 0.217616 0.863697
O O3 0.988171 0.319624 0.167612
O O4 0.000000 0.000000 0.000000
O O5 0.347485 0.018218 0.728935
O O6 0.339206 0.857989 0.409151
O O7 0.554631 0.583963 0.727160
O O8 0.355599 0.134874 0.526669
O O9 0.641798 0.262434 0.228453
O O10 0.787017 0.791172 0.157041
O O11 0.524226 0.229331 0.915406
O O12 0.459966 0.672230 0.277127
O O13 0.662827 0.525046 0.459180
O O14 0.979329 0.642368 0.273303
O O15 0.000000 0.500000 0.500000
O O16 0.218532 0.957677 0.043329
O O17 0.500000 0.000000 0.500000
O O18 0.000000 0.500000 0.000000
#
# Coordination Sequence:
#
# PCOD9091023 Si02
#       8
#     2   2   2   2   2   2   2   2
#     4  11  28  46  67 102 135 175 226 274 330 401
#     4  10  22  34  64  97 125 166 215 275 322 397
#     4  10  22  40  63  98 129 160 225 267 335 379
#     4  10  21  40  67  92 126 172 214 278 319 392
#     4  11  24  42  71  94 132 177 221 273 330 396
#     4  10  19  39  62  94 122 168 230 264 315 387
#     4  12  24  41  68  91 134 172 220 271 334 378
#     4  10  22  41  67  89 133 176 227 266 324 396
#
# _framework density 20.630002000000001
#
# number of rings (size 3 to 8) (size 9 to 14) (size 15 to 20)
#    0.000    1.500    2.500    2.250    8.750    0.500 
#    0.000    1.875    0.000    0.000    0.000    0.000 
#    0.000    0.000    0.000    0.000    0.000    0.000 
#
# Total GULP energy -89275.539933 kJ/mol
# GULP energy per Si atom -5579.721246 kJ/mol
# Density = 2.058305 g / cm^3
# Si number density = 20.630002 Si / 1000 Ang^3
#
#
#
# Elastic Constant Matrix: (Units=GPa)
#
#
# Indices 1 2 3 4 5 6 
#
# 1 93.6323 31.3787 41.8722 -9.8865 -23.5604 4.2720
# 2 31.3787 50.9817 23.7901 -12.5772 -3.3261 6.9919
# 3 41.8722 23.7901 109.8845 -0.1969 -22.2279 15.3882
# 4 -9.8865 -12.5772 -0.1969 27.8308 4.0391 -9.7867
# 5 -23.5604 -3.3261 -22.2279 4.0391 36.7896 5.2891
# 6 4.2720 6.9919 15.3882 -9.7867 5.2891 18.5039
#
#
#
# Elastic Compliance Matrix: (Units=1/GPa)
#
#
# Indices 1 2 3 4 5 6 
#
# 1 0.016962 -0.008224 -0.003013 0.001071 0.008192 -0.000078
# 2 -0.008224 0.029282 -0.005428 0.013018 -0.007977 0.004514
# 3 -0.003013 -0.005428 0.016916 -0.012787 0.012310 -0.021603
# 4 0.001071 0.013018 -0.012787 0.059668 -0.018497 0.042313
# 5 0.008192 -0.007977 0.012310 -0.018497 0.045773 -0.031981
# 6 -0.000078 0.004514 -0.021603 0.042313 -0.031981 0.101841
#
#
# Mechanical properties :
#
#
# Convention : Reuss Voigt Hill
#
# Bulk Modulus (GPa) = 33.52429 49.84229 41.68329
# Shear Modulus (GPa) = 15.93801 27.12202 21.53001
#
# Velocity S-wave (km/s) = 2.78252 3.62980 3.23403
# Velocity P-wave (km/s) = 5.15837 6.46373 5.84759
#
# Compressibility (1/GPa) = 0.02982912
#
# Stress axis : x y z
#
# Youngs Moduli (GPa) = 58.95668 34.15072 59.11521
#
# Poissons Ratio (x) = 0.28087 0.17810
# Poissons Ratio (y) = 0.48489 0.32088
# Poissons Ratio (z) = 0.17762 0.18537
#
# Static dielectric constant tensor:
#      x y z
#    x 1.814580 0.025740 0.115580 
#    y 0.025740 1.784550 0.057980 
#    z 0.115580 0.057980 2.078830 
# 
# From -- ./inp_files/338051.got.cif
#   From: 2010.05.17/outbox.cif.g08.bks.cpg/sg2_170_cif.got.tgz:338051.got - 2010.06.03 11:33:40.
