data_PCOD9091915
_publ_section_title
;
Structure prediction by ZEFSAII (Michael W. Deem and Ramdas Pophale) SiO2 
 PCOD9091915
Probable space group: P -1
;
_chemical_formula_sum "Si O2"
_cell_formula_units_Z 16
_cell_length_a 12.495580
_cell_length_b 10.739304
_cell_length_c 9.333087
_cell_angle_alpha 98.048332
_cell_angle_beta 48.115765
_cell_angle_gamma 117.325604
_cell_volume 801.724225
_symmetry_space_group_name_H-M "P -1"
_symmetry_group_IT_number 2
_symmetry_cell_setting 'triclinic'
loop_
_space_group_symop_operation_xyz
x,y,z
-x,-y,-z
loop_
_atom_site_type_symbol
_atom_site_label
_atom_site_fract_x
_atom_site_fract_y
_atom_site_fract_z
Si Si1 0.943659 0.149062 0.462668
Si Si2 0.974686 0.878379 0.286525
Si Si3 0.729620 0.106246 0.166969
Si Si4 0.353893 0.885989 0.433809
Si Si5 0.113509 0.472129 0.237232
Si Si6 0.335191 0.425659 0.537901
Si Si7 0.811823 0.428783 0.115790
Si Si8 0.240559 0.562868 0.431050
O O1 0.752275 0.100083 0.596814
O O2 0.987788 0.161329 0.593807
O O3 0.040807 0.306199 0.325054
O O4 0.976950 0.029203 0.337704
O O5 0.794481 0.747051 0.373386
O O6 0.116923 0.895265 0.050017
O O7 0.718804 0.088841 0.347436
O O8 0.740698 0.259148 0.148251
O O9 0.548447 0.987081 0.259169
O O10 0.322147 0.723922 0.443489
O O11 0.239076 0.569690 0.261973
O O12 0.958293 0.503134 0.371426
O O13 0.201286 0.507402 0.012860
O O14 0.500000 0.500000 0.500000
O O15 0.251026 0.510290 0.695036
O O16 0.334270 0.477444 0.384232
O O17 0.000000 0.500000 0.000000
#
# Coordination Sequence:
#
# PCOD9091915 Si02
#       8
#     2   2   2   2   2   2   2   2
#     4  10  23  42  63  92 129 169 209 260 322 379
#     4  11  24  43  64  91 129 172 212 254 321 394
#     4  11  23  40  63  94 130 162 212 266 314 380
#     4  10  23  40  65  94 128 162 209 275 311 369
#     4  10  20  38  68  91 122 162 213 263 303 374
#     4  12  25  41  65  95 130 166 210 266 322 372
#     4  12  21  40  65  96 119 162 223 257 307 384
#     4  10  19  40  63  92 121 163 207 256 322 361
#
# _framework density 19.956986000000001
#
# number of rings (size 3 to 8) (size 9 to 14) (size 15 to 20)
#    0.000    1.250    5.000    0.750    5.250    1.000 
#    2.250    0.625    0.000    0.000    0.000    0.000 
#    0.000    0.000    0.000    0.000    0.000    0.000 
#
# Total GULP energy -89150.012824 kJ/mol
# GULP energy per Si atom -5571.875802 kJ/mol
# Density = 1.991156 g / cm^3
# Si number density = 19.956986 Si / 1000 Ang^3
#
#
#
# Elastic Constant Matrix: (Units=GPa)
#
#
# Indices 1 2 3 4 5 6 
#
# 1 96.5484 18.3192 12.0060 -9.8324 1.4258 15.0890
# 2 18.3192 89.5191 25.7747 6.9578 -11.8644 10.3924
# 3 12.0060 25.7747 37.4474 -5.2652 0.9657 9.1119
# 4 -9.8324 6.9578 -5.2652 17.9598 0.9632 -3.6525
# 5 1.4258 -11.8644 0.9657 0.9632 24.9986 -0.6588
# 6 15.0890 10.3924 9.1119 -3.6525 -0.6588 36.1331
#
#
#
# Elastic Compliance Matrix: (Units=1/GPa)
#
#
# Indices 1 2 3 4 5 6 
#
# 1 0.012261 -0.003032 0.000124 0.007330 -0.002520 -0.003584
# 2 -0.003032 0.018149 -0.013226 -0.013459 0.009769 -0.001801
# 3 0.000124 -0.013226 0.039417 0.016250 -0.008557 -0.004701
# 4 0.007330 -0.013459 0.016250 0.070964 -0.010070 0.003702
# 5 -0.002520 0.009769 -0.008557 -0.010070 0.045506 0.000212
# 6 -0.003584 -0.001801 -0.004701 0.003702 0.000212 0.031254
#
#
# Mechanical properties :
#
#
# Convention : Reuss Voigt Hill
#
# Bulk Modulus (GPa) = 26.62491 37.30164 31.96327
# Shear Modulus (GPa) = 19.05921 26.97928 23.01924
#
# Velocity S-wave (km/s) = 3.09368 3.68077 3.39992
# Velocity P-wave (km/s) = 5.11188 6.06594 5.60923
#
# Compressibility (1/GPa) = 0.03755882
#
# Stress axis : x y z
#
# Youngs Moduli (GPa) = 81.55699 55.09867 25.36975
#
# Poissons Ratio (x) = 0.16709 -0.00314
# Poissons Ratio (y) = 0.24732 0.33554
# Poissons Ratio (z) = -0.01010 0.72873
#
# Static dielectric constant tensor:
#      x y z
#    x 1.737060 -0.007110 0.095240 
#    y -0.007110 1.689680 0.006030 
#    z 0.095240 0.006030 1.795190 
# 
# From -- ./inp_files/256794.got.cif
#   From: 2010.05.17/outbox.cif.g08.bks.cpg/sg2_129_cif.got.tgz:256794.got - 2010.06.03 11:33:40.
