data_PCOD9091228
_publ_section_title
;
Structure prediction by ZEFSAII (Michael W. Deem and Ramdas Pophale) SiO2 
 PCOD9091228
Probable space group: P -1
;
_chemical_formula_sum "Si O2"
_cell_formula_units_Z 16
_cell_length_a 17.179979
_cell_length_b 8.984909
_cell_length_c 11.876662
_cell_angle_alpha 54.908995
_cell_angle_beta 153.995087
_cell_angle_gamma 125.200906
_cell_volume 648.510440
_symmetry_space_group_name_H-M "P -1"
_symmetry_group_IT_number 2
_symmetry_cell_setting 'triclinic'
loop_
_space_group_symop_operation_xyz
x,y,z
-x,-y,-z
loop_
_atom_site_type_symbol
_atom_site_label
_atom_site_fract_x
_atom_site_fract_y
_atom_site_fract_z
Si Si1 0.457310 0.493199 0.755161
Si Si2 0.363953 0.935952 0.747694
Si Si3 0.794124 0.357657 0.172898
Si Si4 0.926058 0.863854 0.797474
Si Si5 0.654104 0.751291 0.087442
Si Si6 0.122327 0.257657 0.974641
Si Si7 0.836105 0.139350 0.101530
Si Si8 0.470374 0.804406 0.483501
O O1 0.601582 0.611386 0.977804
O O2 0.375207 0.641087 0.512080
O O3 0.583924 0.387725 0.888994
O O4 0.324909 0.360075 0.722389
O O5 0.210085 0.776739 0.667376
O O6 0.477242 0.843274 0.844100
O O7 0.272073 0.097441 0.507127
O O8 0.500000 0.000000 0.000000
O O9 0.900409 0.564243 0.205549
O O10 0.852408 0.246648 0.191966
O O11 0.935517 0.733582 0.973870
O O12 0.015668 0.809324 0.823769
O O13 0.029259 0.064631 0.885056
O O14 0.808585 0.919835 0.185837
O O15 0.333603 0.243997 0.262171
O O16 0.651582 0.179729 0.788460
O O17 0.500000 0.000000 0.500000
#
# Coordination Sequence:
#
# PCOD9091228 Si02
#       8
#     2   2   2   2   2   2   2   2
#     4   9  20  34  61  96 125 161 217 270 302 382
#     4  11  23  43  68  96 126 170 217 267 325 384
#     4  10  23  42  63  97 133 165 216 268 326 378
#     4  11  25  42  68  92 130 175 217 263 324 385
#     4  10  19  39  64  91 125 165 216 261 318 377
#     4  10  23  44  65  97 131 167 218 271 316 383
#     4  12  22  38  66  94 130 175 209 265 324 386
#     4  11  19  37  67  96 123 169 220 257 317 386
#
# _framework density 24.671921999999999
#
# number of rings (size 3 to 8) (size 9 to 14) (size 15 to 20)
#    0.000    1.500    3.750    1.500    0.000    3.500 
#    2.250    1.250    2.750    0.000    0.000    0.000 
#    0.000    0.000    0.000    0.000    0.000    0.000 
#
# Total GULP energy -89530.572251 kJ/mol
# GULP energy per Si atom -5595.660766 kJ/mol
# Density = 2.461577 g / cm^3
# Si number density = 24.671922 Si / 1000 Ang^3
#
#
#
# Elastic Constant Matrix: (Units=GPa)
#
#
# Indices 1 2 3 4 5 6 
#
# 1 141.1262 24.7409 11.1077 -12.4208 3.0239 2.9614
# 2 24.7409 64.5971 12.0825 -6.1387 -4.6085 15.8325
# 3 11.1077 12.0825 73.9900 6.1198 -2.7508 1.9515
# 4 -12.4208 -6.1387 6.1198 20.4180 9.4633 -7.5361
# 5 3.0239 -4.6085 -2.7508 9.4633 20.3084 -19.4724
# 6 2.9614 15.8325 1.9515 -7.5361 -19.4724 41.4948
#
#
#
# Elastic Compliance Matrix: (Units=1/GPa)
#
#
# Indices 1 2 3 4 5 6 
#
# 1 0.008497 -0.002309 -0.001763 0.007734 -0.007167 -0.001602
# 2 -0.002309 0.019280 -0.003254 0.005229 -0.007266 -0.009499
# 3 -0.001763 -0.003254 0.015376 -0.009751 0.009218 0.003199
# 4 0.007734 0.005229 -0.009751 0.075923 -0.046262 -0.010009
# 5 -0.007167 -0.007266 0.009218 -0.046262 0.120248 0.050878
# 6 -0.001602 -0.009499 0.003199 -0.010009 0.050878 0.049745
#
#
# Mechanical properties :
#
#
# Convention : Reuss Voigt Hill
#
# Bulk Modulus (GPa) = 35.08397 41.73062 38.40730
# Shear Modulus (GPa) = 15.96313 31.89638 23.92976
#
# Velocity S-wave (km/s) = 2.54641 3.59948 3.11773
# Velocity P-wave (km/s) = 4.78505 5.85030 5.34428
#
# Compressibility (1/GPa) = 0.02850304
#
# Stress axis : x y z
#
# Youngs Moduli (GPa) = 117.68603 51.86695 65.03580
#
# Poissons Ratio (x) = 0.11974 0.11463
# Poissons Ratio (y) = 0.27169 0.21163
# Poissons Ratio (z) = 0.20743 0.16878
#
# Static dielectric constant tensor:
#      x y z
#    x 1.963670 0.050560 0.005660 
#    y 0.050560 2.005710 0.006430 
#    z 0.005660 0.006430 1.930050 
# 
# From -- ./inp_files/461134.got.cif
#   From: 2010.05.17/outbox.cif.g08.bks.cpg/sg2_231_cif.got.tgz:461134.got - 2010.06.03 11:33:40.
