data_PCOD9091118
_publ_section_title
;
Structure prediction by ZEFSAII (Michael W. Deem and Ramdas Pophale) SiO2 
 PCOD9091118
Probable space group: P -1
;
_chemical_formula_sum "Si O2"
_cell_formula_units_Z 16
_cell_length_a 8.821538
_cell_length_b 9.140496
_cell_length_c 17.237806
_cell_angle_alpha 101.526238
_cell_angle_beta 64.186086
_cell_angle_gamma 53.778273
_cell_volume 784.361904
_symmetry_space_group_name_H-M "P -1"
_symmetry_group_IT_number 2
_symmetry_cell_setting 'triclinic'
loop_
_space_group_symop_operation_xyz
x,y,z
-x,-y,-z
loop_
_atom_site_type_symbol
_atom_site_label
_atom_site_fract_x
_atom_site_fract_y
_atom_site_fract_z
Si Si1 0.676612 0.740378 0.907170
Si Si2 0.781612 0.107735 0.624025
Si Si3 0.452872 0.573883 0.680061
Si Si4 0.702932 0.224865 0.828178
Si Si5 0.147423 0.642451 0.059752
Si Si6 0.029476 0.248118 0.261016
Si Si7 0.751408 0.080931 0.100707
Si Si8 0.035745 0.638930 0.539179
O O1 0.795706 0.546346 0.923644
O O2 0.475347 0.794512 0.898686
O O3 0.915620 0.658442 0.801102
O O4 0.500000 0.000000 0.000000
O O5 0.525299 0.363188 0.676938
O O6 0.819877 0.150252 0.706772
O O7 0.000000 0.000000 0.500000
O O8 0.800565 0.916575 0.603374
O O9 0.201501 0.711538 0.699453
O O10 0.379459 0.733225 0.782682
O O11 0.697032 0.472477 0.566628
O O12 0.837451 0.234645 0.865998
O O13 0.398923 0.481865 0.929128
O O14 0.723600 0.034297 0.822397
O O15 0.885482 0.845560 0.088467
O O16 0.963738 0.366681 0.369469
O O17 0.000000 0.000000 0.000000
O O18 0.000000 0.500000 0.500000
#
# Coordination Sequence:
#
# PCOD9091118 Si02
#       8
#     2   2   2   2   2   2   2   2
#     4  12  25  42  60  96 140 171 216 275 329 385
#     4   9  20  37  64  93 127 167 214 268 334 390
#     4  11  21  42  64  95 122 166 223 261 328 395
#     4  10  19  39  63  92 127 171 216 272 325 388
#     4  11  22  40  66  96 132 175 225 266 332 391
#     4  11  22  42  63  90 131 169 209 274 326 387
#     4  12  24  41  70  98 131 175 224 273 327 394
#     4  10  22  41  66  91 127 166 212 271 330 385
#
# _framework density 20.398748000000001
#
# number of rings (size 3 to 8) (size 9 to 14) (size 15 to 20)
#    0.000    1.250    2.500    4.875    0.000    1.500 
#    6.750    0.625    0.000    0.000    0.000    0.000 
#    0.000    0.000    0.000    0.000    0.000    0.000 
#
# Total GULP energy -89226.605163 kJ/mol
# GULP energy per Si atom -5576.662823 kJ/mol
# Density = 2.035232 g / cm^3
# Si number density = 20.398748 Si / 1000 Ang^3
#
#
#
# Elastic Constant Matrix: (Units=GPa)
#
#
# Indices 1 2 3 4 5 6 
#
# 1 62.6595 20.5122 25.4569 5.9902 5.7198 18.1066
# 2 20.5122 116.4398 43.4350 2.8258 -3.3489 8.7232
# 3 25.4569 43.4350 118.0367 -2.4285 14.6180 20.5690
# 4 5.9902 2.8258 -2.4285 33.7282 6.1950 -4.8771
# 5 5.7198 -3.3489 14.6180 6.1950 34.3711 4.1542
# 6 18.1066 8.7232 20.5690 -4.8771 4.1542 22.2145
#
#
#
# Elastic Compliance Matrix: (Units=1/GPa)
#
#
# Indices 1 2 3 4 5 6 
#
# 1 0.023055 -0.002115 -0.001112 -0.006623 -0.000158 -0.018357
# 2 -0.002115 0.010517 -0.003895 -0.001337 0.003238 0.000302
# 3 -0.001112 -0.003895 0.012068 0.001137 -0.004610 -0.007627
# 4 -0.006623 -0.001337 0.001137 0.034368 -0.007373 0.013795
# 5 -0.000158 0.003238 -0.004610 -0.007373 0.033296 -0.004720
# 6 -0.018357 0.000302 -0.007627 0.013795 -0.004720 0.070833
#
#
# Mechanical properties :
#
#
# Convention : Reuss Voigt Hill
#
# Bulk Modulus (GPa) = 31.85074 52.88271 42.36672
# Shear Modulus (GPa) = 23.94107 31.91156 27.92631
#
# Velocity S-wave (km/s) = 3.42958 3.95953 3.70404
# Velocity P-wave (km/s) = 5.59738 6.84723 6.25361
#
# Compressibility (1/GPa) = 0.03139645
#
# Stress axis : x y z
#
# Youngs Moduli (GPa) = 43.37365 95.08837 82.86165
#
# Poissons Ratio (x) = 0.20114 0.09214
# Poissons Ratio (y) = 0.09175 0.32272
# Poissons Ratio (z) = 0.04823 0.37034
#
# Static dielectric constant tensor:
#      x y z
#    x 1.462150 -0.139050 -0.006010 
#    y -0.139050 1.730620 -0.015130 
#    z -0.006010 -0.015130 1.725070 
# 
# From -- ./inp_files/185770.got.cif
#   From: 2010.05.17/outbox.cif.g08.bks.cpg/sg2_93_cif.got.tgz:185770.got - 2010.06.03 11:33:40.
