data_PCOD9091501
_publ_section_title
;
Structure prediction by ZEFSAII (Michael W. Deem and Ramdas Pophale) SiO2 
 PCOD9091501
Probable space group: P -1
;
_chemical_formula_sum "Si O2"
_cell_formula_units_Z 14
_cell_length_a 9.119969
_cell_length_b 13.422964
_cell_length_c 8.011218
_cell_angle_alpha 121.718440
_cell_angle_beta 111.883529
_cell_angle_gamma 42.460069
_cell_volume 562.974617
_symmetry_space_group_name_H-M "P -1"
_symmetry_group_IT_number 2
_symmetry_cell_setting 'triclinic'
loop_
_space_group_symop_operation_xyz
x,y,z
-x,-y,-z
loop_
_atom_site_type_symbol
_atom_site_label
_atom_site_fract_x
_atom_site_fract_y
_atom_site_fract_z
Si Si1 0.336791 0.852141 0.913247
Si Si2 0.618154 0.898261 0.212283
Si Si3 0.652535 0.398559 0.137800
Si Si4 0.044785 0.646837 0.996589
Si Si5 0.915123 0.940193 0.301996
Si Si6 0.319685 0.415710 0.447981
Si Si7 0.171865 0.351961 0.654027
O O1 0.329608 0.746669 0.942798
O O2 0.123864 0.988116 0.834688
O O3 0.514218 0.717290 0.734211
O O4 0.402423 0.941749 0.106316
O O5 0.689696 0.819652 0.355339
O O6 0.683977 0.999829 0.310134
O O7 0.793989 0.755450 0.026203
O O8 0.888040 0.334474 0.135919
O O9 0.586961 0.513144 0.366257
O O10 0.500000 0.500000 0.000000
O O11 0.168833 0.461562 0.884040
O O12 0.077754 0.745605 0.210992
O O13 0.000000 0.000000 0.500000
O O14 0.268104 0.352309 0.523544
O O15 0.079347 0.556186 0.391312
#
# Coordination Sequence:
#
# PCOD9091501 Si02
#       7
#     2   2   2   2   2   2   2
#     4  12  23  41  64  94 128 167 211 261 310 373
#     4  10  22  40  69  89 125 165 214 258 315 371
#     4  11  25  38  63  97 128 164 208 265 322 371
#     4   9  21  40  63  87 125 165 209 250 318 374
#     4  10  25  41  63  90 127 174 214 250 310 379
#     4  10  22  35  62  97 127 157 206 263 316 375
#     4  10  19  39  66  96 122 162 208 264 318 362
#
# _framework density 24.867906000000001
#
# number of rings (size 3 to 8) (size 9 to 14) (size 15 to 20)
#    0.857    0.857    1.429    3.000    6.000    0.571 
#    0.000    0.714    0.000    0.000    0.000    0.000 
#    0.000    0.000    0.000    0.000    0.000    0.000 
#
# Total GULP energy -78089.464895 kJ/mol
# GULP energy per Si atom -5577.818921 kJ/mol
# Density = 2.481131 g / cm^3
# Si number density = 24.867906 Si / 1000 Ang^3
#
#
#
# Elastic Constant Matrix: (Units=GPa)
#
#
# Indices 1 2 3 4 5 6 
#
# 1 91.8844 43.1375 30.1144 -8.2039 8.8399 25.1246
# 2 43.1375 105.1006 42.1663 -17.2599 10.1148 16.2733
# 3 30.1144 42.1663 97.8617 -5.1217 35.3964 4.0271
# 4 -8.2039 -17.2599 -5.1217 37.4872 3.9762 -9.3529
# 5 8.8399 10.1148 35.3964 3.9762 44.0055 10.9371
# 6 25.1246 16.2733 4.0271 -9.3529 10.9371 39.5152
#
#
#
# Elastic Compliance Matrix: (Units=1/GPa)
#
#
# Indices 1 2 3 4 5 6 
#
# 1 0.016369 -0.004140 -0.004267 -0.001711 0.003658 -0.009685
# 2 -0.004140 0.014143 -0.005221 0.004129 0.001961 -0.002225
# 3 -0.004267 -0.005221 0.019285 0.002942 -0.015694 0.007938
# 4 -0.001711 0.004129 0.002942 0.031650 -0.008018 0.008798
# 5 0.003658 0.001961 -0.015694 -0.008018 0.038380 -0.014054
# 6 -0.009685 -0.002225 0.007938 0.008798 -0.014054 0.037545
#
#
# Mechanical properties :
#
#
# Convention : Reuss Voigt Hill
#
# Bulk Modulus (GPa) = 44.36611 58.40925 51.38768
# Shear Modulus (GPa) = 26.02250 36.16349 31.09299
#
# Velocity S-wave (km/s) = 3.23836 3.81756 3.53983
# Velocity P-wave (km/s) = 5.64465 6.55519 6.11689
#
# Compressibility (1/GPa) = 0.02253973
#
# Stress axis : x y z
#
# Youngs Moduli (GPa) = 61.09092 70.70855 51.85369
#
# Poissons Ratio (x) = 0.29272 0.22128
# Poissons Ratio (y) = 0.25291 0.27074
# Poissons Ratio (z) = 0.26070 0.36919
#
# Static dielectric constant tensor:
#      x y z
#    x 2.022600 -0.050480 -0.034810 
#    y -0.050480 2.026100 0.052200 
#    z -0.034810 0.052200 1.998470 
# 
# From -- ./inp_files/194103.got.cif
#   From: 2010.05.17/outbox.cif.g08.bks.cpg/sg2_98_cif.got.tgz:194103.got - 2010.06.03 11:33:40.
