data_PCOD9091717
_publ_section_title
;
Structure prediction by ZEFSAII (Michael W. Deem and Ramdas Pophale) SiO2 
 PCOD9091717
Probable space group: P -1
;
_chemical_formula_sum "Si O2"
_cell_formula_units_Z 12
_cell_length_a 11.130688
_cell_length_b 8.947026
_cell_length_c 8.760771
_cell_angle_alpha 109.174398
_cell_angle_beta 119.335760
_cell_angle_gamma 38.718267
_cell_volume 473.410672
_symmetry_space_group_name_H-M "P -1"
_symmetry_group_IT_number 2
_symmetry_cell_setting 'triclinic'
loop_
_space_group_symop_operation_xyz
x,y,z
-x,-y,-z
loop_
_atom_site_type_symbol
_atom_site_label
_atom_site_fract_x
_atom_site_fract_y
_atom_site_fract_z
Si Si1 0.165505 0.495129 0.267745
Si Si2 0.386830 0.010951 0.648032
Si Si3 0.434284 0.322920 0.808770
Si Si4 0.969738 0.662065 0.665234
Si Si5 0.361910 0.593243 0.597542
Si Si6 0.227704 0.010727 0.832298
O O1 0.398756 0.265421 0.277100
O O2 0.094634 0.384161 0.243350
O O3 0.203202 0.586594 0.460194
O O4 0.991168 0.742533 0.149757
O O5 0.280106 0.107705 0.780002
O O6 0.437383 0.145843 0.674112
O O7 0.227671 0.076368 0.445677
O O8 0.495054 0.407738 0.758123
O O9 0.191277 0.557353 0.786305
O O10 0.595629 0.169820 0.994729
O O11 0.000000 0.500000 0.500000
O O12 0.500000 0.500000 0.500000
O O13 0.238123 0.850449 0.672455
#
# Coordination Sequence:
#
# PCOD9091717 Si02
#       6
#     2   2   2   2   2   2
#     4  12  23  42  71 103 133 183 232 279 337 404
#     4  11  22  42  72 102 135 175 237 279 332 411
#     4  11  24  46  70 104 140 176 225 292 348 393
#     4  10  19  39  70  99 129 178 226 282 330 394
#     4  12  25  46  70  96 140 188 233 273 331 425
#     4  12  25  44  69 104 145 177 218 287 355 402
#
# _framework density 25.347971000000001
#
# number of rings (size 3 to 8) (size 9 to 14) (size 15 to 20)
#    0.000    0.667    8.333    2.000    0.000    0.667 
#    0.000    0.833    0.000    0.000    0.000    0.000 
#    0.000    0.000    0.000    0.000    0.000    0.000 
#
# Total GULP energy -67038.757374 kJ/mol
# GULP energy per Si atom -5586.563115 kJ/mol
# Density = 2.529028 g / cm^3
# Si number density = 25.347971 Si / 1000 Ang^3
#
#
#
# Elastic Constant Matrix: (Units=GPa)
#
#
# Indices 1 2 3 4 5 6 
#
# 1 82.3053 36.6449 35.3500 -24.3671 -5.9346 1.0827
# 2 36.6449 130.5640 48.0048 -29.8862 6.2970 -17.7949
# 3 35.3500 48.0048 123.3901 -42.4484 6.0902 -8.9472
# 4 -24.3671 -29.8862 -42.4484 45.6730 6.4052 8.3401
# 5 -5.9346 6.2970 6.0902 6.4052 22.5180 -15.7976
# 6 1.0827 -17.7949 -8.9472 8.3401 -15.7976 36.0242
#
#
#
# Elastic Compliance Matrix: (Units=1/GPa)
#
#
# Indices 1 2 3 4 5 6 
#
# 1 0.016039 -0.003134 -0.002080 0.004665 0.002592 -0.002490
# 2 -0.003134 0.010448 -0.001718 0.003253 -0.001949 0.003221
# 3 -0.002080 -0.001718 0.014240 0.013649 -0.011683 -0.005533
# 4 0.004665 0.003253 0.013649 0.046963 -0.030260 -0.019286
# 5 0.002592 -0.001949 -0.011683 -0.030260 0.086016 0.040784
# 6 -0.002490 0.003221 -0.005533 -0.019286 0.040784 0.050400
#
#
# Mechanical properties :
#
#
# Convention : Reuss Voigt Hill
#
# Bulk Modulus (GPa) = 37.22471 64.02875 50.62673
# Shear Modulus (GPa) = 20.24920 35.26036 27.75478
#
# Velocity S-wave (km/s) = 2.82946 3.73373 3.31259
# Velocity P-wave (km/s) = 5.03903 6.62589 5.88618
#
# Compressibility (1/GPa) = 0.02686388
#
# Stress axis : x y z
#
# Youngs Moduli (GPa) = 62.34832 95.71343 70.22660
#
# Poissons Ratio (x) = 0.29992 0.14604
# Poissons Ratio (y) = 0.19537 0.12066
# Poissons Ratio (z) = 0.12966 0.16445
#
# Static dielectric constant tensor:
#      x y z
#    x 2.035520 -0.029980 0.030610 
#    y -0.029980 2.118580 -0.048220 
#    z 0.030610 -0.048220 2.062150 
# 
# From -- ./inp_files/238170.got.cif
#   From: 2010.05.17/outbox.cif.g08.bks.cpg/sg2_120_cif.got.tgz:238170.got - 2010.06.03 11:33:40.
