data_PCOD9091972
_publ_section_title
;
Structure prediction by ZEFSAII (Michael W. Deem and Ramdas Pophale) SiO2 
 PCOD9091972
Probable space group: P -1
;
_chemical_formula_sum "Si O2"
_cell_formula_units_Z 16
_cell_length_a 13.250218
_cell_length_b 12.053378
_cell_length_c 13.843330
_cell_angle_alpha 96.793861
_cell_angle_beta 146.937438
_cell_angle_gamma 109.003753
_cell_volume 743.318542
_symmetry_space_group_name_H-M "P -1"
_symmetry_group_IT_number 2
_symmetry_cell_setting 'triclinic'
loop_
_space_group_symop_operation_xyz
x,y,z
-x,-y,-z
loop_
_atom_site_type_symbol
_atom_site_label
_atom_site_fract_x
_atom_site_fract_y
_atom_site_fract_z
Si Si1 0.162019 0.290890 0.202025
Si Si2 0.945811 0.892542 0.709921
Si Si3 0.227615 0.526886 0.558537
Si Si4 0.616184 0.447051 0.899054
Si Si5 0.857380 0.790731 0.038328
Si Si6 0.154352 0.436020 0.701936
Si Si7 0.529690 0.027155 0.142240
Si Si8 0.816031 0.293056 0.040333
O O1 0.500000 0.500000 0.500000
O O2 0.129773 0.186443 0.251363
O O3 0.088407 0.203646 0.030277
O O4 0.920240 0.273452 0.029361
O O5 0.702343 0.727652 0.423384
O O6 0.271714 0.995953 0.956287
O O7 0.931492 0.021540 0.717602
O O8 0.543235 0.707017 0.787479
O O9 0.274155 0.491326 0.695129
O O10 0.998355 0.515917 0.396914
O O11 0.075120 0.387857 0.336030
O O12 0.789335 0.636070 0.013086
O O13 0.614342 0.462620 0.015012
O O14 0.790638 0.412773 0.015930
O O15 0.867740 0.221203 0.455826
O O16 0.460217 0.887874 0.140015
O O17 0.500000 0.000000 0.000000
#
# Coordination Sequence:
#
# PCOD9091972 Si02
#       8
#     2   2   2   2   2   2   2   2
#     4  11  21  43  72  94 123 175 222 267 321 387
#     4  11  25  45  67 100 129 167 225 271 316 390
#     4  10  19  40  64  90 127 173 221 254 308 394
#     4  11  26  42  62  98 143 165 206 274 338 379
#     4  12  23  43  68  95 127 175 219 266 326 386
#     4  10  22  39  64  96 128 175 211 263 322 377
#     4  11  21  41  71  95 126 176 229 261 308 394
#     4  10  22  40  66  95 134 167 215 269 325 383
#
# _framework density 21.525091
#
# number of rings (size 3 to 8) (size 9 to 14) (size 15 to 20)
#    0.000    1.250    5.000    1.125    1.750    1.000 
#    0.000    1.875    0.000    0.000    0.000    0.000 
#    0.000    0.000    0.000    0.000    0.000    0.000 
#
# Total GULP energy -89252.204386 kJ/mol
# GULP energy per Si atom -5578.262774 kJ/mol
# Density = 2.147610 g / cm^3
# Si number density = 21.525091 Si / 1000 Ang^3
#
#
#
# Elastic Constant Matrix: (Units=GPa)
#
#
# Indices 1 2 3 4 5 6 
#
# 1 119.0998 66.9254 34.4922 1.2489 -12.4510 15.8200
# 2 66.9254 -24.0363 -62.6230 25.6552 -32.5479 -53.0739
# 3 34.4922 -62.6230 -12.8354 20.0828 -36.7041 -29.0025
# 4 1.2489 25.6552 20.0828 32.3348 -2.8586 7.4040
# 5 -12.4510 -32.5479 -36.7041 -2.8586 28.4526 -4.9259
# 6 15.8200 -53.0739 -29.0025 7.4040 -4.9259 25.1300
#
#
#
# Elastic Compliance Matrix: (Units=1/GPa)
#
#
# Indices 1 2 3 4 5 6 
#
# 1 0.008728 -0.001559 0.005293 -0.001501 0.008620 -0.000545
# 2 -0.001559 0.008652 -0.014876 0.001638 -0.009867 -0.000331
# 3 0.005293 -0.014876 0.018974 0.003328 0.007987 -0.012266
# 4 -0.001501 0.001638 0.003328 0.027993 0.008615 0.001687
# 5 0.008620 -0.009867 0.007987 0.008615 0.036654 -0.012400
# 6 -0.000545 -0.000331 -0.012266 0.001687 -0.012400 0.022355
#
#
# Mechanical properties :
#
#
# Convention : Reuss Voigt Hill
#
# Bulk Modulus (GPa) = 71.05731 17.75751 44.40741
# Shear Modulus (GPa) = 33.26041 20.07904 26.66972
#
# Velocity S-wave (km/s) = 3.93516 3.05752 3.52377
# Velocity P-wave (km/s) = 7.33010 4.55326 6.10174
#
# Compressibility (1/GPa) = 0.01407315
#
# Stress axis : x y z
#
# Youngs Moduli (GPa) = 114.56787 115.57954 52.70300
#
# Poissons Ratio (x) = 0.18013 -0.27897
# Poissons Ratio (y) = 0.17856 0.78399
# Poissons Ratio (z) = -0.60644 1.71931
#
# Static dielectric constant tensor:
#      x y z
#    x 1.779040 -0.040100 0.002320 
#    y -0.040100 1.885600 0.038330 
#    z 0.002320 0.038330 1.836180 
# 
# From -- ./inp_files/428489.got.cif
#   From: 2010.05.17/outbox.cif.g08.bks.cpg/sg2_215_cif.got.tgz:428489.got - 2010.06.03 11:33:40.
