data_PCOD9091127
_publ_section_title
;
Structure prediction by ZEFSAII (Michael W. Deem and Ramdas Pophale) SiO2 
 PCOD9091127
Probable space group: P -1
;
_chemical_formula_sum "Si O2"
_cell_formula_units_Z 16
_cell_length_a 8.601595
_cell_length_b 14.434327
_cell_length_c 12.864252
_cell_angle_alpha 44.138109
_cell_angle_beta 120.790412
_cell_angle_gamma 139.775416
_cell_volume 715.980309
_symmetry_space_group_name_H-M "P -1"
_symmetry_group_IT_number 2
_symmetry_cell_setting 'triclinic'
loop_
_space_group_symop_operation_xyz
x,y,z
-x,-y,-z
loop_
_atom_site_type_symbol
_atom_site_label
_atom_site_fract_x
_atom_site_fract_y
_atom_site_fract_z
Si Si1 0.902094 0.219867 0.974236
Si Si2 0.534497 0.858481 0.229436
Si Si3 0.328356 0.211938 0.363708
Si Si4 0.841800 0.414354 0.117476
Si Si5 0.644469 0.700091 0.927458
Si Si6 0.725929 0.686801 0.377078
Si Si7 0.745491 0.446465 0.447863
Si Si8 0.024016 0.811531 0.587707
O O1 0.108822 0.224675 0.994088
O O2 0.755568 0.070449 0.136251
O O3 0.696316 0.173323 0.864846
O O4 0.042972 0.415580 0.908107
O O5 0.634740 0.791572 0.240211
O O6 0.441348 0.726928 0.401428
O O7 0.274489 0.197206 0.236311
O O8 0.611407 0.369218 0.354617
O O9 0.191233 0.255790 0.351067
O O10 0.228003 0.019226 0.515418
O O11 0.560229 0.308943 0.083733
O O12 0.880539 0.289716 0.282106
O O13 0.000000 0.500000 0.000000
O O14 0.500000 0.500000 0.000000
O O15 0.500000 0.500000 0.500000
O O16 0.785029 0.617979 0.358042
O O17 0.924457 0.782565 0.459746
O O18 0.000000 0.500000 0.500000
#
# Coordination Sequence:
#
# PCOD9091127 Si02
#       8
#     2   2   2   2   2   2   2   2
#     4  10  22  41  66  90 127 174 219 264 328 382
#     4  10  21  42  66  91 125 175 219 266 322 394
#     4  11  24  40  67  98 132 171 217 281 332 381
#     4  11  24  40  65  93 129 172 215 266 327 397
#     4  10  23  41  62  93 130 171 215 268 324 388
#     4  10  19  39  63  93 126 170 216 261 322 389
#     4  11  25  40  65  96 136 171 217 273 336 395
#     4  11  22  40  68  98 131 169 223 272 324 395
#
# _framework density 22.346983000000002
#
# number of rings (size 3 to 8) (size 9 to 14) (size 15 to 20)
#    0.000    1.500    2.500    3.750    8.750    0.500 
#    2.250    0.000    0.000    3.000    0.000    0.000 
#    0.000    0.000    0.000    0.000    0.000    0.000 
#
# Total GULP energy -89339.226078 kJ/mol
# GULP energy per Si atom -5583.701630 kJ/mol
# Density = 2.229612 g / cm^3
# Si number density = 22.346983 Si / 1000 Ang^3
#
#
#
# Elastic Constant Matrix: (Units=GPa)
#
#
# Indices 1 2 3 4 5 6 
#
# 1 91.8536 57.9383 47.6295 6.2248 30.8712 26.5943
# 2 57.9383 95.4601 24.8073 6.5914 30.0387 16.2459
# 3 47.6295 24.8073 90.6443 -7.7399 21.9278 13.3629
# 4 6.2248 6.5914 -7.7399 37.2525 3.7643 9.8768
# 5 30.8712 30.0387 21.9278 3.7643 41.3148 11.0505
# 6 26.5943 16.2459 13.3629 9.8768 11.0505 27.4992
#
#
#
# Elastic Compliance Matrix: (Units=1/GPa)
#
#
# Indices 1 2 3 4 5 6 
#
# 1 0.027801 -0.010758 -0.008430 -0.000179 -0.004574 -0.014532
# 2 -0.010758 0.018402 0.001943 -0.000793 -0.006721 0.001574
# 3 -0.008430 0.001943 0.016545 0.005255 -0.004024 -0.001305
# 4 -0.000179 -0.000793 0.005255 0.031615 -0.001581 -0.012632
# 5 -0.004574 -0.006721 -0.004024 -0.001581 0.035706 -0.003431
# 6 -0.014532 0.001574 -0.001305 -0.012632 -0.003431 0.056038
#
#
# Mechanical properties :
#
#
# Convention : Reuss Voigt Hill
#
# Bulk Modulus (GPa) = 35.39022 59.85649 47.62336
# Shear Modulus (GPa) = 21.73760 31.05214 26.39487
#
# Velocity S-wave (km/s) = 3.12225 3.73170 3.44050
# Velocity P-wave (km/s) = 5.37299 6.73874 6.09425
#
# Compressibility (1/GPa) = 0.02825639
#
# Stress axis : x y z
#
# Youngs Moduli (GPa) = 35.97031 54.34266 60.44204
#
# Poissons Ratio (x) = 0.58460 0.50955
# Poissons Ratio (y) = 0.38696 -0.11742
# Poissons Ratio (z) = 0.30324 -0.10557
#
# Static dielectric constant tensor:
#      x y z
#    x 1.944430 0.201430 -0.072360 
#    y 0.201430 2.569330 -0.028250 
#    z -0.072360 -0.028250 1.937330 
# 
# From -- ./inp_files/503933.got.cif
#   From: 2010.05.17/outbox.cif.g08.bks.cpg/sg2_252_cif.got.tgz:503933.got - 2010.06.03 11:33:40.
