data_PCOD9091613
_publ_section_title
;
Structure prediction by ZEFSAII (Michael W. Deem and Ramdas Pophale) SiO2 
 PCOD9091613
Probable space group: P -1
;
_chemical_formula_sum "Si O2"
_cell_formula_units_Z 16
_cell_length_a 27.026207
_cell_length_b 8.223000
_cell_length_c 14.704642
_cell_angle_alpha 128.428506
_cell_angle_beta 161.095766
_cell_angle_gamma 43.510845
_cell_volume 697.722158
_symmetry_space_group_name_H-M "P -1"
_symmetry_group_IT_number 2
_symmetry_cell_setting 'triclinic'
loop_
_space_group_symop_operation_xyz
x,y,z
-x,-y,-z
loop_
_atom_site_type_symbol
_atom_site_label
_atom_site_fract_x
_atom_site_fract_y
_atom_site_fract_z
Si Si1 0.368824 0.026518 0.698594
Si Si2 0.644664 0.541474 0.949068
Si Si3 0.115255 0.809923 0.907361
Si Si4 0.444182 0.335032 0.793102
Si Si5 0.037120 0.609902 0.865649
Si Si6 0.918115 0.342105 0.833368
Si Si7 0.943419 0.279289 0.507814
Si Si8 0.195192 0.150632 0.742848
O O1 0.374051 0.206088 0.694962
O O2 0.165679 0.157646 0.426173
O O3 0.500000 0.000000 0.000000
O O4 0.438142 0.758970 0.682595
O O5 0.723496 0.323862 0.935029
O O6 0.724688 0.703262 0.110949
O O7 0.735793 0.435213 0.168989
O O8 0.155459 0.620523 0.993871
O O9 0.930940 0.881769 0.557563
O O10 0.058401 0.067646 0.943702
O O11 0.284386 0.515211 0.510133
O O12 0.500000 0.500000 0.000000
O O13 0.635715 0.101119 0.010059
O O14 0.004836 0.381348 0.732187
O O15 0.092358 0.650501 0.073618
O O16 0.000000 0.500000 0.000000
O O17 0.054854 0.308945 0.631929
O O18 0.000000 0.000000 0.500000
#
# Coordination Sequence:
#
# PCOD9091613 Si02
#       8
#     2   2   2   2   2   2   2   2
#     4  11  22  38  66  99 129 162 217 277 318 378
#     4  10  20  39  64  94 127 168 221 269 321 379
#     4  11  21  43  68  91 126 181 221 260 325 406
#     4  11  23  41  66  94 127 170 224 266 325 389
#     4  12  23  43  65  95 136 174 221 268 328 404
#     4  12  27  43  64  98 138 175 209 276 347 382
#     4  11  22  34  63 102 132 163 215 278 329 374
#     4  10  19  39  68  91 123 164 225 272 311 380
#
# _framework density 22.931764999999999
#
# number of rings (size 3 to 8) (size 9 to 14) (size 15 to 20)
#    0.000    1.000    6.250    1.875    5.250    0.000 
#    0.000    1.250    0.000    0.000    0.000    0.000 
#    0.000    0.000    0.000    0.000    0.000    0.000 
#
# Total GULP energy -89358.465072 kJ/mol
# GULP energy per Si atom -5584.904067 kJ/mol
# Density = 2.287957 g / cm^3
# Si number density = 22.931765 Si / 1000 Ang^3
#
#
#
# Elastic Constant Matrix: (Units=GPa)
#
#
# Indices 1 2 3 4 5 6 
#
# 1 54.5585 3.7123 13.5394 6.9192 -16.9366 -14.5172
# 2 3.7123 150.1894 18.7922 0.8459 -15.6165 -17.3402
# 3 13.5394 18.7922 80.5317 -6.7308 -22.9963 -11.9904
# 4 6.9192 0.8459 -6.7308 35.1041 -6.3633 -0.0729
# 5 -16.9366 -15.6165 -22.9963 -6.3633 34.9531 2.6931
# 6 -14.5172 -17.3402 -11.9904 -0.0729 2.6931 33.3852
#
#
#
# Elastic Compliance Matrix: (Units=1/GPa)
#
#
# Indices 1 2 3 4 5 6 
#
# 1 0.025083 0.001865 0.000076 -0.002835 0.011677 0.010955
# 2 0.001865 0.007540 -0.000369 0.000061 0.003710 0.004296
# 3 0.000076 -0.000369 0.017019 0.005381 0.011662 0.005025
# 4 -0.002835 0.000061 0.005381 0.031512 0.007919 0.000162
# 5 0.011677 0.003710 0.011662 0.007919 0.044452 0.007624
# 6 0.010955 0.004296 0.005025 0.000162 0.007624 0.038138
#
#
# Mechanical properties :
#
#
# Convention : Reuss Voigt Hill
#
# Bulk Modulus (GPa) = 18.94414 39.70749 29.32581
# Shear Modulus (GPa) = 28.05954 37.30419 32.68186
#
# Velocity S-wave (km/s) = 3.50181 4.03767 3.77925
# Velocity P-wave (km/s) = 4.96279 6.25221 5.64444
#
# Compressibility (1/GPa) = 0.05278678
#
# Stress axis : x y z
#
# Youngs Moduli (GPa) = 39.86841 132.63162 58.75886
#
# Poissons Ratio (x) = -0.24742 -0.00449
# Poissons Ratio (y) = -0.07437 0.02168
# Poissons Ratio (z) = -0.00305 0.04893
#
# Static dielectric constant tensor:
#      x y z
#    x 1.953350 -0.016940 0.096630 
#    y -0.016940 1.996060 -0.033590 
#    z 0.096630 -0.033590 2.075010 
# 
# From -- ./inp_files/282351.got.cif
#   From: 2010.05.17/outbox.cif.g08.bks.cpg/sg2_142_cif.got.tgz:282351.got - 2010.06.03 11:33:40.
