data_PCOD9091289
_publ_section_title
;
Structure prediction by ZEFSAII (Michael W. Deem and Ramdas Pophale) SiO2 
 PCOD9091289
Probable space group: P -1
;
_chemical_formula_sum "Si O2"
_cell_formula_units_Z 14
_cell_length_a 8.838390
_cell_length_b 14.590501
_cell_length_c 11.354061
_cell_angle_alpha 134.192802
_cell_angle_beta 135.986282
_cell_angle_gamma 35.403289
_cell_volume 566.582440
_symmetry_space_group_name_H-M "P -1"
_symmetry_group_IT_number 2
_symmetry_cell_setting 'triclinic'
loop_
_space_group_symop_operation_xyz
x,y,z
-x,-y,-z
loop_
_atom_site_type_symbol
_atom_site_label
_atom_site_fract_x
_atom_site_fract_y
_atom_site_fract_z
Si Si1 0.941222 0.412795 0.171462
Si Si2 0.867454 0.937517 0.677291
Si Si3 0.437719 0.729635 0.952981
Si Si4 0.377624 0.417494 0.305347
Si Si5 0.517755 0.102680 0.202952
Si Si6 0.330106 0.096204 0.679532
Si Si7 0.625265 0.296817 0.830912
O O1 0.699090 0.555788 0.249653
O O2 0.075577 0.481967 0.239381
O O3 0.212611 0.238160 0.215328
O O4 0.810556 0.352009 0.959008
O O5 0.621885 0.978341 0.663039
O O6 0.135229 0.860866 0.840277
O O7 0.891447 0.832759 0.486584
O O8 0.760288 0.110732 0.713485
O O9 0.602628 0.579716 0.820943
O O10 0.388094 0.700986 0.031259
O O11 0.616199 0.792542 0.121811
O O12 0.500000 0.500000 0.500000
O O13 0.559641 0.224329 0.274370
O O14 0.714317 0.988853 0.317599
O O15 0.500000 0.000000 0.000000
#
# Coordination Sequence:
#
# PCOD9091289 Si02
#       7
#     2   2   2   2   2   2   2
#     4   9  21  39  62  92 132 165 223 267 334 393
#     4  10  22  35  66 102 130 163 235 266 332 397
#     4  11  21  40  68  93 132 175 221 270 339 387
#     4  10  24  41  62  95 134 172 220 270 329 399
#     4  10  19  40  70  91 127 178 224 267 329 392
#     4  10  19  39  64  99 127 172 215 284 321 384
#     4  10  20  39  64  96 131 174 212 284 333 389
#
# _framework density 24.709558000000001
#
# number of rings (size 3 to 8) (size 9 to 14) (size 15 to 20)
#    0.857    1.143    1.429    3.429    0.000    4.000 
#    5.143    3.571    0.000    0.000    0.000    0.000 
#    0.000    0.000    0.000    0.000    0.000    0.000 
#
# Total GULP energy -78098.767855 kJ/mol
# GULP energy per Si atom -5578.483418 kJ/mol
# Density = 2.465332 g / cm^3
# Si number density = 24.709558 Si / 1000 Ang^3
#
#
#
# Elastic Constant Matrix: (Units=GPa)
#
#
# Indices 1 2 3 4 5 6 
#
# 1 75.3717 4.4664 46.5244 6.6921 20.6938 15.6218
# 2 4.4664 64.6699 16.2117 1.6142 12.4694 9.4983
# 3 46.5244 16.2117 140.5557 15.8588 7.8241 15.6871
# 4 6.6921 1.6142 15.8588 22.4034 2.6754 6.4166
# 5 20.6938 12.4694 7.8241 2.6754 41.5142 -9.1926
# 6 15.6218 9.4983 15.6871 6.4166 -9.1926 35.5801
#
#
#
# Elastic Compliance Matrix: (Units=1/GPa)
#
#
# Indices 1 2 3 4 5 6 
#
# 1 0.023508 0.004727 -0.006323 0.002678 -0.015034 -0.013163
# 2 0.004727 0.018899 -0.002505 0.002748 -0.009737 -0.009027
# 3 -0.006323 -0.002505 0.009887 -0.005443 0.002552 0.000726
# 4 0.002678 0.002748 -0.005443 0.051310 -0.006769 -0.010512
# 5 -0.015034 -0.009737 0.002552 -0.006769 0.038736 0.019303
# 6 -0.013163 -0.009027 0.000726 -0.010512 0.019303 0.042858
#
#
# Mechanical properties :
#
#
# Convention : Reuss Voigt Hill
#
# Bulk Modulus (GPa) = 22.67948 46.11137 34.39543
# Shear Modulus (GPa) = 24.02711 34.12586 29.07648
#
# Velocity S-wave (km/s) = 3.12169 3.72032 3.43407
# Velocity P-wave (km/s) = 4.71079 6.09559 5.44738
#
# Compressibility (1/GPa) = 0.04409272
#
# Stress axis : x y z
#
# Youngs Moduli (GPa) = 42.53827 52.91205 101.13967
#
# Poissons Ratio (x) = -0.25009 0.63948
# Poissons Ratio (y) = -0.20106 0.25334
# Poissons Ratio (z) = 0.26896 0.13254
#
# Static dielectric constant tensor:
#      x y z
#    x 1.965980 -0.020300 0.052320 
#    y -0.020300 2.122420 0.011790 
#    z 0.052320 0.011790 1.930600 
# 
# From -- ./inp_files/402408.got.cif
#   From: 2010.05.17/outbox.cif.g08.bks.cpg/sg2_202_cif.got.tgz:402408.got - 2010.06.03 11:33:40.
