data_PCOD9091946
_publ_section_title
;
Structure prediction by ZEFSAII (Michael W. Deem and Ramdas Pophale) SiO2 
 PCOD9091946
Probable space group: P -1
;
_chemical_formula_sum "Si O2"
_cell_formula_units_Z 10
_cell_length_a 10.295345
_cell_length_b 6.595506
_cell_length_c 6.651822
_cell_angle_alpha 112.286968
_cell_angle_beta 66.186097
_cell_angle_gamma 111.605506
_cell_volume 369.806063
_symmetry_space_group_name_H-M "P -1"
_symmetry_group_IT_number 2
_symmetry_cell_setting 'triclinic'
loop_
_space_group_symop_operation_xyz
x,y,z
-x,-y,-z
loop_
_atom_site_type_symbol
_atom_site_label
_atom_site_fract_x
_atom_site_fract_y
_atom_site_fract_z
Si Si1 0.601697 0.630282 0.286072
Si Si2 0.053581 0.048333 0.220243
Si Si3 0.316250 0.452625 0.221935
Si Si4 0.756085 0.110535 0.498421
Si Si5 0.838723 0.345078 0.101135
O O1 0.433131 0.482491 0.342285
O O2 0.724343 0.494315 0.193675
O O3 0.633344 0.878957 0.452940
O O4 0.623055 0.668748 0.044699
O O5 0.153213 0.297748 0.294350
O O6 0.901232 0.024028 0.422542
O O7 0.158898 0.879579 0.110644
O O8 0.000000 0.000000 0.000000
O O9 0.301500 0.703817 0.273768
O O10 0.806513 0.254951 0.315070
O O11 0.000000 0.500000 0.000000
#
# Coordination Sequence:
#
# PCOD9091946 Si02
#       5
#     2   2   2   2   2
#     4  11  23  43  63  92 130 160 203 257 309 365
#     4  10  19  40  64  85 124 162 200 254 306 353
#     4  11  23  41  65  93 124 166 203 254 314 361
#     4  11  22  43  66  89 127 162 207 254 304 371
#     4  11  21  40  68  87 126 167 201 258 307 358
#
# _framework density 27.041201000000001
#
# number of rings (size 3 to 8) (size 9 to 14) (size 15 to 20)
#    0.000    1.200    6.000    2.400    0.000    1.600 
#    3.600    2.000    0.000    0.000    0.000    0.000 
#    0.000    0.000    0.000    0.000    0.000    0.000 
#
# Total GULP energy -55934.204830 kJ/mol
# GULP energy per Si atom -5593.420483 kJ/mol
# Density = 2.697965 g / cm^3
# Si number density = 27.041201 Si / 1000 Ang^3
#
#
#
# Elastic Constant Matrix: (Units=GPa)
#
#
# Indices 1 2 3 4 5 6 
#
# 1 171.2324 60.3945 4.6826 27.2273 -21.6858 -0.2421
# 2 60.3945 156.7359 41.9542 41.9667 8.9828 15.6574
# 3 4.6826 41.9542 129.9018 30.4391 -24.6904 10.1673
# 4 27.2273 41.9667 30.4391 66.2275 -0.4026 0.6229
# 5 -21.6858 8.9828 -24.6904 -0.4026 31.6880 7.9197
# 6 -0.2421 15.6574 10.1673 0.6229 7.9197 56.3559
#
#
#
# Elastic Compliance Matrix: (Units=1/GPa)
#
#
# Indices 1 2 3 4 5 6 
#
# 1 0.008982 -0.004264 0.003725 -0.002631 0.010446 -0.000888
# 2 -0.004264 0.010568 -0.004176 -0.003071 -0.008980 -0.000905
# 3 0.003725 -0.004176 0.013064 -0.004770 0.014647 -0.003186
# 4 -0.002631 -0.003071 -0.004770 0.020269 -0.004932 0.002172
# 5 0.010446 -0.008980 0.014647 -0.004932 0.054530 -0.007711
# 6 -0.000888 -0.000905 -0.003186 0.002172 -0.007711 0.019627
#
#
# Mechanical properties :
#
#
# Convention : Reuss Voigt Hill
#
# Bulk Modulus (GPa) = 43.13264 74.65918 58.89591
# Shear Modulus (GPa) = 34.67483 54.24353 44.45918
#
# Velocity S-wave (km/s) = 3.58480 4.48365 4.05918
# Velocity P-wave (km/s) = 5.75498 7.38062 6.61790
#
# Compressibility (1/GPa) = 0.02318430
#
# Stress axis : x y z
#
# Youngs Moduli (GPa) = 111.33422 94.62461 76.54733
#
# Poissons Ratio (x) = 0.40343 -0.28511
# Poissons Ratio (y) = 0.47468 0.31966
# Poissons Ratio (z) = -0.41468 0.39515
#
# Static dielectric constant tensor:
#      x y z
#    x 2.265570 -0.095760 0.116340 
#    y -0.095760 2.121890 -0.111040 
#    z 0.116340 -0.111040 2.203380 
# 
# From -- ./inp_files/40446.got.cif
#   From: 2010.05.17/outbox.cif.g08.bks.cpg/sg2_21_cif.got.tgz:40446.got - 2010.06.03 11:33:40.
