data_PCOD9091387
_publ_section_title
;
Structure prediction by ZEFSAII (Michael W. Deem and Ramdas Pophale) SiO2 
 PCOD9091387
Probable space group: P -1
;
_chemical_formula_sum "Si O2"
_cell_formula_units_Z 16
_cell_length_a 12.277075
_cell_length_b 15.693577
_cell_length_c 19.745161
_cell_angle_alpha 152.681342
_cell_angle_beta 152.430904
_cell_angle_gamma 48.759490
_cell_volume 643.804090
_symmetry_space_group_name_H-M "P -1"
_symmetry_group_IT_number 2
_symmetry_cell_setting 'triclinic'
loop_
_space_group_symop_operation_xyz
x,y,z
-x,-y,-z
loop_
_atom_site_type_symbol
_atom_site_label
_atom_site_fract_x
_atom_site_fract_y
_atom_site_fract_z
Si Si1 0.960142 0.068187 0.312584
Si Si2 0.616488 0.824217 0.766245
Si Si3 0.517332 0.115875 0.828709
Si Si4 0.790718 0.704439 0.260352
Si Si5 0.505482 0.424336 0.338189
Si Si6 0.625752 0.308592 0.799581
Si Si7 0.719893 0.001847 0.724449
Si Si8 0.038041 0.561260 0.486820
O O1 0.955247 0.162409 0.449407
O O2 0.294706 0.176799 0.554214
O O3 0.847339 0.176632 0.277054
O O4 0.775576 0.794632 0.008896
O O5 0.513266 0.638488 0.517422
O O6 0.465630 0.676605 0.646905
O O7 0.533843 0.987648 0.810692
O O8 0.970611 0.958712 0.067053
O O9 0.232725 0.093977 0.634504
O O10 0.632895 0.057581 0.786158
O O11 0.726369 0.389195 0.156594
O O12 0.500000 0.500000 0.000000
O O13 0.810923 0.570043 0.114801
O O14 0.768142 0.500288 0.486624
O O15 0.760860 0.190261 0.826036
O O16 0.545296 0.242903 0.629592
O O17 0.000000 0.500000 0.500000
#
# Coordination Sequence:
#
# PCOD9091387 Si02
#       8
#     2   2   2   2   2   2   2   2
#     4  11  20  41  65  94 136 178 220 270 341 400
#     4  11  25  41  66  97 142 178 218 277 336 399
#     4  12  22  40  68 102 130 170 236 285 317 390
#     4  10  19  39  65  96 131 178 226 280 327 388
#     4  11  25  44  61  96 141 185 214 268 351 407
#     4  10  20  35  65 102 127 176 229 267 326 398
#     4  11  20  37  65 100 131 171 227 274 318 392
#     4  12  25  39  70 101 129 172 229 287 330 397
#
# _framework density 24.852281999999999
#
# number of rings (size 3 to 8) (size 9 to 14) (size 15 to 20)
#    0.000    1.000    7.500    1.500    0.000    0.000 
#    0.000    0.625    0.000    7.500    0.000    0.000 
#    0.000    0.000    0.000    0.000    0.000    0.000 
#
# Total GULP energy -89520.262927 kJ/mol
# GULP energy per Si atom -5595.016433 kJ/mol
# Density = 2.479572 g / cm^3
# Si number density = 24.852282 Si / 1000 Ang^3
#
#
#
# Elastic Constant Matrix: (Units=GPa)
#
#
# Indices 1 2 3 4 5 6 
#
# 1 105.6767 26.2863 16.6549 -4.4846 -25.2611 2.4628
# 2 26.2863 134.2245 26.4330 4.8174 -5.2847 9.4349
# 3 16.6549 26.4330 97.4565 3.6234 -39.1267 5.0870
# 4 -4.4846 4.8174 3.6234 26.8039 -2.3317 -13.0293
# 5 -25.2611 -5.2847 -39.1267 -2.3317 39.2775 2.8396
# 6 2.4628 9.4349 5.0870 -13.0293 2.8396 22.8001
#
#
#
# Elastic Compliance Matrix: (Units=1/GPa)
#
#
# Indices 1 2 3 4 5 6 
#
# 1 0.012324 -0.002600 0.002752 0.002787 0.010525 -0.000587
# 2 -0.002600 0.008883 -0.002851 -0.004254 -0.003223 -0.004789
# 3 0.002752 -0.002851 0.019764 -0.003941 0.021451 -0.008450
# 4 0.002787 -0.004254 -0.003941 0.055605 -0.001888 0.034350
# 5 0.010525 -0.003223 0.021451 -0.001888 0.053947 -0.012387
# 6 -0.000587 -0.004789 -0.008450 0.034350 -0.012387 0.068962
#
#
# Mechanical properties :
#
#
# Convention : Reuss Voigt Hill
#
# Bulk Modulus (GPa) = 28.11146 52.90067 40.50607
# Shear Modulus (GPa) = 21.12019 35.64187 28.38103
#
# Velocity S-wave (km/s) = 2.91835 3.79112 3.38300
# Velocity P-wave (km/s) = 4.76357 6.36363 5.62083
#
# Compressibility (1/GPa) = 0.03557268
#
# Stress axis : x y z
#
# Youngs Moduli (GPa) = 81.14425 112.57250 50.59788
#
# Poissons Ratio (x) = 0.29265 -0.13923
# Poissons Ratio (y) = 0.21095 0.14425
# Poissons Ratio (z) = -0.22329 0.32094
#
# Static dielectric constant tensor:
#      x y z
#    x 1.990240 0.001400 0.019890 
#    y 0.001400 1.946680 -0.036500 
#    z 0.019890 -0.036500 2.065010 
# 
# From -- ./inp_files/569994.got.cif
#   From: 2010.05.17/outbox.cif.g08.bks.cpg/sg2_285_cif.got.tgz:569994.got - 2010.06.03 11:33:40.
