data_PCOD9091384
_publ_section_title
;
Structure prediction by ZEFSAII (Michael W. Deem and Ramdas Pophale) SiO2 
 PCOD9091384
Probable space group: P -1
;
_chemical_formula_sum "Si O2"
_cell_formula_units_Z 16
_cell_length_a 10.947867
_cell_length_b 11.881148
_cell_length_c 13.431452
_cell_angle_alpha 44.044738
_cell_angle_beta 33.186393
_cell_angle_gamma 50.049622
_cell_volume 661.040111
_symmetry_space_group_name_H-M "P -1"
_symmetry_group_IT_number 2
_symmetry_cell_setting 'triclinic'
loop_
_space_group_symop_operation_xyz
x,y,z
-x,-y,-z
loop_
_atom_site_type_symbol
_atom_site_label
_atom_site_fract_x
_atom_site_fract_y
_atom_site_fract_z
Si Si1 0.156797 0.040616 0.090954
Si Si2 0.626497 0.724722 0.753844
Si Si3 0.038621 0.867422 0.471224
Si Si4 0.748677 0.400711 0.999606
Si Si5 0.733615 0.886106 0.390039
Si Si6 0.164206 0.678338 0.792202
Si Si7 0.797736 0.486178 0.333336
Si Si8 0.559066 0.809404 0.349365
O O1 0.061969 0.217997 0.084036
O O2 0.178640 0.928415 0.244487
O O3 0.953120 0.975997 0.207485
O O4 0.371202 0.068416 0.860421
O O5 0.786408 0.839240 0.626377
O O6 0.361513 0.739421 0.896912
O O7 0.731089 0.732258 0.565755
O O8 0.652700 0.568375 0.906787
O O9 0.165999 0.692756 0.528248
O O10 0.000000 0.000000 0.500000
O O11 0.704448 0.389441 0.155340
O O12 0.010438 0.415033 0.810647
O O13 0.712453 0.836999 0.322175
O O14 0.500000 0.000000 0.500000
O O15 0.142593 0.553183 0.797414
O O16 0.310724 0.814536 0.559793
O O17 0.591483 0.622910 0.405185
#
# Coordination Sequence:
#
# PCOD9091384 Si02
#       8
#     2   2   2   2   2   2   2   2
#     4  11  23  42  70  97 132 182 226 271 346 400
#     4   9  20  36  65  97 127 173 228 267 330 404
#     4  10  21  42  70  99 139 182 219 276 345 408
#     4  10  19  39  65  95 133 174 221 273 338 395
#     4  11  21  42  66  93 135 180 225 276 337 400
#     4  12  22  42  68  96 137 176 221 284 334 400
#     4  11  24  41  68 102 134 179 227 276 342 398
#     4  12  25  40  67 102 135 173 236 281 328 407
#
# _framework density 24.204279
#
# number of rings (size 3 to 8) (size 9 to 14) (size 15 to 20)
#    0.000    1.250    5.000    1.125    0.000    0.000 
#    0.000    7.500    0.000    0.000    0.000    0.000 
#    0.000    0.000    0.000    0.000    0.000    0.000 
#
# Total GULP energy -89263.945540 kJ/mol
# GULP energy per Si atom -5578.996596 kJ/mol
# Density = 2.414919 g / cm^3
# Si number density = 24.204279 Si / 1000 Ang^3
#
#
#
# Elastic Constant Matrix: (Units=GPa)
#
#
# Indices 1 2 3 4 5 6 
#
# 1 87.8070 33.0029 29.9064 -8.8801 23.8529 18.1576
# 2 33.0029 86.9664 31.0349 -15.5785 24.3350 10.9853
# 3 29.9064 31.0349 154.9709 -22.1424 40.2700 -11.8526
# 4 -8.8801 -15.5785 -22.1424 34.8832 -1.5665 1.2332
# 5 23.8529 24.3350 40.2700 -1.5665 42.0402 -5.8796
# 6 18.1576 10.9853 -11.8526 1.2332 -5.8796 36.4720
#
#
#
# Elastic Compliance Matrix: (Units=1/GPa)
#
#
# Indices 1 2 3 4 5 6 
#
# 1 0.017205 -0.001909 -0.000932 0.002878 -0.009033 -0.009847
# 2 -0.001909 0.016736 -0.000115 0.006714 -0.009057 -0.005815
# 3 -0.000932 -0.000115 0.009736 0.005446 -0.008227 0.002153
# 4 0.002878 0.006714 0.005446 0.035563 -0.010041 -0.004506
# 5 -0.009033 -0.009057 -0.008227 -0.010041 0.043322 0.011875
# 6 -0.009847 -0.005815 0.002153 -0.004506 0.011875 0.036838
#
#
# Mechanical properties :
#
#
# Convention : Reuss Voigt Hill
#
# Bulk Modulus (GPa) = 26.48052 57.51474 41.99763
# Shear Modulus (GPa) = 28.10537 38.39911 33.25224
#
# Velocity S-wave (km/s) = 3.41130 3.98736 3.71052
# Velocity P-wave (km/s) = 5.14588 6.70914 5.97882
#
# Compressibility (1/GPa) = 0.03776362
#
# Stress axis : x y z
#
# Youngs Moduli (GPa) = 58.12240 59.75206 102.70833
#
# Poissons Ratio (x) = 0.11409 0.09577
# Poissons Ratio (y) = 0.11097 0.01181
# Poissons Ratio (z) = 0.05420 0.00687
#
# Static dielectric constant tensor:
#      x y z
#    x 2.053650 -0.023460 -0.065050 
#    y -0.023460 1.925640 -0.055630 
#    z -0.065050 -0.055630 2.011660 
# 
# From -- ./inp_files/427503.got.cif
#   From: 2010.05.17/outbox.cif.g08.bks.cpg/sg2_214_cif.got.tgz:427503.got - 2010.06.03 11:33:40.
