data_PCOD9091445
_publ_section_title
;
Structure prediction by ZEFSAII (Michael W. Deem and Ramdas Pophale) SiO2 
 PCOD9091445
Probable space group: P -1
;
_chemical_formula_sum "Si O2"
_cell_formula_units_Z 15
_cell_length_a 9.515380
_cell_length_b 9.590925
_cell_length_c 8.034044
_cell_angle_alpha 65.326355
_cell_angle_beta 78.308629
_cell_angle_gamma 63.524437
_cell_volume 596.259411
_symmetry_space_group_name_H-M "P -1"
_symmetry_group_IT_number 2
_symmetry_cell_setting 'triclinic'
loop_
_space_group_symop_operation_xyz
x,y,z
-x,-y,-z
loop_
_atom_site_type_symbol
_atom_site_label
_atom_site_fract_x
_atom_site_fract_y
_atom_site_fract_z
Si Si1 0.624623 0.580593 0.460749
Si Si2 0.243333 0.616731 0.961235
Si Si3 0.087927 0.689147 0.327167
Si Si4 0.630223 0.753058 0.042822
Si Si5 0.069325 0.302715 0.132550
Si Si6 0.000000 0.000000 0.000000
Si Si7 0.657406 0.103265 0.180356
Si Si8 0.766474 0.775293 0.511305
O O1 0.500000 0.500000 0.500000
O O2 0.792256 0.418687 0.506973
O O3 0.596433 0.714024 0.254807
O O4 0.645505 0.687442 0.559120
O O5 0.318364 0.430340 0.966024
O O6 0.359968 0.708367 0.865907
O O7 0.082480 0.733975 0.844523
O O8 0.173294 0.621361 0.161774
O O9 0.916357 0.688604 0.393280
O O10 0.055959 0.882241 0.218129
O O11 0.785980 0.787967 0.979892
O O12 0.487163 0.881004 0.909312
O O13 0.148019 0.260764 0.313928
O O14 0.000000 0.500000 0.000000
O O15 0.818010 0.042271 0.068825
O O16 0.683658 0.970443 0.386920
#
# Coordination Sequence:
#
# PCOD9091445 Si02
#       8
#     2   2   2   2   2   1   2   2
#     4  12  24  39  63  91 120 159 209 259 304 365
#     4  10  20  39  67  95 125 165 207 249 308 370
#     4  10  19  39  66  90 122 161 206 251 299 367
#     4  11  23  40  63  93 127 164 205 256 312 364
#     4  10  21  39  62  90 125 161 203 251 304 367
#     4   8  18  36  60  90 120 158 200 246 306 356
#     4  10  22  40  64  91 128 164 202 257 310 367
#     4  11  24  42  63  90 124 166 210 253 306 364
#
# _framework density 25.156835000000001
#
# number of rings (size 3 to 8) (size 9 to 14) (size 15 to 20)
#    0.000    1.600    0.000    6.400    0.000    2.667 
#    0.000    5.333    0.000    0.000    0.000    0.000 
#    0.000    0.000    0.000    0.000    0.000    0.000 
#
# Total GULP energy -83553.490745 kJ/mol
# GULP energy per Si atom -5570.232716 kJ/mol
# Density = 2.509958 g / cm^3
# Si number density = 25.156835 Si / 1000 Ang^3
#
#
#
# Elastic Constant Matrix: (Units=GPa)
#
#
# Indices 1 2 3 4 5 6 
#
# 1 126.6608 12.8371 37.6353 -3.4237 17.5591 -6.1942
# 2 12.8371 60.3045 16.7394 -20.2233 2.0986 4.0045
# 3 37.6353 16.7394 144.7624 -24.4151 29.6382 3.0440
# 4 -3.4237 -20.2233 -24.4151 35.9399 -13.1492 9.1552
# 5 17.5591 2.0986 29.6382 -13.1492 39.5095 -8.3900
# 6 -6.1942 4.0045 3.0440 9.1552 -8.3900 40.8724
#
#
#
# Elastic Compliance Matrix: (Units=1/GPa)
#
#
# Indices 1 2 3 4 5 6 
#
# 1 0.009230 -0.002648 -0.002109 -0.003719 -0.003194 0.001993
# 2 -0.002648 0.022429 -0.000062 0.015089 0.003958 -0.005162
# 3 -0.002109 -0.000062 0.009444 0.005125 -0.005121 -0.003216
# 4 -0.003719 0.015089 0.005125 0.045807 0.009994 -0.010633
# 5 -0.003194 0.003958 -0.005121 0.009994 0.034617 0.004377
# 6 0.001993 -0.005162 -0.003216 -0.010633 0.004377 0.028794
#
#
# Mechanical properties :
#
#
# Convention : Reuss Voigt Hill
#
# Bulk Modulus (GPa) = 31.78129 51.79459 41.78794
# Shear Modulus (GPa) = 29.33497 40.89878 35.11687
#
# Velocity S-wave (km/s) = 3.41850 4.03644 3.74025
# Velocity P-wave (km/s) = 5.31434 6.50824 5.94135
#
# Compressibility (1/GPa) = 0.03146506
#
# Stress axis : x y z
#
# Youngs Moduli (GPa) = 108.34551 44.58603 105.89031
#
# Poissons Ratio (x) = 0.11806 0.22328
# Poissons Ratio (y) = 0.28689 0.00656
# Poissons Ratio (z) = 0.22846 0.00276
#
# Static dielectric constant tensor:
#      x y z
#    x 2.128450 0.156770 -0.074480 
#    y 0.156770 2.279850 -0.000600 
#    z -0.074480 -0.000600 2.038220 
# 
# From -- ./inp_files/174932.got.cif
#   From: 2010.05.17/outbox.cif.g08.bks.cpg/sg2_88_cif.got.tgz:174932.got - 2010.06.03 11:33:40.
