data_PCOD9091620
_publ_section_title
;
Structure prediction by ZEFSAII (Michael W. Deem and Ramdas Pophale) SiO2 
 PCOD9091620
Probable space group: P -1
;
_chemical_formula_sum "Si O2"
_cell_formula_units_Z 16
_cell_length_a 22.777969
_cell_length_b 9.138375
_cell_length_c 13.985973
_cell_angle_alpha 44.014265
_cell_angle_beta 154.168483
_cell_angle_gamma 140.893577
_cell_volume 797.843900
_symmetry_space_group_name_H-M "P -1"
_symmetry_group_IT_number 2
_symmetry_cell_setting 'triclinic'
loop_
_space_group_symop_operation_xyz
x,y,z
-x,-y,-z
loop_
_atom_site_type_symbol
_atom_site_label
_atom_site_fract_x
_atom_site_fract_y
_atom_site_fract_z
Si Si1 0.249544 0.788195 0.977902
Si Si2 0.121471 0.045572 0.241536
Si Si3 0.566624 0.725781 0.924385
Si Si4 0.628618 0.117118 0.555986
Si Si5 0.530872 0.697088 0.375132
Si Si6 0.146603 0.509683 0.159511
Si Si7 0.653849 0.671813 0.861916
Si Si8 0.934970 0.562304 0.282446
O O1 0.401113 0.778952 0.165816
O O2 0.202435 0.666782 0.070571
O O3 0.294685 0.060802 0.924844
O O4 0.122295 0.638804 0.787148
O O5 0.297486 0.128920 0.441887
O O6 0.120289 0.253198 0.208543
O O7 0.062430 0.796936 0.319738
O O8 0.000000 0.000000 0.000000
O O9 0.442949 0.822908 0.669989
O O10 0.623908 0.687886 0.922279
O O11 0.500000 0.500000 0.000000
O O12 0.734073 0.358479 0.645935
O O13 0.500000 0.000000 0.500000
O O14 0.686864 0.914038 0.738920
O O15 0.500000 0.500000 0.500000
O O16 0.489521 0.547159 0.287271
O O17 0.000000 0.500000 0.000000
O O18 0.794746 0.617148 0.076375
O O19 0.000000 0.500000 0.500000
#
# Coordination Sequence:
#
# PCOD9091620 Si02
#       8
#     2   2   2   2   2   2   2   2
#     4  11  23  45  65  98 133 175 223 279 335 398
#     4  12  23  40  65 101 129 174 230 269 331 401
#     4  11  24  41  68 102 137 169 222 273 338 406
#     4  10  19  39  68  92 129 170 220 271 326 386
#     4  11  21  38  69  96 130 166 226 286 322 384
#     4  12  23  39  65 102 132 168 227 281 325 391
#     4  10  21  43  69  94 128 180 225 274 334 395
#     4  11  26  46  66  94 140 178 218 279 346 400
#
# _framework density 20.054048000000002
#
# number of rings (size 3 to 8) (size 9 to 14) (size 15 to 20)
#    0.000    1.000    5.000    3.750    0.000    4.000 
#    2.250    3.125    0.000    0.000    0.000    0.000 
#    0.000    0.000    0.000    0.000    0.000    0.000 
#
# Total GULP energy -89251.992517 kJ/mol
# GULP energy per Si atom -5578.249532 kJ/mol
# Density = 2.000840 g / cm^3
# Si number density = 20.054048 Si / 1000 Ang^3
#
#
#
# Elastic Constant Matrix: (Units=GPa)
#
#
# Indices 1 2 3 4 5 6 
#
# 1 94.1225 58.4920 30.9144 12.7307 -2.6477 -2.6820
# 2 58.4920 170.2678 64.9960 27.2934 -26.6272 11.2494
# 3 30.9144 64.9960 102.4762 14.3509 -8.4989 10.9490
# 4 12.7307 27.2934 14.3509 44.9155 6.8443 -5.0436
# 5 -2.6477 -26.6272 -8.4989 6.8443 33.6641 3.5003
# 6 -2.6820 11.2494 10.9490 -5.0436 3.5003 38.8569
#
#
#
# Elastic Compliance Matrix: (Units=1/GPa)
#
#
# Indices 1 2 3 4 5 6 
#
# 1 0.014339 -0.005170 -0.001828 0.000643 -0.003911 0.003437
# 2 -0.005170 0.012036 -0.003833 -0.006651 0.009968 -0.004522
# 3 -0.001828 -0.003833 0.013424 -0.001936 0.000933 -0.003135
# 4 0.000643 -0.006651 -0.001936 0.029480 -0.012468 0.007465
# 5 -0.003911 0.009968 0.000933 -0.012468 0.040960 -0.008727
# 6 0.003437 -0.004522 -0.003135 0.007465 -0.008727 0.029920
#
#
# Mechanical properties :
#
#
# Convention : Reuss Voigt Hill
#
# Bulk Modulus (GPa) = 55.13681 75.07460 65.10571
# Shear Modulus (GPa) = 29.78553 37.65156 33.71854
#
# Velocity S-wave (km/s) = 3.85809 4.33772 4.10492
# Velocity P-wave (km/s) = 6.88479 7.91234 7.41638
#
# Compressibility (1/GPa) = 0.01813670
#
# Stress axis : x y z
#
# Youngs Moduli (GPa) = 69.74209 83.08463 74.49068
#
# Poissons Ratio (x) = 0.42952 0.13620
# Poissons Ratio (y) = 0.36054 0.28553
# Poissons Ratio (z) = 0.12752 0.31847
#
# Static dielectric constant tensor:
#      x y z
#    x 1.739870 -0.081570 0.004130 
#    y -0.081570 1.705530 -0.002780 
#    z 0.004130 -0.002780 1.764010 
# 
# From -- ./inp_files/381000.got.cif
#   From: 2010.05.17/outbox.cif.g08.bks.cpg/sg2_191_cif.got.tgz:381000.got - 2010.06.03 11:33:40.
