data_PCOD9091932
_publ_section_title
;
Structure prediction by ZEFSAII (Michael W. Deem and Ramdas Pophale) SiO2 
 PCOD9091932
Probable space group: P -1
;
_chemical_formula_sum "Si O2"
_cell_formula_units_Z 14
_cell_length_a 12.029091
_cell_length_b 7.711833
_cell_length_c 6.857726
_cell_angle_alpha 113.160981
_cell_angle_beta 77.343822
_cell_angle_gamma 98.053127
_cell_volume 569.650151
_symmetry_space_group_name_H-M "P -1"
_symmetry_group_IT_number 2
_symmetry_cell_setting 'triclinic'
loop_
_space_group_symop_operation_xyz
x,y,z
-x,-y,-z
loop_
_atom_site_type_symbol
_atom_site_label
_atom_site_fract_x
_atom_site_fract_y
_atom_site_fract_z
Si Si1 0.593296 0.095116 0.323359
Si Si2 0.689629 0.349449 0.049546
Si Si3 0.467441 0.534322 0.302079
Si Si4 0.235517 0.290112 0.268352
Si Si5 0.947934 0.795133 0.004399
Si Si6 0.338547 0.973144 0.349398
Si Si7 0.099765 0.440275 0.731047
O O1 0.660648 0.198523 0.169021
O O2 0.555996 0.247641 0.568757
O O3 0.667536 0.981525 0.396675
O O4 0.473216 0.006493 0.251616
O O5 0.576277 0.464044 0.117654
O O6 0.793913 0.480747 0.142517
O O7 0.712426 0.228613 0.796944
O O8 0.500000 0.500000 0.500000
O O9 0.352318 0.413925 0.245964
O O10 0.173713 0.226377 0.066611
O O11 0.148346 0.399626 0.482848
O O12 0.271822 0.120912 0.316125
O O13 0.945351 0.749258 0.218031
O O14 0.982870 0.386781 0.169536
O O15 0.000000 0.000000 0.000000
#
# Coordination Sequence:
#
# PCOD9091932 Si02
#       7
#     2   2   2   2   2   2   2
#     4  10  21  39  56  93 143 178 220 268 321 405
#     4  11  21  40  68  97 140 179 219 279 331 410
#     4  10  19  40  63  95 144 173 214 266 332 412
#     4  12  23  45  70  98 136 181 215 281 343 399
#     4  11  28  51  71 102 131 171 241 293 331 402
#     4  11  23  35  62 100 137 184 223 260 332 402
#     4  11  25  48  75  99 132 182 226 279 354 398
#
# _framework density 24.576487
#
# number of rings (size 3 to 8) (size 9 to 14) (size 15 to 20)
#    0.000    1.143    5.714    1.714    2.000    3.429 
#    2.571    0.000    0.000    0.000    0.000    0.000 
#    0.000    0.000    0.000    0.000    0.000    0.000 
#
# Total GULP energy -78261.827780 kJ/mol
# GULP energy per Si atom -5590.130556 kJ/mol
# Density = 2.452055 g / cm^3
# Si number density = 24.576487 Si / 1000 Ang^3
#
#
#
# Elastic Constant Matrix: (Units=GPa)
#
#
# Indices 1 2 3 4 5 6 
#
# 1 86.3885 35.4927 21.8055 -5.3918 15.6549 -7.1279
# 2 35.4927 120.2748 19.3348 -23.7259 5.0321 -8.3479
# 3 21.8055 19.3348 71.2220 -4.9519 -4.8230 -5.5460
# 4 -5.3918 -23.7259 -4.9519 38.6512 2.0221 5.1318
# 5 15.6549 5.0321 -4.8230 2.0221 36.2818 1.8343
# 6 -7.1279 -8.3479 -5.5460 5.1318 1.8343 37.6943
#
#
#
# Elastic Compliance Matrix: (Units=1/GPa)
#
#
# Indices 1 2 3 4 5 6 
#
# 1 0.015435 -0.003571 -0.004098 -0.000464 -0.006781 0.001918
# 2 -0.003571 0.010832 -0.001415 0.005899 -0.000516 0.000738
# 3 -0.004098 -0.001415 0.016052 0.000267 0.004031 0.001041
# 4 -0.000464 0.005899 0.000267 0.029934 -0.002114 -0.002714
# 5 -0.006781 -0.000516 0.004031 -0.002114 0.031316 -0.002040
# 6 0.001918 0.000738 0.001041 -0.002714 -0.002040 0.027677
#
#
# Mechanical properties :
#
#
# Convention : Reuss Voigt Hill
#
# Bulk Modulus (GPa) = 41.40528 47.90570 44.65549
# Shear Modulus (GPa) = 31.75326 35.94227 33.84777
#
# Velocity S-wave (km/s) = 3.59836 3.82837 3.71515
# Velocity P-wave (km/s) = 5.84366 6.25113 6.05083
#
# Compressibility (1/GPa) = 0.02415151
#
# Stress axis : x y z
#
# Youngs Moduli (GPa) = 64.78698 92.32095 62.29740
#
# Poissons Ratio (x) = 0.32965 0.25532
# Poissons Ratio (y) = 0.23133 0.08813
# Poissons Ratio (z) = 0.26552 0.13060
#
# Static dielectric constant tensor:
#      x y z
#    x 2.135390 -0.219500 -0.034560 
#    y -0.219500 2.317220 -0.004880 
#    z -0.034560 -0.004880 1.976060 
# 
# From -- ./inp_files/226905.got.cif
#   From: 2010.05.17/outbox.cif.g08.bks.cpg/sg2_114_cif.got.tgz:226905.got - 2010.06.03 11:33:40.
