data_PCOD9091102
_publ_section_title
;
Structure prediction by ZEFSAII (Michael W. Deem and Ramdas Pophale) SiO2 
 PCOD9091102
Probable space group: P -1
;
_chemical_formula_sum "Si O2"
_cell_formula_units_Z 13
_cell_length_a 14.017995
_cell_length_b 6.765905
_cell_length_c 14.570287
_cell_angle_alpha 113.869561
_cell_angle_beta 153.573119
_cell_angle_gamma 51.037557
_cell_volume 425.147841
_symmetry_space_group_name_H-M "P -1"
_symmetry_group_IT_number 2
_symmetry_cell_setting 'triclinic'
loop_
_space_group_symop_operation_xyz
x,y,z
-x,-y,-z
loop_
_atom_site_type_symbol
_atom_site_label
_atom_site_fract_x
_atom_site_fract_y
_atom_site_fract_z
Si Si1 0.211669 0.163930 0.091454
Si Si2 0.167181 0.331736 0.899614
Si Si3 0.234143 0.907384 0.450053
Si Si4 0.500000 0.000000 0.000000
Si Si5 0.815945 0.291125 0.453605
Si Si6 0.773864 0.979111 0.732462
Si Si7 0.236413 0.512049 0.738522
O O1 0.522029 0.067103 0.333380
O O2 0.198734 0.996932 0.129972
O O3 0.124138 0.189928 0.915831
O O4 0.000000 0.500000 0.000000
O O5 0.488458 0.153466 0.115804
O O6 0.074717 0.286690 0.713367
O O7 0.017486 0.650473 0.851499
O O8 0.316516 0.673414 0.553940
O O9 0.247524 0.847589 0.340272
O O10 0.950188 0.199159 0.304965
O O11 0.461287 0.249590 0.948034
O O12 0.638383 0.513542 0.260152
O O13 0.000000 0.000000 0.500000
O O14 0.500000 0.000000 0.500000
O O15 0.000000 0.500000 0.500000
#
# Coordination Sequence:
#
# PCOD9091102 Si02
#       7
#     2   2   2   1   2   2   2
#     4   9  20  36  63  93 123 168 229 266 306 387
#     4  11  21  38  61  95 129 165 224 266 317 393
#     4  10  19  39  63  90 134 168 209 275 330 379
#     4  12  22  34  68  96 120 166 226 262 320 382
#     4  10  23  39  60  94 138 174 206 263 348 394
#     4   9  18  38  65  90 118 173 226 259 310 384
#     4  11  20  38  61  92 128 175 215 258 324 402
#
# _framework density 30.577598999999999
#
# number of rings (size 3 to 8) (size 9 to 14) (size 15 to 20)
#    0.000    1.846    3.077    0.923    2.154    1.231 
#    0.000   13.846    0.000    0.000    0.000    0.000 
#    0.000    0.000    0.000    0.000    0.000    0.000 
#
# Total GULP energy -72579.998648 kJ/mol
# GULP energy per Si atom -5583.076819 kJ/mol
# Density = 3.050800 g / cm^3
# Si number density = 30.577599 Si / 1000 Ang^3
#
#
#
# Elastic Constant Matrix: (Units=GPa)
#
#
# Indices 1 2 3 4 5 6 
#
# 1 374.9345 32.1581 78.3327 -3.8771 -62.5019 -3.9650
# 2 32.1581 91.0747 34.1979 -9.9038 -13.8104 -30.3325
# 3 78.3327 34.1979 131.3366 -2.3148 -39.3751 -9.8368
# 4 -3.8771 -9.9038 -2.3148 65.4914 -12.4608 -9.7390
# 5 -62.5019 -13.8104 -39.3751 -12.4608 90.2357 6.4274
# 6 -3.9650 -30.3325 -9.8368 -9.7390 6.4274 56.5069
#
#
#
# Elastic Compliance Matrix: (Units=1/GPa)
#
#
# Indices 1 2 3 4 5 6 
#
# 1 0.003269 -0.000494 -0.001342 0.000330 0.001677 -0.000403
# 2 -0.000494 0.015489 -0.002845 0.003581 0.000688 0.008323
# 3 -0.001342 -0.002845 0.010082 0.000415 0.003102 -0.000148
# 4 0.000330 0.003581 0.000415 0.017102 0.002990 0.004625
# 5 0.001677 0.000688 0.003102 0.002990 0.014120 -0.000064
# 6 -0.000403 0.008323 -0.000148 0.004625 -0.000064 0.022915
#
#
# Mechanical properties :
#
#
# Convention : Reuss Voigt Hill
#
# Bulk Modulus (GPa) = 51.34792 98.52479 74.93636
# Shear Modulus (GPa) = 50.59107 72.62394 61.60750
#
# Velocity S-wave (km/s) = 4.07198 4.87876 4.49351
# Velocity P-wave (km/s) = 6.23997 8.00172 7.17512
#
# Compressibility (1/GPa) = 0.01947498
#
# Stress axis : x y z
#
# Youngs Moduli (GPa) = 305.93164 64.56295 99.18914
#
# Poissons Ratio (x) = 0.03191 0.13316
# Poissons Ratio (y) = 0.15120 0.28223
# Poissons Ratio (z) = 0.41071 0.18371
#
# Static dielectric constant tensor:
#      x y z
#    x 2.112390 0.166890 -0.364540 
#    y 0.166890 2.677470 0.073660 
#    z -0.364540 0.073660 2.001750 
# 
# From -- ./inp_files/526635.got.cif
#   From: 2010.05.17/outbox.cif.g08.bks.cpg/sg2_264_cif.got.tgz:526635.got - 2010.06.03 11:33:40.
