data_PCOD9091263
_publ_section_title
;
Structure prediction by ZEFSAII (Michael W. Deem and Ramdas Pophale) SiO2 
 PCOD9091263
Probable space group: P -1
;
_chemical_formula_sum "Si O2"
_cell_formula_units_Z 16
_cell_length_a 11.080744
_cell_length_b 9.699077
_cell_length_c 9.464174
_cell_angle_alpha 73.337233
_cell_angle_beta 50.016491
_cell_angle_gamma 76.086252
_cell_volume 744.446214
_symmetry_space_group_name_H-M "P -1"
_symmetry_group_IT_number 2
_symmetry_cell_setting 'triclinic'
loop_
_space_group_symop_operation_xyz
x,y,z
-x,-y,-z
loop_
_atom_site_type_symbol
_atom_site_label
_atom_site_fract_x
_atom_site_fract_y
_atom_site_fract_z
Si Si1 0.421723 0.496617 0.714030
Si Si2 0.640732 0.472820 0.785224
Si Si3 0.096471 0.855978 0.910872
Si Si4 0.234610 0.250938 0.545013
Si Si5 0.637717 0.006812 0.009768
Si Si6 0.189446 0.278937 0.903995
Si Si7 0.574923 0.172772 0.296011
Si Si8 0.114257 0.781774 0.235254
O O1 0.500000 0.500000 0.500000
O O2 0.547701 0.407393 0.744012
O O3 0.711825 0.618611 0.631798
O O4 0.256744 0.424723 0.864408
O O5 0.788718 0.362918 0.743800
O O6 0.500000 0.500000 0.000000
O O7 0.581132 0.112798 0.149640
O O8 0.268403 0.890491 0.720802
O O9 0.986819 0.767287 0.920571
O O10 0.132027 0.773226 0.054679
O O11 0.000000 0.000000 0.000000
O O12 0.194278 0.292691 0.725696
O O13 0.396126 0.151507 0.477835
O O14 0.075211 0.200394 0.609171
O O15 0.793956 0.082971 0.818231
O O16 0.500000 0.000000 0.000000
O O17 0.695740 0.853400 0.081713
O O18 0.589440 0.343074 0.262589
#
# Coordination Sequence:
#
# PCOD9091263 Si02
#       8
#     2   2   2   2   2   2   2   2
#     4  11  22  42  65 101 139 168 221 273 331 402
#     4  11  21  39  67  93 131 178 224 269 327 402
#     4  10  19  39  64  94 131 169 224 273 329 393
#     4  10  22  38  64  99 131 175 223 268 341 394
#     4  11  23  42  67  98 133 182 226 273 338 397
#     4  11  21  39  66  96 137 175 218 280 331 401
#     4  10  21  41  67  93 129 176 225 264 336 396
#     4  10  20  37  63  95 131 171 218 277 329 391
#
# _framework density 21.492484999999999
#
# number of rings (size 3 to 8) (size 9 to 14) (size 15 to 20)
#    0.000    1.500    5.000    4.125    0.000    1.000 
#    0.000    0.625    2.750    0.000    0.000    0.000 
#    0.000    0.000    0.000    0.000    0.000    0.000 
#
# Total GULP energy -89083.200324 kJ/mol
# GULP energy per Si atom -5567.700020 kJ/mol
# Density = 2.144357 g / cm^3
# Si number density = 21.492485 Si / 1000 Ang^3
#
#
#
# Elastic Constant Matrix: (Units=GPa)
#
#
# Indices 1 2 3 4 5 6 
#
# 1 157.0581 39.7949 49.5090 -8.7934 -42.5072 5.6708
# 2 39.7949 82.4943 36.7061 -12.3745 -20.1776 3.4216
# 3 49.5090 36.7061 97.1749 -20.8874 -37.9138 0.9331
# 4 -8.7934 -12.3745 -20.8874 35.1886 1.2718 -9.0260
# 5 -42.5072 -20.1776 -37.9138 1.2718 58.1797 -5.7326
# 6 5.6708 3.4216 0.9331 -9.0260 -5.7326 39.2995
#
#
#
# Elastic Compliance Matrix: (Units=1/GPa)
#
#
# Indices 1 2 3 4 5 6 
#
# 1 0.008726 -0.002298 -0.001896 -0.000008 0.004304 -0.000388
# 2 -0.002298 0.015566 -0.003638 0.002658 0.001277 -0.000141
# 3 -0.001896 -0.003638 0.018413 0.009806 0.009512 0.003793
# 4 -0.000008 0.002658 0.009806 0.037257 0.007395 0.009173
# 5 0.004304 0.001277 0.009512 0.007395 0.027278 0.004719
# 6 -0.000388 -0.000141 0.003793 0.009173 0.004719 0.028219
#
#
# Mechanical properties :
#
#
# Convention : Reuss Voigt Hill
#
# Bulk Modulus (GPa) = 36.98140 65.41635 51.19888
# Shear Modulus (GPa) = 31.22330 40.58137 35.90233
#
# Velocity S-wave (km/s) = 3.81564 4.35002 4.09156
# Velocity P-wave (km/s) = 6.05443 7.46546 6.79666
#
# Compressibility (1/GPa) = 0.02704062
#
# Stress axis : x y z
#
# Youngs Moduli (GPa) = 114.60634 64.24165 54.30813
#
# Poissons Ratio (x) = 0.14761 0.10298
# Poissons Ratio (y) = 0.26334 0.19759
# Poissons Ratio (z) = 0.21732 0.23373
#
# Static dielectric constant tensor:
#      x y z
#    x 1.827620 -0.051980 -0.069550 
#    y -0.051980 1.828910 -0.005630 
#    z -0.069550 -0.005630 1.912970 
# 
# From -- ./inp_files/423183.got.cif
#   From: 2010.05.17/outbox.cif.g08.bks.cpg/sg2_212_cif.got.tgz:423183.got - 2010.06.03 11:33:40.
