data_PCOD9091994
_publ_section_title
;
Structure prediction by ZEFSAII (Michael W. Deem and Ramdas Pophale) SiO2 
 PCOD9091994
Probable space group: P -1
;
_chemical_formula_sum "Si O2"
_cell_formula_units_Z 16
_cell_length_a 14.351142
_cell_length_b 10.061027
_cell_length_c 12.371951
_cell_angle_alpha 66.093411
_cell_angle_beta 65.654901
_cell_angle_gamma 122.573409
_cell_volume 791.071134
_symmetry_space_group_name_H-M "P -1"
_symmetry_group_IT_number 2
_symmetry_cell_setting 'triclinic'
loop_
_space_group_symop_operation_xyz
x,y,z
-x,-y,-z
loop_
_atom_site_type_symbol
_atom_site_label
_atom_site_fract_x
_atom_site_fract_y
_atom_site_fract_z
Si Si1 0.524477 0.358107 0.552322
Si Si2 0.119707 0.427010 0.025373
Si Si3 0.820472 0.161903 0.817149
Si Si4 0.051033 0.353664 0.438175
Si Si5 0.202287 0.020401 0.526204
Si Si6 0.891839 0.267533 0.987078
Si Si7 0.474582 0.800778 0.609229
Si Si8 0.615109 0.455665 0.720831
O O1 0.500000 0.500000 0.500000
O O2 0.603546 0.379224 0.399101
O O3 0.627711 0.451867 0.585656
O O4 0.311760 0.037078 0.774597
O O5 0.047672 0.395094 0.953467
O O6 0.124390 0.578009 0.045968
O O7 0.327601 0.612347 0.841685
O O8 0.960394 0.137048 0.254609
O O9 0.849940 0.368893 0.712185
O O10 0.925569 0.205331 0.656250
O O11 0.919638 0.254078 0.855362
O O12 0.596986 0.850204 0.040177
O O13 0.219371 0.438533 0.337000
O O14 0.908307 0.150208 0.474338
O O15 0.324553 0.031297 0.508549
O O16 0.345457 0.328010 0.345059
O O17 0.500000 0.000000 0.500000
#
# Coordination Sequence:
#
# PCOD9091994 Si02
#       8
#     2   2   2   2   2   2   2   2
#     4  11  21  42  64  97 140 168 214 280 340 393
#     4  11  21  38  66  98 131 174 219 270 337 397
#     4  10  24  43  67 101 129 173 230 281 323 398
#     4  11  25  44  70  95 131 181 231 268 329 403
#     4  12  25  46  64 100 140 171 224 282 329 405
#     4  10  19  40  64  93 137 166 215 280 327 396
#     4  12  24  38  68 101 132 180 221 273 337 401
#     4  11  25  44  69  93 138 180 216 279 346 388
#
# _framework density 20.225740999999999
#
# number of rings (size 3 to 8) (size 9 to 14) (size 15 to 20)
#    0.000    1.000    5.000    1.500    1.750    3.500 
#    0.000    1.250    0.000    0.000    0.000    0.000 
#    0.000    0.000    0.000    0.000    0.000    0.000 
#
# Total GULP energy -89425.232378 kJ/mol
# GULP energy per Si atom -5589.077024 kJ/mol
# Density = 2.017971 g / cm^3
# Si number density = 20.225741 Si / 1000 Ang^3
#
#
#
# Elastic Constant Matrix: (Units=GPa)
#
#
# Indices 1 2 3 4 5 6 
#
# 1 59.3605 37.5202 23.2092 -3.2288 -3.4667 6.1736
# 2 37.5202 112.9763 51.9352 0.2431 1.2216 8.0309
# 3 23.2092 51.9352 111.9477 13.0711 -2.8098 10.1715
# 4 -3.2288 0.2431 13.0711 37.3275 0.8493 4.7938
# 5 -3.4667 1.2216 -2.8098 0.8493 19.7770 0.1279
# 6 6.1736 8.0309 10.1715 4.7938 0.1279 28.2787
#
#
#
# Elastic Compliance Matrix: (Units=1/GPa)
#
#
# Indices 1 2 3 4 5 6 
#
# 1 0.022266 -0.006522 -0.001550 0.002798 0.003984 -0.002944
# 2 -0.006522 0.013404 -0.005011 0.001266 -0.002732 -0.000782
# 3 -0.001550 -0.005011 0.012297 -0.004201 0.001978 -0.001958
# 4 0.002798 0.001266 -0.004201 0.029090 -0.001405 -0.004384
# 5 0.003984 -0.002732 0.001978 -0.001405 0.051778 -0.000801
# 6 -0.002944 -0.000782 -0.001958 -0.004384 -0.000801 0.037678
#
#
# Mechanical properties :
#
#
# Convention : Reuss Voigt Hill
#
# Bulk Modulus (GPa) = 45.87164 56.62374 51.24769
# Shear Modulus (GPa) = 25.00688 28.51797 26.76242
#
# Velocity S-wave (km/s) = 3.52005 3.75905 3.64151
# Velocity P-wave (km/s) = 6.26499 6.84816 6.56305
#
# Compressibility (1/GPa) = 0.02179996
#
# Stress axis : x y z
#
# Youngs Moduli (GPa) = 44.91238 74.60675 81.32027
#
# Poissons Ratio (x) = 0.48659 0.12602
# Poissons Ratio (y) = 0.29292 0.40753
# Poissons Ratio (z) = 0.06960 0.37389
#
# Static dielectric constant tensor:
#      x y z
#    x 1.702700 0.003060 0.023830 
#    y 0.003060 1.729250 -0.016170 
#    z 0.023830 -0.016170 1.727250 
# 
# From -- ./inp_files/272147.got.cif
#   From: 2010.05.17/outbox.cif.g08.bks.cpg/sg2_137_cif.got.tgz:272147.got - 2010.06.03 11:33:40.
