data_PCOD9091681
_publ_section_title
;
Structure prediction by ZEFSAII (Michael W. Deem and Ramdas Pophale) SiO2 
 PCOD9091681
Probable space group: P -1
;
_chemical_formula_sum "Si O2"
_cell_formula_units_Z 14
_cell_length_a 7.732960
_cell_length_b 15.031254
_cell_length_c 9.331508
_cell_angle_alpha 56.130787
_cell_angle_beta 92.192126
_cell_angle_gamma 131.330151
_cell_volume 573.932600
_symmetry_space_group_name_H-M "P -1"
_symmetry_group_IT_number 2
_symmetry_cell_setting 'triclinic'
loop_
_space_group_symop_operation_xyz
x,y,z
-x,-y,-z
loop_
_atom_site_type_symbol
_atom_site_label
_atom_site_fract_x
_atom_site_fract_y
_atom_site_fract_z
Si Si1 0.524078 0.247750 0.484528
Si Si2 0.831835 0.201141 0.669808
Si Si3 0.963955 0.023331 0.815830
Si Si4 0.003992 0.650406 0.143799
Si Si5 0.280357 0.286335 0.089650
Si Si6 0.258266 0.702895 0.837200
Si Si7 0.143876 0.350059 0.277193
O O1 0.598594 0.168755 0.631785
O O2 0.264090 0.172209 0.622092
O O3 0.781834 0.449783 0.333452
O O4 0.511487 0.223250 0.333233
O O5 0.809063 0.062585 0.778518
O O6 0.891932 0.261436 0.779603
O O7 0.096462 0.343741 0.448623
O O8 0.814224 0.864518 0.856417
O O9 0.000000 0.000000 0.000000
O O10 0.854885 0.677553 0.032926
O O11 0.249799 0.726651 0.982478
O O12 0.204718 0.269332 0.268481
O O13 0.601950 0.455627 0.932837
O O14 0.140184 0.751074 0.710138
O O15 0.000000 0.500000 0.000000
#
# Coordination Sequence:
#
# PCOD9091681 Si02
#       7
#     2   2   2   2   2   2   2
#     4  10  23  42  67  95 130 169 220 266 319 381
#     4  11  23  42  66  98 128 167 223 265 325 379
#     4  12  26  43  63  95 141 172 208 261 335 390
#     4  10  19  39  69  95 127 167 218 272 315 375
#     4  10  21  41  63  94 133 170 212 265 319 386
#     4   8  17  38  62  94 122 161 216 266 318 369
#     4   9  20  38  66  93 121 166 226 267 307 376
#
# _framework density 24.393108000000002
#
# number of rings (size 3 to 8) (size 9 to 14) (size 15 to 20)
#    0.000    2.000    1.429    1.286    2.000    3.429 
#    0.000    7.857    0.000    0.000    0.000    0.000 
#    0.000    0.000    0.000    0.000    0.000    0.000 
#
# Total GULP energy -78244.163222 kJ/mol
# GULP energy per Si atom -5588.868802 kJ/mol
# Density = 2.433759 g / cm^3
# Si number density = 24.393108 Si / 1000 Ang^3
#
#
#
# Elastic Constant Matrix: (Units=GPa)
#
#
# Indices 1 2 3 4 5 6 
#
# 1 133.5540 51.8251 46.8449 8.3941 6.4928 -20.9748
# 2 51.8251 126.6336 50.6228 21.5833 -23.8560 -25.3787
# 3 46.8449 50.6228 110.2783 41.9011 -16.3460 -8.1890
# 4 8.3941 21.5833 41.9011 45.9179 -20.2978 -3.6867
# 5 6.4928 -23.8560 -16.3460 -20.2978 44.2796 2.2763
# 6 -20.9748 -25.3787 -8.1890 -3.6867 2.2763 32.3741
#
#
#
# Elastic Compliance Matrix: (Units=1/GPa)
#
#
# Indices 1 2 3 4 5 6 
#
# 1 0.010881 -0.003037 -0.004213 0.001760 -0.004191 0.004098
# 2 -0.003037 0.012982 -0.003643 0.001095 0.006238 0.006974
# 3 -0.004213 -0.003643 0.017596 -0.014362 -0.001295 -0.002679
# 4 0.001760 0.001095 -0.014362 0.040088 0.013304 0.001995
# 5 -0.004191 0.006238 -0.001295 0.013304 0.032123 0.001104
# 6 0.004098 0.006974 -0.002679 0.001995 0.001104 0.038483
#
#
# Mechanical properties :
#
#
# Convention : Reuss Voigt Hill
#
# Bulk Modulus (GPa) = 50.83161 74.33907 62.58534
# Shear Modulus (GPa) = 27.70138 39.25920 33.48029
#
# Velocity S-wave (km/s) = 3.37356 4.01613 3.70879
# Velocity P-wave (km/s) = 6.00485 7.21439 6.63723
#
# Compressibility (1/GPa) = 0.01967280
#
# Stress axis : x y z
#
# Youngs Moduli (GPa) = 91.90626 77.02935 56.83108
#
# Poissons Ratio (x) = 0.23391 0.23946
# Poissons Ratio (y) = 0.27909 0.20703
# Poissons Ratio (z) = 0.38724 0.28060
#
# Static dielectric constant tensor:
#      x y z
#    x 2.075290 -0.003100 0.089720 
#    y -0.003100 1.887990 0.000190 
#    z 0.089720 0.000190 1.967730 
# 
# From -- ./inp_files/200301.got.cif
#   From: 2010.05.17/outbox.cif.g08.bks.cpg/sg2_101_cif.got.tgz:200301.got - 2010.06.03 11:33:40.
