data_PCOD9091159
_publ_section_title
;
Structure prediction by ZEFSAII (Michael W. Deem and Ramdas Pophale) SiO2 
 PCOD9091159
Probable space group: P -1
;
_chemical_formula_sum "Si O2"
_cell_formula_units_Z 16
_cell_length_a 8.630178
_cell_length_b 10.573818
_cell_length_c 9.124869
_cell_angle_alpha 76.434179
_cell_angle_beta 108.149889
_cell_angle_gamma 73.065974
_cell_volume 706.818867
_symmetry_space_group_name_H-M "P -1"
_symmetry_group_IT_number 2
_symmetry_cell_setting 'triclinic'
loop_
_space_group_symop_operation_xyz
x,y,z
-x,-y,-z
loop_
_atom_site_type_symbol
_atom_site_label
_atom_site_fract_x
_atom_site_fract_y
_atom_site_fract_z
Si Si1 0.700421 0.745786 0.857401
Si Si2 0.171127 0.880793 0.385984
Si Si3 0.295926 0.201256 0.771135
Si Si4 0.993024 0.259856 0.852111
Si Si5 0.085460 0.809721 0.702714
Si Si6 0.387888 0.883466 0.917517
Si Si7 0.434085 0.158012 0.502683
Si Si8 0.844663 0.445947 0.006389
O O1 0.518220 0.865772 0.824133
O O2 0.694041 0.741373 0.684066
O O3 0.856945 0.784360 0.961913
O O4 0.692806 0.598736 0.952149
O O5 0.125306 0.815486 0.539933
O O6 0.380803 0.822270 0.435718
O O7 0.089573 0.049820 0.349637
O O8 0.078436 0.841971 0.229183
O O9 0.107135 0.307143 0.751762
O O10 0.323523 0.188390 0.611070
O O11 0.303329 0.050363 0.876325
O O12 0.476100 0.203521 0.892699
O O13 0.831898 0.370324 0.870679
O O14 0.237854 0.834730 0.834605
O O15 0.102739 0.660140 0.813102
O O16 0.500000 0.000000 0.500000
O O17 0.000000 0.500000 0.000000
#
# Coordination Sequence:
#
# PCOD9091159 Si02
#       8
#     2   2   2   2   2   2   2   2
#     4  10  22  45  64  94 134 177 225 256 332 414
#     4  11  25  40  68 109 131 164 225 290 338 378
#     4  10  21  37  66  98 139 161 217 275 341 390
#     4  10  23  44  66  97 133 172 228 274 327 395
#     4  11  23  41  68  98 138 169 223 281 336 390
#     4  10  19  39  63  99 130 173 211 272 341 393
#     4  12  24  39  66 101 136 175 212 275 342 389
#     4  10  25  44  66  93 130 189 227 262 328 410
#
# _framework density 22.636634000000001
#
# number of rings (size 3 to 8) (size 9 to 14) (size 15 to 20)
#    0.000    1.500    3.750    0.000    7.000    1.000 
#    0.000    7.500    0.000    0.000    0.000    0.000 
#    0.000    0.000    0.000    0.000    0.000    0.000 
#
# Total GULP energy -89171.913775 kJ/mol
# GULP energy per Si atom -5573.244611 kJ/mol
# Density = 2.258511 g / cm^3
# Si number density = 22.636634 Si / 1000 Ang^3
#
#
#
# Elastic Constant Matrix: (Units=GPa)
#
#
# Indices 1 2 3 4 5 6 
#
# 1 69.0275 7.6591 25.0198 10.1330 15.7185 8.3660
# 2 7.6591 63.3093 41.1082 -0.4746 -5.6121 -3.2937
# 3 25.0198 41.1082 128.2275 2.0300 -15.7332 1.3851
# 4 10.1330 -0.4746 2.0300 34.1760 1.1052 -9.5855
# 5 15.7185 -5.6121 -15.7332 1.1052 38.8676 9.1150
# 6 8.3660 -3.2937 1.3851 -9.5855 9.1150 23.2547
#
#
#
# Elastic Compliance Matrix: (Units=1/GPa)
#
#
# Indices 1 2 3 4 5 6 
#
# 1 0.019947 -0.000619 -0.004508 -0.007297 -0.008180 -0.006797
# 2 -0.000619 0.020331 -0.006557 0.002174 -0.000616 0.004630
# 3 -0.004508 -0.006557 0.011571 -0.000360 0.006172 -0.002564
# 4 -0.007297 0.002174 -0.000360 0.036915 -0.002414 0.019117
# 5 -0.008180 -0.000616 0.006172 -0.002414 0.034319 -0.011959
# 6 -0.006797 0.004630 -0.002564 0.019117 -0.011959 0.058823
#
#
# Mechanical properties :
#
#
# Convention : Reuss Voigt Hill
#
# Bulk Modulus (GPa) = 35.11242 45.34872 40.23057
# Shear Modulus (GPa) = 23.28091 31.71149 27.49620
#
# Velocity S-wave (km/s) = 3.21044 3.74691 3.48900
# Velocity P-wave (km/s) = 5.41180 6.22864 5.83453
#
# Compressibility (1/GPa) = 0.02847995
#
# Stress axis : x y z
#
# Youngs Moduli (GPa) = 50.13191 49.18716 86.42298
#
# Poissons Ratio (x) = 0.03046 0.38962
# Poissons Ratio (y) = 0.03105 0.56666
# Poissons Ratio (z) = 0.22601 0.32251
#
# Static dielectric constant tensor:
#      x y z
#    x 1.928650 -0.062390 0.011710 
#    y -0.062390 1.963830 -0.053790 
#    z 0.011710 -0.053790 1.914410 
# 
# From -- ./inp_files/185969.got.cif
#   From: 2010.05.17/outbox.cif.g08.bks.cpg/sg2_93_cif.got.tgz:185969.got - 2010.06.03 11:33:40.
