data_PCOD9091906
_publ_section_title
;
Structure prediction by ZEFSAII (Michael W. Deem and Ramdas Pophale) SiO2 
 PCOD9091906
Probable space group: P -1
;
_chemical_formula_sum "Si O2"
_cell_formula_units_Z 16
_cell_length_a 11.814477
_cell_length_b 11.289688
_cell_length_c 5.388313
_cell_angle_alpha 100.921341
_cell_angle_beta 89.848088
_cell_angle_gamma 91.416574
_cell_volume 705.468493
_symmetry_space_group_name_H-M "P -1"
_symmetry_group_IT_number 2
_symmetry_cell_setting 'triclinic'
loop_
_space_group_symop_operation_xyz
x,y,z
-x,-y,-z
loop_
_atom_site_type_symbol
_atom_site_label
_atom_site_fract_x
_atom_site_fract_y
_atom_site_fract_z
Si Si1 0.718880 0.657079 0.903042
Si Si2 0.125395 0.445138 0.789778
Si Si3 0.065834 0.241299 0.372638
Si Si4 0.819529 0.202450 0.316356
Si Si5 0.208750 0.036932 0.493056
Si Si6 0.347993 0.892799 0.058723
Si Si7 0.410389 0.127105 0.833027
Si Si8 0.189240 0.566922 0.332077
O O1 0.831802 0.712029 0.786192
O O2 0.703916 0.523013 0.732906
O O3 0.758900 0.624410 0.168699
O O4 0.627493 0.760067 0.953040
O O5 0.049744 0.336125 0.634917
O O6 0.139182 0.531042 0.587587
O O7 0.114411 0.519628 0.077045
O O8 0.106959 0.119110 0.446946
O O9 0.946492 0.229324 0.231462
O O10 0.793307 0.290851 0.583082
O O11 0.822087 0.062708 0.341573
O O12 0.715883 0.213518 0.131839
O O13 0.317889 0.117769 0.611514
O O14 0.252525 0.959201 0.236107
O O15 0.455876 0.858880 0.210525
O O16 0.393033 0.996177 0.909131
#
# Coordination Sequence:
#
# PCOD9091906 Si02
#       8
#     2   2   2   2   2   2   2   2
#     4   9  19  37  66  91 117 161 211 266 306 357
#     4   9  20  38  65  90 120 169 214 261 303 363
#     4  11  21  39  62  94 123 164 210 259 314 376
#     4  11  26  38  56  90 134 166 200 250 320 389
#     4  11  21  39  60  91 122 164 206 256 320 372
#     4  10  23  37  60  87 124 162 202 258 319 372
#     4  10  19  40  63  90 114 154 217 265 305 371
#     4   9  21  41  60  92 129 167 214 256 310 377
#
# _framework density 22.679964999999999
#
# number of rings (size 3 to 8) (size 9 to 14) (size 15 to 20)
#    0.750    1.250    2.500    0.750    1.750    4.000 
#    0.000    0.625    0.000    1.500    0.000    0.000 
#    0.000    0.000    0.000    0.000    0.000    0.000 
#
# Total GULP energy -89088.695348 kJ/mol
# GULP energy per Si atom -5568.043459 kJ/mol
# Density = 2.262834 g / cm^3
# Si number density = 22.679965 Si / 1000 Ang^3
#
#
#
# Elastic Constant Matrix: (Units=GPa)
#
#
# Indices 1 2 3 4 5 6 
#
# 1 42.6740 23.9625 33.3873 30.5984 28.0366 8.3306
# 2 23.9625 82.5679 30.1651 24.8606 11.9998 -10.9301
# 3 33.3873 30.1651 83.1646 2.1116 -12.0652 -13.3586
# 4 30.5984 24.8606 2.1116 22.1538 -12.6815 -25.9401
# 5 28.0366 11.9998 -12.0652 -12.6815 5.1599 -20.0120
# 6 8.3306 -10.9301 -13.3586 -25.9401 -20.0120 -13.6530
#
#
#
# Elastic Compliance Matrix: (Units=1/GPa)
#
#
# Indices 1 2 3 4 5 6 
#
# 1 0.028383 0.001647 -0.007271 0.000554 -0.013183 0.041384
# 2 0.001647 0.020195 -0.006146 -0.007116 -0.010595 0.019899
# 3 -0.007271 -0.006146 0.015194 -0.002974 0.007203 -0.019291
# 4 0.000554 -0.007116 -0.002974 0.023509 -0.011097 -0.019456
# 5 -0.013183 -0.010595 0.007203 -0.011097 0.050230 -0.059152
# 6 0.041384 0.019899 -0.019291 -0.019456 -0.059152 0.078619
#
#
# Mechanical properties :
#
#
# Convention : Reuss Voigt Hill
#
# Bulk Modulus (GPa) = 24.85628 42.60405 33.73016
# Shear Modulus (GPa) = 19.75651 10.79158 15.27405
#
# Velocity S-wave (km/s) = 2.95464 2.18370 2.59793
# Velocity P-wave (km/s) = 4.75639 5.01834 4.88912
#
# Compressibility (1/GPa) = 0.04023129
#
# Stress axis : x y z
#
# Youngs Moduli (GPa) = 35.23293 49.51667 65.81354
#
# Poissons Ratio (x) = -0.08154 0.47853
# Poissons Ratio (y) = -0.05802 0.40450
# Poissons Ratio (z) = 0.25618 0.30434
#
# Static dielectric constant tensor:
#      x y z
#    x 1.863680 0.025490 0.000490 
#    y 0.025490 1.926000 0.011440 
#    z 0.000490 0.011440 1.902430 
# 
# From -- ./inp_files/71363.got.cif
#   From: 2010.05.17/outbox.cif.g08.bks.cpg/sg2_36_cif.got.tgz:71363.got - 2010.06.03 11:33:40.
