data_PCOD9091022
_publ_section_title
;
Structure prediction by ZEFSAII (Michael W. Deem and Ramdas Pophale) SiO2 
 PCOD9091022
Probable space group: P -1
;
_chemical_formula_sum "Si O2"
_cell_formula_units_Z 16
_cell_length_a 13.739082
_cell_length_b 5.199241
_cell_length_c 12.600609
_cell_angle_alpha 81.373975
_cell_angle_beta 58.945437
_cell_angle_gamma 54.043880
_cell_volume 608.810153
_symmetry_space_group_name_H-M "P -1"
_symmetry_group_IT_number 2
_symmetry_cell_setting 'triclinic'
loop_
_space_group_symop_operation_xyz
x,y,z
-x,-y,-z
loop_
_atom_site_type_symbol
_atom_site_label
_atom_site_fract_x
_atom_site_fract_y
_atom_site_fract_z
Si Si1 0.045944 0.382095 0.794489
Si Si2 0.241486 0.249770 0.953601
Si Si3 0.902665 0.382357 0.556827
Si Si4 0.325755 0.298086 0.696610
Si Si5 0.493525 0.443984 0.181845
Si Si6 0.635720 0.612002 0.558208
Si Si7 0.639811 0.598714 0.943556
Si Si8 0.924692 0.071126 0.771707
O O1 0.993793 0.698999 0.730661
O O2 0.206292 0.243273 0.738709
O O3 0.030076 0.113725 0.774415
O O4 0.926035 0.556572 0.944153
O O5 0.272850 0.439252 0.837033
O O6 0.351073 0.890449 0.865664
O O7 0.298318 0.240254 0.039900
O O8 0.766824 0.573517 0.545277
O O9 0.866165 0.349624 0.698821
O O10 0.000000 0.500000 0.500000
O O11 0.327174 0.483716 0.580092
O O12 0.490046 0.978106 0.625214
O O13 0.401993 0.580438 0.332147
O O14 0.418449 0.355158 0.144634
O O15 0.515244 0.672159 0.087751
O O16 0.776089 0.219153 0.903095
O O17 0.000000 0.000000 0.500000
#
# Coordination Sequence:
#
# PCOD9091022 Si02
#       8
#     2   2   2   2   2   2   2   2
#     4  11  23  44  71 101 138 180 232 284 343 401
#     4  10  21  38  64  95 129 180 226 279 339 400
#     4  12  25  46  72 103 138 179 228 286 347 412
#     4  10  22  44  64  94 139 184 231 276 331 414
#     4  10  19  39  62  93 137 166 227 275 356 399
#     4  10  22  43  68  96 136 183 228 277 343 411
#     4  10  20  36  61  97 131 169 222 286 347 406
#     4  11  22  42  69 103 134 174 229 293 346 401
#
# _framework density 26.280771999999999
#
# number of rings (size 3 to 8) (size 9 to 14) (size 15 to 20)
#    0.000    1.500    2.500    3.000    0.000    0.000 
#    9.000    2.500    0.000    0.000    0.000    0.000 
#    0.000    0.000    0.000    0.000    0.000    0.000 
#
# Total GULP energy -89203.992177 kJ/mol
# GULP energy per Si atom -5575.249511 kJ/mol
# Density = 2.622096 g / cm^3
# Si number density = 26.280772 Si / 1000 Ang^3
#
#
#
# Elastic Constant Matrix: (Units=GPa)
#
#
# Indices 1 2 3 4 5 6 
#
# 1 102.3519 63.1707 36.5467 6.3994 -14.8730 -8.8096
# 2 63.1707 77.4200 32.1215 4.2907 -6.5753 -22.5946
# 3 36.5467 32.1215 146.9088 -11.2654 -27.9189 -17.4903
# 4 6.3994 4.2907 -11.2654 42.3289 -8.9057 -0.9914
# 5 -14.8730 -6.5753 -27.9189 -8.9057 36.6642 0.6628
# 6 -8.8096 -22.5946 -17.4903 -0.9914 0.6628 47.0533
#
#
#
# Elastic Compliance Matrix: (Units=1/GPa)
#
#
# Indices 1 2 3 4 5 6 
#
# 1 0.021833 -0.018406 -0.001265 -0.000959 0.004455 -0.005304
# 2 -0.018406 0.031710 -0.001855 -0.001453 -0.003746 0.011114
# 3 -0.001265 -0.001855 0.009599 0.004575 0.007531 0.002431
# 4 -0.000959 -0.001453 0.004575 0.027143 0.009404 0.001263
# 5 0.004455 -0.003746 0.007531 0.009404 0.036401 0.001520
# 6 -0.005304 0.011114 0.002431 0.001263 0.001520 0.026505
#
#
# Mechanical properties :
#
#
# Convention : Reuss Voigt Hill
#
# Bulk Modulus (GPa) = 49.77607 65.59539 57.68573
# Shear Modulus (GPa) = 24.63804 38.19875 31.41839
#
# Velocity S-wave (km/s) = 3.06517 3.81660 3.46134
# Velocity P-wave (km/s) = 5.61322 6.66600 6.16213
#
# Compressibility (1/GPa) = 0.02008997
#
# Stress axis : x y z
#
# Youngs Moduli (GPa) = 45.80276 31.53567 104.18214
#
# Poissons Ratio (x) = 0.58044 0.13181
# Poissons Ratio (y) = 0.84304 0.19322
# Poissons Ratio (z) = 0.05795 0.05849
#
# Static dielectric constant tensor:
#      x y z
#    x 2.020780 -0.022680 0.001630 
#    y -0.022680 2.271010 -0.428550 
#    z 0.001630 -0.428550 3.071940 
# 
# From -- ./inp_files/444588.got.cif
#   From: 2010.05.17/outbox.cif.g08.bks.cpg/sg2_223_cif.got.tgz:444588.got - 2010.06.03 11:33:40.
