data_PCOD9091441
_publ_section_title
;
Structure prediction by ZEFSAII (Michael W. Deem and Ramdas Pophale) SiO2 
 PCOD9091441
Probable space group: P -1
;
_chemical_formula_sum "Si O2"
_cell_formula_units_Z 16
_cell_length_a 15.452997
_cell_length_b 14.198357
_cell_length_c 8.985121
_cell_angle_alpha 96.236829
_cell_angle_beta 65.100878
_cell_angle_gamma 151.808835
_cell_volume 667.780502
_symmetry_space_group_name_H-M "P -1"
_symmetry_group_IT_number 2
_symmetry_cell_setting 'triclinic'
loop_
_space_group_symop_operation_xyz
x,y,z
-x,-y,-z
loop_
_atom_site_type_symbol
_atom_site_label
_atom_site_fract_x
_atom_site_fract_y
_atom_site_fract_z
Si Si1 0.184426 0.537435 0.796381
Si Si2 0.137483 0.826990 0.435329
Si Si3 0.642777 0.042642 0.973558
Si Si4 0.456617 0.964746 0.348810
Si Si5 0.941981 0.771460 0.049182
Si Si6 0.941622 0.804672 0.408216
Si Si7 0.349142 0.151079 0.588886
Si Si8 0.402414 0.340365 0.322370
O O1 0.318383 0.752615 0.803334
O O2 0.101889 0.382748 0.949611
O O3 0.397572 0.678399 0.571324
O O4 0.939309 0.335048 0.841495
O O5 0.341355 0.019534 0.180649
O O6 0.915115 0.680087 0.491105
O O7 0.196329 0.775842 0.448417
O O8 0.178009 0.927759 0.567865
O O9 0.511118 0.918461 0.210129
O O10 0.500000 0.000000 0.000000
O O11 0.500000 0.000000 0.500000
O O12 0.699691 0.598671 0.117858
O O13 0.957270 0.808757 0.219826
O O14 0.202833 0.034443 0.824951
O O15 0.706682 0.655021 0.595653
O O16 0.200051 0.094206 0.328478
O O17 0.383430 0.277977 0.491135
#
# Coordination Sequence:
#
# PCOD9091441 Si02
#       8
#     2   2   2   2   2   2   2   2
#     4  10  21  38  63  86 118 164 200 249 323 357
#     4   9  19  37  58  84 123 159 196 258 308 360
#     4  10  20  38  61  85 119 161 201 253 322 375
#     4  10  22  38  65  88 119 156 210 265 307 375
#     4  11  21  39  68  91 125 170 210 255 311 371
#     4  10  19  39  66  89 132 166 209 257 306 383
#     4   9  21  39  61  92 124 154 216 258 292 381
#     4   9  21  40  61  95 128 171 204 253 320 359
#
# _framework density 23.959966999999999
#
# number of rings (size 3 to 8) (size 9 to 14) (size 15 to 20)
#    0.000    2.250    1.250    1.500    3.500    0.500 
#    2.250    8.125    5.500    0.000    0.000    0.000 
#    0.000    0.000    0.000    0.000    0.000    0.000 
#
# Total GULP energy -89126.151373 kJ/mol
# GULP energy per Si atom -5570.384461 kJ/mol
# Density = 2.390543 g / cm^3
# Si number density = 23.959967 Si / 1000 Ang^3
#
#
#
# Elastic Constant Matrix: (Units=GPa)
#
#
# Indices 1 2 3 4 5 6 
#
# 1 118.5796 11.7536 35.5476 -3.8950 -30.3617 17.3567
# 2 11.7536 74.9493 6.3303 7.1129 4.3170 23.9212
# 3 35.5476 6.3303 76.2468 5.7694 -1.6378 10.6425
# 4 -3.8950 7.1129 5.7694 36.0938 11.0711 -4.0172
# 5 -30.3617 4.3170 -1.6378 11.0711 20.2308 -8.0210
# 6 17.3567 23.9212 10.6425 -4.0172 -8.0210 33.1776
#
#
#
# Elastic Compliance Matrix: (Units=1/GPa)
#
#
# Indices 1 2 3 4 5 6 
#
# 1 0.019215 -0.004845 -0.007883 -0.005665 0.033693 0.003429
# 2 -0.004845 0.020693 0.002758 -0.001613 -0.017607 -0.017721
# 3 -0.007883 0.002758 0.017278 -0.000849 -0.013213 -0.006704
# 4 -0.005665 -0.001613 -0.000849 0.036109 -0.027107 0.002218
# 5 0.033693 -0.017607 -0.013213 -0.027107 0.128232 0.027026
# 6 0.003429 -0.017721 -0.006704 0.002218 0.027026 0.050077
#
#
# Mechanical properties :
#
#
# Convention : Reuss Voigt Hill
#
# Bulk Modulus (GPa) = 26.84802 41.89319 34.37061
# Shear Modulus (GPa) = 16.44966 32.31005 24.37986
#
# Velocity S-wave (km/s) = 2.62305 3.67618 3.19333
# Velocity P-wave (km/s) = 4.51703 5.96168 5.28891
#
# Compressibility (1/GPa) = 0.03724669
#
# Stress axis : x y z
#
# Youngs Moduli (GPa) = 52.04169 48.32661 57.87872
#
# Poissons Ratio (x) = 0.23415 0.45623
# Poissons Ratio (y) = 0.25215 -0.15965
# Poissons Ratio (z) = 0.41022 -0.13330
#
# Static dielectric constant tensor:
#      x y z
#    x 1.977350 -0.018360 0.005490 
#    y -0.018360 2.005820 0.011130 
#    z 0.005490 0.011130 1.949850 
# 
# From -- ./inp_files/315250.got.cif
#   From: 2010.05.17/outbox.cif.g08.bks.cpg/sg2_158_cif.got.tgz:315250.got - 2010.06.03 11:33:40.
