data_PCOD9091413
_publ_section_title
;
Structure prediction by ZEFSAII (Michael W. Deem and Ramdas Pophale) SiO2 
 PCOD9091413
Probable space group: P -1
;
_chemical_formula_sum "Si O2"
_cell_formula_units_Z 14
_cell_length_a 5.038562
_cell_length_b 6.884078
_cell_length_c 18.088192
_cell_angle_alpha 115.133406
_cell_angle_beta 70.060547
_cell_angle_gamma 114.144318
_cell_volume 507.573261
_symmetry_space_group_name_H-M "P -1"
_symmetry_group_IT_number 2
_symmetry_cell_setting 'triclinic'
loop_
_space_group_symop_operation_xyz
x,y,z
-x,-y,-z
loop_
_atom_site_type_symbol
_atom_site_label
_atom_site_fract_x
_atom_site_fract_y
_atom_site_fract_z
Si Si1 0.348682 0.477614 0.378545
Si Si2 0.451139 0.818730 0.219153
Si Si3 0.558655 0.777844 0.812626
Si Si4 0.921790 0.539438 0.903858
Si Si5 0.169037 0.890939 0.047673
Si Si6 0.983425 0.786980 0.516602
Si Si7 0.159829 0.129378 0.667073
O O1 0.310676 0.335909 0.283897
O O2 0.115945 0.614078 0.435475
O O3 0.323352 0.333011 0.431705
O O4 0.659125 0.665141 0.367544
O O5 0.328924 0.574631 0.151442
O O6 0.698199 0.843226 0.260993
O O7 0.168956 0.856713 0.292937
O O8 0.530399 0.014588 0.182374
O O9 0.250021 0.614465 0.848476
O O10 0.818538 0.902600 0.865645
O O11 0.869553 0.327978 0.931107
O O12 0.932737 0.764722 0.986154
O O13 0.500000 0.000000 0.000000
O O14 0.000000 0.000000 0.500000
O O15 0.175990 0.903651 0.589407
#
# Coordination Sequence:
#
# PCOD9091413 Si02
#       7
#     2   2   2   2   2   2   2
#     4  11  24  43  73 105 139 196 240 307 376 438
#     4  11  24  42  71 103 147 189 241 303 362 438
#     4  10  19  39  66 105 141 191 243 301 365 434
#     4   9  17  36  64 104 144 191 240 292 358 435
#     4   8  16  31  65 103 145 190 237 297 357 430
#     4  11  26  50  71 103 144 189 248 310 371 447
#     4  12  25  47  70 105 143 190 244 306 367 444
#
# _framework density 27.582225000000001
#
# number of rings (size 3 to 8) (size 9 to 14) (size 15 to 20)
#    0.000    1.714    2.857    1.286    0.000    1.714 
#    5.143    0.000    0.000   14.571    0.000    0.000 
#    0.000    0.000    0.000    0.000    0.000    0.000 
#
# Total GULP energy -78440.102097 kJ/mol
# GULP energy per Si atom -5602.864435 kJ/mol
# Density = 2.751945 g / cm^3
# Si number density = 27.582225 Si / 1000 Ang^3
#
#
#
# Elastic Constant Matrix: (Units=GPa)
#
#
# Indices 1 2 3 4 5 6 
#
# 1 66.4805 32.4086 45.9500 -1.0026 -4.9498 -0.9318
# 2 32.4086 210.5570 86.0117 -7.2171 -14.3027 0.8069
# 3 45.9500 86.0117 183.3598 38.3876 -3.9774 9.7518
# 4 -1.0026 -7.2171 38.3876 92.9707 9.8574 -9.2908
# 5 -4.9498 -14.3027 -3.9774 9.8574 39.9493 -1.9131
# 6 -0.9318 0.8069 9.7518 -9.2908 -1.9131 32.3970
#
#
#
# Elastic Compliance Matrix: (Units=1/GPa)
#
#
# Indices 1 2 3 4 5 6 
#
# 1 0.019057 -0.000712 -0.005073 0.002408 0.001144 0.002851
# 2 -0.000712 0.006324 -0.003204 0.001788 0.001482 0.001387
# 3 -0.005073 -0.003204 0.009424 -0.004627 0.000102 -0.004224
# 4 0.002408 0.001788 -0.004627 0.013628 -0.002637 0.005170
# 5 0.001144 0.001482 0.000102 -0.002637 0.026402 0.000768
# 6 0.002851 0.001387 -0.004224 0.005170 0.000768 0.033714
#
#
# Mechanical properties :
#
#
# Convention : Reuss Voigt Hill
#
# Bulk Modulus (GPa) = 59.42717 87.68198 73.55457
# Shear Modulus (GPa) = 37.84018 52.79854 45.31936
#
# Velocity S-wave (km/s) = 3.70794 4.37993 4.05787
# Velocity P-wave (km/s) = 6.31854 7.57870 6.97713
#
# Compressibility (1/GPa) = 0.01682732
#
# Stress axis : x y z
#
# Youngs Moduli (GPa) = 52.47540 158.11743 106.11541
#
# Poissons Ratio (x) = 0.11252 0.53830
# Poissons Ratio (y) = 0.03734 0.34002
# Poissons Ratio (z) = 0.26620 0.50665
#
# Static dielectric constant tensor:
#      x y z
#    x 2.131430 -0.026310 0.072650 
#    y -0.026310 2.194440 0.001620 
#    z 0.072650 0.001620 2.231930 
# 
# From -- ./inp_files/547386.got.cif
#   From: 2010.05.17/outbox.cif.g08.bks.cpg/sg2_274_cif.got.tgz:547386.got - 2010.06.03 11:33:40.
