data_PCOD9091353
_publ_section_title
;
Structure prediction by ZEFSAII (Michael W. Deem and Ramdas Pophale) SiO2 
 PCOD9091353
Probable space group: P -1
;
_chemical_formula_sum "Si O2"
_cell_formula_units_Z 14
_cell_length_a 16.733394
_cell_length_b 10.627168
_cell_length_c 8.685826
_cell_angle_alpha 126.735832
_cell_angle_beta 93.456357
_cell_angle_gamma 43.663273
_cell_volume 632.075518
_symmetry_space_group_name_H-M "P -1"
_symmetry_group_IT_number 2
_symmetry_cell_setting 'triclinic'
loop_
_space_group_symop_operation_xyz
x,y,z
-x,-y,-z
loop_
_atom_site_type_symbol
_atom_site_label
_atom_site_fract_x
_atom_site_fract_y
_atom_site_fract_z
Si Si1 0.230824 0.223849 0.300584
Si Si2 0.497981 0.686212 0.162493
Si Si3 0.171557 0.743949 0.003696
Si Si4 0.354065 0.160087 0.677638
Si Si5 0.919733 0.820686 0.899989
Si Si6 0.789085 0.506438 0.781744
Si Si7 0.075191 0.015978 0.671512
O O1 0.196310 0.120560 0.128271
O O2 0.234588 0.358052 0.276941
O O3 0.084579 0.491611 0.598617
O O4 0.395274 0.935273 0.196873
O O5 0.392643 0.915747 0.466368
O O6 0.500000 0.500000 0.000000
O O7 0.676923 0.437568 0.028705
O O8 0.016957 0.976171 0.253812
O O9 0.130926 0.925854 0.993248
O O10 0.218826 0.480543 0.802638
O O11 0.500000 0.000000 0.500000
O O12 0.328704 0.239396 0.910805
O O13 0.906615 0.877984 0.123239
O O14 0.956330 0.268752 0.709017
O O15 0.781343 0.329650 0.628344
#
# Coordination Sequence:
#
# PCOD9091353 Si02
#       7
#     2   2   2   2   2   2   2
#     4  11  23  38  62 100 129 170 213 257 319 380
#     4  11  22  41  65  90 128 170 214 252 319 392
#     4  10  19  39  65  92 124 162 215 256 312 382
#     4   9  21  40  65  87 122 170 208 258 319 375
#     4  11  22  38  65  96 131 167 211 262 316 388
#     4  10  21  39  63  94 129 157 217 269 314 371
#     4  10  21  38  64  96 125 166 206 269 321 367
#
# _framework density 22.149251
#
# number of rings (size 3 to 8) (size 9 to 14) (size 15 to 20)
#    0.000    1.714    2.857    2.143    2.000    0.571 
#    0.000   12.857    3.143    0.000    0.000    0.000 
#    0.000    0.000    0.000    0.000    0.000    0.000 
#
# Total GULP energy -77966.650675 kJ/mol
# GULP energy per Si atom -5569.046477 kJ/mol
# Density = 2.209884 g / cm^3
# Si number density = 22.149251 Si / 1000 Ang^3
#
#
#
# Elastic Constant Matrix: (Units=GPa)
#
#
# Indices 1 2 3 4 5 6 
#
# 1 41.1327 4.8561 22.2698 -3.0755 21.6522 -20.9235
# 2 4.8561 106.6054 21.6218 -0.2503 7.8527 -8.3595
# 3 22.2698 21.6218 137.5490 -16.5918 33.8118 -8.8055
# 4 -3.0755 -0.2503 -16.5918 27.9045 -8.1526 15.9525
# 5 21.6522 7.8527 33.8118 -8.1526 33.2525 -4.7983
# 6 -20.9235 -8.3595 -8.8055 15.9525 -4.7983 38.2966
#
#
#
# Elastic Compliance Matrix: (Units=1/GPa)
#
#
# Indices 1 2 3 4 5 6 
#
# 1 0.071447 0.004249 -0.001674 -0.034316 -0.047319 0.047944
# 2 0.004249 0.010224 -0.001529 -0.004761 -0.003974 0.005687
# 3 -0.001674 -0.001529 0.010196 0.004540 -0.008064 -0.001806
# 4 -0.034316 -0.004761 0.004540 0.068101 0.029280 -0.043443
# 5 -0.047319 -0.003974 -0.008064 0.029280 0.072631 -0.031671
# 6 0.047944 0.005687 -0.001806 -0.043443 -0.031671 0.067261
#
#
# Mechanical properties :
#
#
# Convention : Reuss Voigt Hill
#
# Bulk Modulus (GPa) = 10.64272 42.53140 26.58706
# Shear Modulus (GPa) = 15.19359 35.66001 25.42680
#
# Velocity S-wave (km/s) = 2.62193 4.01682 3.39185
# Velocity P-wave (km/s) = 3.73918 6.38412 5.23156
#
# Compressibility (1/GPa) = 0.09396090
#
# Stress axis : x y z
#
# Youngs Moduli (GPa) = 13.99637 97.80547 98.08055
#
# Poissons Ratio (x) = -0.41562 0.16419
# Poissons Ratio (y) = -0.05948 0.14993
# Poissons Ratio (z) = 0.02343 0.14951
#
# Static dielectric constant tensor:
#      x y z
#    x 1.858750 -0.039210 0.022540 
#    y -0.039210 1.838100 0.022430 
#    z 0.022540 0.022430 2.071990 
# 
# From -- ./inp_files/332467.got.cif
#   From: 2010.05.17/outbox.cif.g08.bks.cpg/sg2_167_cif.got.tgz:332467.got - 2010.06.03 11:33:40.
