data_PCOD9091871
_publ_section_title
;
Structure prediction by ZEFSAII (Michael W. Deem and Ramdas Pophale) SiO2 
 PCOD9091871
Probable space group: P -1
;
_chemical_formula_sum "Si O2"
_cell_formula_units_Z 14
_cell_length_a 30.803409
_cell_length_b 24.932934
_cell_length_c 9.167893
_cell_angle_alpha 145.617442
_cell_angle_beta 36.108989
_cell_angle_gamma 171.646500
_cell_volume 574.460861
_symmetry_space_group_name_H-M "P -1"
_symmetry_group_IT_number 2
_symmetry_cell_setting 'triclinic'
loop_
_space_group_symop_operation_xyz
x,y,z
-x,-y,-z
loop_
_atom_site_type_symbol
_atom_site_label
_atom_site_fract_x
_atom_site_fract_y
_atom_site_fract_z
Si Si1 0.987215 0.587751 0.164028
Si Si2 0.404391 0.314955 0.478236
Si Si3 0.333083 0.481551 0.545308
Si Si4 0.373475 0.408871 0.010999
Si Si5 0.904537 0.259078 0.104440
Si Si6 0.995135 0.234901 0.038932
Si Si7 0.433931 0.835783 0.431122
O O1 0.924946 0.499384 0.962939
O O2 0.721036 0.313164 0.342988
O O3 0.313858 0.042965 0.338458
O O4 0.000000 0.500000 0.000000
O O5 0.500000 0.500000 0.500000
O O6 0.665134 0.595701 0.504463
O O7 0.217952 0.144839 0.722142
O O8 0.259761 0.041890 0.184035
O O9 0.131465 0.319802 0.765899
O O10 0.239768 0.323039 0.285422
O O11 0.500000 0.500000 0.000000
O O12 0.647116 0.793608 0.036673
O O13 0.055167 0.406900 0.172357
O O14 0.688659 0.077387 0.314959
O O15 0.173753 0.452287 0.192571
O O16 0.500000 0.000000 0.500000
#
# Coordination Sequence:
#
# PCOD9091871 Si02
#       7
#     2   2   2   2   2   2   2
#     4  11  21  44  69  95 135 169 219 279 333 398
#     4  10  19  40  62  91 138 168 220 271 315 391
#     4  10  22  40  65  95 133 178 219 267 336 388
#     4  10  22  38  64  93 132 181 221 258 329 392
#     4  11  25  43  66 103 131 171 227 272 329 396
#     4  12  23  43  70  97 137 172 222 279 324 398
#     4  12  24  46  73  93 132 179 215 277 343 387
#
# _framework density 24.370676
#
# number of rings (size 3 to 8) (size 9 to 14) (size 15 to 20)
#    0.000    1.143    7.143    0.000    0.000    4.000 
#    0.000    2.143    0.000    0.000    0.000    0.000 
#    0.000    0.000    0.000    0.000    0.000    0.000 
#
# Total GULP energy -78218.954174 kJ/mol
# GULP energy per Si atom -5587.068155 kJ/mol
# Density = 2.431521 g / cm^3
# Si number density = 24.370676 Si / 1000 Ang^3
#
#
#
# Elastic Constant Matrix: (Units=GPa)
#
#
# Indices 1 2 3 4 5 6 
#
# 1 185.6399 40.9172 59.4544 -29.3893 -2.5895 -1.3210
# 2 40.9172 53.8504 25.5949 -16.5898 -1.1646 1.8434
# 3 59.4544 25.5949 148.2431 -35.2735 4.6177 8.0316
# 4 -29.3893 -16.5898 -35.2735 46.3360 -10.8112 0.5052
# 5 -2.5895 -1.1646 4.6177 -10.8112 33.4404 3.8098
# 6 -1.3210 1.8434 8.0316 0.5052 3.8098 39.4912
#
#
#
# Elastic Compliance Matrix: (Units=1/GPa)
#
#
# Indices 1 2 3 4 5 6 
#
# 1 0.007180 -0.003969 -0.001776 0.002068 0.001259 0.000639
# 2 -0.003969 0.024055 -0.001181 0.005849 0.002739 -0.001354
# 3 -0.001776 -0.001181 0.009060 0.005503 0.000574 -0.001973
# 4 0.002068 0.005849 0.005503 0.031566 0.010117 -0.002703
# 5 0.001259 0.002739 0.000574 0.010117 0.033697 -0.003583
# 6 0.000639 -0.001354 -0.001973 -0.002703 -0.003583 0.026188
#
#
# Mechanical properties :
#
#
# Convention : Reuss Voigt Hill
#
# Bulk Modulus (GPa) = 37.81864 71.07403 54.44633
# Shear Modulus (GPa) = 32.38057 41.30465 36.84261
#
# Velocity S-wave (km/s) = 3.64905 4.12132 3.89235
# Velocity P-wave (km/s) = 5.77112 7.20237 6.52610
#
# Compressibility (1/GPa) = 0.02644199
#
# Stress axis : x y z
#
# Youngs Moduli (GPa) = 139.27888 41.57153 110.36967
#
# Poissons Ratio (x) = 0.16500 0.19603
# Poissons Ratio (y) = 0.55279 0.13040
# Poissons Ratio (z) = 0.24738 0.04912
#
# Static dielectric constant tensor:
#      x y z
#    x 1.989510 -0.090830 0.035940 
#    y -0.090830 2.204720 0.064100 
#    z 0.035940 0.064100 2.013590 
# 
# From -- ./inp_files/355685.got.cif
#   From: 2010.05.17/outbox.cif.g08.bks.cpg/sg2_178_cif.got.tgz:355685.got - 2010.06.03 11:33:40.
