data_PCOD9091541
_publ_section_title
;
Structure prediction by ZEFSAII (Michael W. Deem and Ramdas Pophale) SiO2 
 PCOD9091541
Probable space group: P -1
;
_chemical_formula_sum "Si O2"
_cell_formula_units_Z 16
_cell_length_a 21.277997
_cell_length_b 11.391763
_cell_length_c 15.193049
_cell_angle_alpha 25.576306
_cell_angle_beta 152.470593
_cell_angle_gamma 143.054279
_cell_volume 734.839609
_symmetry_space_group_name_H-M "P -1"
_symmetry_group_IT_number 2
_symmetry_cell_setting 'triclinic'
loop_
_space_group_symop_operation_xyz
x,y,z
-x,-y,-z
loop_
_atom_site_type_symbol
_atom_site_label
_atom_site_fract_x
_atom_site_fract_y
_atom_site_fract_z
Si Si1 0.799332 0.505605 0.943092
Si Si2 0.491091 0.982736 0.394882
Si Si3 0.777345 0.999375 0.690813
Si Si4 0.215440 0.365987 0.361248
Si Si5 0.183510 0.941498 0.010385
Si Si6 0.041754 0.238443 0.785322
Si Si7 0.512300 0.444268 0.658915
Si Si8 0.013020 0.905327 0.480562
O O1 0.925110 0.393200 0.230025
O O2 0.768608 0.818086 0.715129
O O3 0.814890 0.495240 0.865006
O O4 0.666795 0.340546 0.923500
O O5 0.630938 0.130514 0.438609
O O6 0.505484 0.699278 0.547304
O O7 0.500000 0.000000 0.500000
O O8 0.334910 0.059782 0.130323
O O9 0.823870 0.787133 0.968978
O O10 0.907992 0.184711 0.713781
O O11 0.374510 0.284530 0.616616
O O12 0.117232 0.115686 0.423185
O O13 0.191765 0.615206 0.230613
O O14 0.081145 0.013058 0.913635
O O15 0.122179 0.075031 0.756434
O O16 0.000000 0.500000 0.500000
O O17 0.500000 0.500000 0.500000
O O18 0.000000 0.000000 0.500000
#
# Coordination Sequence:
#
# PCOD9091541 Si02
#       8
#     2   2   2   2   2   2   2   2
#     4  10  20  39  62  88 126 155 204 251 316 369
#     4  10  19  39  67  91 120 169 214 252 316 378
#     4  10  22  40  65  87 119 171 197 256 316 363
#     4  10  21  39  61  92 124 161 202 259 312 364
#     4  11  22  40  65  87 129 163 205 264 309 369
#     4  11  23  40  62  92 122 157 216 252 304 371
#     4   8  18  36  63  90 119 164 209 255 312 377
#     4  12  24  35  59  95 127 161 206 250 313 375
#
# _framework density 21.773461000000001
#
# number of rings (size 3 to 8) (size 9 to 14) (size 15 to 20)
#    0.000    1.750    2.500    1.875    1.750    0.500 
#    0.000    0.625   11.000    0.000    0.000    0.000 
#    0.000    0.000    0.000    0.000    0.000    0.000 
#
# Total GULP energy -89099.526357 kJ/mol
# GULP energy per Si atom -5568.720397 kJ/mol
# Density = 2.172390 g / cm^3
# Si number density = 21.773461 Si / 1000 Ang^3
#
#
#
# Elastic Constant Matrix: (Units=GPa)
#
#
# Indices 1 2 3 4 5 6 
#
# 1 112.5337 34.5686 25.8548 8.9035 10.9437 -5.0518
# 2 34.5686 62.5996 28.0779 28.1727 1.2493 6.1812
# 3 25.8548 28.0779 67.3039 33.1923 -5.6546 18.1089
# 4 8.9035 28.1727 33.1923 43.6809 -1.0122 6.7483
# 5 10.9437 1.2493 -5.6546 -1.0122 23.1830 9.6742
# 6 -5.0518 6.1812 18.1089 6.7483 9.6742 46.6738
#
#
#
# Elastic Compliance Matrix: (Units=1/GPa)
#
#
# Indices 1 2 3 4 5 6 
#
# 1 0.014013 -0.007623 -0.008604 0.007251 -0.010943 0.007085
# 2 -0.007623 0.027411 0.000300 -0.015853 0.002686 -0.002837
# 3 -0.008604 0.000300 0.034210 -0.021750 0.017594 -0.014746
# 4 0.007251 -0.015853 -0.021750 0.047002 -0.008440 0.006277
# 5 -0.010943 0.002686 0.017594 -0.008440 0.060274 -0.019639
# 6 0.007085 -0.002837 -0.014746 0.006277 -0.019639 0.031452
#
#
# Mechanical properties :
#
#
# Convention : Reuss Voigt Hill
#
# Bulk Modulus (GPa) = 22.84176 46.60443 34.72309
# Shear Modulus (GPa) = 19.17107 32.96995 26.07051
#
# Velocity S-wave (km/s) = 2.97051 3.89553 3.46403
# Velocity P-wave (km/s) = 4.72002 6.45633 5.65521
#
# Compressibility (1/GPa) = 0.04377947
#
# Stress axis : x y z
#
# Youngs Moduli (GPa) = 71.36030 36.48230 29.23120
#
# Poissons Ratio (x) = 0.27812 0.25151
# Poissons Ratio (y) = 0.54401 -0.00878
# Poissons Ratio (z) = 0.61400 -0.01096
#
# Static dielectric constant tensor:
#      x y z
#    x 0.805700 0.563470 -0.006480 
#    y 0.563470 1.535980 0.034680 
#    z -0.006480 0.034680 1.820550 
# 
# From -- ./inp_files/540935.got.cif
#   From: 2010.05.17/outbox.cif.g08.bks.cpg/sg2_271_cif.got.tgz:540935.got - 2010.06.03 11:33:40.
