data_PCOD9091725
_publ_section_title
;
Structure prediction by ZEFSAII (Michael W. Deem and Ramdas Pophale) SiO2 
 PCOD9091725
Probable space group: P -1
;
_chemical_formula_sum "Si O2"
_cell_formula_units_Z 16
_cell_length_a 19.119088
_cell_length_b 13.109184
_cell_length_c 20.979127
_cell_angle_alpha 161.772664
_cell_angle_beta 156.385236
_cell_angle_gamma 31.398907
_cell_volume 652.938295
_symmetry_space_group_name_H-M "P -1"
_symmetry_group_IT_number 2
_symmetry_cell_setting 'triclinic'
loop_
_space_group_symop_operation_xyz
x,y,z
-x,-y,-z
loop_
_atom_site_type_symbol
_atom_site_label
_atom_site_fract_x
_atom_site_fract_y
_atom_site_fract_z
Si Si1 0.720467 0.921359 0.453627
Si Si2 0.573320 0.218265 0.131320
Si Si3 0.893690 0.906310 0.711339
Si Si4 0.852204 0.237235 0.998976
Si Si5 0.555173 0.972250 0.223657
Si Si6 0.422477 0.218648 0.437740
Si Si7 0.027975 0.733538 0.528015
Si Si8 0.246789 0.345364 0.237335
O O1 0.598488 0.778197 0.207909
O O2 0.613651 0.208426 0.560891
O O3 0.758837 0.756455 0.455189
O O4 0.910274 0.962935 0.602811
O O5 0.582488 0.580379 0.382556
O O6 0.769263 0.134234 0.232627
O O7 0.500000 0.000000 0.000000
O O8 0.465306 0.187007 0.957246
O O9 0.970383 0.600203 0.626431
O O10 0.814311 0.132746 0.832421
O O11 0.051385 0.157106 0.961726
O O12 0.682876 0.132450 0.839531
O O13 0.939094 0.599740 0.307444
O O14 0.000000 0.000000 0.000000
O O15 0.375623 0.122621 0.177927
O O16 0.706209 0.289662 0.533916
O O17 0.308278 0.364002 0.373839
#
# Coordination Sequence:
#
# PCOD9091725 Si02
#       8
#     2   2   2   2   2   2   2   2
#     4  11  27  42  63 100 138 170 211 280 322 379
#     4  12  23  43  73  95 127 177 220 262 324 403
#     4  11  21  42  70  93 128 178 218 265 326 389
#     4  10  19  39  71  95 124 167 218 271 314 393
#     4  10  24  40  62  98 133 170 216 267 321 390
#     4  11  21  44  67 100 127 167 220 270 331 374
#     4  11  23  45  68  98 128 172 226 262 327 393
#     4  10  19  42  69  90 129 176 216 258 330 392
#
# _framework density 24.504612000000002
#
# number of rings (size 3 to 8) (size 9 to 14) (size 15 to 20)
#    0.000    1.250    6.250    1.125    0.000    2.500 
#    4.500    0.625    0.000    0.000    0.000    0.000 
#    0.000    0.000    0.000    0.000    0.000    0.000 
#
# Total GULP energy -89369.822347 kJ/mol
# GULP energy per Si atom -5585.613897 kJ/mol
# Density = 2.444884 g / cm^3
# Si number density = 24.504612 Si / 1000 Ang^3
#
#
#
# Elastic Constant Matrix: (Units=GPa)
#
#
# Indices 1 2 3 4 5 6 
#
# 1 158.4369 49.9259 60.4221 -21.2071 -23.9004 10.5594
# 2 49.9259 61.5183 32.8702 -19.3578 -10.8681 -2.7439
# 3 60.4221 32.8702 86.7472 -8.9040 0.9508 12.8218
# 4 -21.2071 -19.3578 -8.9040 16.7239 6.9573 4.6596
# 5 -23.9004 -10.8681 0.9508 6.9573 59.7790 -15.0879
# 6 10.5594 -2.7439 12.8218 4.6596 -15.0879 39.1520
#
#
#
# Elastic Compliance Matrix: (Units=1/GPa)
#
#
# Indices 1 2 3 4 5 6 
#
# 1 0.010774 -0.003575 -0.005454 0.005705 0.002839 -0.000955
# 2 -0.003575 0.032118 -0.007444 0.026818 0.002247 0.003327
# 3 -0.005454 -0.007444 0.019206 -0.000919 -0.005597 -0.007388
# 4 0.005705 0.026818 -0.000919 0.105619 -0.009008 -0.015399
# 5 0.002839 0.002247 -0.005597 -0.009008 0.022143 0.010830
# 6 -0.000955 0.003327 -0.007388 -0.015399 0.010830 0.034458
#
#
# Mechanical properties :
#
#
# Convention : Reuss Voigt Hill
#
# Bulk Modulus (GPa) = 34.30250 65.90429 50.10340
# Shear Modulus (GPa) = 18.72794 34.02990 26.37892
#
# Velocity S-wave (km/s) = 2.76753 3.73059 3.28455
# Velocity P-wave (km/s) = 4.92352 6.74607 5.90553
#
# Compressibility (1/GPa) = 0.02915239
#
# Stress axis : x y z
#
# Youngs Moduli (GPa) = 92.81798 31.13492 52.06706
#
# Poissons Ratio (x) = 0.11132 0.28397
# Poissons Ratio (y) = 0.33187 0.38756
# Poissons Ratio (z) = 0.50622 0.23175
#
# Static dielectric constant tensor:
#      x y z
#    x 1.947970 0.021550 -0.012040 
#    y 0.021550 1.980520 0.009250 
#    z -0.012040 0.009250 2.020770 
# 
# From -- ./inp_files/613816.got.cif
#   From: 2010.05.17/outbox.cif.g08.bks.cpg/sg2_307_cif.got.tgz:613816.got - 2010.06.03 11:33:40.
