data_PCOD9091567
_publ_section_title
;
Structure prediction by ZEFSAII (Michael W. Deem and Ramdas Pophale) SiO2 
 PCOD9091567
Probable space group: P -1
;
_chemical_formula_sum "Si O2"
_cell_formula_units_Z 14
_cell_length_a 7.589334
_cell_length_b 14.951134
_cell_length_c 21.433948
_cell_angle_alpha 18.581765
_cell_angle_beta 49.931922
_cell_angle_gamma 44.418932
_cell_volume 536.341188
_symmetry_space_group_name_H-M "P -1"
_symmetry_group_IT_number 2
_symmetry_cell_setting 'triclinic'
loop_
_space_group_symop_operation_xyz
x,y,z
-x,-y,-z
loop_
_atom_site_type_symbol
_atom_site_label
_atom_site_fract_x
_atom_site_fract_y
_atom_site_fract_z
Si Si1 0.826009 0.847337 0.782034
Si Si2 0.265041 0.938876 0.676611
Si Si3 0.523826 0.057775 0.883717
Si Si4 0.029055 0.812323 0.296528
Si Si5 0.508235 0.687816 0.036507
Si Si6 0.011257 0.724984 0.111345
Si Si7 0.791455 0.864216 0.633835
O O1 0.765867 0.814867 0.745745
O O2 0.001411 0.031510 0.634543
O O3 0.559614 0.946435 0.814086
O O4 0.000000 0.500000 0.000000
O O5 0.413423 0.593937 0.843166
O O6 0.498727 0.045891 0.553590
O O7 0.162276 0.983418 0.741058
O O8 0.687541 0.243962 0.710177
O O9 0.227420 0.231425 0.820828
O O10 0.500000 0.000000 0.000000
O O11 0.649549 0.720825 0.044742
O O12 0.000000 0.500000 0.500000
O O13 0.004012 0.001660 0.113309
O O14 0.249500 0.694209 0.117970
O O15 0.082428 0.435345 0.240606
O O16 0.000000 0.000000 0.500000
#
# Coordination Sequence:
#
# PCOD9091567 Si02
#       7
#     2   2   2   2   2   2   2
#     4  10  20  37  68  96 129 170 222 272 328 394
#     4  10  22  40  68  97 132 170 229 280 325 396
#     4  10  22  37  63  93 128 173 211 269 335 392
#     4  11  23  41  64  97 130 175 221 269 332 401
#     4  10  19  39  67  95 120 172 226 269 332 391
#     4  10  22  41  64  91 135 174 216 272 338 397
#     4  11  25  42  67 102 138 175 220 284 344 393
#
# _framework density 26.102785000000001
#
# number of rings (size 3 to 8) (size 9 to 14) (size 15 to 20)
#    0.000    1.714    1.429    3.000    8.000    4.571 
#    0.000    7.857    0.000    0.000    0.000    0.000 
#    0.000    0.000    0.000    0.000    0.000    0.000 
#
# Total GULP energy -77978.576652 kJ/mol
# GULP energy per Si atom -5569.898332 kJ/mol
# Density = 2.604337 g / cm^3
# Si number density = 26.102785 Si / 1000 Ang^3
#
#
#
# Elastic Constant Matrix: (Units=GPa)
#
#
# Indices 1 2 3 4 5 6 
#
# 1 106.5275 46.9138 71.9667 3.9996 -53.8955 -11.2727
# 2 46.9138 138.4031 51.8563 9.9726 -32.8292 -4.3609
# 3 71.9667 51.8563 133.6689 5.8976 -41.7775 -10.5476
# 4 3.9996 9.9726 5.8976 24.5820 -3.7520 -27.3361
# 5 -53.8955 -32.8292 -41.7775 -3.7520 59.3714 17.9093
# 6 -11.2727 -4.3609 -10.5476 -27.3361 17.9093 65.1102
#
#
#
# Elastic Compliance Matrix: (Units=1/GPa)
#
#
# Indices 1 2 3 4 5 6 
#
# 1 0.021913 -0.001318 -0.006701 -0.001515 0.014998 -0.002142
# 2 -0.001318 0.009581 -0.001927 -0.006796 0.003431 -0.003696
# 3 -0.006701 -0.001927 0.012343 -0.000996 0.001511 -0.000124
# 4 -0.001515 -0.006796 -0.000996 0.083971 -0.011883 0.037645
# 5 0.014998 0.003431 0.001511 -0.011883 0.036254 -0.011890
# 6 -0.002142 -0.003696 -0.000124 0.037645 -0.011890 0.033796
#
#
# Mechanical properties :
#
#
# Convention : Reuss Voigt Hill
#
# Bulk Modulus (GPa) = 41.76150 80.00813 60.88482
# Shear Modulus (GPa) = 22.15024 43.67024 32.91024
#
# Velocity S-wave (km/s) = 2.91620 4.09468 3.55462
# Velocity P-wave (km/s) = 5.23188 7.28512 6.34214
#
# Compressibility (1/GPa) = 0.02394550
#
# Stress axis : x y z
#
# Youngs Moduli (GPa) = 45.63513 104.37352 81.01723
#
# Poissons Ratio (x) = 0.13753 0.54291
# Poissons Ratio (y) = 0.06013 0.15611
# Poissons Ratio (z) = 0.30581 0.20111
#
# Static dielectric constant tensor:
#      x y z
#    x 2.461500 -0.285300 0.073210 
#    y -0.285300 2.257780 -0.024610 
#    z 0.073210 -0.024610 2.079430 
# 
# From -- ./inp_files/392136.got.cif
#   From: 2010.05.17/outbox.cif.g08.bks.cpg/sg2_197_cif.got.tgz:392136.got - 2010.06.03 11:33:40.
