data_PCOD9091879
_publ_section_title
;
Structure prediction by ZEFSAII (Michael W. Deem and Ramdas Pophale) SiO2 
 PCOD9091879
Probable space group: P -1
;
_chemical_formula_sum "Si O2"
_cell_formula_units_Z 16
_cell_length_a 13.079450
_cell_length_b 15.512456
_cell_length_c 9.474109
_cell_angle_alpha 106.540102
_cell_angle_beta 63.062366
_cell_angle_gamma 151.488156
_cell_volume 788.435061
_symmetry_space_group_name_H-M "P -1"
_symmetry_group_IT_number 2
_symmetry_cell_setting 'triclinic'
loop_
_space_group_symop_operation_xyz
x,y,z
-x,-y,-z
loop_
_atom_site_type_symbol
_atom_site_label
_atom_site_fract_x
_atom_site_fract_y
_atom_site_fract_z
Si Si1 0.475974 0.829455 0.646552
Si Si2 0.148401 0.998001 0.705877
Si Si3 0.485651 0.711671 0.867111
Si Si4 0.769756 0.741588 0.300767
Si Si5 0.058305 0.517424 0.134944
Si Si6 0.440287 0.929464 0.163922
Si Si7 0.284124 0.318720 0.371324
Si Si8 0.166705 0.939952 0.980654
O O1 0.611976 0.876760 0.455500
O O2 0.484505 0.768354 0.748349
O O3 0.198266 0.662008 0.714658
O O4 0.604434 0.010784 0.693976
O O5 0.153181 0.108584 0.734252
O O6 0.130333 0.958476 0.860334
O O7 0.924707 0.807303 0.667110
O O8 0.576700 0.675698 0.758710
O O9 0.228726 0.547673 0.027308
O O10 0.670914 0.885941 0.938595
O O11 0.487148 0.533873 0.359164
O O12 0.822278 0.770655 0.447872
O O13 0.916451 0.765963 0.138097
O O14 0.223282 0.709611 0.187463
O O15 0.000000 0.500000 0.000000
O O16 0.678975 0.044143 0.122483
O O17 0.500000 0.000000 0.000000
#
# Coordination Sequence:
#
# PCOD9091879 Si02
#       8
#     2   2   2   2   2   2   2   2
#     4  11  22  39  65  88 128 165 205 266 310 367
#     4  12  25  44  60  93 138 168 202 261 326 373
#     4  10  19  40  62  95 124 159 214 258 311 372
#     4  11  24  42  67  95 123 167 216 262 311 378
#     4   9  19  34  60  94 118 158 204 262 308 357
#     4  11  21  38  64  94 119 164 217 257 304 371
#     4  11  24  40  68  99 120 164 220 263 312 370
#     4  11  24  41  65  92 131 172 204 258 323 380
#
# _framework density 20.293365000000001
#
# number of rings (size 3 to 8) (size 9 to 14) (size 15 to 20)
#    0.000    1.250    6.250    1.500    1.750    2.000 
#    0.000    2.500    0.000    0.000    0.000    0.000 
#    0.000    0.000    0.000    0.000    0.000    0.000 
#
# Total GULP energy -89392.447960 kJ/mol
# GULP energy per Si atom -5587.027998 kJ/mol
# Density = 2.024718 g / cm^3
# Si number density = 20.293365 Si / 1000 Ang^3
#
#
#
# Elastic Constant Matrix: (Units=GPa)
#
#
# Indices 1 2 3 4 5 6 
#
# 1 30.3894 7.9294 17.8650 -6.6737 -1.3809 20.0497
# 2 7.9294 52.2007 16.7382 -11.5995 1.1585 7.8598
# 3 17.8650 16.7382 74.4394 -8.0746 -13.8361 25.4639
# 4 -6.6737 -11.5995 -8.0746 11.2077 5.9774 -20.3730
# 5 -1.3809 1.1585 -13.8361 5.9774 39.1416 8.2313
# 6 20.0497 7.8598 25.4639 -20.3730 8.2313 13.2356
#
#
#
# Elastic Compliance Matrix: (Units=1/GPa)
#
#
# Indices 1 2 3 4 5 6 
#
# 1 0.042455 0.003024 -0.009795 0.029393 -0.007039 0.002358
# 2 0.003024 0.021373 -0.001369 0.002818 0.000836 -0.010822
# 3 -0.009795 -0.001369 0.015888 0.014423 0.001814 0.006158
# 4 0.029393 0.002818 0.014423 0.020566 0.013580 -0.050735
# 5 -0.007039 0.000836 0.001814 0.013580 0.020757 0.014672
# 6 0.002358 -0.010822 0.006158 -0.050735 0.014672 -0.020658
#
#
# Mechanical properties :
#
#
# Convention : Reuss Voigt Hill
#
# Bulk Modulus (GPa) = 15.76396 26.89941 21.33169
# Shear Modulus (GPa) = 36.28270 20.35012 28.31641
#
# Velocity S-wave (km/s) = 4.23296 3.17013 3.73949
# Velocity P-wave (km/s) = 5.62809 5.16563 5.40181
#
# Compressibility (1/GPa) = 0.06343583
#
# Stress axis : x y z
#
# Youngs Moduli (GPa) = 23.55444 46.78694 62.94232
#
# Poissons Ratio (x) = -0.14150 0.61655
# Poissons Ratio (y) = -0.07124 0.08617
# Poissons Ratio (z) = 0.23073 0.06405
#
# Static dielectric constant tensor:
#      x y z
#    x 1.726400 -0.005690 -0.037870 
#    y -0.005690 1.749570 -0.018440 
#    z -0.037870 -0.018440 1.695110 
# 
# From -- ./inp_files/272331.got.cif
#   From: 2010.05.17/outbox.cif.g08.bks.cpg/sg2_137_cif.got.tgz:272331.got - 2010.06.03 11:33:40.
