data_PCOD9091110
_publ_section_title
;
Structure prediction by ZEFSAII (Michael W. Deem and Ramdas Pophale) SiO2 
 PCOD9091110
Probable space group: P -1
;
_chemical_formula_sum "Si O2"
_cell_formula_units_Z 13
_cell_length_a 11.047083
_cell_length_b 9.731259
_cell_length_c 7.033281
_cell_angle_alpha 114.950847
_cell_angle_beta 118.891079
_cell_angle_gamma 54.576725
_cell_volume 528.687425
_symmetry_space_group_name_H-M "P -1"
_symmetry_group_IT_number 2
_symmetry_cell_setting 'triclinic'
loop_
_space_group_symop_operation_xyz
x,y,z
-x,-y,-z
loop_
_atom_site_type_symbol
_atom_site_label
_atom_site_fract_x
_atom_site_fract_y
_atom_site_fract_z
Si Si1 0.955203 0.299120 0.200321
Si Si2 0.460434 0.142095 0.713762
Si Si3 0.914034 0.478457 0.740348
Si Si4 0.298394 0.854708 0.840747
Si Si5 0.000000 0.000000 0.000000
Si Si6 0.347386 0.492369 0.650930
Si Si7 0.843064 0.882459 0.439678
O O1 0.057874 0.393137 0.302429
O O2 0.081643 0.112375 0.292991
O O3 0.932984 0.197759 0.952418
O O4 0.798548 0.428367 0.262300
O O5 0.462269 0.307505 0.714387
O O6 0.290886 0.174517 0.674005
O O7 0.500000 0.000000 0.500000
O O8 0.581027 0.086942 0.946307
O O9 0.732192 0.530250 0.615896
O O10 0.009787 0.281896 0.632553
O O11 0.000000 0.500000 0.000000
O O12 0.386820 0.648124 0.754853
O O13 0.222218 0.952310 0.644153
O O14 0.162465 0.907982 0.925195
#
# Coordination Sequence:
#
# PCOD9091110 Si02
#       7
#     2   2   2   2   1   2   2
#     4  10  19  39  63  91 130 171 207 280 322 384
#     4  12  24  43  69  91 133 181 221 269 328 394
#     4  11  21  36  70  96 127 168 221 274 321 393
#     4  11  25  41  67  98 135 176 213 276 331 392
#     4  10  22  38  64  96 132 162 226 262 336 378
#     4  10  22  43  63  92 133 173 215 270 334 380
#     4  11  22  41  66  95 131 167 225 265 331 389
#
# _framework density 24.589198
#
# number of rings (size 3 to 8) (size 9 to 14) (size 15 to 20)
#    0.000    1.231    3.077    3.692    2.154    6.769 
#    0.000    0.769    0.000    0.000    0.000    0.000 
#    0.000    0.000    0.000    0.000    0.000    0.000 
#
# Total GULP energy -72417.337673 kJ/mol
# GULP energy per Si atom -5570.564436 kJ/mol
# Density = 2.453323 g / cm^3
# Si number density = 24.589198 Si / 1000 Ang^3
#
#
#
# Elastic Constant Matrix: (Units=GPa)
#
#
# Indices 1 2 3 4 5 6 
#
# 1 39.9958 -1.5522 7.8777 -14.8599 13.5337 12.7033
# 2 -1.5522 139.4704 32.0955 9.7594 -17.9020 23.7411
# 3 7.8777 32.0955 121.7205 -5.6196 7.6603 7.7561
# 4 -14.8599 9.7594 -5.6196 41.7135 -0.7299 8.6281
# 5 13.5337 -17.9020 7.6603 -0.7299 29.7773 0.9508
# 6 12.7033 23.7411 7.7561 8.6281 0.9508 24.6089
#
#
#
# Elastic Compliance Matrix: (Units=1/GPa)
#
#
# Indices 1 2 3 4 5 6 
#
# 1 0.054826 0.002452 0.000936 0.026882 -0.021763 -0.039546
# 2 0.002452 0.010402 -0.002575 0.000452 0.006160 -0.010886
# 3 0.000936 -0.002575 0.009319 0.002454 -0.004258 -0.001632
# 4 0.026882 0.000452 0.002454 0.039486 -0.010699 -0.028517
# 5 -0.021763 0.006160 -0.004258 -0.010699 0.047738 0.008540
# 6 -0.039546 -0.010886 -0.001632 -0.028517 0.008540 0.081735
#
#
# Mechanical properties :
#
#
# Convention : Reuss Voigt Hill
#
# Bulk Modulus (GPa) = 13.12798 42.00317 27.56558
# Shear Modulus (GPa) = 18.70769 36.73766 27.72268
#
# Velocity S-wave (km/s) = 2.76127 3.86950 3.36137
# Velocity P-wave (km/s) = 3.93912 6.08959 5.12834
#
# Compressibility (1/GPa) = 0.07617318
#
# Stress axis : x y z
#
# Youngs Moduli (GPa) = 18.23957 96.13699 107.30573
#
# Poissons Ratio (x) = -0.23572 -0.10042
# Poissons Ratio (y) = -0.04472 0.27627
# Poissons Ratio (z) = -0.01707 0.24751
#
# Static dielectric constant tensor:
#      x y z
#    x 2.117670 0.150120 -0.047170 
#    y 0.150120 2.098470 -0.004790 
#    z -0.047170 -0.004790 2.223670 
# 
# From -- ./inp_files/235725.got.cif
#   From: 2010.05.17/outbox.cif.g08.bks.cpg/sg2_118_cif.got.tgz:235725.got - 2010.06.03 11:33:40.
