data_PCOD9091303
_publ_section_title
;
Structure prediction by ZEFSAII (Michael W. Deem and Ramdas Pophale) SiO2 
 PCOD9091303
Probable space group: P -1
;
_chemical_formula_sum "Si O2"
_cell_formula_units_Z 16
_cell_length_a 14.804615
_cell_length_b 9.217325
_cell_length_c 17.593517
_cell_angle_alpha 133.928558
_cell_angle_beta 146.219073
_cell_angle_gamma 70.627471
_cell_volume 760.603119
_symmetry_space_group_name_H-M "P -1"
_symmetry_group_IT_number 2
_symmetry_cell_setting 'triclinic'
loop_
_space_group_symop_operation_xyz
x,y,z
-x,-y,-z
loop_
_atom_site_type_symbol
_atom_site_label
_atom_site_fract_x
_atom_site_fract_y
_atom_site_fract_z
Si Si1 0.695657 0.673744 0.096211
Si Si2 0.301417 0.502796 0.367096
Si Si3 0.716435 0.705262 0.954265
Si Si4 0.608040 0.945159 0.843742
Si Si5 0.106915 0.902374 0.045786
Si Si6 0.988483 0.338304 0.771028
Si Si7 0.366457 0.142607 0.738198
Si Si8 0.482434 0.200614 0.522361
O O1 0.683160 0.764544 0.037396
O O2 0.481474 0.411562 0.874630
O O3 0.852774 0.610829 0.165354
O O4 0.752505 0.861453 0.273445
O O5 0.500000 0.500000 0.500000
O O6 0.389143 0.680835 0.568996
O O7 0.352711 0.656703 0.379274
O O8 0.130435 0.188261 0.141092
O O9 0.717842 0.885956 0.960547
O O10 0.535652 0.418914 0.696938
O O11 0.911300 0.699557 0.099665
O O12 0.759101 0.070230 0.922502
O O13 0.537815 0.115703 0.878467
O O14 0.253899 0.032037 0.268126
O O15 0.971470 0.569313 0.845327
O O16 0.778070 0.074588 0.503299
O O17 0.500000 0.000000 0.500000
#
# Coordination Sequence:
#
# PCOD9091303 Si02
#       8
#     2   2   2   2   2   2   2   2
#     4   9  21  37  61  85 112 144 195 236 281 343
#     4  10  21  38  57  82 111 159 193 225 277 346
#     4  10  22  38  53  87 122 140 190 246 277 331
#     4  10  22  38  58  86 117 151 191 235 283 340
#     4  11  22  37  58  78 116 159 190 226 285 338
#     4   9  20  35  59  81 112 142 190 232 280 335
#     4  10  19  39  65  79 109 156 189 229 290 344
#     4  11  24  37  57  85 119 151 193 236 278 334
#
# _framework density 21.035938000000002
#
# number of rings (size 3 to 8) (size 9 to 14) (size 15 to 20)
#    0.750    1.250    0.000    3.375    5.250    5.500 
#    2.250    0.000    0.000    1.500    0.000    0.000 
#    0.000    0.000    0.000    0.000    0.000    0.000 
#
# Total GULP energy -89101.490115 kJ/mol
# GULP energy per Si atom -5568.843132 kJ/mol
# Density = 2.098806 g / cm^3
# Si number density = 21.035938 Si / 1000 Ang^3
#
#
#
# Elastic Constant Matrix: (Units=GPa)
#
#
# Indices 1 2 3 4 5 6 
#
# 1 56.3691 9.4395 8.0249 0.1244 13.6295 -13.8265
# 2 9.4395 122.3833 27.5857 -13.2757 6.0306 -7.3440
# 3 8.0249 27.5857 111.4738 -4.9426 21.8584 2.4345
# 4 0.1244 -13.2757 -4.9426 30.1353 1.2084 5.3504
# 5 13.6295 6.0306 21.8584 1.2084 33.9212 8.7277
# 6 -13.8265 -7.3440 2.4345 5.3504 8.7277 30.7546
#
#
#
# Elastic Compliance Matrix: (Units=1/GPa)
#
#
# Indices 1 2 3 4 5 6 
#
# 1 0.025025 -0.000730 0.000734 -0.002485 -0.014300 0.015509
# 2 -0.000730 0.009174 -0.001983 0.003462 -0.000591 0.001585
# 3 0.000734 -0.001983 0.010845 0.001038 -0.007189 0.000858
# 4 -0.002485 0.003462 0.001038 0.036071 0.000150 -0.006690
# 5 -0.014300 -0.000591 -0.007189 0.000150 0.044779 -0.018735
# 6 0.015509 0.001585 0.000858 -0.006690 -0.018735 0.046279
#
#
# Mechanical properties :
#
#
# Convention : Reuss Voigt Hill
#
# Bulk Modulus (GPa) = 24.33822 42.25847 33.29834
# Shear Modulus (GPa) = 26.33990 35.30730 30.82360
#
# Velocity S-wave (km/s) = 3.54240 4.10131 3.83205
# Velocity P-wave (km/s) = 5.32225 6.52380 5.95341
#
# Compressibility (1/GPa) = 0.04108764
#
# Stress axis : x y z
#
# Youngs Moduli (GPa) = 39.95982 109.00310 92.20423
#
# Poissons Ratio (x) = 0.07956 -0.06771
# Poissons Ratio (y) = 0.02917 0.18283
# Poissons Ratio (z) = -0.02934 0.21615
#
# Static dielectric constant tensor:
#      x y z
#    x 1.746150 -0.047470 0.049210 
#    y -0.047470 1.851980 0.044760 
#    z 0.049210 0.044760 1.923680 
# 
# From -- ./inp_files/575147.got.cif
#   From: 2010.05.17/outbox.cif.g08.bks.cpg/sg2_288_cif.got.tgz:575147.got - 2010.06.03 11:33:40.
