data_PCOD9091089
_publ_section_title
;
Structure prediction by ZEFSAII (Michael W. Deem and Ramdas Pophale) SiO2 
 PCOD9091089
Probable space group: P -1
;
_chemical_formula_sum "Si O2"
_cell_formula_units_Z 16
_cell_length_a 13.779893
_cell_length_b 15.168652
_cell_length_c 14.373817
_cell_angle_alpha 27.836241
_cell_angle_beta 28.520791
_cell_angle_gamma 44.216204
_cell_volume 644.931396
_symmetry_space_group_name_H-M "P -1"
_symmetry_group_IT_number 2
_symmetry_cell_setting 'triclinic'
loop_
_space_group_symop_operation_xyz
x,y,z
-x,-y,-z
loop_
_atom_site_type_symbol
_atom_site_label
_atom_site_fract_x
_atom_site_fract_y
_atom_site_fract_z
Si Si1 0.784179 0.846647 0.299661
Si Si2 0.059672 0.644408 0.728181
Si Si3 0.647106 0.896474 0.160968
Si Si4 0.060437 0.230991 0.471959
Si Si5 0.658774 0.959121 0.825705
Si Si6 0.785599 0.418438 0.656122
Si Si7 0.468185 0.274322 0.203337
Si Si8 0.437286 0.550062 0.378789
O O1 0.700141 0.879641 0.238877
O O2 0.839884 0.637818 0.443754
O O3 0.605627 0.841197 0.531996
O O4 0.000000 0.000000 0.000000
O O5 0.253720 0.589295 0.562267
O O6 0.907862 0.650435 0.762293
O O7 0.135352 0.865357 0.497991
O O8 0.000000 0.500000 0.000000
O O9 0.564807 0.675208 0.397851
O O10 0.462590 0.000299 0.202098
O O11 0.867835 0.032314 0.805561
O O12 0.272432 0.205490 0.361130
O O13 0.971189 0.351139 0.513443
O O14 0.642342 0.729548 0.059821
O O15 0.500000 0.000000 0.000000
O O16 0.629452 0.424246 0.695381
O O17 0.672487 0.280359 0.964196
O O18 0.500000 0.500000 0.000000
#
# Coordination Sequence:
#
# PCOD9091089 Si02
#       8
#     2   2   2   2   2   2   2   2
#     4  10  20  36  60  93 127 165 215 277 317 386
#     4  10  22  40  62  95 130 165 216 276 319 392
#     4  11  20  38  67  90 124 180 215 259 337 382
#     4  11  21  43  67  91 132 178 213 270 341 378
#     4  10  19  39  63  89 125 165 219 262 316 394
#     4   9  20  40  65  88 126 174 212 267 328 383
#     4  10  22  39  64  93 128 163 224 270 316 397
#     4   9  20  39  64  91 125 173 215 263 328 384
#
# _framework density 24.808841000000001
#
# number of rings (size 3 to 8) (size 9 to 14) (size 15 to 20)
#    0.000    2.000    5.000    0.000    0.000    7.000 
#    2.250    2.500    5.500    0.000    0.000    0.000 
#    0.000    0.000    0.000    0.000    0.000    0.000 
#
# Total GULP energy -89523.967230 kJ/mol
# GULP energy per Si atom -5595.247952 kJ/mol
# Density = 2.475238 g / cm^3
# Si number density = 24.808841 Si / 1000 Ang^3
#
#
#
# Elastic Constant Matrix: (Units=GPa)
#
#
# Indices 1 2 3 4 5 6 
#
# 1 136.6703 7.5191 45.9951 7.9337 17.3847 18.2998
# 2 7.5191 118.1253 61.9019 -17.9343 6.2127 15.8774
# 3 45.9951 61.9019 120.0198 -19.1643 16.8147 32.0886
# 4 7.9337 -17.9343 -19.1643 58.2808 14.8400 5.4798
# 5 17.3847 6.2127 16.8147 14.8400 50.3814 5.0540
# 6 18.2998 15.8774 32.0886 5.4798 5.0540 28.8271
#
#
#
# Elastic Compliance Matrix: (Units=1/GPa)
#
#
# Indices 1 2 3 4 5 6 
#
# 1 0.009016 0.001502 -0.003784 -0.001478 -0.001416 -0.001810
# 2 0.001502 0.012017 -0.006242 0.001600 -0.000300 -0.000876
# 3 -0.003784 -0.006242 0.019268 0.007728 -0.005007 -0.016199
# 4 -0.001478 0.001600 0.007728 0.023530 -0.008032 -0.011609
# 5 -0.001416 -0.000300 -0.005007 -0.008032 0.024015 0.003954
# 6 -0.001810 -0.000876 -0.016199 -0.011609 0.003954 0.055866
#
#
# Mechanical properties :
#
#
# Convention : Reuss Voigt Hill
#
# Bulk Modulus (GPa) = 43.00410 67.29419 55.14915
# Shear Modulus (GPa) = 29.67172 44.79115 37.23143
#
# Velocity S-wave (km/s) = 3.46210 4.25367 3.87813
# Velocity P-wave (km/s) = 5.77523 7.16302 6.50624
#
# Compressibility (1/GPa) = 0.02325359
#
# Stress axis : x y z
#
# Youngs Moduli (GPa) = 110.91482 83.21204 51.89980
#
# Poissons Ratio (x) = -0.12500 0.19638
# Poissons Ratio (y) = -0.16661 0.32397
# Poissons Ratio (z) = 0.41968 0.51943
#
# Static dielectric constant tensor:
#      x y z
#    x 1.999600 -0.016040 0.006120 
#    y -0.016040 1.969190 -0.006120 
#    z 0.006120 -0.006120 1.975960 
# 
# From -- ./inp_files/534097.got.cif
#   From: 2010.05.17/outbox.cif.g08.bks.cpg/sg2_268_cif.got.tgz:534097.got - 2010.06.03 11:33:40.
