data_PCOD9091816
_publ_section_title
;
Structure prediction by ZEFSAII (Michael W. Deem and Ramdas Pophale) SiO2 
 PCOD9091816
Probable space group: P -1
;
_chemical_formula_sum "Si O2"
_cell_formula_units_Z 16
_cell_length_a 8.391675
_cell_length_b 14.591172
_cell_length_c 15.369052
_cell_angle_alpha 31.892048
_cell_angle_beta 136.818907
_cell_angle_gamma 138.862082
_cell_volume 631.887637
_symmetry_space_group_name_H-M "P -1"
_symmetry_group_IT_number 2
_symmetry_cell_setting 'triclinic'
loop_
_space_group_symop_operation_xyz
x,y,z
-x,-y,-z
loop_
_atom_site_type_symbol
_atom_site_label
_atom_site_fract_x
_atom_site_fract_y
_atom_site_fract_z
Si Si1 0.987995 0.432810 0.796335
Si Si2 0.748956 0.728277 0.460572
Si Si3 0.972911 0.898272 0.163236
Si Si4 0.307378 0.884717 0.727250
Si Si5 0.317510 0.760883 0.339489
Si Si6 0.666713 0.750292 0.871046
Si Si7 0.520811 0.208068 0.864404
Si Si8 0.867582 0.867460 0.670916
O O1 0.940392 0.623245 0.618555
O O2 0.855135 0.315164 0.752617
O O3 0.812890 0.327236 0.893239
O O4 0.253780 0.416872 0.927182
O O5 0.533407 0.674088 0.493297
O O6 0.582542 0.705836 0.326797
O O7 0.916707 0.944968 0.358734
O O8 0.679046 0.796349 0.140680
O O9 0.118049 0.753828 0.339951
O O10 0.106764 0.059507 0.156834
O O11 0.000000 0.000000 0.000000
O O12 0.512495 0.016225 0.770996
O O13 0.037668 0.783000 0.748064
O O14 0.428178 0.765775 0.813845
O O15 0.278104 0.042631 0.524097
O O16 0.696329 0.763869 0.767152
O O17 0.500000 0.000000 0.000000
#
# Coordination Sequence:
#
# PCOD9091816 Si02
#       8
#     2   2   2   2   2   2   2   2
#     4  11  21  35  53  83 119 152 176 225 293 354
#     4  10  20  36  55  77 116 152 186 224 287 349
#     4  11  18  30  52  81 113 139 183 242 275 323
#     4   9  21  34  63  86 109 140 196 257 275 316
#     4   9  18  33  52  78 111 142 178 231 284 320
#     4  11  20  35  59  86 112 148 193 236 288 335
#     4  11  18  32  53  80 106 149 192 224 275 340
#     4  10  19  40  61  85 106 148 200 238 286 325
#
# _framework density 25.320957
#
# number of rings (size 3 to 8) (size 9 to 14) (size 15 to 20)
#    0.000    1.750    3.750    2.625    0.000    2.000 
#    0.000    3.125    0.000    6.750    0.000    0.000 
#    0.000    0.000    0.000    0.000    0.000    0.000 
#
# Total GULP energy -89298.656741 kJ/mol
# GULP energy per Si atom -5581.166046 kJ/mol
# Density = 2.526333 g / cm^3
# Si number density = 25.320957 Si / 1000 Ang^3
#
#
#
# Elastic Constant Matrix: (Units=GPa)
#
#
# Indices 1 2 3 4 5 6 
#
# 1 170.6829 23.8924 74.8781 -6.2746 39.8610 0.8166
# 2 23.8924 42.5760 14.4603 1.9086 11.6417 -6.9702
# 3 74.8781 14.4603 129.3412 5.0235 45.9334 -8.0674
# 4 -6.2746 1.9086 5.0235 32.3695 -2.0301 2.8827
# 5 39.8610 11.6417 45.9334 -2.0301 56.0711 4.2321
# 6 0.8166 -6.9702 -8.0674 2.8827 4.2321 28.8408
#
#
#
# Elastic Compliance Matrix: (Units=1/GPa)
#
#
# Indices 1 2 3 4 5 6 
#
# 1 0.008745 -0.003479 -0.004326 0.002673 -0.001679 -0.002319
# 2 -0.003479 0.027927 0.001420 -0.003617 -0.005251 0.008377
# 3 -0.004326 0.001420 0.013896 -0.004202 -0.009217 0.006125
# 4 0.002673 -0.003617 -0.004202 0.033059 0.003944 -0.006008
# 5 -0.001679 -0.005251 -0.009217 0.003944 0.028444 -0.008368
# 6 -0.002319 0.008377 0.006125 -0.006008 -0.008368 0.040305
#
#
# Mechanical properties :
#
#
# Convention : Reuss Voigt Hill
#
# Bulk Modulus (GPa) = 26.45669 63.22908 44.84289
# Shear Modulus (GPa) = 28.13025 38.74757 33.43891
#
# Velocity S-wave (km/s) = 3.33670 3.91609 3.63795
# Velocity P-wave (km/s) = 5.03150 6.74337 5.94933
#
# Compressibility (1/GPa) = 0.03779762
#
# Stress axis : x y z
#
# Youngs Moduli (GPa) = 114.35118 35.80788 71.96427
#
# Poissons Ratio (x) = 0.12456 0.31131
# Poissons Ratio (y) = 0.39778 -0.10216
# Poissons Ratio (z) = 0.49468 -0.05083
#
# Static dielectric constant tensor:
#      x y z
#    x 2.144720 -0.000500 0.017450 
#    y -0.000500 2.087060 0.038540 
#    z 0.017450 0.038540 2.053060 
# 
# From -- ./inp_files/561739.got.cif
#   From: 2010.05.17/outbox.cif.g08.bks.cpg/sg2_281_cif.got.tgz:561739.got - 2010.06.03 11:33:40.
