data_PCOD9091434
_publ_section_title
;
Structure prediction by ZEFSAII (Michael W. Deem and Ramdas Pophale) SiO2 
 PCOD9091434
Probable space group: P -1
;
_chemical_formula_sum "Si O2"
_cell_formula_units_Z 15
_cell_length_a 13.487554
_cell_length_b 23.728154
_cell_length_c 17.105002
_cell_angle_alpha 20.341038
_cell_angle_beta 31.624412
_cell_angle_gamma 18.979691
_cell_volume 588.183969
_symmetry_space_group_name_H-M "P -1"
_symmetry_group_IT_number 2
_symmetry_cell_setting 'triclinic'
loop_
_space_group_symop_operation_xyz
x,y,z
-x,-y,-z
loop_
_atom_site_type_symbol
_atom_site_label
_atom_site_fract_x
_atom_site_fract_y
_atom_site_fract_z
Si Si1 0.500000 0.500000 0.500000
Si Si2 0.111321 0.690705 0.318239
Si Si3 0.433000 0.903299 0.730481
Si Si4 0.860685 0.775311 0.217675
Si Si5 0.822631 0.149365 0.149518
Si Si6 0.343203 0.444371 0.837936
Si Si7 0.375293 0.904686 0.315019
Si Si8 0.831892 0.072729 0.409782
O O1 0.380312 0.442339 0.722418
O O2 0.820567 0.172482 0.686118
O O3 0.322361 0.704782 0.163728
O O4 0.364323 0.370817 0.553583
O O5 0.915963 0.812460 0.369976
O O6 0.873898 0.848011 0.199541
O O7 0.402957 0.763068 0.880607
O O8 0.500000 0.000000 0.500000
O O9 0.664009 0.712146 0.899011
O O10 0.521617 0.978964 0.138276
O O11 0.000000 0.500000 0.500000
O O12 0.101990 0.713725 0.084782
O O13 0.676562 0.198011 0.266701
O O14 0.071618 0.754082 0.650132
O O15 0.038120 0.094639 0.255749
O O16 0.346809 0.840486 0.502987
#
# Coordination Sequence:
#
# PCOD9091434 Si02
#       8
#     1   2   2   2   2   2   2   2
#     4  10  20  38  68  94 124 178 222 260 340 390
#     4  10  19  39  66  88 127 172 220 268 321 400
#     4  12  25  40  65 102 136 173 220 280 341 394
#     4  10  21  38  66  96 124 173 224 270 330 395
#     4  11  22  41  65  99 130 172 222 279 338 398
#     4  10  19  40  66  93 131 173 216 272 330 397
#     4   9  20  41  64  88 125 175 217 267 328 389
#     4   9  21  40  64  94 132 166 217 278 335 391
#
# _framework density 25.502223000000001
#
# number of rings (size 3 to 8) (size 9 to 14) (size 15 to 20)
#    0.000    1.867    2.667    1.200    1.867    0.533 
#    2.400   12.000    0.000    0.000    0.000    0.000 
#    0.000    0.000    0.000    0.000    0.000    0.000 
#
# Total GULP energy -83535.876742 kJ/mol
# GULP energy per Si atom -5569.058449 kJ/mol
# Density = 2.544418 g / cm^3
# Si number density = 25.502223 Si / 1000 Ang^3
#
#
#
# Elastic Constant Matrix: (Units=GPa)
#
#
# Indices 1 2 3 4 5 6 
#
# 1 87.6443 19.9040 6.8301 15.1823 9.2460 21.4220
# 2 19.9040 68.5725 26.8063 4.7663 4.5239 29.6206
# 3 6.8301 26.8063 122.7514 16.0115 14.3541 21.0601
# 4 15.1823 4.7663 16.0115 41.3634 8.8701 2.7006
# 5 9.2460 4.5239 14.3541 8.8701 36.2433 15.7673
# 6 21.4220 29.6206 21.0601 2.7006 15.7673 32.1730
#
#
#
# Elastic Compliance Matrix: (Units=1/GPa)
#
#
# Indices 1 2 3 4 5 6 
#
# 1 0.014885 0.000479 0.001633 -0.005826 0.002133 -0.011977
# 2 0.000479 0.027274 -0.001828 -0.002984 0.010627 -0.029190
# 3 0.001633 -0.001828 0.009928 -0.003684 -0.000998 -0.005104
# 4 -0.005826 -0.002984 -0.003684 0.029207 -0.008510 0.010757
# 5 0.002133 0.010627 -0.000998 -0.008510 0.041278 -0.030066
# 6 -0.011977 -0.029190 -0.005104 0.010757 -0.030066 0.083104
#
#
# Mechanical properties :
#
#
# Convention : Reuss Voigt Hill
#
# Bulk Modulus (GPa) = 18.99181 42.89432 30.94307
# Shear Modulus (GPa) = 22.45568 36.98446 29.72007
#
# Velocity S-wave (km/s) = 2.97061 3.81234 3.41749
# Velocity P-wave (km/s) = 4.38512 6.01955 5.26613
#
# Compressibility (1/GPa) = 0.05265427
#
# Stress axis : x y z
#
# Youngs Moduli (GPa) = 67.17978 36.66501 100.72583
#
# Poissons Ratio (x) = -0.01756 -0.16444
# Poissons Ratio (y) = -0.03218 0.18414
# Poissons Ratio (z) = -0.10968 0.06703
#
# Static dielectric constant tensor:
#      x y z
#    x 2.063560 -0.057860 -0.014180 
#    y -0.057860 2.032540 -0.034180 
#    z -0.014180 -0.034180 2.081720 
# 
# From -- ./inp_files/574445.got.cif
#   From: 2010.05.17/outbox.cif.g08.bks.cpg/sg2_288_cif.got.tgz:574445.got - 2010.06.03 11:33:40.
