data_PCOD9091960
_publ_section_title
;
Structure prediction by ZEFSAII (Michael W. Deem and Ramdas Pophale) SiO2 
 PCOD9091960
Probable space group: P -1
;
_chemical_formula_sum "Si O2"
_cell_formula_units_Z 16
_cell_length_a 18.251673
_cell_length_b 8.613967
_cell_length_c 8.448429
_cell_angle_alpha 83.371629
_cell_angle_beta 126.901547
_cell_angle_gamma 130.772203
_cell_volume 715.523794
_symmetry_space_group_name_H-M "P -1"
_symmetry_group_IT_number 2
_symmetry_cell_setting 'triclinic'
loop_
_space_group_symop_operation_xyz
x,y,z
-x,-y,-z
loop_
_atom_site_type_symbol
_atom_site_label
_atom_site_fract_x
_atom_site_fract_y
_atom_site_fract_z
Si Si1 0.221812 0.277054 0.189205
Si Si2 0.217385 0.973576 0.445989
Si Si3 0.570965 0.840944 0.053589
Si Si4 0.550009 0.231644 0.593389
Si Si5 0.663656 0.829209 0.845829
Si Si6 0.080088 0.346352 0.821435
Si Si7 0.666988 0.316732 0.080375
Si Si8 0.849913 0.298555 0.894394
O O1 0.318708 0.533217 0.352755
O O2 0.307285 0.309488 0.150386
O O3 0.204488 0.112154 0.304388
O O4 0.094124 0.200828 0.952781
O O5 0.224829 0.832651 0.354010
O O6 0.074816 0.794043 0.378097
O O7 0.348783 0.144040 0.703997
O O8 0.413224 0.677892 0.898439
O O9 0.602499 0.787924 0.940960
O O10 0.639934 0.100090 0.104815
O O11 0.437024 0.216257 0.404451
O O12 0.588355 0.254761 0.822162
O O13 0.500000 0.000000 0.500000
O O14 0.805028 0.098135 0.970601
O O15 0.174671 0.456206 0.776094
O O16 0.157726 0.567044 0.011137
O O17 0.000000 0.500000 0.000000
#
# Coordination Sequence:
#
# PCOD9091960 Si02
#       8
#     2   2   2   2   2   2   2   2
#     4  10  22  37  62  91 116 156 207 256 302 356
#     4  10  22  39  64  90 126 159 202 251 311 366
#     4  11  22  37  59  90 132 163 198 249 313 363
#     4  11  20  39  66  86 113 154 209 253 297 357
#     4  11  20  38  59  89 125 163 199 254 304 366
#     4  10  19  40  64  89 119 164 212 255 292 353
#     4  10  21  37  60  92 122 159 208 253 302 351
#     4   9  18  36  61  88 114 156 211 251 291 350
#
# _framework density 22.361242000000001
#
# number of rings (size 3 to 8) (size 9 to 14) (size 15 to 20)
#    0.000    1.750    2.500    3.000    0.000    1.500 
#    0.000    6.250    0.000    0.000    0.000    0.000 
#    0.000    0.000    0.000    0.250    0.000    0.000 
#
# Total GULP energy -89201.911287 kJ/mol
# GULP energy per Si atom -5575.119455 kJ/mol
# Density = 2.231035 g / cm^3
# Si number density = 22.361242 Si / 1000 Ang^3
#
#
#
# Elastic Constant Matrix: (Units=GPa)
#
#
# Indices 1 2 3 4 5 6 
#
# 1 113.2081 19.0299 16.5081 8.5541 4.3641 20.1255
# 2 19.0299 49.5154 -16.1562 0.7394 2.9899 -2.0561
# 3 16.5081 -16.1562 18.6178 -1.6372 4.7313 -2.6237
# 4 8.5541 0.7394 -1.6372 26.1964 2.5221 8.6002
# 5 4.3641 2.9899 4.7313 2.5221 30.5291 -0.8580
# 6 20.1255 -2.0561 -2.6237 8.6002 -0.8580 41.4778
#
#
#
# Elastic Compliance Matrix: (Units=1/GPa)
#
#
# Indices 1 2 3 4 5 6 
#
# 1 0.021420 -0.022996 -0.042746 -0.005311 0.005888 -0.013014
# 2 -0.022996 0.054700 0.074271 0.006348 -0.013628 0.016969
# 3 -0.042746 0.074271 0.168826 0.014744 -0.027661 0.031472
# 4 -0.005311 0.006348 0.014744 0.042917 -0.005839 -0.005195
# 5 0.005888 -0.013628 -0.027661 -0.005839 0.037925 -0.003287
# 6 -0.013014 0.016969 0.031472 -0.005195 -0.003287 0.034265
#
#
# Mechanical properties :
#
#
# Convention : Reuss Voigt Hill
#
# Bulk Modulus (GPa) = 3.81674 24.45611 14.13642
# Shear Modulus (GPa) = 11.61897 30.43798 21.02847
#
# Velocity S-wave (km/s) = 2.28195 3.69344 3.06992
# Velocity P-wave (km/s) = 2.94171 5.39900 4.34758
#
# Compressibility (1/GPa) = 0.26200390
#
# Stress axis : x y z
#
# Youngs Moduli (GPa) = 46.68536 18.28155 5.92325
#
# Poissons Ratio (x) = 0.42041 0.25319
# Poissons Ratio (y) = 1.07358 -0.43992
# Poissons Ratio (z) = 1.99560 -1.35779
#
# Static dielectric constant tensor:
#      x y z
#    x 1.927000 0.028910 -0.008410 
#    y 0.028910 1.871090 0.008080 
#    z -0.008410 0.008080 1.807570 
# 
# From -- ./inp_files/327644.got.cif
#   From: 2010.05.17/outbox.cif.g08.bks.cpg/sg2_164_cif.got.tgz:327644.got - 2010.06.03 11:33:40.
