data_PCOD9091253
_publ_section_title
;
Structure prediction by ZEFSAII (Michael W. Deem and Ramdas Pophale) SiO2 
 PCOD9091253
Probable space group: P -1
;
_chemical_formula_sum "Si O2"
_cell_formula_units_Z 14
_cell_length_a 12.080723
_cell_length_b 8.938445
_cell_length_c 21.206341
_cell_angle_alpha 132.153942
_cell_angle_beta 154.452731
_cell_angle_gamma 63.598477
_cell_volume 632.702880
_symmetry_space_group_name_H-M "P -1"
_symmetry_group_IT_number 2
_symmetry_cell_setting 'triclinic'
loop_
_space_group_symop_operation_xyz
x,y,z
-x,-y,-z
loop_
_atom_site_type_symbol
_atom_site_label
_atom_site_fract_x
_atom_site_fract_y
_atom_site_fract_z
Si Si1 0.456322 0.644284 0.324150
Si Si2 0.991012 0.178048 0.882351
Si Si3 0.519637 0.767927 0.943849
Si Si4 0.803006 0.465893 0.171242
Si Si5 0.649952 0.829607 0.233177
Si Si6 0.704178 0.652362 0.591499
Si Si7 0.855329 0.731548 0.438214
O O1 0.282711 0.785794 0.265323
O O2 0.544615 0.640198 0.440293
O O3 0.742007 0.746136 0.453227
O O4 0.219609 0.384938 0.103853
O O5 0.874812 0.921554 0.776590
O O6 0.181026 0.192970 0.922590
O O7 0.478336 0.686183 0.971095
O O8 0.254919 0.541212 0.707925
O O9 0.500000 0.000000 0.000000
O O10 0.841194 0.718528 0.269903
O O11 0.065639 0.438259 0.325324
O O12 0.687625 0.336531 0.009031
O O13 0.680442 0.799040 0.314646
O O14 0.806172 0.089269 0.357915
O O15 0.500000 0.500000 0.500000
#
# Coordination Sequence:
#
# PCOD9091253 Si02
#       7
#     2   2   2   2   2   2   2
#     4  10  24  45  70  95 131 177 224 270 325 398
#     4  10  23  46  69  98 128 180 219 272 330 391
#     4  10  19  39  64  93 131 161 221 265 325 388
#     4  10  22  39  63  93 134 170 209 277 328 381
#     4   9  20  40  63  97 127 173 216 267 328 393
#     4  12  27  43  64 103 132 174 221 274 334 390
#     4   9  20  39  65  98 126 174 222 265 325 393
#
# _framework density 22.127291
#
# number of rings (size 3 to 8) (size 9 to 14) (size 15 to 20)
#    0.000    2.000    1.429    0.429    4.000    6.286 
#    7.714    4.286    0.000    0.000    0.000    0.000 
#    0.000    0.000    0.000    0.000    0.000    0.000 
#
# Total GULP energy -78167.386251 kJ/mol
# GULP energy per Si atom -5583.384732 kJ/mol
# Density = 2.207693 g / cm^3
# Si number density = 22.127291 Si / 1000 Ang^3
#
#
#
# Elastic Constant Matrix: (Units=GPa)
#
#
# Indices 1 2 3 4 5 6 
#
# 1 90.6155 25.2332 13.5202 13.8199 6.8009 10.5126
# 2 25.2332 79.8292 26.7112 21.0349 8.1346 -16.5992
# 3 13.5202 26.7112 45.1796 14.7664 -0.2980 5.7952
# 4 13.8199 21.0349 14.7664 37.6173 8.5837 0.7706
# 5 6.8009 8.1346 -0.2980 8.5837 27.5377 0.9158
# 6 10.5126 -16.5992 5.7952 0.7706 0.9158 35.3141
#
#
#
# Elastic Compliance Matrix: (Units=1/GPa)
#
#
# Indices 1 2 3 4 5 6 
#
# 1 0.013521 -0.005166 0.000449 -0.001894 -0.001003 -0.006459
# 2 -0.005166 0.023263 -0.012311 -0.005556 -0.004487 0.014730
# 3 0.000449 -0.012311 0.033274 -0.007625 0.006641 -0.011387
# 4 -0.001894 -0.005556 -0.007625 0.035455 -0.008981 -0.001337
# 5 -0.001003 -0.004487 0.006641 -0.008981 0.040884 -0.003765
# 6 -0.006459 0.014730 -0.011387 -0.001337 -0.003765 0.039160
#
#
# Mechanical properties :
#
#
# Convention : Reuss Voigt Hill
#
# Bulk Modulus (GPa) = 27.77610 38.50593 33.14102
# Shear Modulus (GPa) = 21.58769 30.10448 25.84609
#
# Velocity S-wave (km/s) = 3.12687 3.69252 3.42140
# Velocity P-wave (km/s) = 5.06128 5.96820 5.53335
#
# Compressibility (1/GPa) = 0.03600217
#
# Stress axis : x y z
#
# Youngs Moduli (GPa) = 73.96101 42.98657 30.05308
#
# Poissons Ratio (x) = 0.22206 -0.01349
# Poissons Ratio (y) = 0.38208 0.36998
# Poissons Ratio (z) = -0.03320 0.52921
#
# Static dielectric constant tensor:
#      x y z
#    x 1.832900 -0.018270 -0.029990 
#    y -0.018270 1.839410 0.019660 
#    z -0.029990 0.019660 1.912920 
# 
# From -- ./inp_files/593783.got.cif
#   From: 2010.05.17/outbox.cif.g08.bks.cpg/sg2_297_cif.got.tgz:593783.got - 2010.06.03 11:33:40.
