data_PCOD9091101
_publ_section_title
;
Structure prediction by ZEFSAII (Michael W. Deem and Ramdas Pophale) SiO2 
 PCOD9091101
Probable space group: P -1
;
_chemical_formula_sum "Si O2"
_cell_formula_units_Z 15
_cell_length_a 12.799902
_cell_length_b 8.783275
_cell_length_c 8.608716
_cell_angle_alpha 129.741396
_cell_angle_beta 86.252696
_cell_angle_gamma 74.055830
_cell_volume 676.500717
_symmetry_space_group_name_H-M "P -1"
_symmetry_group_IT_number 2
_symmetry_cell_setting 'triclinic'
loop_
_space_group_symop_operation_xyz
x,y,z
-x,-y,-z
loop_
_atom_site_type_symbol
_atom_site_label
_atom_site_fract_x
_atom_site_fract_y
_atom_site_fract_z
Si Si1 0.000000 0.500000 0.500000
Si Si2 0.904080 0.856864 0.017331
Si Si3 0.691513 0.989912 0.315535
Si Si4 0.461384 0.814119 0.838407
Si Si5 0.034718 0.045255 0.355926
Si Si6 0.243060 0.807031 0.997994
Si Si7 0.390009 0.588114 0.275262
Si Si8 0.378520 0.367210 0.813946
O O1 0.007134 0.703876 0.526848
O O2 0.961079 0.664833 0.763909
O O3 0.807617 0.828887 0.115706
O O4 0.988433 0.913868 0.155337
O O5 0.830814 0.074175 0.066228
O O6 0.640005 0.851236 0.328492
O O7 0.598619 0.122676 0.280010
O O8 0.711254 0.182764 0.524802
O O9 0.566311 0.580730 0.696151
O O10 0.364499 0.823062 0.976906
O O11 0.500000 0.000000 0.000000
O O12 0.171567 0.935940 0.236458
O O13 0.000000 0.000000 0.500000
O O14 0.280566 0.551076 0.842043
O O15 0.497053 0.648758 0.259823
O O16 0.365646 0.461090 0.052091
#
# Coordination Sequence:
#
# PCOD9091101 Si02
#       8
#     1   2   2   2   2   2   2   2
#     4  10  22  46  72  92 134 178 218 284 346 390
#     4  10  24  45  66  99 133 173 230 279 336 408
#     4  11  22  37  63  95 124 170 225 263 334 405
#     4  10  19  39  63  90 129 175 214 267 330 396
#     4  11  25  46  71 101 137 174 230 290 341 403
#     4   9  21  41  64  90 133 173 218 274 333 398
#     4  10  21  37  59  88 133 169 213 277 322 390
#     4  10  21  38  59  90 131 168 215 271 331 395
#
# _framework density 22.172923999999998
#
# number of rings (size 3 to 8) (size 9 to 14) (size 15 to 20)
#    0.000    1.867    1.333    2.400    3.733    0.533 
#    4.800    0.000    8.800    0.000    0.000    0.000 
#    0.000    0.000    0.000    0.000    0.000    0.000 
#
# Total GULP energy -83520.590351 kJ/mol
# GULP energy per Si atom -5568.039357 kJ/mol
# Density = 2.212246 g / cm^3
# Si number density = 22.172924 Si / 1000 Ang^3
#
#
#
# Elastic Constant Matrix: (Units=GPa)
#
#
# Indices 1 2 3 4 5 6 
#
# 1 32.7218 25.4829 24.2371 3.1448 0.4039 3.7375
# 2 25.4829 113.6790 45.9865 25.0232 1.8001 19.9438
# 3 24.2371 45.9865 124.0060 23.4084 1.5204 -6.5850
# 4 3.1448 25.0232 23.4084 35.1084 6.6891 4.8327
# 5 0.4039 1.8001 1.5204 6.6891 22.0510 -4.6572
# 6 3.7375 19.9438 -6.5850 4.8327 -4.6572 26.6313
#
#
#
# Elastic Compliance Matrix: (Units=1/GPa)
#
#
# Indices 1 2 3 4 5 6 
#
# 1 0.041088 -0.007319 -0.006821 0.007096 -0.002622 -0.003718
# 2 -0.007319 0.014997 -0.003511 -0.006073 -0.001154 -0.010172
# 3 -0.006821 -0.003511 0.012435 -0.007019 0.003488 0.008545
# 4 0.007096 -0.006073 -0.007019 0.040417 -0.013058 -0.007802
# 5 -0.002622 -0.001154 0.003488 -0.013058 0.052079 0.013572
# 6 -0.003718 -0.010172 0.008545 -0.007802 0.013572 0.051591
#
#
# Mechanical properties :
#
#
# Convention : Reuss Voigt Hill
#
# Bulk Modulus (GPa) = 30.10399 51.31332 40.70865
# Shear Modulus (GPa) = 19.30628 28.40483 23.85556
#
# Velocity S-wave (km/s) = 2.95399 3.58307 3.28363
# Velocity P-wave (km/s) = 5.02405 6.34905 5.72501
#
# Compressibility (1/GPa) = 0.03321819
#
# Stress axis : x y z
#
# Youngs Moduli (GPa) = 24.33785 66.67922 80.41747
#
# Poissons Ratio (x) = 0.48805 0.54854
# Poissons Ratio (y) = 0.17814 0.28232
# Poissons Ratio (z) = 0.16601 0.23409
#
# Static dielectric constant tensor:
#      x y z
#    x 1.878050 -0.011510 -0.029330 
#    y -0.011510 1.840120 -0.042360 
#    z -0.029330 -0.042360 1.834390 
# 
# From -- ./inp_files/299855.got.cif
#   From: 2010.05.17/outbox.cif.g08.bks.cpg/sg2_150_cif.got.tgz:299855.got - 2010.06.03 11:33:40.
