data_PCOD9091490
_publ_section_title
;
Structure prediction by ZEFSAII (Michael W. Deem and Ramdas Pophale) SiO2 
 PCOD9091490
Probable space group: P -1
;
_chemical_formula_sum "Si O2"
_cell_formula_units_Z 14
_cell_length_a 9.414853
_cell_length_b 8.982825
_cell_length_c 13.550558
_cell_angle_alpha 150.217452
_cell_angle_beta 71.267141
_cell_angle_gamma 100.280287
_cell_volume 526.683640
_symmetry_space_group_name_H-M "P -1"
_symmetry_group_IT_number 2
_symmetry_cell_setting 'triclinic'
loop_
_space_group_symop_operation_xyz
x,y,z
-x,-y,-z
loop_
_atom_site_type_symbol
_atom_site_label
_atom_site_fract_x
_atom_site_fract_y
_atom_site_fract_z
Si Si1 0.010697 0.187530 0.756611
Si Si2 0.590989 0.243235 0.075263
Si Si3 0.782930 0.317798 0.699251
Si Si4 0.588049 0.358450 0.499563
Si Si5 0.879044 0.856770 0.885708
Si Si6 0.415252 0.913831 0.242426
Si Si7 0.149105 0.336244 0.452703
O O1 0.917625 0.278520 0.728446
O O2 0.924441 0.965202 0.709793
O O3 0.167628 0.957037 0.550659
O O4 0.000000 0.500000 0.000000
O O5 0.738307 0.505100 0.548943
O O6 0.593529 0.206458 0.936201
O O7 0.500000 0.000000 0.000000
O O8 0.504461 0.548004 0.324756
O O9 0.779260 0.652228 0.848472
O O10 0.634683 0.288394 0.777561
O O11 0.500000 0.500000 0.500000
O O12 0.576554 0.007308 0.283271
O O13 0.761153 0.125182 0.012342
O O14 0.999750 0.599086 0.653025
O O15 0.000000 0.000000 0.000000
O O16 0.270146 0.214887 0.446050
#
# Coordination Sequence:
#
# PCOD9091490 Si02
#       7
#     2   2   2   2   2   2   2
#     4   9  18  36  66  96 136 179 223 280 349 406
#     4  12  24  42  67 101 132 179 239 272 337 426
#     4   9  21  41  59 103 136 175 226 282 343 408
#     4  10  19  39  66  94 130 177 226 275 343 403
#     4  11  24  41  69 103 139 176 227 295 343 395
#     4  10  21  39  69  94 135 183 220 278 344 411
#     4   9  19  37  63  99 130 168 226 280 326 404
#
# _framework density 26.581422
#
# number of rings (size 3 to 8) (size 9 to 14) (size 15 to 20)
#    0.000    2.000    2.857    2.571    0.000    5.143 
#    0.000    5.000    0.000    0.857    0.000    0.000 
#    0.000    0.000    0.000    0.000    0.000    0.000 
#
# Total GULP energy -78182.417058 kJ/mol
# GULP energy per Si atom -5584.458361 kJ/mol
# Density = 2.652092 g / cm^3
# Si number density = 26.581422 Si / 1000 Ang^3
#
#
#
# Elastic Constant Matrix: (Units=GPa)
#
#
# Indices 1 2 3 4 5 6 
#
# 1 143.3035 57.7917 68.6565 0.9825 -3.1070 10.2302
# 2 57.7917 151.7386 76.9039 -4.6819 1.6215 33.7828
# 3 68.6565 76.9039 210.3896 -10.6970 18.4630 22.7146
# 4 0.9825 -4.6819 -10.6970 41.7681 9.1914 -4.9621
# 5 -3.1070 1.6215 18.4630 9.1914 41.5799 4.7066
# 6 10.2302 33.7828 22.7146 -4.9621 4.7066 47.6551
#
#
#
# Elastic Compliance Matrix: (Units=1/GPa)
#
#
# Indices 1 2 3 4 5 6 
#
# 1 0.009137 -0.002453 -0.002408 -0.001506 0.002117 0.000559
# 2 -0.002453 0.009927 -0.002351 -0.000349 0.001178 -0.005543
# 3 -0.002408 -0.002351 0.006884 0.002287 -0.003593 -0.000505
# 4 -0.001506 -0.000349 0.002287 0.026482 -0.007303 0.002960
# 5 0.002117 0.001178 -0.003593 -0.007303 0.027721 -0.003075
# 6 0.000559 -0.005543 -0.000505 0.002960 -0.003075 0.025646
#
#
# Mechanical properties :
#
#
# Convention : Reuss Voigt Hill
#
# Bulk Modulus (GPa) = 86.77038 101.34841 94.05939
# Shear Modulus (GPa) = 40.30230 46.33928 43.32079
#
# Velocity S-wave (km/s) = 3.89804 4.17981 4.04138
# Velocity P-wave (km/s) = 7.27831 7.84249 7.56566
#
# Compressibility (1/GPa) = 0.01152467
#
# Stress axis : x y z
#
# Youngs Moduli (GPa) = 109.43913 100.73867 145.26041
#
# Poissons Ratio (x) = 0.24716 0.34976
# Poissons Ratio (y) = 0.26851 0.34145
# Poissons Ratio (z) = 0.26351 0.23679
#
# Static dielectric constant tensor:
#      x y z
#    x 2.132440 -0.046270 0.126430 
#    y -0.046270 2.171560 -0.066030 
#    z 0.126430 -0.066030 2.099070 
# 
# From -- ./inp_files/139140.got.cif
#   From: 2010.05.17/outbox.cif.g08.bks.cpg/sg2_70_cif.got.tgz:139140.got - 2010.06.03 11:33:40.
