data_PCOD9091964
_publ_section_title
;
Structure prediction by ZEFSAII (Michael W. Deem and Ramdas Pophale) SiO2 
 PCOD9091964
Probable space group: P -1
;
_chemical_formula_sum "Si O2"
_cell_formula_units_Z 16
_cell_length_a 9.744017
_cell_length_b 11.456864
_cell_length_c 12.034393
_cell_angle_alpha 106.002518
_cell_angle_beta 135.436445
_cell_angle_gamma 60.844571
_cell_volume 817.661415
_symmetry_space_group_name_H-M "P -1"
_symmetry_group_IT_number 2
_symmetry_cell_setting 'triclinic'
loop_
_space_group_symop_operation_xyz
x,y,z
-x,-y,-z
loop_
_atom_site_type_symbol
_atom_site_label
_atom_site_fract_x
_atom_site_fract_y
_atom_site_fract_z
Si Si1 0.767817 0.905971 0.539558
Si Si2 0.924813 0.110397 0.081212
Si Si3 0.463504 0.199256 0.465476
Si Si4 0.871811 0.643258 0.090212
Si Si5 0.861963 0.150639 0.413391
Si Si6 0.560670 0.123465 0.040082
Si Si7 0.695108 0.352829 0.572404
Si Si8 0.044676 0.331349 0.106528
O O1 0.628815 0.831278 0.482940
O O2 0.896360 0.924528 0.726189
O O3 0.951013 0.824451 0.535980
O O4 0.599777 0.055561 0.446575
O O5 0.711573 0.111997 0.017739
O O6 0.920664 0.245953 0.058898
O O7 0.000000 0.000000 0.000000
O O8 0.623850 0.267359 0.594319
O O9 0.257821 0.290783 0.295951
O O10 0.086578 0.639303 0.267840
O O11 0.896692 0.491307 0.063578
O O12 0.662600 0.743993 0.060649
O O13 0.870019 0.697908 0.978432
O O14 0.694875 0.141450 0.226043
O O15 0.739041 0.265848 0.462055
O O16 0.000000 0.000000 0.500000
O O17 0.500000 0.000000 0.000000
O O18 0.500000 0.500000 0.500000
#
# Coordination Sequence:
#
# PCOD9091964 Si02
#       8
#     2   2   2   2   2   2   2   2
#     4   9  21  38  64  91 122 161 211 258 321 371
#     4  10  22  40  63  95 125 162 209 264 318 380
#     4  10  19  40  64  90 119 166 206 262 313 375
#     4  11  24  40  61  94 125 165 214 258 318 382
#     4  11  22  40  65  92 125 165 210 265 312 371
#     4  11  24  41  64  97 128 162 211 268 317 382
#     4  12  24  40  64  93 129 169 215 257 314 383
#     4  10  22  41  65  86 126 169 209 259 322 379
#
# _framework density 19.568000000000001
#
# number of rings (size 3 to 8) (size 9 to 14) (size 15 to 20)
#    0.000    1.500    2.500    2.250    5.250    1.500 
#    6.750    0.625    0.000    0.000    0.000    0.000 
#    0.000    0.000    0.000    0.000    0.000    0.000 
#
# Total GULP energy -89335.715876 kJ/mol
# GULP energy per Si atom -5583.482242 kJ/mol
# Density = 1.952346 g / cm^3
# Si number density = 19.568000 Si / 1000 Ang^3
#
#
#
# Elastic Constant Matrix: (Units=GPa)
#
#
# Indices 1 2 3 4 5 6 
#
# 1 159.6623 79.6693 28.2857 4.7251 25.7720 0.8939
# 2 79.6693 106.9894 23.4902 -3.2575 5.5044 -3.1671
# 3 28.2857 23.4902 37.4759 -10.6365 8.0230 -3.8024
# 4 4.7251 -3.2575 -10.6365 30.0443 -1.1932 5.4450
# 5 25.7720 5.5044 8.0230 -1.1932 29.7682 -1.0180
# 6 0.8939 -3.1671 -3.8024 5.4450 -1.0180 37.1482
#
#
#
# Elastic Compliance Matrix: (Units=1/GPa)
#
#
# Indices 1 2 3 4 5 6 
#
# 1 0.012567 -0.008239 -0.003841 -0.004389 -0.008531 -0.000988
# 2 -0.008239 0.016297 -0.004651 0.001443 0.005467 0.001050
# 3 -0.003841 -0.004651 0.037447 0.012874 -0.005340 0.001496
# 4 -0.004389 0.001443 0.012874 0.039510 0.001503 -0.004204
# 5 -0.008531 0.005467 -0.005340 0.001503 0.041503 0.001042
# 6 -0.000988 0.001050 0.001496 -0.004204 0.001042 0.027830
#
#
# Mechanical properties :
#
#
# Convention : Reuss Voigt Hill
#
# Bulk Modulus (GPa) = 30.44147 63.00201 46.72174
# Shear Modulus (GPa) = 22.77230 30.90428 26.83829
#
# Velocity S-wave (km/s) = 3.41508 3.97839 3.70745
# Velocity P-wave (km/s) = 5.58040 7.30546 6.50041
#
# Compressibility (1/GPa) = 0.03284993
#
# Stress axis : x y z
#
# Youngs Moduli (GPa) = 79.57184 61.36245 26.70461
#
# Poissons Ratio (x) = 0.50556 0.10257
# Poissons Ratio (y) = 0.65558 0.12419
# Poissons Ratio (z) = 0.30562 0.28537
#
# Static dielectric constant tensor:
#      x y z
#    x 1.713560 0.004890 -0.004830 
#    y 0.004890 1.742440 -0.036200 
#    z -0.004830 -0.036200 1.707050 
# 
# From -- ./inp_files/390514.got.cif
#   From: 2010.05.17/outbox.cif.g08.bks.cpg/sg2_196_cif.got.tgz:390514.got - 2010.06.03 11:33:40.
