data_PCOD9091055
_publ_section_title
;
Structure prediction by ZEFSAII (Michael W. Deem and Ramdas Pophale) SiO2 
 PCOD9091055
Probable space group: P -1
;
_chemical_formula_sum "Si O2"
_cell_formula_units_Z 14
_cell_length_a 6.901564
_cell_length_b 20.307918
_cell_length_c 16.672576
_cell_angle_alpha 154.230287
_cell_angle_beta 44.013898
_cell_angle_gamma 127.174954
_cell_volume 698.573466
_symmetry_space_group_name_H-M "P -1"
_symmetry_group_IT_number 2
_symmetry_cell_setting 'triclinic'
loop_
_space_group_symop_operation_xyz
x,y,z
-x,-y,-z
loop_
_atom_site_type_symbol
_atom_site_label
_atom_site_fract_x
_atom_site_fract_y
_atom_site_fract_z
Si Si1 0.727334 0.147803 0.927839
Si Si2 0.652251 0.150390 0.127901
Si Si3 0.508628 0.298215 0.497338
Si Si4 0.728968 0.017355 0.206831
Si Si5 0.890038 0.338590 0.772783
Si Si6 0.308439 0.927812 0.541195
Si Si7 0.202056 0.608698 0.959896
O O1 0.472404 0.067868 0.881811
O O2 0.647912 0.223003 0.120505
O O3 0.807706 0.263911 0.964453
O O4 0.996176 0.021481 0.726765
O O5 0.516279 0.258791 0.358038
O O6 0.971613 0.086797 0.988179
O O7 0.500000 0.000000 0.000000
O O8 0.473995 0.479119 0.721843
O O9 0.215453 0.260568 0.581712
O O10 0.748737 0.182550 0.342465
O O11 0.605782 0.048772 0.367298
O O12 0.709524 0.247975 0.668873
O O13 0.934941 0.513051 0.930673
O O14 0.791802 0.330703 0.884898
O O15 0.500000 0.000000 0.500000
#
# Coordination Sequence:
#
# PCOD9091055 Si02
#       7
#     2   2   2   2   2   2   2
#     4  11  22  40  60  91 126 152 202 256 293 358
#     4  11  22  39  64  92 117 154 209 251 296 354
#     4  10  19  39  63  86 117 160 202 237 303 357
#     4  11  22  38  64  91 114 159 204 250 301 348
#     4   9  19  41  59  87 122 160 199 238 298 362
#     4  11  23  35  63  95 119 157 206 250 296 349
#     4   9  21  37  66  84 122 168 190 244 310 356
#
# _framework density 20.040841
#
# number of rings (size 3 to 8) (size 9 to 14) (size 15 to 20)
#    0.857    0.857    2.857    2.143    2.000    1.714 
#    0.000    6.429    0.000    0.000    0.000    0.000 
#    0.000    0.000    0.000    0.000    0.000    0.000 
#
# Total GULP energy -78063.382801 kJ/mol
# GULP energy per Si atom -5575.955914 kJ/mol
# Density = 1.999523 g / cm^3
# Si number density = 20.040841 Si / 1000 Ang^3
#
#
#
# Elastic Constant Matrix: (Units=GPa)
#
#
# Indices 1 2 3 4 5 6 
#
# 1 89.2738 15.3988 37.8642 -11.2598 9.5424 -11.1063
# 2 15.3988 52.3063 17.4605 -9.1387 7.5491 -24.4716
# 3 37.8642 17.4605 103.3579 -25.4856 31.8098 -19.0540
# 4 -11.2598 -9.1387 -25.4856 29.2644 -12.3961 3.4752
# 5 9.5424 7.5491 31.8098 -12.3961 20.1149 -9.4976
# 6 -11.1063 -24.4716 -19.0540 3.4752 -9.4976 32.9388
#
#
#
# Elastic Compliance Matrix: (Units=1/GPa)
#
#
# Indices 1 2 3 4 5 6 
#
# 1 0.013730 -0.002103 -0.005419 0.001616 0.004317 0.001007
# 2 -0.002103 0.031295 0.000373 0.008631 0.004975 0.023280
# 3 -0.005419 0.000373 0.021879 0.004959 -0.027916 0.002533
# 4 0.001616 0.008631 0.004959 0.051069 0.025142 0.011687
# 5 0.004317 0.004975 -0.027916 0.025142 0.114597 0.019393
# 6 0.001007 0.023280 0.002533 0.011687 0.019393 0.053819
#
#
# Mechanical properties :
#
#
# Convention : Reuss Voigt Hill
#
# Bulk Modulus (GPa) = 19.00987 42.93168 30.97077
# Shear Modulus (GPa) = 15.71226 28.07793 21.89509
#
# Velocity S-wave (km/s) = 2.80306 3.74710 3.30892
# Velocity P-wave (km/s) = 4.47016 6.33953 5.48507
#
# Compressibility (1/GPa) = 0.05260426
#
# Stress axis : x y z
#
# Youngs Moduli (GPa) = 72.83138 31.95446 45.70638
#
# Poissons Ratio (x) = 0.06720 0.24770
# Poissons Ratio (y) = 0.15316 -0.01703
# Poissons Ratio (z) = 0.39470 -0.01190
#
# Static dielectric constant tensor:
#      x y z
#    x 1.698330 0.001710 -0.007370 
#    y 0.001710 1.704820 -0.011840 
#    z -0.007370 -0.011840 1.741770 
# 
# From -- ./inp_files/66061.got.cif
#   From: 2010.05.17/outbox.cif.g08.bks.cpg/sg2_34_cif.got.tgz:66061.got - 2010.06.03 11:33:40.
