data_PCOD9091957
_publ_section_title
;
Structure prediction by ZEFSAII (Michael W. Deem and Ramdas Pophale) SiO2 
 PCOD9091957
Probable space group: P -1
;
_chemical_formula_sum "Si O2"
_cell_formula_units_Z 16
_cell_length_a 10.853764
_cell_length_b 29.110322
_cell_length_c 8.640153
_cell_angle_alpha 147.390296
_cell_angle_beta 138.272507
_cell_angle_gamma 26.162793
_cell_volume 648.135321
_symmetry_space_group_name_H-M "P -1"
_symmetry_group_IT_number 2
_symmetry_cell_setting 'triclinic'
loop_
_space_group_symop_operation_xyz
x,y,z
-x,-y,-z
loop_
_atom_site_type_symbol
_atom_site_label
_atom_site_fract_x
_atom_site_fract_y
_atom_site_fract_z
Si Si1 0.607403 0.452603 0.234052
Si Si2 0.225032 0.725944 0.371676
Si Si3 0.799435 0.990794 0.644588
Si Si4 0.944348 0.294435 0.387558
Si Si5 0.271874 0.348832 0.779338
Si Si6 0.544088 0.252730 0.057354
Si Si7 0.020132 0.506570 0.357829
Si Si8 0.758326 0.906286 0.650708
O O1 0.388672 0.600695 0.072329
O O2 0.783075 0.338629 0.200797
O O3 0.302411 0.579453 0.377290
O O4 0.790108 0.475864 0.453950
O O5 0.369133 0.716474 0.631087
O O6 0.936401 0.789226 0.358246
O O7 0.101340 0.845424 0.491022
O O8 0.557348 0.015070 0.414901
O O9 0.763628 0.993589 0.807742
O O10 0.727598 0.106859 0.841713
O O11 0.185524 0.280552 0.533740
O O12 0.084657 0.167253 0.250426
O O13 0.266358 0.376111 0.670276
O O14 0.527262 0.282806 0.945398
O O15 0.000000 0.500000 0.000000
O O16 0.208640 0.360190 0.070435
O O17 0.000000 0.500000 0.500000
#
# Coordination Sequence:
#
# PCOD9091957 Si02
#       8
#     2   2   2   2   2   2   2   2
#     4  10  23  39  62  96 126 158 206 256 325 368
#     4  10  22  36  59  93 123 157 210 256 300 367
#     4   9  20  37  60  86 119 168 214 244 305 363
#     4  10  19  40  64  88 125 164 203 260 313 381
#     4   9  20  36  59  89 119 165 205 242 317 374
#     4  11  20  37  61  85 125 164 203 253 305 370
#     4  10  23  37  61  95 124 161 202 261 314 366
#     4   9  19  35  62  86 114 169 209 254 300 358
#
# _framework density 24.686202999999999
#
# number of rings (size 3 to 8) (size 9 to 14) (size 15 to 20)
#    0.750    1.500    1.250    1.125    1.750    5.000 
#    0.000    0.625    2.750    1.500    0.000    0.000 
#    0.000    0.000    0.000    0.000    0.000    0.000 
#
# Total GULP energy -89137.025497 kJ/mol
# GULP energy per Si atom -5571.064094 kJ/mol
# Density = 2.463002 g / cm^3
# Si number density = 24.686203 Si / 1000 Ang^3
#
#
#
# Elastic Constant Matrix: (Units=GPa)
#
#
# Indices 1 2 3 4 5 6 
#
# 1 70.7175 37.9032 17.2589 -9.2285 2.6052 19.2240
# 2 37.9032 232.5003 57.1577 -43.3399 -4.9824 46.2620
# 3 17.2589 57.1577 86.3609 -23.4345 -7.9418 11.4776
# 4 -9.2285 -43.3399 -23.4345 36.1219 4.9394 -0.1517
# 5 2.6052 -4.9824 -7.9418 4.9394 22.6699 -5.7351
# 6 19.2240 46.2620 11.4776 -0.1517 -5.7351 48.7379
#
#
#
# Elastic Compliance Matrix: (Units=1/GPa)
#
#
# Indices 1 2 3 4 5 6 
#
# 1 0.017242 -0.000621 -0.001795 0.003159 -0.005047 -0.006373
# 2 -0.000621 0.007740 -0.002127 0.008057 -0.002465 -0.006867
# 3 -0.001795 -0.002127 0.015524 0.006563 0.003625 -0.000482
# 4 0.003159 0.008057 0.006563 0.043551 -0.008646 -0.011321
# 5 -0.005047 -0.002465 0.003625 -0.008646 0.049654 0.009293
# 6 -0.006373 -0.006867 -0.000482 -0.011321 0.009293 0.030721
#
#
# Mechanical properties :
#
#
# Convention : Reuss Voigt Hill
#
# Bulk Modulus (GPa) = 31.82474 68.24649 50.03561
# Shear Modulus (GPa) = 27.17508 39.98988 33.58248
#
# Velocity S-wave (km/s) = 3.32146 4.02920 3.69233
# Velocity P-wave (km/s) = 5.25635 7.02507 6.20406
#
# Compressibility (1/GPa) = 0.03142210
#
# Stress axis : x y z
#
# Youngs Moduli (GPa) = 57.99713 129.19121 64.41626
#
# Poissons Ratio (x) = 0.08021 0.11561
# Poissons Ratio (y) = 0.03601 0.13699
# Poissons Ratio (z) = 0.10409 0.27475
#
# Static dielectric constant tensor:
#      x y z
#    x 2.122280 0.021820 0.032040 
#    y 0.021820 2.020430 -0.084550 
#    z 0.032040 -0.084550 2.060200 
# 
# From -- ./inp_files/285580.got.cif
#   From: 2010.05.17/outbox.cif.g08.bks.cpg/sg2_143_cif.got.tgz:285580.got - 2010.06.03 11:33:40.
