data_PCOD9091394
_publ_section_title
;
Structure prediction by ZEFSAII (Michael W. Deem and Ramdas Pophale) SiO2 
 PCOD9091394
Probable space group: P -1
;
_chemical_formula_sum "Si O2"
_cell_formula_units_Z 14
_cell_length_a 30.378283
_cell_length_b 28.223809
_cell_length_c 9.339429
_cell_angle_alpha 150.232650
_cell_angle_beta 29.259742
_cell_angle_gamma 170.825028
_cell_volume 621.683951
_symmetry_space_group_name_H-M "P -1"
_symmetry_group_IT_number 2
_symmetry_cell_setting 'triclinic'
loop_
_space_group_symop_operation_xyz
x,y,z
-x,-y,-z
loop_
_atom_site_type_symbol
_atom_site_label
_atom_site_fract_x
_atom_site_fract_y
_atom_site_fract_z
Si Si1 0.943715 0.200688 0.105285
Si Si2 0.190084 0.773312 0.245196
Si Si3 0.433531 0.651206 0.703875
Si Si4 0.340794 0.799325 0.157276
Si Si5 0.786036 0.843637 0.600004
Si Si6 0.745231 0.126448 0.195946
Si Si7 0.974833 0.073864 0.347854
O O1 0.968583 0.295317 0.418025
O O2 0.834224 0.145345 0.126053
O O3 0.241450 0.455388 0.879114
O O4 0.749842 0.916137 0.946084
O O5 0.310696 0.845824 0.235938
O O6 0.000000 0.500000 0.000000
O O7 0.426094 0.033928 0.140686
O O8 0.239096 0.412324 0.503325
O O9 0.710324 0.865699 0.491406
O O10 0.544810 0.871492 0.983047
O O11 0.404316 0.933389 0.461578
O O12 0.037095 0.449577 0.139028
O O13 0.500000 0.500000 0.500000
O O14 0.000000 0.000000 0.500000
O O15 0.906764 0.975604 0.444803
O O16 0.000000 0.000000 0.000000
#
# Coordination Sequence:
#
# PCOD9091394 Si02
#       7
#     2   2   2   2   2   2   2
#     4  10  22  39  68  90 131 178 218 276 328 399
#     4  10  20  40  60  96 138 171 213 268 337 391
#     4  11  20  40  67  97 125 172 222 265 336 400
#     4   9  21  37  62  95 135 172 215 274 319 403
#     4  11  23  43  66  95 127 173 228 270 334 402
#     4  10  19  39  65  97 128 177 226 264 332 394
#     4  11  24  44  68  95 133 170 219 287 345 390
#
# _framework density 22.519482
#
# number of rings (size 3 to 8) (size 9 to 14) (size 15 to 20)
#    0.000    1.714    2.857    3.000    0.000    1.143 
#    2.571    5.714    0.000    0.000    0.000    0.000 
#    0.000    0.000    0.000    0.000    0.000    0.000 
#
# Total GULP energy -78155.568479 kJ/mol
# GULP energy per Si atom -5582.540606 kJ/mol
# Density = 2.246823 g / cm^3
# Si number density = 22.519482 Si / 1000 Ang^3
#
#
#
# Elastic Constant Matrix: (Units=GPa)
#
#
# Indices 1 2 3 4 5 6 
#
# 1 73.3728 26.8485 10.2819 6.4012 7.0712 1.6898
# 2 26.8485 124.0012 71.5889 20.3488 13.0823 5.2911
# 3 10.2819 71.5889 206.1279 18.6045 19.0080 7.9737
# 4 6.4012 20.3488 18.6045 36.1102 2.0852 -4.3851
# 5 7.0712 13.0823 19.0080 2.0852 32.2208 3.4790
# 6 1.6898 5.2911 7.9737 -4.3851 3.4790 38.6899
#
#
#
# Elastic Compliance Matrix: (Units=1/GPa)
#
#
# Indices 1 2 3 4 5 6 
#
# 1 0.015034 -0.003217 0.000690 -0.001109 -0.002299 -0.000278
# 2 -0.003217 0.011583 -0.003277 -0.004306 -0.001665 -0.001106
# 3 0.000690 -0.003277 0.006343 -0.001509 -0.002374 -0.000847
# 4 -0.001109 -0.004306 -0.001509 0.031620 0.000350 0.004501
# 5 -0.002299 -0.001665 -0.002374 0.000350 0.033830 -0.002185
# 6 -0.000278 -0.001106 -0.000847 0.004501 -0.002185 0.026891
#
#
# Mechanical properties :
#
#
# Convention : Reuss Voigt Hill
#
# Bulk Modulus (GPa) = 46.83559 68.99339 57.91449
# Shear Modulus (GPa) = 34.71573 41.05635 37.88604
#
# Velocity S-wave (km/s) = 3.93056 4.27447 4.10612
# Velocity P-wave (km/s) = 6.43755 7.42059 6.94648
#
# Compressibility (1/GPa) = 0.02135128
#
# Stress axis : x y z
#
# Youngs Moduli (GPa) = 66.51480 86.33613 157.65478
#
# Poissons Ratio (x) = 0.27778 -0.10882
# Poissons Ratio (y) = 0.21400 0.51666
# Poissons Ratio (z) = -0.04591 0.28294
#
# Static dielectric constant tensor:
#      x y z
#    x 1.902100 0.036340 -0.062120 
#    y 0.036340 1.875570 0.003450 
#    z -0.062120 0.003450 1.928720 
# 
# From -- ./inp_files/359074.got.cif
#   From: 2010.05.17/outbox.cif.g08.bks.cpg/sg2_180_cif.got.tgz:359074.got - 2010.06.03 11:33:40.
