data_PCOD9091711
_publ_section_title
;
Structure prediction by ZEFSAII (Michael W. Deem and Ramdas Pophale) SiO2 
 PCOD9091711
Probable space group: P -1
;
_chemical_formula_sum "Si O2"
_cell_formula_units_Z 16
_cell_length_a 18.685721
_cell_length_b 8.775893
_cell_length_c 11.908893
_cell_angle_alpha 105.973930
_cell_angle_beta 142.870518
_cell_angle_gamma 46.692260
_cell_volume 674.041171
_symmetry_space_group_name_H-M "P -1"
_symmetry_group_IT_number 2
_symmetry_cell_setting 'triclinic'
loop_
_space_group_symop_operation_xyz
x,y,z
-x,-y,-z
loop_
_atom_site_type_symbol
_atom_site_label
_atom_site_fract_x
_atom_site_fract_y
_atom_site_fract_z
Si Si1 0.874099 0.898619 0.100533
Si Si2 0.861258 0.772172 0.445213
Si Si3 0.418064 0.625905 0.299487
Si Si4 0.809511 0.450255 0.023387
Si Si5 0.321692 0.527489 0.603574
Si Si6 0.968494 0.596581 0.856934
Si Si7 0.589744 0.928365 0.325149
Si Si8 0.783337 0.145500 0.265392
O O1 0.087374 0.754236 0.329735
O O2 0.935248 0.650477 0.148443
O O3 0.756306 0.111636 0.097779
O O4 0.736476 0.063440 0.851765
O O5 0.694047 0.857125 0.322560
O O6 0.000000 0.500000 0.500000
O O7 0.006135 0.713390 0.697930
O O8 0.780397 0.988326 0.302241
O O9 0.500000 0.500000 0.500000
O O10 0.589750 0.474656 0.392473
O O11 0.284299 0.619807 0.097026
O O12 0.902549 0.387708 0.005149
O O13 0.627090 0.764651 0.881567
O O14 0.407259 0.258720 0.674920
O O15 0.339421 0.599404 0.759491
O O16 0.739656 0.852340 0.585576
O O17 0.000000 0.500000 0.000000
O O18 0.000000 0.000000 0.500000
#
# Coordination Sequence:
#
# PCOD9091711 Si02
#       8
#     2   2   2   2   2   2   2   2
#     4  10  23  45  66  95 131 176 223 276 335 395
#     4  11  22  41  68 101 134 173 223 277 338 400
#     4  12  28  42  65 100 138 178 224 276 332 404
#     4  11  24  42  63  98 136 168 223 279 336 393
#     4  10  22  43  67  98 132 178 226 269 337 402
#     4  10  23  41  68  92 126 182 225 274 331 392
#     4  10  23  41  67  99 135 173 226 273 331 401
#     4  10  19  39  70  93 131 173 214 272 333 400
#
# _framework density 23.737421999999999
#
# number of rings (size 3 to 8) (size 9 to 14) (size 15 to 20)
#    0.000    1.500    0.000    6.000    5.250    3.000 
#    0.000    3.750    0.000    0.000    0.000    0.000 
#    0.000    0.000    0.000    0.000    0.000    0.000 
#
# Total GULP energy -89503.304861 kJ/mol
# GULP energy per Si atom -5593.956554 kJ/mol
# Density = 2.368339 g / cm^3
# Si number density = 23.737422 Si / 1000 Ang^3
#
#
#
# Elastic Constant Matrix: (Units=GPa)
#
#
# Indices 1 2 3 4 5 6 
#
# 1 178.7731 11.0106 38.1766 14.2708 12.6777 12.4705
# 2 11.0106 52.9955 -0.2606 1.6949 3.5587 6.9922
# 3 38.1766 -0.2606 79.5013 -5.2687 -2.3071 -1.7079
# 4 14.2708 1.6949 -5.2687 28.2345 8.1399 -1.1468
# 5 12.6777 3.5587 -2.3071 8.1399 48.4043 1.8751
# 6 12.4705 6.9922 -1.7079 -1.1468 1.8751 31.2212
#
#
#
# Elastic Compliance Matrix: (Units=1/GPa)
#
#
# Indices 1 2 3 4 5 6 
#
# 1 0.007054 -0.000895 -0.003751 -0.003990 -0.001177 -0.002898
# 2 -0.000895 0.019665 0.000344 -0.000553 -0.000947 -0.003991
# 3 -0.003751 0.000344 0.014752 0.004489 0.000815 0.002344
# 4 -0.003990 -0.000553 0.004489 0.040068 -0.005585 0.003770
# 5 -0.001177 -0.000947 0.000815 -0.005585 0.022046 -0.000802
# 6 -0.002898 -0.003991 0.002344 0.003770 -0.000802 0.034396
#
#
# Mechanical properties :
#
#
# Convention : Reuss Voigt Hill
#
# Bulk Modulus (GPa) = 30.42483 45.45811 37.94147
# Shear Modulus (GPa) = 31.73770 39.06155 35.39963
#
# Velocity S-wave (km/s) = 3.66051 4.06096 3.86593
# Velocity P-wave (km/s) = 5.54174 6.41720 5.99547
#
# Compressibility (1/GPa) = 0.03286789
#
# Stress axis : x y z
#
# Youngs Moduli (GPa) = 141.76356 50.85158 67.78609
#
# Poissons Ratio (x) = 0.04551 0.25427
# Poissons Ratio (y) = 0.12687 -0.02334
# Poissons Ratio (z) = 0.53177 -0.01751
#
# Static dielectric constant tensor:
#      x y z
#    x 1.917500 -0.020450 -0.003070 
#    y -0.020450 1.956190 0.020880 
#    z -0.003070 0.020880 1.924260 
# 
# From -- ./inp_files/462246.got.cif
#   From: 2010.05.17/outbox.cif.g08.bks.cpg/sg2_232_cif.got.tgz:462246.got - 2010.06.03 11:33:40.
