data_PCOD9091602
_publ_section_title
;
Structure prediction by ZEFSAII (Michael W. Deem and Ramdas Pophale) SiO2 
 PCOD9091602
Probable space group: P -1
;
_chemical_formula_sum "Si O2"
_cell_formula_units_Z 13
_cell_length_a 11.195209
_cell_length_b 10.070306
_cell_length_c 13.426127
_cell_angle_alpha 52.670643
_cell_angle_beta 143.156059
_cell_angle_gamma 138.474368
_cell_volume 601.625114
_symmetry_space_group_name_H-M "P -1"
_symmetry_group_IT_number 2
_symmetry_cell_setting 'triclinic'
loop_
_space_group_symop_operation_xyz
x,y,z
-x,-y,-z
loop_
_atom_site_type_symbol
_atom_site_label
_atom_site_fract_x
_atom_site_fract_y
_atom_site_fract_z
Si Si1 0.847854 0.876529 0.710932
Si Si2 0.799340 0.446291 0.471072
Si Si3 0.674988 0.753354 0.208049
Si Si4 0.695813 0.861054 0.827605
Si Si5 0.266304 0.564372 0.172909
Si Si6 0.500000 0.500000 0.000000
Si Si7 0.369453 0.795263 0.340757
O O1 0.872293 0.927158 0.821863
O O2 0.745626 0.642371 0.739456
O O3 0.641113 0.899257 0.515882
O O4 0.103181 0.020874 0.764244
O O5 0.781910 0.636477 0.385606
O O6 0.559560 0.271637 0.338239
O O7 0.807755 0.357149 0.622250
O O8 0.000000 0.500000 0.500000
O O9 0.457278 0.711079 0.150843
O O10 0.572831 0.639720 0.086786
O O11 0.686787 0.701766 0.967373
O O12 0.694758 0.042068 0.793393
O O13 0.341948 0.674342 0.278885
O O14 0.000000 0.500000 0.000000
#
# Coordination Sequence:
#
# PCOD9091602 Si02
#       7
#     2   2   2   2   2   1   2
#     4  11  23  47  74  97 141 180 235 298 339 407
#     4  10  19  39  68 105 131 169 235 292 331 406
#     4  11  24  43  70 100 141 183 232 284 349 413
#     4  10  21  40  68 102 132 177 232 281 349 406
#     4  12  28  47  63 103 147 188 231 282 347 427
#     4  10  22  42  68 100 144 176 224 286 346 410
#     4  11  23  44  73 101 141 181 231 291 354 402
#
# _framework density 21.608139999999999
#
# number of rings (size 3 to 8) (size 9 to 14) (size 15 to 20)
#    0.000    1.231    4.615    4.154    2.154    5.538 
#    2.769    0.000    0.000    0.000    0.000    0.000 
#    0.000    0.000    0.000    0.000    0.000    0.000 
#
# Total GULP energy -72404.364529 kJ/mol
# GULP energy per Si atom -5569.566502 kJ/mol
# Density = 2.155896 g / cm^3
# Si number density = 21.608140 Si / 1000 Ang^3
#
#
#
# Elastic Constant Matrix: (Units=GPa)
#
#
# Indices 1 2 3 4 5 6 
#
# 1 149.5966 61.0696 37.5862 10.2835 -13.3926 34.5601
# 2 61.0696 104.4840 10.6047 7.7233 -7.5466 16.3838
# 3 37.5862 10.6047 41.8055 9.5911 -1.0603 19.0728
# 4 10.2835 7.7233 9.5911 15.4881 -6.1823 3.6381
# 5 -13.3926 -7.5466 -1.0603 -6.1823 33.4968 1.8064
# 6 34.5601 16.3838 19.0728 3.6381 1.8064 49.6428
#
#
#
# Elastic Compliance Matrix: (Units=1/GPa)
#
#
# Indices 1 2 3 4 5 6 
#
# 1 0.012039 -0.005505 -0.008131 0.002236 0.003930 -0.003747
# 2 -0.005505 0.013012 0.003337 -0.004538 0.000075 -0.001414
# 3 -0.008131 0.003337 0.038861 -0.020076 -0.004503 -0.008736
# 4 0.002236 -0.004538 -0.020076 0.083352 0.014565 0.001016
# 5 0.003930 0.000075 -0.004503 0.014565 0.034168 -0.003342
# 6 -0.003747 -0.001414 -0.008736 0.001016 -0.003342 0.026623
#
#
# Mechanical properties :
#
#
# Convention : Reuss Voigt Hill
#
# Bulk Modulus (GPa) = 23.08717 57.15636 40.12176
# Shear Modulus (GPa) = 20.56839 32.16723 26.36781
#
# Velocity S-wave (km/s) = 3.08861 3.86251 3.49703
# Velocity P-wave (km/s) = 4.84014 6.81180 5.90879
#
# Compressibility (1/GPa) = 0.04331411
#
# Stress axis : x y z
#
# Youngs Moduli (GPa) = 83.06541 76.84972 25.73243
#
# Poissons Ratio (x) = 0.42306 0.20923
# Poissons Ratio (y) = 0.45728 -0.08586
# Poissons Ratio (z) = 0.67541 -0.25643
#
# Static dielectric constant tensor:
#      x y z
#    x 1.817400 0.016780 0.041330 
#    y 0.016780 1.766300 -0.003000 
#    z 0.041330 -0.003000 1.845410 
# 
# From -- ./inp_files/267745.got.cif
#   From: 2010.05.17/outbox.cif.g08.bks.cpg/sg2_134_cif.got.tgz:267745.got - 2010.06.03 11:33:40.
