data_PCOD9091869
_publ_section_title
;
Structure prediction by ZEFSAII (Michael W. Deem and Ramdas Pophale) SiO2 
 PCOD9091869
Probable space group: P -1
;
_chemical_formula_sum "Si O2"
_cell_formula_units_Z 16
_cell_length_a 14.700584
_cell_length_b 9.949187
_cell_length_c 10.308243
_cell_angle_alpha 82.198919
_cell_angle_beta 36.427424
_cell_angle_gamma 65.893895
_cell_volume 763.688406
_symmetry_space_group_name_H-M "P -1"
_symmetry_group_IT_number 2
_symmetry_cell_setting 'triclinic'
loop_
_space_group_symop_operation_xyz
x,y,z
-x,-y,-z
loop_
_atom_site_type_symbol
_atom_site_label
_atom_site_fract_x
_atom_site_fract_y
_atom_site_fract_z
Si Si1 0.082791 0.818649 0.075476
Si Si2 0.984436 0.180550 0.135526
Si Si3 0.534906 0.811842 0.209390
Si Si4 0.343942 0.181424 0.667725
Si Si5 0.279712 0.185036 0.459313
Si Si6 0.790632 0.612110 0.735832
Si Si7 0.313159 0.676526 0.343765
Si Si8 0.345634 0.629643 0.025238
O O1 0.241901 0.726633 0.005998
O O2 0.909790 0.808704 0.317405
O O3 0.033139 0.999587 0.111988
O O4 0.118197 0.761049 0.892731
O O5 0.869121 0.271649 0.380504
O O6 0.164094 0.186396 0.917245
O O7 0.590128 0.752883 0.301126
O O8 0.404280 0.757963 0.307660
O O9 0.431385 0.001186 0.298270
O O10 0.712595 0.732892 0.929424
O O11 0.308683 0.248330 0.554513
O O12 0.500000 0.000000 0.500000
O O13 0.279987 0.283764 0.325170
O O14 0.719268 0.493839 0.855576
O O15 0.000000 0.500000 0.500000
O O16 0.302154 0.723794 0.198441
O O17 0.445586 0.488210 0.220955
#
# Coordination Sequence:
#
# PCOD9091869 Si02
#       8
#     2   2   2   2   2   2   2   2
#     4  10  20  38  63  90 119 157 201 249 301 353
#     4  10  21  38  66  91 117 157 203 252 297 359
#     4  10  21  41  62  89 121 157 202 256 295 352
#     4   9  21  39  62  93 122 149 198 257 302 350
#     4  10  19  40  62  91 121 155 201 251 298 355
#     4  11  22  37  61  85 123 165 196 241 304 356
#     4  10  22  42  61  87 126 159 202 247 295 362
#     4  10  23  42  58  86 128 163 199 245 297 362
#
# _framework density 20.950952000000001
#
# number of rings (size 3 to 8) (size 9 to 14) (size 15 to 20)
#    0.000    2.000    2.500    0.375    3.500    1.000 
#   15.750    3.125    0.000    0.000    0.000    0.000 
#    0.000    0.000    0.000    0.000    0.000    0.000 
#
# Total GULP energy -89340.117809 kJ/mol
# GULP energy per Si atom -5583.757363 kJ/mol
# Density = 2.090327 g / cm^3
# Si number density = 20.950952 Si / 1000 Ang^3
#
#
#
# Elastic Constant Matrix: (Units=GPa)
#
#
# Indices 1 2 3 4 5 6 
#
# 1 89.7093 51.3115 -6.8494 -7.3500 22.8046 -34.5166
# 2 51.3115 28.8394 40.9296 9.3375 19.7870 -1.5473
# 3 -6.8494 40.9296 74.4583 7.3636 5.5848 -21.1549
# 4 -7.3500 9.3375 7.3636 11.3136 -10.3631 -13.9322
# 5 22.8046 19.7870 5.5848 -10.3631 31.9742 -9.3330
# 6 -34.5166 -1.5473 -21.1549 -13.9322 -9.3330 23.5580
#
#
#
# Elastic Compliance Matrix: (Units=1/GPa)
#
#
# Indices 1 2 3 4 5 6 
#
# 1 0.009002 0.003474 0.000494 -0.024017 -0.018703 -0.007751
# 2 0.003474 0.015084 -0.004045 0.040713 0.011118 0.030930
# 3 0.000494 -0.004045 0.017230 -0.034987 -0.015365 -0.010848
# 4 -0.024017 0.040713 -0.034987 0.095783 0.030488 0.004791
# 5 -0.018703 0.011118 -0.015365 0.030488 0.049470 -0.002842
# 6 -0.007751 0.030930 -0.010848 0.004791 -0.002842 0.025090
#
#
# Mechanical properties :
#
#
# Convention : Reuss Voigt Hill
#
# Bulk Modulus (GPa) = 24.29332 40.42117 32.35724
# Shear Modulus (GPa) = 22.16968 20.54353 21.35660
#
# Velocity S-wave (km/s) = 3.25648 3.13478 3.19621
# Velocity P-wave (km/s) = 5.07544 5.69540 5.39433
#
# Compressibility (1/GPa) = 0.04116358
#
# Stress axis : x y z
#
# Youngs Moduli (GPa) = 111.08038 66.29472 58.03965
#
# Poissons Ratio (x) = -0.23029 -0.02870
# Poissons Ratio (y) = -0.38586 0.23474
# Poissons Ratio (z) = -0.05493 0.26813
#
# Static dielectric constant tensor:
#      x y z
#    x 1.799050 0.005420 0.002280 
#    y 0.005420 1.710050 0.013860 
#    z 0.002280 0.013860 1.790960 
# 
# From -- ./inp_files/175020.got.cif
#   From: 2010.05.17/outbox.cif.g08.bks.cpg/sg2_88_cif.got.tgz:175020.got - 2010.06.03 11:33:40.
