data_PCOD9091005
_publ_section_title
;
Structure prediction by ZEFSAII (Michael W. Deem and Ramdas Pophale) SiO2 
 PCOD9091005
Probable space group: P -1
;
_chemical_formula_sum "Si O2"
_cell_formula_units_Z 14
_cell_length_a 13.972829
_cell_length_b 7.666983
_cell_length_c 8.863261
_cell_angle_alpha 99.747465
_cell_angle_beta 117.160486
_cell_angle_gamma 49.833784
_cell_volume 634.560051
_symmetry_space_group_name_H-M "P -1"
_symmetry_group_IT_number 2
_symmetry_cell_setting 'triclinic'
loop_
_space_group_symop_operation_xyz
x,y,z
-x,-y,-z
loop_
_atom_site_type_symbol
_atom_site_label
_atom_site_fract_x
_atom_site_fract_y
_atom_site_fract_z
Si Si1 0.582475 0.609270 0.911804
Si Si2 0.804635 0.545844 0.560537
Si Si3 0.319042 0.010714 0.301442
Si Si4 0.681486 0.984458 0.357271
Si Si5 0.574602 0.599248 0.259427
Si Si6 0.152110 0.866891 0.018224
Si Si7 0.085082 0.053803 0.665197
O O1 0.470485 0.870119 0.808924
O O2 0.499590 0.512523 0.806440
O O3 0.600256 0.609517 0.103837
O O4 0.735014 0.412081 0.918262
O O5 0.746688 0.725096 0.683217
O O6 0.711968 0.472461 0.444276
O O7 0.967219 0.326741 0.659046
O O8 0.767063 0.713245 0.415586
O O9 0.345858 0.915820 0.478149
O O10 0.462755 0.854044 0.289085
O O11 0.215187 0.981434 0.146239
O O12 0.785359 0.995796 0.336588
O O13 0.138178 0.908979 0.835483
O O14 0.000000 0.000000 0.000000
O O15 0.000000 0.000000 0.500000
#
# Coordination Sequence:
#
# PCOD9091005 Si02
#       7
#     2   2   2   2   2   2   2
#     4  10  21  39  65  89 122 161 215 262 299 370
#     4  10  23  38  63  93 130 164 205 257 314 373
#     4   9  22  38  60  90 130 158 209 253 310 369
#     4  10  22  39  60  96 124 163 205 257 312 366
#     4  10  19  39  62  91 122 167 211 253 309 364
#     4  11  24  42  63  94 122 164 214 258 310 368
#     4  12  23  41  67  89 125 170 209 255 312 373
#
# _framework density 22.062531
#
# number of rings (size 3 to 8) (size 9 to 14) (size 15 to 20)
#    0.857    0.857    0.000    6.000    0.000    4.571 
#    0.000    0.000    0.000    0.000    0.000    0.000 
#    0.000    0.000    0.000    0.000    0.000    0.000 
#
# Total GULP energy -78183.197903 kJ/mol
# GULP energy per Si atom -5584.514136 kJ/mol
# Density = 2.201232 g / cm^3
# Si number density = 22.062531 Si / 1000 Ang^3
#
#
#
# Elastic Constant Matrix: (Units=GPa)
#
#
# Indices 1 2 3 4 5 6 
#
# 1 70.9976 26.8172 13.3420 -0.2852 -1.3200 -22.4370
# 2 26.8172 144.5449 22.8907 -12.5545 -0.3286 -32.4972
# 3 13.3420 22.8907 84.6879 3.4814 5.7802 -11.7965
# 4 -0.2852 -12.5545 3.4814 39.7896 -2.7099 0.8622
# 5 -1.3200 -0.3286 5.7802 -2.7099 24.8489 -6.0081
# 6 -22.4370 -32.4972 -11.7965 0.8622 -6.0081 37.6379
#
#
#
# Elastic Compliance Matrix: (Units=1/GPa)
#
#
# Indices 1 2 3 4 5 6 
#
# 1 0.017935 -0.000807 -0.001452 0.000036 0.003734 0.010135
# 2 -0.000807 0.009250 -0.001654 0.003074 0.002571 0.007327
# 3 -0.001452 -0.001654 0.012952 -0.001899 -0.002997 0.001331
# 4 0.000036 0.003074 -0.001899 0.026487 0.003879 0.002093
# 5 0.003734 0.002571 -0.002997 0.003879 0.044125 0.010461
# 6 0.010135 0.007327 0.001331 0.002093 0.010461 0.040976
#
#
# Mechanical properties :
#
#
# Convention : Reuss Voigt Hill
#
# Bulk Modulus (GPa) = 30.95030 47.37004 39.16017
# Shear Modulus (GPa) = 29.35602 36.26732 32.81167
#
# Velocity S-wave (km/s) = 3.65167 4.05883 3.86062
# Velocity P-wave (km/s) = 5.64256 6.59416 6.13683
#
# Compressibility (1/GPa) = 0.03230986
#
# Stress axis : x y z
#
# Youngs Moduli (GPa) = 55.75624 108.10640 77.20875
#
# Poissons Ratio (x) = 0.08729 0.11210
# Poissons Ratio (y) = 0.04502 0.12773
# Poissons Ratio (z) = 0.08095 0.17884
#
# Static dielectric constant tensor:
#      x y z
#    x 1.820330 0.020850 0.004330 
#    y 0.020850 1.875330 -0.014430 
#    z 0.004330 -0.014430 1.783580 
# 
# From -- ./inp_files/295822.got.cif
#   From: 2010.05.17/outbox.cif.g08.bks.cpg/sg2_148_cif.got.tgz:295822.got - 2010.06.03 11:33:40.
