data_PCOD9091757
_publ_section_title
;
Structure prediction by ZEFSAII (Michael W. Deem and Ramdas Pophale) SiO2 
 PCOD9091757
Probable space group: P -1
;
_chemical_formula_sum "Si O2"
_cell_formula_units_Z 14
_cell_length_a 14.251314
_cell_length_b 9.919368
_cell_length_c 19.465292
_cell_angle_alpha 144.113447
_cell_angle_beta 160.746141
_cell_angle_gamma 42.334209
_cell_volume 527.193316
_symmetry_space_group_name_H-M "P -1"
_symmetry_group_IT_number 2
_symmetry_cell_setting 'triclinic'
loop_
_space_group_symop_operation_xyz
x,y,z
-x,-y,-z
loop_
_atom_site_type_symbol
_atom_site_label
_atom_site_fract_x
_atom_site_fract_y
_atom_site_fract_z
Si Si1 0.239818 0.185054 0.149332
Si Si2 0.642388 0.633473 0.443152
Si Si3 0.137688 0.866861 0.257899
Si Si4 0.371082 0.421098 0.805296
Si Si5 0.126005 0.916872 0.430365
Si Si6 0.524126 0.748698 0.943198
Si Si7 0.978477 0.317356 0.155109
O O1 0.568583 0.142734 0.357382
O O2 0.163501 0.350417 0.226934
O O3 0.123933 0.230927 0.013090
O O4 0.045568 0.946715 0.941210
O O5 0.399471 0.733094 0.361266
O O6 0.517999 0.432348 0.222849
O O7 0.866739 0.549623 0.618015
O O8 0.776349 0.859626 0.585781
O O9 0.090916 0.843417 0.296314
O O10 0.305086 0.640599 0.806296
O O11 0.141843 0.195506 0.559537
O O12 0.500000 0.500000 0.000000
O O13 0.645702 0.338428 0.921490
O O14 0.840073 0.788913 0.214103
O O15 0.500000 0.000000 0.000000
#
# Coordination Sequence:
#
# PCOD9091757 Si02
#       7
#     2   2   2   2   2   2   2
#     4   9  18  36  68 108 138 176 230 292 366 431
#     4  10  20  40  70 106 143 188 236 293 368 431
#     4  10  19  39  77 102 142 187 231 300 369 434
#     4  11  26  49  74  99 142 200 250 298 358 430
#     4  11  24  46  71 107 144 184 242 298 371 435
#     4  12  29  47  71 105 148 194 249 300 357 440
#     4   9  18  37  69 102 138 180 233 295 356 426
#
# _framework density 26.555724000000001
#
# number of rings (size 3 to 8) (size 9 to 14) (size 15 to 20)
#    0.000    1.714    2.857    0.857    6.000    5.143 
#    2.571    1.429    0.000    0.000    0.000    0.000 
#    0.000    0.000    0.000    0.000    0.000    0.000 
#
# Total GULP energy -78478.418464 kJ/mol
# GULP energy per Si atom -5605.601319 kJ/mol
# Density = 2.649528 g / cm^3
# Si number density = 26.555724 Si / 1000 Ang^3
#
#
#
# Elastic Constant Matrix: (Units=GPa)
#
#
# Indices 1 2 3 4 5 6 
#
# 1 55.2019 15.9766 28.6860 14.8984 -13.7913 6.4226
# 2 15.9766 76.7487 36.7220 3.5411 4.6612 -5.8999
# 3 28.6860 36.7220 153.6545 4.4730 -7.7891 5.9135
# 4 14.8984 3.5411 4.4730 59.6653 10.9117 2.8025
# 5 -13.7913 4.6612 -7.7891 10.9117 44.2705 -1.8807
# 6 6.4226 -5.8999 5.9135 2.8025 -1.8807 36.1229
#
#
#
# Elastic Compliance Matrix: (Units=1/GPa)
#
#
# Indices 1 2 3 4 5 6 
#
# 1 0.025834 -0.004530 -0.002882 -0.007567 0.009723 -0.003768
# 2 -0.004530 0.016045 -0.003350 0.000945 -0.003765 0.003705
# 3 -0.002882 -0.003350 0.007927 0.000252 0.000732 -0.001314
# 4 -0.007567 0.000945 0.000252 0.019940 -0.007347 -0.000471
# 5 0.009723 -0.003765 0.000732 -0.007347 0.027935 -0.000439
# 6 -0.003768 0.003705 -0.001314 -0.000471 -0.000439 0.029187
#
#
# Mechanical properties :
#
#
# Convention : Reuss Voigt Hill
#
# Bulk Modulus (GPa) = 35.35780 49.81936 42.58858
# Shear Modulus (GPa) = 31.68171 41.62643 36.65407
#
# Velocity S-wave (km/s) = 3.45777 3.96348 3.71923
# Velocity P-wave (km/s) = 5.41157 6.30449 5.87502
#
# Compressibility (1/GPa) = 0.02828231
#
# Stress axis : x y z
#
# Youngs Moduli (GPa) = 38.70902 62.32363 126.14921
#
# Poissons Ratio (x) = 0.28231 0.36359
# Poissons Ratio (y) = 0.17534 0.42260
# Poissons Ratio (z) = 0.11157 0.20878
#
# Static dielectric constant tensor:
#      x y z
#    x 2.058480 -0.001950 0.033440 
#    y -0.001950 2.197300 -0.010760 
#    z 0.033440 -0.010760 2.047610 
# 
# From -- ./inp_files/598057.got.cif
#   From: 2010.05.17/outbox.cif.g08.bks.cpg/sg2_300_cif.got.tgz:598057.got - 2010.06.03 11:33:40.
