data_PCOD9091176
_publ_section_title
;
Structure prediction by ZEFSAII (Michael W. Deem and Ramdas Pophale) SiO2 
 PCOD9091176
Probable space group: P -1
;
_chemical_formula_sum "Si O2"
_cell_formula_units_Z 16
_cell_length_a 7.157592
_cell_length_b 8.150163
_cell_length_c 11.655034
_cell_angle_alpha 80.374166
_cell_angle_beta 58.340549
_cell_angle_gamma 100.563123
_cell_volume 539.984938
_symmetry_space_group_name_H-M "P -1"
_symmetry_group_IT_number 2
_symmetry_cell_setting 'triclinic'
loop_
_space_group_symop_operation_xyz
x,y,z
-x,-y,-z
loop_
_atom_site_type_symbol
_atom_site_label
_atom_site_fract_x
_atom_site_fract_y
_atom_site_fract_z
Si Si1 0.433110 0.422914 0.732084
Si Si2 0.037415 0.483700 0.125535
Si Si3 0.232289 0.322795 0.222203
Si Si4 0.832968 0.373072 0.478491
Si Si5 0.989282 0.929932 0.330863
Si Si6 0.738083 0.154746 0.921997
Si Si7 0.383827 0.033183 0.413427
Si Si8 0.764330 0.985970 0.156952
O O1 0.209596 0.477496 0.765136
O O2 0.580108 0.555446 0.767382
O O3 0.599073 0.419318 0.568871
O O4 0.363250 0.217215 0.812932
O O5 0.186343 0.341496 0.100848
O O6 0.259604 0.656014 0.066137
O O7 0.000000 0.500000 0.000000
O O8 0.169392 0.116523 0.290652
O O9 0.996550 0.382952 0.312425
O O10 0.771348 0.164679 0.548071
O O11 0.000000 0.500000 0.500000
O O12 0.783066 0.863195 0.495667
O O13 0.127520 0.813523 0.245811
O O14 0.879848 0.974895 0.243268
O O15 0.500000 0.000000 0.000000
O O16 0.861652 0.090182 0.996905
O O17 0.584826 0.087892 0.248566
O O18 0.500000 0.000000 0.500000
#
# Coordination Sequence:
#
# PCOD9091176 Si02
#       8
#     2   2   2   2   2   2   2   2
#     4  10  21  39  65  89 121 161 199 250 306 358
#     4  12  27  41  58  91 126 158 210 249 291 364
#     4  10  22  40  64  91 123 157 198 252 306 358
#     4   8  16  34  60  90 116 151 198 243 300 364
#     4  10  20  39  65  89 116 156 200 245 307 359
#     4  12  26  41  60  89 124 160 205 249 297 362
#     4   8  16  31  60  90 110 145 200 248 290 360
#     4  10  19  39  64  85 117 161 200 244 305 358
#
# _framework density 29.630457
#
# number of rings (size 3 to 8) (size 9 to 14) (size 15 to 20)
#    0.000    2.000    1.250    1.875    3.500    1.000 
#    0.000    0.625    2.750    0.000    0.000    0.000 
#    0.000    0.000    0.000    0.000    0.000    0.000 
#
# Total GULP energy -89347.966569 kJ/mol
# GULP energy per Si atom -5584.247911 kJ/mol
# Density = 2.956302 g / cm^3
# Si number density = 29.630457 Si / 1000 Ang^3
#
#
#
# Elastic Constant Matrix: (Units=GPa)
#
#
# Indices 1 2 3 4 5 6 
#
# 1 97.5030 2.4188 10.6046 2.4982 3.9622 2.1622
# 2 2.4188 130.6045 15.0326 3.8529 4.7516 18.1610
# 3 10.6046 15.0326 102.7522 24.4723 -7.1313 6.2771
# 4 2.4982 3.8529 24.4723 54.2774 -9.8758 4.8234
# 5 3.9622 4.7516 -7.1313 -9.8758 40.6770 1.7863
# 6 2.1622 18.1610 6.2771 4.8234 1.7863 41.5707
#
#
#
# Elastic Compliance Matrix: (Units=1/GPa)
#
#
# Indices 1 2 3 4 5 6 
#
# 1 0.010438 0.000028 -0.001105 -0.000183 -0.001244 -0.000314
# 2 0.000028 0.008292 -0.001081 0.000018 -0.001006 -0.003420
# 3 -0.001105 -0.001081 0.011236 -0.004679 0.001097 -0.000671
# 4 -0.000183 0.000018 -0.004679 0.021538 0.004512 -0.001985
# 5 -0.001244 -0.001006 0.001097 0.004512 0.026168 -0.001309
# 6 -0.000314 -0.003420 -0.000671 -0.001985 -0.001309 0.025954
#
#
# Mechanical properties :
#
#
# Convention : Reuss Voigt Hill
#
# Bulk Modulus (GPa) = 38.98718 42.99687 40.99202
# Shear Modulus (GPa) = 42.92151 47.49195 45.20673
#
# Velocity S-wave (km/s) = 3.81012 4.00785 3.91024
# Velocity P-wave (km/s) = 5.70460 5.99664 5.85244
#
# Compressibility (1/GPa) = 0.02564946
#
# Stress axis : x y z
#
# Youngs Moduli (GPa) = 95.80581 120.59468 88.99998
#
# Poissons Ratio (x) = -0.00340 0.09835
# Poissons Ratio (y) = -0.00270 0.09624
# Poissons Ratio (z) = 0.10587 0.13041
#
# Static dielectric constant tensor:
#      x y z
#    x 2.540860 -0.075860 -0.256340 
#    y -0.075860 2.205060 -0.000970 
#    z -0.256340 -0.000970 2.600490 
# 
# From -- ./inp_files/492892.got.cif
#   From: 2010.05.17/outbox.cif.g08.bks.cpg/sg2_247_cif.got.tgz:492892.got - 2010.06.03 11:33:40.
