data_PCOD9091379
_publ_section_title
;
Structure prediction by ZEFSAII (Michael W. Deem and Ramdas Pophale) SiO2 
 PCOD9091379
Probable space group: P -1
;
_chemical_formula_sum "Si O2"
_cell_formula_units_Z 14
_cell_length_a 10.143722
_cell_length_b 12.400073
_cell_length_c 12.523937
_cell_angle_alpha 114.249405
_cell_angle_beta 36.897310
_cell_angle_gamma 87.721499
_cell_volume 638.102849
_symmetry_space_group_name_H-M "P -1"
_symmetry_group_IT_number 2
_symmetry_cell_setting 'triclinic'
loop_
_space_group_symop_operation_xyz
x,y,z
-x,-y,-z
loop_
_atom_site_type_symbol
_atom_site_label
_atom_site_fract_x
_atom_site_fract_y
_atom_site_fract_z
Si Si1 0.357188 0.583722 0.402167
Si Si2 0.089702 0.056201 0.223117
Si Si3 0.293763 0.116262 0.308541
Si Si4 0.330390 0.740256 0.686105
Si Si5 0.182320 0.411593 0.510662
Si Si6 0.761029 0.988294 0.279909
Si Si7 0.762781 0.410554 0.881234
O O1 0.417245 0.608089 0.491996
O O2 0.160871 0.537262 0.510307
O O3 0.179666 0.754229 0.532020
O O4 0.640275 0.448976 0.094215
O O5 0.228490 0.030659 0.238755
O O6 0.957214 0.979020 0.243184
O O7 0.353598 0.002407 0.949093
O O8 0.233756 0.269312 0.357748
O O9 0.036294 0.220296 0.606489
O O10 0.543186 0.673038 0.621597
O O11 0.346657 0.858624 0.657835
O O12 0.000114 0.839599 0.986744
O O13 0.904656 0.486646 0.796313
O O14 0.500000 0.000000 0.500000
O O15 0.500000 0.500000 0.000000
#
# Coordination Sequence:
#
# PCOD9091379 Si02
#       7
#     2   2   2   2   2   2   2
#     4  11  22  37  68  89 129 165 211 255 323 373
#     4  10  19  39  65  95 117 173 206 262 316 369
#     4   9  20  39  67  83 135 158 208 265 312 370
#     4  10  22  40  58  97 127 167 211 261 310 380
#     4  10  22  40  61  89 131 166 204 258 316 383
#     4  10  21  39  67  90 132 165 210 263 320 368
#     4  10  21  39  60  90 123 161 208 264 307 375
#
# _framework density 21.940037
#
# number of rings (size 3 to 8) (size 9 to 14) (size 15 to 20)
#    0.857    1.143    2.857    0.429    0.000    6.286 
#    0.000    0.000    6.286    3.429    0.000    0.000 
#    0.000    0.000    0.000    0.000    0.000    0.000 
#
# Total GULP energy -77972.156856 kJ/mol
# GULP energy per Si atom -5569.439775 kJ/mol
# Density = 2.189010 g / cm^3
# Si number density = 21.940037 Si / 1000 Ang^3
#
#
#
# Elastic Constant Matrix: (Units=GPa)
#
#
# Indices 1 2 3 4 5 6 
#
# 1 111.4155 20.6678 37.9995 -6.2357 7.7608 16.1652
# 2 20.6678 51.4648 34.3573 -25.4261 8.1365 13.2325
# 3 37.9995 34.3573 211.3475 -31.1506 24.9911 23.4125
# 4 -6.2357 -25.4261 -31.1506 30.3229 4.9051 -4.4335
# 5 7.7608 8.1365 24.9911 4.9051 41.9209 5.1970
# 6 16.1652 13.2325 23.4125 -4.4335 5.1970 24.2840
#
#
#
# Elastic Compliance Matrix: (Units=1/GPa)
#
#
# Indices 1 2 3 4 5 6 
#
# 1 0.010560 -0.003880 -0.001307 -0.003136 0.000481 -0.004331
# 2 -0.003880 0.043723 0.002095 0.037893 -0.011736 -0.013832
# 3 -0.001307 0.002095 0.006974 0.008793 -0.004810 -0.004360
# 4 -0.003136 0.037893 0.008793 0.074982 -0.019656 -0.009142
# 5 0.000481 -0.011736 -0.004810 -0.019656 0.031154 0.000456
# 6 -0.004331 -0.013832 -0.004360 -0.009142 0.000456 0.054036
#
#
# Mechanical properties :
#
#
# Convention : Reuss Voigt Hill
#
# Bulk Modulus (GPa) = 18.15797 62.25300 40.20549
# Shear Modulus (GPa) = 20.32746 38.05243 29.18994
#
# Velocity S-wave (km/s) = 3.04715 4.16911 3.65148
# Velocity P-wave (km/s) = 4.54690 7.18408 6.01188
#
# Compressibility (1/GPa) = 0.05507224
#
# Stress axis : x y z
#
# Youngs Moduli (GPa) = 94.69392 22.87121 143.39434
#
# Poissons Ratio (x) = 0.08874 0.18746
# Poissons Ratio (y) = 0.36742 -0.30039
# Poissons Ratio (z) = 0.12380 -0.04791
#
# Static dielectric constant tensor:
#      x y z
#    x 1.863950 -0.009710 -0.016260 
#    y -0.009710 1.803380 0.005910 
#    z -0.016260 0.005910 1.831980 
# 
# From -- ./inp_files/518003.got.cif
#   From: 2010.05.17/outbox.cif.g08.bks.cpg/sg2_260_cif.got.tgz:518003.got - 2010.06.03 11:33:40.
