data_PCOD9091760
_publ_section_title
;
Structure prediction by ZEFSAII (Michael W. Deem and Ramdas Pophale) SiO2 
 PCOD9091760
Probable space group: P -1
;
_chemical_formula_sum "Si O2"
_cell_formula_units_Z 16
_cell_length_a 14.486877
_cell_length_b 15.457601
_cell_length_c 15.797187
_cell_angle_alpha 28.015239
_cell_angle_beta 26.871292
_cell_angle_gamma 40.166385
_cell_volume 746.470805
_symmetry_space_group_name_H-M "P -1"
_symmetry_group_IT_number 2
_symmetry_cell_setting 'triclinic'
loop_
_space_group_symop_operation_xyz
x,y,z
-x,-y,-z
loop_
_atom_site_type_symbol
_atom_site_label
_atom_site_fract_x
_atom_site_fract_y
_atom_site_fract_z
Si Si1 0.454751 0.453360 0.438776
Si Si2 0.697713 0.225534 0.318955
Si Si3 0.165042 0.164069 0.014158
Si Si4 0.353349 0.129532 0.054725
Si Si5 0.527091 0.074156 0.129566
Si Si6 0.441983 0.778232 0.749800
Si Si7 0.800055 0.553372 0.689265
Si Si8 0.784058 0.450654 0.603228
O O1 0.644613 0.361394 0.321375
O O2 0.529730 0.664140 0.214741
O O3 0.284053 0.439541 0.515681
O O4 0.333197 0.343634 0.708307
O O5 0.611042 0.288266 0.246080
O O6 0.937403 0.196637 0.142848
O O7 0.560640 0.037566 0.621359
O O8 0.162865 0.122499 0.152597
O O9 0.279532 0.015561 0.994019
O O10 0.348965 0.066337 0.210408
O O11 0.500000 0.000000 0.000000
O O12 0.606786 0.283683 0.904927
O O13 0.623879 0.687361 0.727072
O O14 0.500000 0.000000 0.500000
O O15 0.253753 0.663694 0.053598
O O16 0.823154 0.562843 0.560651
O O17 0.997169 0.626413 0.519630
#
# Coordination Sequence:
#
# PCOD9091760 Si02
#       8
#     2   2   2   2   2   2   2   2
#     4  10  20  38  60  82 119 150 187 247 291 343
#     4  11  22  38  57  88 117 151 196 240 296 350
#     4  10  21  36  59  88 113 151 197 233 293 360
#     4   9  19  39  60  84 115 151 190 238 294 349
#     4   9  21  38  60  82 118 152 191 246 290 347
#     4  11  23  39  57  89 123 154 198 255 292 346
#     4  10  22  38  61  83 118 159 201 242 300 354
#     4  10  19  40  56  82 113 157 198 240 295 351
#
# _framework density 21.434194000000002
#
# number of rings (size 3 to 8) (size 9 to 14) (size 15 to 20)
#    0.000    2.000    1.250    1.875    1.750    1.000 
#    0.000    8.125    0.000    0.000    0.000    0.000 
#    0.000    0.000    0.000    0.000    0.000    0.000 
#
# Total GULP energy -89094.660680 kJ/mol
# GULP energy per Si atom -5568.416292 kJ/mol
# Density = 2.138541 g / cm^3
# Si number density = 21.434194 Si / 1000 Ang^3
#
#
#
# Elastic Constant Matrix: (Units=GPa)
#
#
# Indices 1 2 3 4 5 6 
#
# 1 81.0160 8.2017 8.1015 19.7863 15.6052 -13.8647
# 2 8.2017 59.0299 23.0903 -1.9879 -8.6749 -8.7590
# 3 8.1015 23.0903 71.8242 -0.4816 8.3300 -2.5696
# 4 19.7863 -1.9879 -0.4816 32.3763 -0.3646 -2.5583
# 5 15.6052 -8.6749 8.3300 -0.3646 28.1245 -1.6538
# 6 -13.8647 -8.7590 -2.5696 -2.5583 -1.6538 22.3981
#
#
#
# Elastic Compliance Matrix: (Units=1/GPa)
#
#
# Indices 1 2 3 4 5 6 
#
# 1 0.019082 -0.003753 0.000618 -0.011361 -0.011590 0.008262
# 2 -0.003753 0.023811 -0.008374 0.004359 0.012401 0.007441
# 3 0.000618 -0.008374 0.017433 -0.000851 -0.008194 -0.001595
# 4 -0.011361 0.004359 -0.000851 0.038143 0.008368 -0.000451
# 5 -0.011590 0.012401 -0.008194 0.008368 0.048422 0.001266
# 6 0.008262 0.007441 -0.001595 -0.000451 0.001266 0.052530
#
#
# Mechanical properties :
#
#
# Convention : Reuss Voigt Hill
#
# Bulk Modulus (GPa) = 26.80431 32.29521 29.54976
# Shear Modulus (GPa) = 21.28775 28.07824 24.68300
#
# Velocity S-wave (km/s) = 3.15488 3.62328 3.39716
# Velocity P-wave (km/s) = 5.07972 5.71000 5.40406
#
# Compressibility (1/GPa) = 0.03730743
#
# Stress axis : x y z
#
# Youngs Moduli (GPa) = 52.40431 41.99713 57.36250
#
# Poissons Ratio (x) = 0.15761 -0.03543
# Poissons Ratio (y) = 0.19666 0.48038
# Poissons Ratio (z) = -0.03237 0.35170
#
# Static dielectric constant tensor:
#      x y z
#    x 1.822750 -0.025980 -0.012310 
#    y -0.025980 1.872570 0.032380 
#    z -0.012310 0.032380 1.799070 
# 
# From -- ./inp_files/534075.got.cif
#   From: 2010.05.17/outbox.cif.g08.bks.cpg/sg2_268_cif.got.tgz:534075.got - 2010.06.03 11:33:40.
