data_PCOD9091675
_publ_section_title
;
Structure prediction by ZEFSAII (Michael W. Deem and Ramdas Pophale) SiO2 
 PCOD9091675
Probable space group: P -1
;
_chemical_formula_sum "Si O2"
_cell_formula_units_Z 14
_cell_length_a 8.049936
_cell_length_b 10.122556
_cell_length_c 7.282562
_cell_angle_alpha 77.022821
_cell_angle_beta 115.524374
_cell_angle_gamma 82.227347
_cell_volume 503.342161
_symmetry_space_group_name_H-M "P -1"
_symmetry_group_IT_number 2
_symmetry_cell_setting 'triclinic'
loop_
_space_group_symop_operation_xyz
x,y,z
-x,-y,-z
loop_
_atom_site_type_symbol
_atom_site_label
_atom_site_fract_x
_atom_site_fract_y
_atom_site_fract_z
Si Si1 0.693122 0.904604 0.210126
Si Si2 0.297459 0.969058 0.442487
Si Si3 0.943208 0.208452 0.132785
Si Si4 0.068108 0.537680 0.237427
Si Si5 0.902365 0.252402 0.540835
Si Si6 0.474447 0.705591 0.090860
Si Si7 0.666136 0.571890 0.889475
O O1 0.738884 0.990018 0.375879
O O2 0.901652 0.842087 0.244682
O O3 0.626151 0.761752 0.259694
O O4 0.500000 0.000000 0.000000
O O5 0.127110 0.081498 0.224969
O O6 0.500000 0.000000 0.500000
O O7 0.264335 0.815938 0.450937
O O8 0.933931 0.242047 0.338986
O O9 0.732857 0.189665 0.004124
O O10 0.944093 0.334668 0.954560
O O11 0.123455 0.593872 0.436840
O O12 0.235710 0.414773 0.263629
O O13 0.853073 0.524740 0.126007
O O14 0.538490 0.698967 0.908129
O O15 0.444561 0.549417 0.151231
#
# Coordination Sequence:
#
# PCOD9091675 Si02
#       7
#     2   2   2   2   2   2   2
#     4  11  22  39  67  95 126 173 209 255 329 385
#     4  11  26  40  60  96 132 161 217 267 311 389
#     4  10  23  41  64  92 130 166 211 261 320 379
#     4  10  21  40  68  92 126 168 215 263 318 371
#     4  11  23  43  62  93 134 166 207 266 318 382
#     4  10  19  39  69  92 129 172 208 262 324 376
#     4   9  20  38  64  97 124 166 220 261 309 380
#
# _framework density 27.814083
#
# number of rings (size 3 to 8) (size 9 to 14) (size 15 to 20)
#    0.000    1.714    1.429    3.429    6.000    1.714 
#    0.000    7.143    0.000    0.000    0.000    0.000 
#    0.000    0.000    0.000    0.000    0.000    0.000 
#
# Total GULP energy -78240.660789 kJ/mol
# GULP energy per Si atom -5588.618628 kJ/mol
# Density = 2.775078 g / cm^3
# Si number density = 27.814083 Si / 1000 Ang^3
#
#
#
# Elastic Constant Matrix: (Units=GPa)
#
#
# Indices 1 2 3 4 5 6 
#
# 1 125.0395 33.7310 34.2416 -6.4818 33.5006 1.5842
# 2 33.7310 68.0655 21.5887 13.2712 7.5720 11.5472
# 3 34.2416 21.5887 96.7800 4.8044 1.1277 17.4789
# 4 -6.4818 13.2712 4.8044 55.3931 2.0145 7.9163
# 5 33.5006 7.5720 1.1277 2.0145 58.0261 8.1748
# 6 1.5842 11.5472 17.4789 7.9163 8.1748 49.9564
#
#
#
# Elastic Compliance Matrix: (Units=1/GPa)
#
#
# Indices 1 2 3 4 5 6 
#
# 1 0.012408 -0.005215 -0.003798 0.002880 -0.006906 0.002814
# 2 -0.005215 0.019102 -0.001633 -0.004639 0.001152 -0.003132
# 3 -0.003798 -0.001633 0.012825 -0.000646 0.002791 -0.004343
# 4 0.002880 -0.004639 -0.000646 0.019854 -0.001495 -0.001694
# 5 -0.006906 0.001152 0.002791 -0.001495 0.021679 -0.004334
# 6 0.002814 -0.003132 -0.004343 -0.001694 -0.004334 0.023150
#
#
# Mechanical properties :
#
#
# Convention : Reuss Voigt Hill
#
# Bulk Modulus (GPa) = 43.39807 52.11196 47.75502
# Shear Modulus (GPa) = 36.23457 46.03003 41.13230
#
# Velocity S-wave (km/s) = 3.61327 4.07248 3.84973
# Velocity P-wave (km/s) = 5.74842 6.39453 6.08006
#
# Compressibility (1/GPa) = 0.02304250
#
# Stress axis : x y z
#
# Youngs Moduli (GPa) = 80.59255 52.35051 77.97474
#
# Poissons Ratio (x) = 0.27302 0.29611
# Poissons Ratio (y) = 0.42031 0.12736
# Poissons Ratio (z) = 0.30605 0.08551
#
# Static dielectric constant tensor:
#      x y z
#    x 2.322990 -0.068840 -0.009110 
#    y -0.068840 2.323840 -0.031400 
#    z -0.009110 -0.031400 2.170670 
# 
# From -- ./inp_files/180867.got.cif
#   From: 2010.05.17/outbox.cif.g08.bks.cpg/sg2_91_cif.got.tgz:180867.got - 2010.06.03 11:33:40.
