data_PCOD9091383
_publ_section_title
;
Structure prediction by ZEFSAII (Michael W. Deem and Ramdas Pophale) SiO2 
 PCOD9091383
Probable space group: P -1
;
_chemical_formula_sum "Si O2"
_cell_formula_units_Z 16
_cell_length_a 21.226483
_cell_length_b 9.126242
_cell_length_c 11.074382
_cell_angle_alpha 54.649364
_cell_angle_beta 25.799648
_cell_angle_gamma 44.378739
_cell_volume 638.002947
_symmetry_space_group_name_H-M "P -1"
_symmetry_group_IT_number 2
_symmetry_cell_setting 'triclinic'
loop_
_space_group_symop_operation_xyz
x,y,z
-x,-y,-z
loop_
_atom_site_type_symbol
_atom_site_label
_atom_site_fract_x
_atom_site_fract_y
_atom_site_fract_z
Si Si1 0.520121 0.308229 0.808050
Si Si2 0.313138 0.049151 0.511121
Si Si3 0.179624 0.473461 0.455748
Si Si4 0.022711 0.255404 0.562672
Si Si5 0.433104 0.719673 0.635983
Si Si6 0.389137 0.943951 0.854297
Si Si7 0.225652 0.370662 0.026957
Si Si8 0.787578 0.216443 0.585253
O O1 0.424869 0.523567 0.790169
O O2 0.391033 0.372662 0.699766
O O3 0.665168 0.310107 0.635807
O O4 0.605375 0.097523 0.678911
O O5 0.157450 0.287607 0.633836
O O6 0.284338 0.899556 0.721029
O O7 0.454027 0.070973 0.334644
O O8 0.376736 0.334489 0.134328
O O9 0.162174 0.630006 0.517001
O O10 0.073582 0.613079 0.455985
O O11 0.204192 0.245761 0.239559
O O12 0.917635 0.390376 0.795771
O O13 0.059482 0.022274 0.599729
O O14 0.439212 0.837412 0.688926
O O15 0.242613 0.200152 0.978120
O O16 0.315324 0.825158 0.113323
#
# Coordination Sequence:
#
# PCOD9091383 Si02
#       8
#     2   2   2   2   2   2   2   2
#     4  12  24  39  68  98 131 162 214 276 320 371
#     4  11  23  34  62  98 129 159 212 263 320 371
#     4  12  22  39  65  98 126 165 217 268 311 376
#     4  10  23  39  66  93 133 171 215 259 313 388
#     4  11  22  42  66  97 133 166 207 271 329 375
#     4  10  19  39  65  95 128 164 210 268 318 373
#     4   9  20  38  65  91 124 169 218 247 322 374
#     4  11  23  41  64  99 128 169 215 261 324 376
#
# _framework density 25.078251999999999
#
# number of rings (size 3 to 8) (size 9 to 14) (size 15 to 20)
#    0.000    1.250    2.500    5.250    5.250    0.000 
#    0.000    0.625    5.500    7.500    0.000    0.000 
#    0.000    0.000    0.000    0.000    0.000    0.000 
#
# Total GULP energy -89340.085884 kJ/mol
# GULP energy per Si atom -5583.755368 kJ/mol
# Density = 2.502117 g / cm^3
# Si number density = 25.078252 Si / 1000 Ang^3
#
#
#
# Elastic Constant Matrix: (Units=GPa)
#
#
# Indices 1 2 3 4 5 6 
#
# 1 123.1574 47.9268 22.8442 25.4843 31.2399 -0.6303
# 2 47.9268 169.4904 25.3782 12.3778 32.8933 -2.1016
# 3 22.8442 25.3782 118.8245 15.2183 21.6923 11.0383
# 4 25.4843 12.3778 15.2183 42.7899 16.9170 15.8252
# 5 31.2399 32.8933 21.6923 16.9170 29.2249 8.0744
# 6 -0.6303 -2.1016 11.0383 15.8252 8.0744 41.7037
#
#
#
# Elastic Compliance Matrix: (Units=1/GPa)
#
#
# Indices 1 2 3 4 5 6 
#
# 1 0.012014 -0.001054 -0.000024 -0.004155 -0.010255 0.003697
# 2 -0.001054 0.007855 -0.000191 0.001283 -0.008769 0.001641
# 3 -0.000024 -0.000191 0.009806 -0.000421 -0.006465 -0.001194
# 4 -0.004155 0.001283 -0.000421 0.035067 -0.014098 -0.010464
# 5 -0.010255 -0.008769 -0.006465 -0.014098 0.069964 -0.007082
# 6 0.003697 0.001641 -0.001194 -0.010464 -0.007082 0.029775
#
#
# Mechanical properties :
#
#
# Convention : Reuss Voigt Hill
#
# Bulk Modulus (GPa) = 36.84977 67.08564 51.96770
# Shear Modulus (GPa) = 28.39851 43.76523 36.08187
#
# Velocity S-wave (km/s) = 3.36876 4.18203 3.79723
# Velocity P-wave (km/s) = 5.46417 7.08009 6.32396
#
# Compressibility (1/GPa) = 0.02713721
#
# Stress axis : x y z
#
# Youngs Moduli (GPa) = 83.23468 127.30512 101.97683
#
# Poissons Ratio (x) = 0.13422 0.00243
# Poissons Ratio (y) = 0.08775 0.01948
# Poissons Ratio (z) = 0.00198 0.02432
#
# Static dielectric constant tensor:
#      x y z
#    x 2.098890 -0.050340 -0.101580 
#    y -0.050340 2.045490 0.007610 
#    z -0.101580 0.007610 2.012880 
# 
# From -- ./inp_files/327471.got.cif
#   From: 2010.05.17/outbox.cif.g08.bks.cpg/sg2_164_cif.got.tgz:327471.got - 2010.06.03 11:33:40.
