data_PCOD9091414
_publ_section_title
;
Structure prediction by ZEFSAII (Michael W. Deem and Ramdas Pophale) SiO2 
 PCOD9091414
Probable space group: P -1
;
_chemical_formula_sum "Si O2"
_cell_formula_units_Z 14
_cell_length_a 8.800643
_cell_length_b 13.513725
_cell_length_c 7.702116
_cell_angle_alpha 108.742488
_cell_angle_beta 88.957982
_cell_angle_gamma 42.141914
_cell_volume 532.515397
_symmetry_space_group_name_H-M "P -1"
_symmetry_group_IT_number 2
_symmetry_cell_setting 'triclinic'
loop_
_space_group_symop_operation_xyz
x,y,z
-x,-y,-z
loop_
_atom_site_type_symbol
_atom_site_label
_atom_site_fract_x
_atom_site_fract_y
_atom_site_fract_z
Si Si1 0.740632 0.570071 0.855773
Si Si2 0.256969 0.241175 0.768373
Si Si3 0.659448 0.292399 0.550154
Si Si4 0.299156 0.694796 0.064530
Si Si5 0.151517 0.595013 0.569012
Si Si6 0.828322 0.022461 0.136407
Si Si7 0.598414 0.868401 0.685525
O O1 0.811213 0.525176 0.626956
O O2 0.963942 0.377103 0.822249
O O3 0.737634 0.668758 0.041250
O O4 0.464679 0.674463 0.922015
O O5 0.347219 0.216047 0.552878
O O6 0.435643 0.055355 0.732702
O O7 0.738109 0.229174 0.708427
O O8 0.361204 0.469176 0.639723
O O9 0.775179 0.337691 0.497313
O O10 0.753893 0.144288 0.355460
O O11 0.500000 0.500000 0.000000
O O12 0.028737 0.824136 0.069892
O O13 0.860826 0.755931 0.701047
O O14 0.571280 0.102468 0.158640
O O15 0.000000 0.000000 0.000000
#
# Coordination Sequence:
#
# PCOD9091414 Si02
#       7
#     2   2   2   2   2   2   2
#     4  10  19  39  66 109 136 185 227 304 358 435
#     4   9  20  37  72 106 146 173 249 296 365 426
#     4  11  25  46  70 105 143 194 234 296 360 427
#     4  12  24  42  75 102 142 188 241 291 357 432
#     4  10  23  44  73 100 147 182 238 298 362 425
#     4  12  28  46  72 106 148 188 245 297 362 428
#     4  10  22  43  70 106 140 194 232 307 358 428
#
# _framework density 26.290322
#
# number of rings (size 3 to 8) (size 9 to 14) (size 15 to 20)
#    0.000    1.429    1.429    3.000    8.000    0.571 
#    0.000    3.571    0.000    0.000    0.000    0.000 
#    0.000    0.000    0.000    0.000    0.000    0.000 
#
# Total GULP energy -78262.965294 kJ/mol
# GULP energy per Si atom -5590.211807 kJ/mol
# Density = 2.623048 g / cm^3
# Si number density = 26.290322 Si / 1000 Ang^3
#
#
#
# Elastic Constant Matrix: (Units=GPa)
#
#
# Indices 1 2 3 4 5 6 
#
# 1 109.5708 61.5058 38.3398 19.4047 -36.2764 -34.4052
# 2 61.5058 136.3076 27.1862 36.5413 -27.2935 -37.8149
# 3 38.3398 27.1862 80.4346 17.4625 -12.8105 -9.3251
# 4 19.4047 36.5413 17.4625 44.9038 -2.9757 -11.5593
# 5 -36.2764 -27.2935 -12.8105 -2.9757 52.1265 9.6019
# 6 -34.4052 -37.8149 -9.3251 -11.5593 9.6019 54.0067
#
#
#
# Elastic Compliance Matrix: (Units=1/GPa)
#
#
# Indices 1 2 3 4 5 6 
#
# 1 0.017564 -0.003344 -0.005069 -0.000721 0.008008 0.006395
# 2 -0.003344 0.012780 -0.000064 -0.007530 0.003062 0.004651
# 3 -0.005069 -0.000064 0.015661 -0.004220 0.000329 -0.001531
# 4 -0.000721 -0.007530 -0.004220 0.030276 -0.003884 0.000710
# 5 0.008008 0.003062 0.000329 -0.003884 0.025875 0.001871
# 6 0.006395 0.004651 -0.001531 0.000710 0.001871 0.025402
#
#
# Mechanical properties :
#
#
# Convention : Reuss Voigt Hill
#
# Bulk Modulus (GPa) = 34.42024 64.48630 49.45327
# Shear Modulus (GPa) = 32.42675 43.49282 37.95978
#
# Velocity S-wave (km/s) = 3.51580 4.07176 3.80395
# Velocity P-wave (km/s) = 5.44077 6.83282 6.17614
#
# Compressibility (1/GPa) = 0.02905267
#
# Stress axis : x y z
#
# Youngs Moduli (GPa) = 56.93552 78.24745 63.85202
#
# Poissons Ratio (x) = 0.26162 0.32363
# Poissons Ratio (y) = 0.19037 0.00409
# Poissons Ratio (z) = 0.28858 0.00501
#
# Static dielectric constant tensor:
#      x y z
#    x 2.056000 0.086130 0.052720 
#    y 0.086130 2.101640 -0.000480 
#    z 0.052720 -0.000480 1.972900 
# 
# From -- ./inp_files/197498.got.cif
#   From: 2010.05.17/outbox.cif.g08.bks.cpg/sg2_99_cif.got.tgz:197498.got - 2010.06.03 11:33:40.
