data_PCOD9091429
_publ_section_title
;
Structure prediction by ZEFSAII (Michael W. Deem and Ramdas Pophale) SiO2 
 PCOD9091429
Probable space group: P -1
;
_chemical_formula_sum "Si O2"
_cell_formula_units_Z 16
_cell_length_a 12.610629
_cell_length_b 11.680432
_cell_length_c 12.408690
_cell_angle_alpha 106.327658
_cell_angle_beta 154.170395
_cell_angle_gamma 59.354762
_cell_volume 603.288050
_symmetry_space_group_name_H-M "P -1"
_symmetry_group_IT_number 2
_symmetry_cell_setting 'triclinic'
loop_
_space_group_symop_operation_xyz
x,y,z
-x,-y,-z
loop_
_atom_site_type_symbol
_atom_site_label
_atom_site_fract_x
_atom_site_fract_y
_atom_site_fract_z
Si Si1 0.412972 0.389655 0.914838
Si Si2 0.618199 0.690858 0.584918
Si Si3 0.856986 0.630105 0.008295
Si Si4 0.932174 0.922463 0.510382
Si Si5 0.115702 0.200540 0.753469
Si Si6 0.582261 0.511428 0.841842
Si Si7 0.486857 0.267703 0.732762
Si Si8 0.034606 0.944076 0.235265
O O1 0.257995 0.460870 0.906981
O O2 0.732759 0.226225 0.188608
O O3 0.500000 0.500000 0.000000
O O4 0.295290 0.357246 0.691119
O O5 0.663824 0.727823 0.516536
O O6 0.263186 0.811163 0.326324
O O7 0.783679 0.511131 0.685515
O O8 0.782871 0.701445 0.841821
O O9 0.721270 0.750218 0.011843
O O10 0.696298 0.549421 0.852794
O O11 0.749559 0.880569 0.259952
O O12 0.799679 0.004270 0.524773
O O13 0.000000 0.000000 0.500000
O O14 0.784427 0.353720 0.455607
O O15 0.057491 0.118492 0.769802
O O16 0.629593 0.356023 0.856528
O O17 0.747415 0.093696 0.955519
#
# Coordination Sequence:
#
# PCOD9091429 Si02
#       8
#     2   2   2   2   2   2   2   2
#     4   8  16  31  60  87 112 150 195 243 297 352
#     4  11  23  39  58  89 128 159 206 248 285 372
#     4  11  24  38  60  98 116 157 216 244 292 353
#     4   8  16  31  60  87 112 150 195 243 297 352
#     4  10  19  39  66  88 121 157 202 257 295 351
#     4  10  19  39  66  88 121 157 202 257 295 351
#     4  10  20  38  64  90 120 164 198 241 315 358
#     4  10  20  38  64  90 120 164 198 241 315 358
#
# _framework density 26.521326999999999
#
# number of rings (size 3 to 8) (size 9 to 14) (size 15 to 20)
#    0.000    2.250    2.500    0.375    0.000    3.000 
#    0.000    3.750    0.000    0.000    0.000    0.000 
#    0.000    0.000    0.000    0.000    0.000    0.000 
#
# Total GULP energy -89244.439851 kJ/mol
# GULP energy per Si atom -5577.777491 kJ/mol
# Density = 2.646096 g / cm^3
# Si number density = 26.521327 Si / 1000 Ang^3
#
#
#
# Elastic Constant Matrix: (Units=GPa)
#
#
# Indices 1 2 3 4 5 6 
#
# 1 70.2827 25.1594 20.6207 -6.6708 -17.0822 -10.8893
# 2 25.1594 69.5757 21.8731 -11.0067 -10.1059 -3.1568
# 3 20.6207 21.8731 109.7363 -19.5964 -40.3965 5.4423
# 4 -6.6708 -11.0067 -19.5964 49.0771 -4.4253 -15.4763
# 5 -17.0822 -10.1059 -40.3965 -4.4253 45.5120 -5.0253
# 6 -10.8893 -3.1568 5.4423 -15.4763 -5.0253 43.2156
#
#
#
# Elastic Compliance Matrix: (Units=1/GPa)
#
#
# Indices 1 2 3 4 5 6 
#
# 1 0.019289 -0.004984 0.000887 0.004821 0.008169 0.007061
# 2 -0.004984 0.017401 -0.001709 0.003082 0.000936 0.001443
# 3 0.000887 -0.001709 0.016492 0.008678 0.015763 0.002963
# 4 0.004821 0.003082 0.008678 0.030607 0.014609 0.013007
# 5 0.008169 0.000936 0.015763 0.014609 0.041787 0.010233
# 6 0.007061 0.001443 0.002963 0.013007 0.010233 0.030499
#
#
# Mechanical properties :
#
#
# Convention : Reuss Voigt Hill
#
# Bulk Modulus (GPa) = 24.05556 42.76679 33.41118
# Shear Modulus (GPa) = 27.54121 39.69036 33.61579
#
# Velocity S-wave (km/s) = 3.22600 3.87272 3.56406
# Velocity P-wave (km/s) = 4.79229 6.01313 5.43708
#
# Compressibility (1/GPa) = 0.04157043
#
# Stress axis : x y z
#
# Youngs Moduli (GPa) = 51.84186 57.46662 60.63479
#
# Poissons Ratio (x) = 0.28644 -0.05377
# Poissons Ratio (y) = 0.25840 0.10360
# Poissons Ratio (z) = -0.04597 0.09819
#
# Static dielectric constant tensor:
#      x y z
#    x 2.060260 0.001720 -0.010350 
#    y 0.001720 2.267880 0.059340 
#    z -0.010350 0.059340 2.192350 
# 
# From -- ./inp_files/454896.got.cif
#   From: 2010.05.17/outbox.cif.g08.bks.cpg/sg2_228_cif.got.tgz:454896.got - 2010.06.03 11:33:40.
