data_PCOD9091676
_publ_section_title
;
Structure prediction by ZEFSAII (Michael W. Deem and Ramdas Pophale) SiO2 
 PCOD9091676
Probable space group: P -1
;
_chemical_formula_sum "Si O2"
_cell_formula_units_Z 16
_cell_length_a 14.848867
_cell_length_b 11.586453
_cell_length_c 9.303016
_cell_angle_alpha 126.629003
_cell_angle_beta 61.552726
_cell_angle_gamma 73.692118
_cell_volume 676.530852
_symmetry_space_group_name_H-M "P -1"
_symmetry_group_IT_number 2
_symmetry_cell_setting 'triclinic'
loop_
_space_group_symop_operation_xyz
x,y,z
-x,-y,-z
loop_
_atom_site_type_symbol
_atom_site_label
_atom_site_fract_x
_atom_site_fract_y
_atom_site_fract_z
Si Si1 0.227951 0.461189 0.197392
Si Si2 0.157852 0.163970 0.256239
Si Si3 0.822814 0.179554 0.350799
Si Si4 0.306444 0.694392 0.761868
Si Si5 0.788832 0.380544 0.969715
Si Si6 0.183306 0.265926 0.615549
Si Si7 0.178986 0.956258 0.451549
Si Si8 0.476365 0.985170 0.837168
O O1 0.222826 0.623427 0.390075
O O2 0.257820 0.453492 0.998289
O O3 0.037444 0.610113 0.485175
O O4 0.373739 0.212906 0.985903
O O5 0.151084 0.280581 0.482053
O O6 0.345487 0.997822 0.926227
O O7 0.186509 0.960300 0.105651
O O8 0.701260 0.291857 0.393707
O O9 0.833296 0.051895 0.373786
O O10 0.000000 0.000000 0.000000
O O11 0.500000 0.500000 0.500000
O O12 0.263392 0.596829 0.808337
O O13 0.991217 0.175902 0.686695
O O14 0.745313 0.273791 0.847392
O O15 0.259299 0.022476 0.415603
O O16 0.324166 0.227405 0.517636
O O17 0.000000 0.500000 0.000000
O O18 0.500000 0.000000 0.000000
#
# Coordination Sequence:
#
# PCOD9091676 Si02
#       8
#     2   2   2   2   2   2   2   2
#     4  11  22  43  75 100 135 185 232 284 353 414
#     4  11  22  47  69  99 139 186 227 289 348 401
#     4  11  22  37  66 110 133 172 231 280 347 422
#     4  12  25  40  68 108 145 177 221 287 355 416
#     4  10  19  39  69  98 133 178 220 283 346 416
#     4  11  24  44  70  96 132 191 238 279 343 410
#     4  10  19  39  69  93 136 173 225 281 343 404
#     4  10  26  44  68  97 136 181 235 291 339 408
#
# _framework density 23.650068000000001
#
# number of rings (size 3 to 8) (size 9 to 14) (size 15 to 20)
#    0.000    1.250    5.000    1.125    3.500    4.000 
#    2.250    3.125    0.000    0.000    0.000    0.000 
#    0.000    0.000    0.000    0.000    0.000    0.000 
#
# Total GULP energy -89155.325248 kJ/mol
# GULP energy per Si atom -5572.207828 kJ/mol
# Density = 2.359624 g / cm^3
# Si number density = 23.650068 Si / 1000 Ang^3
#
#
#
# Elastic Constant Matrix: (Units=GPa)
#
#
# Indices 1 2 3 4 5 6 
#
# 1 94.6360 31.5133 27.9307 6.3665 -14.0201 -12.8814
# 2 31.5133 130.2784 8.6966 1.0569 -6.1644 -19.7556
# 3 27.9307 8.6966 71.7520 5.3650 -16.5079 -15.4319
# 4 6.3665 1.0569 5.3650 28.4169 -9.8048 -2.6293
# 5 -14.0201 -6.1644 -16.5079 -9.8048 45.6036 -2.8629
# 6 -12.8814 -19.7556 -15.4319 -2.6293 -2.8629 52.0172
#
#
#
# Elastic Compliance Matrix: (Units=1/GPa)
#
#
# Indices 1 2 3 4 5 6 
#
# 1 0.013168 -0.002642 -0.004000 -0.001291 0.002036 0.001117
# 2 -0.002642 0.008759 0.000787 0.000741 0.001004 0.002999
# 3 -0.004000 0.000787 0.017739 -0.000106 0.005581 0.004873
# 4 -0.001291 0.000741 -0.000106 0.038475 0.008083 0.002320
# 5 0.002036 0.001004 0.005581 0.008083 0.026725 0.004421
# 6 0.001117 0.002999 0.004873 0.002320 0.004421 0.022446
#
#
# Mechanical properties :
#
#
# Convention : Reuss Voigt Hill
#
# Bulk Modulus (GPa) = 35.77171 48.10531 41.93851
# Shear Modulus (GPa) = 33.70640 40.44260 37.07450
#
# Velocity S-wave (km/s) = 3.77930 4.13975 3.96362
# Velocity P-wave (km/s) = 5.84828 6.57531 6.22242
#
# Compressibility (1/GPa) = 0.02795505
#
# Stress axis : x y z
#
# Youngs Moduli (GPa) = 75.94337 114.17386 56.37443
#
# Poissons Ratio (x) = 0.30163 0.22552
# Poissons Ratio (y) = 0.20063 -0.04439
# Poissons Ratio (z) = 0.30380 -0.08990
#
# Static dielectric constant tensor:
#      x y z
#    x 1.908340 0.049870 -0.010580 
#    y 0.049870 1.982550 -0.040250 
#    z -0.010580 -0.040250 2.086900 
# 
# From -- ./inp_files/308283.got.cif
#   From: 2010.05.17/outbox.cif.g08.bks.cpg/sg2_155_cif.got.tgz:308283.got - 2010.06.03 11:33:40.
