data_PCOD9091658
_publ_section_title
;
Structure prediction by ZEFSAII (Michael W. Deem and Ramdas Pophale) SiO2 
 PCOD9091658
Probable space group: P -1
;
_chemical_formula_sum "Si O2"
_cell_formula_units_Z 16
_cell_length_a 16.035943
_cell_length_b 11.194316
_cell_length_c 8.498465
_cell_angle_alpha 89.210131
_cell_angle_beta 124.612432
_cell_angle_gamma 135.964340
_cell_volume 631.946739
_symmetry_space_group_name_H-M "P -1"
_symmetry_group_IT_number 2
_symmetry_cell_setting 'triclinic'
loop_
_space_group_symop_operation_xyz
x,y,z
-x,-y,-z
loop_
_atom_site_type_symbol
_atom_site_label
_atom_site_fract_x
_atom_site_fract_y
_atom_site_fract_z
Si Si1 0.232029 0.957910 0.377507
Si Si2 0.689192 0.453894 0.348661
Si Si3 0.202421 0.769099 0.771595
Si Si4 0.061033 0.195743 0.118649
Si Si5 0.421303 0.927255 0.690845
Si Si6 0.009563 0.789610 0.456947
Si Si7 0.408030 0.502203 0.279353
Si Si8 0.335758 0.265264 0.930993
O O1 0.325443 0.920820 0.463728
O O2 0.071906 0.804710 0.352625
O O3 0.414734 0.235582 0.603271
O O4 0.119364 0.897487 0.107441
O O5 0.844727 0.692662 0.611006
O O6 0.673802 0.302306 0.397564
O O7 0.470406 0.289336 0.129293
O O8 0.778353 0.549006 0.264858
O O9 0.354679 0.924955 0.782856
O O10 0.114149 0.809527 0.699032
O O11 0.000000 0.500000 0.500000
O O12 0.337588 0.846026 0.048758
O O13 0.250384 0.420984 0.206251
O O14 0.000000 0.000000 0.000000
O O15 0.140785 0.040069 0.623023
O O16 0.500000 0.500000 0.500000
O O17 0.292184 0.305537 0.030419
O O18 0.500000 0.500000 0.000000
#
# Coordination Sequence:
#
# PCOD9091658 Si02
#       8
#     2   2   2   2   2   2   2   2
#     4  11  26  44  68 106 134 184 235 284 346 412
#     4  12  25  44  71 102 141 186 226 289 353 411
#     4  10  19  39  68  99 140 182 211 274 358 410
#     4  12  26  47  71  95 138 192 237 278 352 420
#     4  10  23  41  68 102 142 175 235 281 344 422
#     4  11  24  40  69 104 136 172 231 287 347 409
#     4  12  24  47  69  91 138 188 231 284 352 413
#     4  12  25  42  67 105 134 173 240 295 345 402
#
# _framework density 25.318588999999999
#
# number of rings (size 3 to 8) (size 9 to 14) (size 15 to 20)
#    0.000    0.750    6.250    0.750    1.750    3.000 
#    0.000    0.625    0.000    0.000    0.000    0.000 
#    0.000    0.000    0.000    0.000    0.000    0.000 
#
# Total GULP energy -89461.376740 kJ/mol
# GULP energy per Si atom -5591.336046 kJ/mol
# Density = 2.526096 g / cm^3
# Si number density = 25.318589 Si / 1000 Ang^3
#
#
#
# Elastic Constant Matrix: (Units=GPa)
#
#
# Indices 1 2 3 4 5 6 
#
# 1 63.8576 19.0078 3.7566 -5.1470 14.9999 -2.8084
# 2 19.0078 95.9188 27.8984 9.2988 10.2579 -16.9706
# 3 3.7566 27.8984 107.8532 1.9081 23.4230 -18.4857
# 4 -5.1470 9.2988 1.9081 41.3997 -9.7425 11.9728
# 5 14.9999 10.2579 23.4230 -9.7425 42.0089 -4.0819
# 6 -2.8084 -16.9706 -18.4857 11.9728 -4.0819 42.9288
#
#
#
# Elastic Compliance Matrix: (Units=1/GPa)
#
#
# Indices 1 2 3 4 5 6 
#
# 1 0.018214 -0.003691 0.001489 0.001797 -0.006084 -0.000706
# 2 -0.003691 0.013394 -0.001948 -0.005354 -0.001568 0.005559
# 3 0.001489 -0.001948 0.012109 -0.002949 -0.007035 0.004695
# 4 0.001797 -0.005354 -0.002949 0.030900 0.008398 -0.011088
# 5 -0.006084 -0.001568 -0.007035 0.008398 0.031904 -0.003356
# 6 -0.000706 0.005559 0.004695 -0.011088 -0.003356 0.030241
#
#
# Mechanical properties :
#
#
# Convention : Reuss Voigt Hill
#
# Bulk Modulus (GPa) = 28.23589 40.99502 34.61545
# Shear Modulus (GPa) = 31.87434 39.73193 35.80314
#
# Velocity S-wave (km/s) = 3.55199 3.96571 3.76454
# Velocity P-wave (km/s) = 5.29137 6.09885 5.70940
#
# Compressibility (1/GPa) = 0.03541592
#
# Stress axis : x y z
#
# Youngs Moduli (GPa) = 54.90332 74.66209 82.58602
#
# Poissons Ratio (x) = 0.27557 -0.12295
# Poissons Ratio (y) = 0.20264 0.16088
# Poissons Ratio (z) = -0.08174 0.14544
#
# Static dielectric constant tensor:
#      x y z
#    x 2.007930 -0.060900 0.017870 
#    y -0.060900 2.114570 -0.042030 
#    z 0.017870 -0.042030 2.058810 
# 
# From -- ./inp_files/333286.got.cif
#   From: 2010.05.17/outbox.cif.g08.bks.cpg/sg2_167_cif.got.tgz:333286.got - 2010.06.03 11:33:40.
