data_PCOD9091764
_publ_section_title
;
Structure prediction by ZEFSAII (Michael W. Deem and Ramdas Pophale) SiO2 
 PCOD9091764
Probable space group: P -1
;
_chemical_formula_sum "Si O2"
_cell_formula_units_Z 16
_cell_length_a 8.896902
_cell_length_b 20.948671
_cell_length_c 25.175865
_cell_angle_alpha 21.154070
_cell_angle_beta 153.747446
_cell_angle_gamma 153.486057
_cell_volume 697.061082
_symmetry_space_group_name_H-M "P -1"
_symmetry_group_IT_number 2
_symmetry_cell_setting 'triclinic'
loop_
_space_group_symop_operation_xyz
x,y,z
-x,-y,-z
loop_
_atom_site_type_symbol
_atom_site_label
_atom_site_fract_x
_atom_site_fract_y
_atom_site_fract_z
Si Si1 0.465349 0.225224 0.204231
Si Si2 0.733580 0.528069 0.971364
Si Si3 0.470583 0.534438 0.155384
Si Si4 0.568912 0.553582 0.418823
Si Si5 0.349621 0.696902 0.447473
Si Si6 0.299065 0.799100 0.066339
Si Si7 0.866679 0.829092 0.131281
Si Si8 0.566254 0.192570 0.499004
O O1 0.754222 0.394339 0.130622
O O2 0.517253 0.025131 0.374251
O O3 0.405426 0.311345 0.174713
O O4 0.096343 0.210082 0.068256
O O5 0.132161 0.592608 0.021079
O O6 0.474069 0.420448 0.924005
O O7 0.788385 0.647032 0.209516
O O8 0.414508 0.314064 0.317200
O O9 0.500000 0.500000 0.500000
O O10 0.478465 0.363480 0.502081
O O11 0.335578 0.653722 0.234763
O O12 0.991366 0.702566 0.436741
O O13 0.566232 0.774006 0.509962
O O14 0.000000 0.500000 0.500000
O O15 0.186752 0.850232 0.257538
O O16 0.517813 0.792464 0.086713
O O17 0.500000 0.000000 0.000000
O O18 0.000000 0.000000 0.000000
#
# Coordination Sequence:
#
# PCOD9091764 Si02
#       8
#     2   2   2   2   2   2   2   2
#     4  11  24  44  66  92 127 168 216 265 324 370
#     4  10  26  45  65  88 121 176 224 264 309 371
#     4  11  23  45  66  90 127 168 222 266 307 376
#     4  11  23  36  59 100 134 168 200 249 335 391
#     4  10  19  40  57  92 129 164 200 253 325 385
#     4  12  23  39  63  98 134 161 204 266 324 388
#     4  12  24  37  68  97 128 171 208 258 326 388
#     4  11  22  41  67  90 130 167 207 272 314 381
#
# _framework density 22.953510999999999
#
# number of rings (size 3 to 8) (size 9 to 14) (size 15 to 20)
#    0.000    1.000    7.500    0.000    7.000    1.000 
#    0.000    0.000    0.000    0.000    0.000    0.000 
#    0.000    0.000    0.000    0.000    0.000    0.000 
#
# Total GULP energy -89332.095359 kJ/mol
# GULP energy per Si atom -5583.255960 kJ/mol
# Density = 2.290127 g / cm^3
# Si number density = 22.953511 Si / 1000 Ang^3
#
#
#
# Elastic Constant Matrix: (Units=GPa)
#
#
# Indices 1 2 3 4 5 6 
#
# 1 142.2153 28.8568 50.7031 -15.6086 -5.3850 -29.5525
# 2 28.8568 36.4031 -1.0698 -9.1854 8.6296 -12.6853
# 3 50.7031 -1.0698 108.6012 -16.5772 -6.1926 -6.1229
# 4 -15.6086 -9.1854 -16.5772 38.3328 -8.9402 8.7649
# 5 -5.3850 8.6296 -6.1926 -8.9402 34.2024 -3.4904
# 6 -29.5525 -12.6853 -6.1229 8.7649 -3.4904 33.3832
#
#
#
# Elastic Compliance Matrix: (Units=1/GPa)
#
#
# Indices 1 2 3 4 5 6 
#
# 1 0.012141 -0.008198 -0.005131 0.000023 0.003780 0.007081
# 2 -0.008198 0.039606 0.004829 0.004764 -0.008497 0.006539
# 3 -0.005131 0.004829 0.012424 0.005140 0.001400 -0.001632
# 4 0.000023 0.004764 0.005140 0.032381 0.007694 -0.004924
# 5 0.003780 -0.008497 0.001400 0.007694 0.034441 0.001955
# 6 0.007081 0.006539 -0.001632 -0.004924 0.001955 0.039907
#
#
# Mechanical properties :
#
#
# Convention : Reuss Voigt Hill
#
# Bulk Modulus (GPa) = 21.19979 49.35552 35.27765
# Shear Modulus (GPa) = 24.55517 35.09900 29.82708
#
# Velocity S-wave (km/s) = 3.27430 3.91466 3.60871
# Velocity P-wave (km/s) = 4.85291 6.47933 5.72418
#
# Compressibility (1/GPa) = 0.04717028
#
# Stress axis : x y z
#
# Youngs Moduli (GPa) = 82.36219 25.24897 80.49218
#
# Poissons Ratio (x) = 0.20699 0.41301
# Poissons Ratio (y) = 0.67521 -0.38869
# Poissons Ratio (z) = 0.42261 -0.12193
#
# Static dielectric constant tensor:
#      x y z
#    x 1.911550 0.081060 0.064300 
#    y 0.081060 1.978210 0.013400 
#    z 0.064300 0.013400 1.852130 
# 
# From -- ./inp_files/223385.got.cif
#   From: 2010.05.17/outbox.cif.g08.bks.cpg/sg2_112_cif.got.tgz:223385.got - 2010.06.03 11:33:40.
