data_PCOD9091126
_publ_section_title
;
Structure prediction by ZEFSAII (Michael W. Deem and Ramdas Pophale) SiO2 
 PCOD9091126
Probable space group: P -1
;
_chemical_formula_sum "Si O2"
_cell_formula_units_Z 16
_cell_length_a 4.982198
_cell_length_b 14.579294
_cell_length_c 15.732431
_cell_angle_alpha 133.661736
_cell_angle_beta 70.611972
_cell_angle_gamma 87.278976
_cell_volume 712.858123
_symmetry_space_group_name_H-M "P -1"
_symmetry_group_IT_number 2
_symmetry_cell_setting 'triclinic'
loop_
_space_group_symop_operation_xyz
x,y,z
-x,-y,-z
loop_
_atom_site_type_symbol
_atom_site_label
_atom_site_fract_x
_atom_site_fract_y
_atom_site_fract_z
Si Si1 0.502307 0.942980 0.367087
Si Si2 0.697604 0.391961 0.290689
Si Si3 0.797092 0.208596 0.813520
Si Si4 0.174027 0.673166 0.569596
Si Si5 0.233462 0.705579 0.951519
Si Si6 0.107394 0.548462 0.272912
Si Si7 0.320012 0.203149 0.430641
Si Si8 0.830254 0.556353 0.968135
O O1 0.269777 0.879875 0.311471
O O2 0.844809 0.822768 0.249209
O O3 0.500000 0.000000 0.500000
O O4 0.458332 0.060196 0.375323
O O5 0.342805 0.511550 0.415268
O O6 0.813854 0.336171 0.336067
O O7 0.755748 0.273152 0.137294
O O8 0.903860 0.473283 0.288192
O O9 0.536869 0.362659 0.928742
O O10 0.750331 0.190249 0.909963
O O11 0.411151 0.740617 0.560372
O O12 0.834128 0.766520 0.627675
O O13 0.535786 0.558654 0.830566
O O14 0.944677 0.668848 0.985112
O O15 0.990294 0.697255 0.422131
O O16 0.047618 0.566208 0.191049
O O17 0.000000 0.500000 0.000000
#
# Coordination Sequence:
#
# PCOD9091126 Si02
#       8
#     2   2   2   2   2   2   2   2
#     4  12  27  46  67  88 122 174 218 257 301 364
#     4   9  19  34  60  98 131 164 197 246 333 380
#     4  11  24  45  64  91 120 168 213 252 313 364
#     4  10  21  36  62  94 134 162 201 257 312 385
#     4  10  19  39  63  93 126 164 198 256 312 384
#     4   9  20  33  60  96 126 160 202 252 324 373
#     4  11  23  40  60  92 128 164 211 262 303 366
#     4  10  22  38  63  94 127 157 201 265 315 378
#
# _framework density 22.444858
#
# number of rings (size 3 to 8) (size 9 to 14) (size 15 to 20)
#    0.000    1.750    2.500    1.125    3.500    4.500 
#    0.000    0.000    0.000    4.500    0.000    0.000 
#    0.000    0.000    0.000    0.000    0.000    0.000 
#
# Total GULP energy -89159.625033 kJ/mol
# GULP energy per Si atom -5572.476565 kJ/mol
# Density = 2.239377 g / cm^3
# Si number density = 22.444858 Si / 1000 Ang^3
#
#
#
# Elastic Constant Matrix: (Units=GPa)
#
#
# Indices 1 2 3 4 5 6 
#
# 1 76.6599 2.5595 3.6755 -0.3895 -2.2344 -17.5146
# 2 2.5595 94.3034 23.1402 -13.4945 8.5771 -22.0462
# 3 3.6755 23.1402 79.8229 -30.3589 8.6527 -8.9294
# 4 -0.3895 -13.4945 -30.3589 38.5910 -14.1641 6.4010
# 5 -2.2344 8.5771 8.6527 -14.1641 37.6330 -6.2158
# 6 -17.5146 -22.0462 -8.9294 6.4010 -6.2158 29.0867
#
#
#
# Elastic Compliance Matrix: (Units=1/GPa)
#
#
# Indices 1 2 3 4 5 6 
#
# 1 0.015686 0.002097 -0.000515 -0.000595 0.002245 0.011487
# 2 0.002097 0.013831 -0.002492 0.001010 -0.000309 0.010692
# 3 -0.000515 -0.002492 0.018595 0.014273 0.001757 0.000744
# 4 -0.000595 0.001010 0.014273 0.042223 0.012025 -0.001933
# 5 0.002245 -0.000309 0.001757 0.012025 0.031859 0.005820
# 6 0.011487 0.010692 0.000744 -0.001933 0.005820 0.051299
#
#
# Mechanical properties :
#
#
# Convention : Reuss Voigt Hill
#
# Bulk Modulus (GPa) = 21.60192 34.39296 27.99744
# Shear Modulus (GPa) = 26.21309 35.82287 31.01798
#
# Velocity S-wave (km/s) = 3.42115 3.99938 3.72151
# Velocity P-wave (km/s) = 5.02504 6.05667 5.56481
#
# Compressibility (1/GPa) = 0.04629218
#
# Stress axis : x y z
#
# Youngs Moduli (GPa) = 63.74992 72.30132 53.77718
#
# Poissons Ratio (x) = -0.15160 0.02768
# Poissons Ratio (y) = -0.13367 0.13403
# Poissons Ratio (z) = 0.03281 0.18020
#
# Static dielectric constant tensor:
#      x y z
#    x 1.910210 -0.030930 0.068360 
#    y -0.030930 1.873030 -0.049150 
#    z 0.068360 -0.049150 1.897930 
# 
# From -- ./inp_files/119399.got.cif
#   From: 2010.05.17/outbox.cif.g08.bks.cpg/sg2_60_cif.got.tgz:119399.got - 2010.06.03 11:33:40.
