data_PCOD9091799
_publ_section_title
;
Structure prediction by ZEFSAII (Michael W. Deem and Ramdas Pophale) SiO2 
 PCOD9091799
Probable space group: P -1
;
_chemical_formula_sum "Si O2"
_cell_formula_units_Z 16
_cell_length_a 8.781663
_cell_length_b 10.290771
_cell_length_c 13.929470
_cell_angle_alpha 138.331211
_cell_angle_beta 91.882736
_cell_angle_gamma 64.783706
_cell_volume 666.473208
_symmetry_space_group_name_H-M "P -1"
_symmetry_group_IT_number 2
_symmetry_cell_setting 'triclinic'
loop_
_space_group_symop_operation_xyz
x,y,z
-x,-y,-z
loop_
_atom_site_type_symbol
_atom_site_label
_atom_site_fract_x
_atom_site_fract_y
_atom_site_fract_z
Si Si1 0.159032 0.572654 0.649071
Si Si2 0.825848 0.504845 0.598291
Si Si3 0.122072 0.442541 0.877447
Si Si4 0.444695 0.956680 0.078306
Si Si5 0.529756 0.967743 0.597342
Si Si6 0.819945 0.440104 0.777503
Si Si7 0.383399 0.686362 0.189871
Si Si8 0.750862 0.293188 0.085849
O O1 0.145670 0.648691 0.579940
O O2 0.158659 0.731163 0.821939
O O3 0.999825 0.524566 0.626427
O O4 0.362279 0.310396 0.526862
O O5 0.788082 0.431477 0.659107
O O6 0.645408 0.789307 0.730403
O O7 0.323615 0.181368 0.751983
O O8 0.141857 0.652264 0.959553
O O9 0.011849 0.413282 0.775625
O O10 0.000000 0.500000 0.000000
O O11 0.645383 0.699902 0.965530
O O12 0.285214 0.908247 0.043676
O O13 0.500000 0.000000 0.000000
O O14 0.651789 0.059585 0.686660
O O15 0.500000 0.000000 0.500000
O O16 0.809923 0.260999 0.747020
O O17 0.533460 0.543299 0.202599
O O18 0.500000 0.500000 0.000000
#
# Coordination Sequence:
#
# PCOD9091799 Si02
#       8
#     2   2   2   2   2   2   2   2
#     4  11  22  40  64  91 128 170 219 255 327 391
#     4  10  22  40  64  90 125 172 211 271 311 385
#     4  11  22  37  64  98 132 163 212 274 324 387
#     4   9  21  39  66  91 121 168 216 263 318 369
#     4  11  21  41  67  92 127 174 208 268 333 383
#     4  10  19  40  60  92 128 156 211 270 316 376
#     4  10  21  36  65  94 124 169 214 261 326 390
#     4  10  20  40  65  91 126 168 215 267 321 383
#
# _framework density 24.006965999999998
#
# number of rings (size 3 to 8) (size 9 to 14) (size 15 to 20)
#    0.000    1.750    3.750    1.500    5.250    0.500 
#    0.000    8.125    2.750    0.000    0.000    0.000 
#    0.000    0.000    0.000    0.000    0.000    0.000 
#
# Total GULP energy -89297.868743 kJ/mol
# GULP energy per Si atom -5581.116796 kJ/mol
# Density = 2.395232 g / cm^3
# Si number density = 24.006966 Si / 1000 Ang^3
#
#
#
# Elastic Constant Matrix: (Units=GPa)
#
#
# Indices 1 2 3 4 5 6 
#
# 1 86.7612 25.9644 9.0260 -4.4458 -5.3798 18.2623
# 2 25.9644 66.6969 33.4092 -24.6079 -4.2160 4.1795
# 3 9.0260 33.4092 87.9339 -20.2787 -2.2828 8.3776
# 4 -4.4458 -24.6079 -20.2787 43.6721 -0.5078 -1.7641
# 5 -5.3798 -4.2160 -2.2828 -0.5078 34.5545 -5.5300
# 6 18.2623 4.1795 8.3776 -1.7641 -5.5300 40.2314
#
#
#
# Elastic Compliance Matrix: (Units=1/GPa)
#
#
# Indices 1 2 3 4 5 6 
#
# 1 0.014605 -0.006545 0.001151 -0.001911 0.000531 -0.006200
# 2 -0.006545 0.024554 -0.006468 0.010291 0.002102 0.002507
# 3 0.001151 -0.006468 0.014711 0.003191 -0.000036 -0.002779
# 4 -0.001911 0.010291 0.003191 0.030032 0.001720 0.000687
# 5 0.000531 0.002102 -0.000036 0.001720 0.029899 0.003733
# 6 -0.006200 0.002507 -0.002779 0.000687 0.003733 0.028532
#
#
# Mechanical properties :
#
#
# Convention : Reuss Voigt Hill
#
# Bulk Modulus (GPa) = 33.17154 42.02126 37.59640
# Shear Modulus (GPa) = 28.39207 35.22443 31.80825
#
# Velocity S-wave (km/s) = 3.44271 3.83464 3.64395
# Velocity P-wave (km/s) = 5.44523 6.09489 5.77919
#
# Compressibility (1/GPa) = 0.03014633
#
# Stress axis : x y z
#
# Youngs Moduli (GPa) = 68.46998 40.72680 67.97575
#
# Poissons Ratio (x) = 0.26657 -0.07827
# Poissons Ratio (y) = 0.44815 0.43967
# Poissons Ratio (z) = -0.07884 0.26342
#
# Static dielectric constant tensor:
#      x y z
#    x 2.003240 -0.013280 0.037700 
#    y -0.013280 2.009910 0.014910 
#    z 0.037700 0.014910 1.995580 
# 
# From -- ./inp_files/500991.got.cif
#   From: 2010.05.17/outbox.cif.g08.bks.cpg/sg2_251_cif.got.tgz:500991.got - 2010.06.03 11:33:40.
