data_PCOD9091959
_publ_section_title
;
Structure prediction by ZEFSAII (Michael W. Deem and Ramdas Pophale) SiO2 
 PCOD9091959
Probable space group: P -1
;
_chemical_formula_sum "Si O2"
_cell_formula_units_Z 16
_cell_length_a 7.424973
_cell_length_b 11.307836
_cell_length_c 19.695256
_cell_angle_alpha 41.879140
_cell_angle_beta 45.785921
_cell_angle_gamma 41.681096
_cell_volume 695.911585
_symmetry_space_group_name_H-M "P -1"
_symmetry_group_IT_number 2
_symmetry_cell_setting 'triclinic'
loop_
_space_group_symop_operation_xyz
x,y,z
-x,-y,-z
loop_
_atom_site_type_symbol
_atom_site_label
_atom_site_fract_x
_atom_site_fract_y
_atom_site_fract_z
Si Si1 0.034832 0.941700 0.178393
Si Si2 0.185599 0.067433 0.521759
Si Si3 0.700049 0.049176 0.025416
Si Si4 0.484617 0.777124 0.229756
Si Si5 0.640772 0.760666 0.352326
Si Si6 0.223090 0.566296 0.440419
Si Si7 0.106613 0.181556 0.344184
Si Si8 0.530743 0.698364 0.892124
O O1 0.927687 0.776154 0.281276
O O2 0.391595 0.967325 0.356772
O O3 0.757957 0.144786 0.139961
O O4 0.284500 0.871672 0.086417
O O5 0.097997 0.209734 0.415895
O O6 0.960607 0.211797 0.574625
O O7 0.500000 0.000000 0.500000
O O8 0.127153 0.880619 0.596906
O O9 0.479991 0.193878 0.078425
O O10 0.693880 0.839224 0.109570
O O11 0.000000 0.000000 0.000000
O O12 0.441663 0.580114 0.323473
O O13 0.181198 0.949595 0.206347
O O14 0.586302 0.764131 0.285722
O O15 0.628292 0.588342 0.472143
O O16 0.000000 0.500000 0.500000
O O17 0.197041 0.322043 0.214993
O O18 0.500000 0.500000 0.000000
#
# Coordination Sequence:
#
# PCOD9091959 Si02
#       8
#     2   2   2   2   2   2   2   2
#     4  10  22  39  65  92 121 163 205 252 317 372
#     4  11  24  41  64  89 130 167 207 252 304 384
#     4  10  19  40  64  89 119 161 206 251 312 368
#     4  12  21  39  68  87 130 164 199 256 320 365
#     4  11  21  41  67  92 127 162 209 261 310 370
#     4  12  24  40  65 101 127 163 213 257 313 369
#     4  10  22  43  64  89 121 175 205 245 326 366
#     4  10  21  41  66  88 122 162 206 262 307 367
#
# _framework density 22.991426000000001
#
# number of rings (size 3 to 8) (size 9 to 14) (size 15 to 20)
#    0.000    1.250    6.250    1.500    1.750    1.000 
#    0.000    0.625    0.000    0.000    0.000    0.000 
#    0.000    0.000    0.000    0.000    0.000    0.000 
#
# Total GULP energy -89153.413458 kJ/mol
# GULP energy per Si atom -5572.088341 kJ/mol
# Density = 2.293910 g / cm^3
# Si number density = 22.991426 Si / 1000 Ang^3
#
#
#
# Elastic Constant Matrix: (Units=GPa)
#
#
# Indices 1 2 3 4 5 6 
#
# 1 133.8407 6.9178 44.5587 0.6218 -23.3687 -10.3448
# 2 6.9178 16.1000 9.3037 -9.6423 -3.8111 -5.2918
# 3 44.5587 9.3037 183.4610 -5.3667 -36.7877 -14.6051
# 4 0.6218 -9.6423 -5.3667 30.7170 -6.3356 -0.7128
# 5 -23.3687 -3.8111 -36.7877 -6.3356 33.7202 -1.3019
# 6 -10.3448 -5.2918 -14.6051 -0.7128 -1.3019 16.1165
#
#
#
# Elastic Compliance Matrix: (Units=1/GPa)
#
#
# Indices 1 2 3 4 5 6 
#
# 1 0.009196 0.000845 -0.000408 0.001508 0.006554 0.006407
# 2 0.000845 0.102711 0.004254 0.039269 0.025833 0.041946
# 3 -0.000408 0.004254 0.008435 0.005268 0.010772 0.009882
# 4 0.001508 0.039269 0.005268 0.050761 0.021642 0.022630
# 5 0.006554 0.025833 0.010772 0.021642 0.054008 0.027770
# 6 0.006407 0.041946 0.009882 0.022630 0.027770 0.092132
#
#
# Mechanical properties :
#
#
# Convention : Reuss Voigt Hill
#
# Bulk Modulus (GPa) = 7.70868 50.55136 29.13002
# Shear Modulus (GPa) = 14.24087 34.28553 24.26320
#
# Velocity S-wave (km/s) = 2.49147 3.86584 3.25209
# Velocity P-wave (km/s) = 3.41126 6.47773 5.17676
#
# Compressibility (1/GPa) = 0.12972389
#
# Stress axis : x y z
#
# Youngs Moduli (GPa) = 108.73942 9.73609 118.55599
#
# Poissons Ratio (x) = -0.00823 0.04837
# Poissons Ratio (y) = -0.09188 -0.50435
# Poissons Ratio (z) = 0.04437 -0.04142
#
# Static dielectric constant tensor:
#      x y z
#    x 1.921790 0.022290 0.017820 
#    y 0.022290 1.924170 0.079250 
#    z 0.017820 0.079250 2.040130 
# 
# From -- ./inp_files/617116.got.cif
#   From: 2010.05.17/outbox.cif.g08.bks.cpg/sg2_309_cif.got.tgz:617116.got - 2010.06.03 11:33:40.
