data_PCOD9091624
_publ_section_title
;
Structure prediction by ZEFSAII (Michael W. Deem and Ramdas Pophale) SiO2 
 PCOD9091624
Probable space group: P -1
;
_chemical_formula_sum "Si O2"
_cell_formula_units_Z 16
_cell_length_a 17.638923
_cell_length_b 8.446759
_cell_length_c 5.866494
_cell_angle_alpha 114.996212
_cell_angle_beta 61.744824
_cell_angle_gamma 108.198877
_cell_volume 690.864456
_symmetry_space_group_name_H-M "P -1"
_symmetry_group_IT_number 2
_symmetry_cell_setting 'triclinic'
loop_
_space_group_symop_operation_xyz
x,y,z
-x,-y,-z
loop_
_atom_site_type_symbol
_atom_site_label
_atom_site_fract_x
_atom_site_fract_y
_atom_site_fract_z
Si Si1 0.018213 0.151785 0.762185
Si Si2 0.438782 0.904843 0.332895
Si Si3 0.586295 0.787100 0.796946
Si Si4 0.265579 0.715572 0.333226
Si Si5 0.268014 0.161231 0.027283
Si Si6 0.311727 0.455662 0.770588
Si Si7 0.835656 0.594410 0.410225
Si Si8 0.861156 0.061474 0.249466
O O1 0.062510 0.341621 0.723661
O O2 0.089184 0.081422 0.785173
O O3 0.000000 0.000000 0.500000
O O4 0.934235 0.166022 0.045676
O O5 0.343444 0.797798 0.440878
O O6 0.500000 0.000000 0.500000
O O7 0.420957 0.067440 0.296948
O O8 0.495388 0.770736 0.046837
O O9 0.658338 0.875510 0.926498
O O10 0.618648 0.609426 0.543846
O O11 0.203538 0.564402 0.466987
O O12 0.194337 0.838481 0.434456
O O13 0.315212 0.642428 0.004355
O O14 0.195992 0.236450 0.324761
O O15 0.310151 0.316223 0.893353
O O16 0.215491 0.017662 0.857057
O O17 0.218852 0.432889 0.761689
#
# Coordination Sequence:
#
# PCOD9091624 Si02
#       8
#     2   2   2   2   2   2   2   2
#     4  11  23  41  68  98 127 170 225 267 323 392
#     4  11  24  43  65 100 135 164 225 276 314 385
#     4  10  22  39  69  94 125 180 214 269 323 382
#     4  11  26  40  64  99 131 171 213 273 326 385
#     4  10  19  39  68  93 124 172 222 263 318 387
#     4  10  21  41  62  91 135 172 212 260 328 390
#     4  10  22  41  64  95 130 175 210 265 334 387
#     4  11  23  39  67  99 127 170 223 274 317 381
#
# _framework density 23.159386999999999
#
# number of rings (size 3 to 8) (size 9 to 14) (size 15 to 20)
#    0.000    1.500    2.500    2.250    1.750    5.000 
#    0.000   10.000    0.000    0.000    0.000    0.000 
#    0.000    0.000    0.000    0.000    0.000    0.000 
#
# Total GULP energy -89289.723236 kJ/mol
# GULP energy per Si atom -5580.607702 kJ/mol
# Density = 2.310668 g / cm^3
# Si number density = 23.159387 Si / 1000 Ang^3
#
#
#
# Elastic Constant Matrix: (Units=GPa)
#
#
# Indices 1 2 3 4 5 6 
#
# 1 84.9112 7.6406 47.4140 25.0840 -4.5216 -4.5838
# 2 7.6406 28.5279 9.0297 4.4938 -11.5696 14.7125
# 3 47.4140 9.0297 108.1632 22.0521 -17.8720 13.8679
# 4 25.0840 4.4938 22.0521 19.1688 -5.6689 2.7721
# 5 -4.5216 -11.5696 -17.8720 -5.6689 48.1566 -9.3890
# 6 -4.5838 14.7125 13.8679 2.7721 -9.3890 26.2160
#
#
#
# Elastic Compliance Matrix: (Units=1/GPa)
#
#
# Indices 1 2 3 4 5 6 
#
# 1 0.024666 -0.009221 -0.007398 -0.024552 -0.002598 0.015067
# 2 -0.009221 0.056109 0.004786 0.000533 0.008058 -0.032804
# 3 -0.007398 0.004786 0.015287 -0.006559 0.003375 -0.010164
# 4 -0.024552 0.000533 -0.006559 0.094463 0.004668 -0.009439
# 5 -0.002598 0.008058 0.003375 0.004668 0.024560 0.001541
# 6 0.015067 -0.032804 -0.010164 -0.009439 0.001541 0.066115
#
#
# Mechanical properties :
#
#
# Convention : Reuss Voigt Hill
#
# Bulk Modulus (GPa) = 13.81267 38.86342 26.33804
# Shear Modulus (GPa) = 15.19770 29.20950 22.20360
#
# Velocity S-wave (km/s) = 2.56446 3.55524 3.09970
# Velocity P-wave (km/s) = 3.84002 5.80261 4.92016
#
# Compressibility (1/GPa) = 0.07239731
#
# Stress axis : x y z
#
# Youngs Moduli (GPa) = 40.54206 17.82230 65.41617
#
# Poissons Ratio (x) = 0.16434 0.48395
# Poissons Ratio (y) = 0.37383 -0.31311
# Poissons Ratio (z) = 0.29993 -0.08531
#
# Static dielectric constant tensor:
#      x y z
#    x 1.862410 0.025730 0.019750 
#    y 0.025730 1.920720 0.031360 
#    z 0.019750 0.031360 1.955980 
# 
# From -- ./inp_files/107504.got.cif
#   From: 2010.05.17/outbox.cif.g08.bks.cpg/sg2_54_cif.got.tgz:107504.got - 2010.06.03 11:33:40.
