data_PCOD9091535
_publ_section_title
;
Structure prediction by ZEFSAII (Michael W. Deem and Ramdas Pophale) SiO2 
 PCOD9091535
Probable space group: P -1
;
_chemical_formula_sum "Si O2"
_cell_formula_units_Z 16
_cell_length_a 14.232896
_cell_length_b 7.720650
_cell_length_c 14.202805
_cell_angle_alpha 50.695068
_cell_angle_beta 43.579364
_cell_angle_gamma 84.403156
_cell_volume 612.377467
_symmetry_space_group_name_H-M "P -1"
_symmetry_group_IT_number 2
_symmetry_cell_setting 'triclinic'
loop_
_space_group_symop_operation_xyz
x,y,z
-x,-y,-z
loop_
_atom_site_type_symbol
_atom_site_label
_atom_site_fract_x
_atom_site_fract_y
_atom_site_fract_z
Si Si1 0.640528 0.484672 0.855840
Si Si2 0.146718 0.938102 0.175676
Si Si3 0.771538 0.728642 0.468487
Si Si4 0.316478 0.198770 0.781314
Si Si5 0.784998 0.440999 0.258812
Si Si6 0.202919 0.799106 0.835468
Si Si7 0.970214 0.265979 0.471292
Si Si8 0.660606 0.160234 0.633994
O O1 0.667218 0.579152 0.694893
O O2 0.846673 0.685712 0.682625
O O3 0.500000 0.500000 0.000000
O O4 0.524062 0.128108 0.081061
O O5 0.060103 0.602776 0.323524
O O6 0.987193 0.940860 0.267529
O O7 0.163838 0.955452 0.268810
O O8 0.316806 0.164212 0.904524
O O9 0.725010 0.464497 0.528165
O O10 0.745657 0.926949 0.360593
O O11 0.500000 0.500000 0.500000
O O12 0.181821 0.262279 0.844258
O O13 0.261368 0.922847 0.856122
O O14 0.722551 0.325824 0.236540
O O15 0.646878 0.184950 0.524114
O O16 0.981104 0.537733 0.093192
O O17 0.830819 0.174907 0.520794
#
# Coordination Sequence:
#
# PCOD9091535 Si02
#       8
#     2   2   2   2   2   2   2   2
#     4  11  24  39  61  97 133 171 220 282 339 401
#     4   9  19  39  64  94 124 170 227 272 330 401
#     4  10  19  39  67  89 125 175 223 277 332 400
#     4  12  25  40  68 101 136 177 222 282 342 399
#     4  11  24  42  68 100 129 182 226 277 336 407
#     4  11  22  42  69  94 132 175 231 274 331 408
#     4   9  21  39  66  93 127 175 220 277 332 400
#     4  11  22  41  68  96 129 175 231 270 341 403
#
# _framework density 26.127676000000001
#
# number of rings (size 3 to 8) (size 9 to 14) (size 15 to 20)
#    0.000    1.500    2.500    3.750    1.750    2.000 
#    0.000    0.000    8.250    0.000    0.000    0.000 
#    0.000    0.000    0.000    0.000    0.000    0.000 
#
# Total GULP energy -89543.500983 kJ/mol
# GULP energy per Si atom -5596.468811 kJ/mol
# Density = 2.606821 g / cm^3
# Si number density = 26.127676 Si / 1000 Ang^3
#
#
#
# Elastic Constant Matrix: (Units=GPa)
#
#
# Indices 1 2 3 4 5 6 
#
# 1 79.5140 34.3464 37.4138 24.8360 1.8067 -13.9625
# 2 34.3464 102.0374 20.9630 19.0385 1.1908 5.1561
# 3 37.4138 20.9630 161.1218 18.7419 34.2926 7.8401
# 4 24.8360 19.0385 18.7419 42.2319 5.1773 6.1129
# 5 1.8067 1.1908 34.2926 5.1773 49.2829 4.5392
# 6 -13.9625 5.1561 7.8401 6.1129 4.5392 30.3531
#
#
#
# Elastic Compliance Matrix: (Units=1/GPa)
#
#
# Indices 1 2 3 4 5 6 
#
# 1 0.023268 -0.005507 -0.004546 -0.011609 0.002299 0.014807
# 2 -0.005507 0.012182 -0.000003 -0.001684 0.000486 -0.004336
# 3 -0.004546 -0.000003 0.008598 0.000039 -0.005498 -0.003497
# 4 -0.011609 -0.001684 0.000039 0.033148 -0.001989 -0.011442
# 5 0.002299 0.000486 -0.005498 -0.001989 0.024307 -0.000839
# 6 0.014807 -0.004336 -0.003497 -0.011442 -0.000839 0.043827
#
#
# Mechanical properties :
#
#
# Convention : Reuss Voigt Hill
#
# Bulk Modulus (GPa) = 41.77682 58.67997 50.22840
# Shear Modulus (GPa) = 28.83152 41.03689 34.93421
#
# Velocity S-wave (km/s) = 3.32548 3.96742 3.66055
# Velocity P-wave (km/s) = 5.54701 6.59506 6.09361
#
# Compressibility (1/GPa) = 0.02393672
#
# Stress axis : x y z
#
# Youngs Moduli (GPa) = 42.97708 82.08640 116.30187
#
# Poissons Ratio (x) = 0.45208 0.52871
# Poissons Ratio (y) = 0.23669 0.00031
# Poissons Ratio (z) = 0.19538 0.00022
#
# Static dielectric constant tensor:
#      x y z
#    x 2.072840 -0.040520 0.014400 
#    y -0.040520 2.143230 -0.013770 
#    z 0.014400 -0.013770 2.051640 
# 
# From -- ./inp_files/529383.got.cif
#   From: 2010.05.17/outbox.cif.g08.bks.cpg/sg2_265_cif.got.tgz:529383.got - 2010.06.03 11:33:40.
