data_PCOD9091018
_publ_section_title
;
Structure prediction by ZEFSAII (Michael W. Deem and Ramdas Pophale) SiO2 
 PCOD9091018
Probable space group: P -1
;
_chemical_formula_sum "Si O2"
_cell_formula_units_Z 16
_cell_length_a 7.101150
_cell_length_b 9.638585
_cell_length_c 15.266992
_cell_angle_alpha 88.625327
_cell_angle_beta 110.661894
_cell_angle_gamma 134.428635
_cell_volume 658.187702
_symmetry_space_group_name_H-M "P -1"
_symmetry_group_IT_number 2
_symmetry_cell_setting 'triclinic'
loop_
_space_group_symop_operation_xyz
x,y,z
-x,-y,-z
loop_
_atom_site_type_symbol
_atom_site_label
_atom_site_fract_x
_atom_site_fract_y
_atom_site_fract_z
Si Si1 0.829997 0.591653 0.330606
Si Si2 0.439213 0.975490 0.734721
Si Si3 0.026245 0.949826 0.258840
Si Si4 0.570618 0.664316 0.571501
Si Si5 0.231721 0.248902 0.964818
Si Si6 0.896728 0.346241 0.908589
Si Si7 0.371067 0.686347 0.841488
Si Si8 0.500529 0.122294 0.568555
O O1 0.715902 0.487719 0.407988
O O2 0.593586 0.410512 0.226167
O O3 0.871504 0.774595 0.310714
O O4 0.145381 0.678917 0.358223
O O5 0.693470 0.004676 0.729557
O O6 0.317168 0.985233 0.626652
O O7 0.571557 0.164589 0.814971
O O8 0.296686 0.792521 0.780068
O O9 0.833766 0.851344 0.139269
O O10 0.157051 0.158260 0.318757
O O11 0.500000 0.500000 0.500000
O O12 0.605642 0.802146 0.503984
O O13 0.970795 0.224213 0.947063
O O14 0.500000 0.500000 0.000000
O O15 0.339995 0.187997 0.051459
O O16 0.099217 0.499823 0.859467
O O17 0.000000 0.500000 0.000000
O O18 0.500000 0.000000 0.500000
#
# Coordination Sequence:
#
# PCOD9091018 Si02
#       8
#     2   2   2   2   2   2   2   2
#     4  11  20  40  70  88 123 171 221 254 307 403
#     4  10  20  37  61  89 118 160 218 250 292 390
#     4  10  19  39  62  93 126 160 217 257 308 381
#     4  12  26  42  64 100 132 160 213 282 326 360
#     4   9  18  36  66  91 117 169 207 249 312 375
#     4  10  21  38  57  89 131 157 200 266 312 360
#     4  11  19  38  67  91 118 165 217 248 306 382
#     4  11  20  43  70  89 119 175 217 259 318 383
#
# _framework density 24.309175
#
# number of rings (size 3 to 8) (size 9 to 14) (size 15 to 20)
#    0.000    1.500    8.750    0.375    0.000    3.000 
#    2.250    0.000    5.500    1.500    0.000    0.000 
#    0.000    0.000    0.000    0.000    0.000    0.000 
#
# Total GULP energy -89197.054946 kJ/mol
# GULP energy per Si atom -5574.815934 kJ/mol
# Density = 2.425385 g / cm^3
# Si number density = 24.309175 Si / 1000 Ang^3
#
#
#
# Elastic Constant Matrix: (Units=GPa)
#
#
# Indices 1 2 3 4 5 6 
#
# 1 26.4956 18.0136 29.3254 0.1280 -16.6487 -7.1200
# 2 18.0136 165.1193 80.0303 -6.8800 -11.1320 -22.9126
# 3 29.3254 80.0303 179.8378 14.3228 -9.2271 -21.5371
# 4 0.1280 -6.8800 14.3228 58.6565 -5.0116 -7.3004
# 5 -16.6487 -11.1320 -9.2271 -5.0116 32.8277 6.4617
# 6 -7.1200 -22.9126 -21.5371 -7.3004 6.4617 28.1610
#
#
#
# Elastic Compliance Matrix: (Units=1/GPa)
#
#
# Indices 1 2 3 4 5 6 
#
# 1 0.070295 0.000107 -0.009751 0.005590 0.032955 0.004290
# 2 0.000107 0.008542 -0.003381 0.002539 0.001460 0.004714
# 3 -0.009751 -0.003381 0.008869 -0.002682 -0.004378 0.001876
# 4 0.005590 0.002539 -0.002682 0.019055 0.004815 0.005263
# 5 0.032955 0.001460 -0.004378 0.004815 0.047877 -0.003565
# 6 0.004290 0.004714 0.001876 0.005263 -0.003565 0.044047
#
#
# Mechanical properties :
#
#
# Convention : Reuss Voigt Hill
#
# Bulk Modulus (GPa) = 16.21922 69.57683 42.89803
# Shear Modulus (GPa) = 20.38430 40.20126 30.29278
#
# Velocity S-wave (km/s) = 2.89890 4.07104 3.53391
# Velocity P-wave (km/s) = 4.22982 7.12612 5.85974
#
# Compressibility (1/GPa) = 0.06165524
#
# Stress axis : x y z
#
# Youngs Moduli (GPa) = 14.22582 117.07118 112.75235
#
# Poissons Ratio (x) = -0.01256 1.09945
# Poissons Ratio (y) = -0.00153 0.38127
# Poissons Ratio (z) = 0.13872 0.39587
#
# Static dielectric constant tensor:
#      x y z
#    x 2.106650 0.080740 0.111520 
#    y 0.080740 1.994480 0.110930 
#    z 0.111520 0.110930 2.249140 
# 
# From -- ./inp_files/493003.got.cif
#   From: 2010.05.17/outbox.cif.g08.bks.cpg/sg2_247_cif.got.tgz:493003.got - 2010.06.03 11:33:40.
