data_PCOD9091668
_publ_section_title
;
Structure prediction by ZEFSAII (Michael W. Deem and Ramdas Pophale) SiO2 
 PCOD9091668
Probable space group: P -1
;
_chemical_formula_sum "Si O2"
_cell_formula_units_Z 16
_cell_length_a 11.328182
_cell_length_b 8.159655
_cell_length_c 24.248487
_cell_angle_alpha 31.905551
_cell_angle_beta 30.891367
_cell_angle_gamma 41.929859
_cell_volume 607.208308
_symmetry_space_group_name_H-M "P -1"
_symmetry_group_IT_number 2
_symmetry_cell_setting 'triclinic'
loop_
_space_group_symop_operation_xyz
x,y,z
-x,-y,-z
loop_
_atom_site_type_symbol
_atom_site_label
_atom_site_fract_x
_atom_site_fract_y
_atom_site_fract_z
Si Si1 0.643783 0.720210 0.264950
Si Si2 0.423051 0.196595 0.301690
Si Si3 0.702856 0.194459 0.713286
Si Si4 0.032496 0.562430 0.557548
Si Si5 0.216611 0.668036 0.006208
Si Si6 0.190905 0.327025 0.010169
Si Si7 0.637682 0.249706 0.960501
Si Si8 0.488486 0.152696 0.520519
O O1 0.515057 0.651156 0.278450
O O2 0.693118 0.392272 0.367356
O O3 0.499749 0.908865 0.315238
O O4 0.810370 0.983512 0.105596
O O5 0.158453 0.286717 0.369073
O O6 0.581676 0.487762 0.147036
O O7 0.469902 0.074502 0.380231
O O8 0.866729 0.356484 0.644787
O O9 0.872111 0.180879 0.595937
O O10 0.565821 0.946332 0.874095
O O11 0.240631 0.352836 0.561750
O O12 0.112142 0.418294 0.078342
O O13 0.193111 0.669831 0.080794
O O14 0.492342 0.568155 0.915068
O O15 0.246067 0.972155 0.069789
O O16 0.000000 0.500000 0.000000
O O17 0.500000 0.000000 0.500000
#
# Coordination Sequence:
#
# PCOD9091668 Si02
#       8
#     2   2   2   2   2   2   2   2
#     4   9  20  38  61  88 131 161 204 266 311 372
#     4  11  22  42  63  90 130 167 202 264 320 370
#     4   9  17  33  60  89 119 156 206 249 299 377
#     4  10  20  37  63  93 125 162 209 254 310 379
#     4   9  21  39  66  92 120 165 217 263 313 378
#     4  11  24  41  63  92 130 165 211 268 316 377
#     4  10  19  39  69  88 124 168 210 261 318 370
#     4  11  23  37  64  96 124 165 212 251 314 389
#
# _framework density 26.350100999999999
#
# number of rings (size 3 to 8) (size 9 to 14) (size 15 to 20)
#    0.000    2.000    1.250    3.000    1.750    3.500 
#    4.500    1.250   33.000    0.000    0.000    0.000 
#    0.000    0.000    0.000    0.000    0.000    0.000 
#
# Total GULP energy -89203.541501 kJ/mol
# GULP energy per Si atom -5575.221344 kJ/mol
# Density = 2.629013 g / cm^3
# Si number density = 26.350101 Si / 1000 Ang^3
#
#
#
# Elastic Constant Matrix: (Units=GPa)
#
#
# Indices 1 2 3 4 5 6 
#
# 1 139.4899 30.0309 0.5885 -7.2137 -5.5729 6.9184
# 2 30.0309 -53.2772 112.3059 -27.9501 -58.8692 -19.0227
# 3 0.5885 112.3059 35.7947 25.6609 20.9944 14.9575
# 4 -7.2137 -27.9501 25.6609 27.4121 -15.1011 -16.2792
# 5 -5.5729 -58.8692 20.9944 -15.1011 17.1607 -13.4185
# 6 6.9184 -19.0227 14.9575 -16.2792 -13.4185 55.8701
#
#
#
# Elastic Compliance Matrix: (Units=1/GPa)
#
#
# Indices 1 2 3 4 5 6 
#
# 1 0.007622 -0.001019 -0.000512 0.002907 0.002369 0.000262
# 2 -0.001019 0.002403 0.003965 -0.007856 -0.007061 -0.004102
# 3 -0.000512 0.003965 0.007550 0.002848 0.008472 0.002257
# 4 0.002907 -0.007856 0.002848 0.028606 -0.000948 0.004310
# 5 0.002369 -0.007061 0.008472 -0.000948 0.024038 0.000532
# 6 0.000262 -0.004102 0.002257 0.004310 0.000532 0.017249
#
#
# Mechanical properties :
#
#
# Convention : Reuss Voigt Hill
#
# Bulk Modulus (GPa) = 44.55374 45.31755 44.93565
# Shear Modulus (GPa) = 55.50587 18.69406 37.09996
#
# Velocity S-wave (km/s) = 4.59462 2.66644 3.75635
# Velocity P-wave (km/s) = 6.71509 5.16870 5.99199
#
# Compressibility (1/GPa) = 0.02244480
#
# Stress axis : x y z
#
# Youngs Moduli (GPa) = 131.19070 416.19032 132.45080
#
# Poissons Ratio (x) = 0.42407 0.06778
# Poissons Ratio (y) = 0.13367 -0.52523
# Poissons Ratio (z) = 0.06714 -1.65039
#
# Static dielectric constant tensor:
#      x y z
#    x 2.120190 0.035220 -0.014440 
#    y 0.035220 2.188840 0.031400 
#    z -0.014440 0.031400 2.118300 
# 
# From -- ./inp_files/618200.got.cif
#   From: 2010.05.17/outbox.cif.g08.bks.cpg/sg2_310_cif.got.tgz:618200.got - 2010.06.03 11:33:40.
