data_PCOD9091841
_publ_section_title
;
Structure prediction by ZEFSAII (Michael W. Deem and Ramdas Pophale) SiO2 
 PCOD9091841
Probable space group: P -1
;
_chemical_formula_sum "Si O2"
_cell_formula_units_Z 16
_cell_length_a 19.047351
_cell_length_b 25.608297
_cell_length_c 9.508281
_cell_angle_alpha 153.792988
_cell_angle_beta 28.585602
_cell_angle_gamma 161.008372
_cell_volume 652.104604
_symmetry_space_group_name_H-M "P -1"
_symmetry_group_IT_number 2
_symmetry_cell_setting 'triclinic'
loop_
_space_group_symop_operation_xyz
x,y,z
-x,-y,-z
loop_
_atom_site_type_symbol
_atom_site_label
_atom_site_fract_x
_atom_site_fract_y
_atom_site_fract_z
Si Si1 0.295658 0.913658 0.760821
Si Si2 0.402271 0.414505 0.618775
Si Si3 0.135417 0.694642 0.266953
Si Si4 0.532975 0.324149 0.662588
Si Si5 0.585189 0.148902 0.320358
Si Si6 0.884422 0.081466 0.308677
Si Si7 0.969987 0.060227 0.410246
Si Si8 0.478339 0.249654 0.283754
O O1 0.108827 0.735499 0.565861
O O2 0.299395 0.850627 0.753401
O O3 0.500000 0.000000 0.500000
O O4 0.260900 0.035185 0.127811
O O5 0.500000 0.500000 0.500000
O O6 0.137224 0.234979 0.633975
O O7 0.492355 0.345443 0.359201
O O8 0.536688 0.440476 0.035527
O O9 0.081904 0.765430 0.425343
O O10 0.373835 0.779088 0.023996
O O11 0.000000 0.500000 0.000000
O O12 0.681488 0.312707 0.450438
O O13 0.561423 0.376062 0.575641
O O14 0.295497 0.113524 0.543385
O O15 0.376986 0.086219 0.611044
O O16 0.500000 0.000000 0.000000
O O17 0.010133 0.131336 0.352209
O O18 0.953299 0.029506 0.945703
#
# Coordination Sequence:
#
# PCOD9091841 Si02
#       8
#     2   2   2   2   2   2   2   2
#     4  10  20  38  65  93 123 170 218 262 330 401
#     4  12  26  42  69  98 133 176 229 272 326 408
#     4  11  24  37  66  99 132 168 216 285 326 396
#     4  11  25  44  68  95 137 177 219 279 332 399
#     4  11  19  38  68  95 127 172 216 271 337 389
#     4  10  19  40  61  93 133 166 221 266 329 392
#     4  10  24  40  67  98 129 182 219 271 327 396
#     4  11  24  46  65  96 132 175 222 275 340 388
#
# _framework density 24.53594
#
# number of rings (size 3 to 8) (size 9 to 14) (size 15 to 20)
#    0.000    1.250    3.750    3.375    8.750    0.500 
#    2.250    0.000    0.000    3.750    0.000    0.000 
#    0.000    0.000    0.000    0.000    0.000    0.000 
#
# Total GULP energy -89088.507939 kJ/mol
# GULP energy per Si atom -5568.031746 kJ/mol
# Density = 2.448010 g / cm^3
# Si number density = 24.535940 Si / 1000 Ang^3
#
#
#
# Elastic Constant Matrix: (Units=GPa)
#
#
# Indices 1 2 3 4 5 6 
#
# 1 130.9482 23.1825 49.1776 21.6354 -4.4714 -31.5241
# 2 23.1825 40.9252 6.7739 13.5309 -0.2133 -3.9737
# 3 49.1776 6.7739 135.7053 31.6726 11.2023 -10.0129
# 4 21.6354 13.5309 31.6726 30.2035 -0.9530 -8.1335
# 5 -4.4714 -0.2133 11.2023 -0.9530 56.3237 10.6806
# 6 -31.5241 -3.9737 -10.0129 -8.1335 10.6806 29.2646
#
#
#
# Elastic Compliance Matrix: (Units=1/GPa)
#
#
# Indices 1 2 3 4 5 6 
#
# 1 0.012780 -0.005562 -0.003457 0.000204 -0.000611 0.012109
# 2 -0.005562 0.031585 0.003713 -0.015289 -0.000463 -0.004513
# 3 -0.003457 0.003713 0.011174 -0.011441 -0.002350 -0.001719
# 4 0.000204 -0.015289 -0.011441 0.054213 0.001491 0.008753
# 5 -0.000611 -0.000463 -0.002350 0.001491 0.019776 -0.008329
# 6 0.012109 -0.004513 -0.001719 0.008753 -0.008329 0.051486
#
#
# Mechanical properties :
#
#
# Convention : Reuss Voigt Hill
#
# Bulk Modulus (GPa) = 22.25918 51.76077 37.00997
# Shear Modulus (GPa) = 24.20091 38.38802 31.29446
#
# Velocity S-wave (km/s) = 3.14402 3.95975 3.57522
# Velocity P-wave (km/s) = 4.71928 6.48443 5.67095
#
# Compressibility (1/GPa) = 0.04492528
#
# Stress axis : x y z
#
# Youngs Moduli (GPa) = 78.24658 31.66035 89.49375
#
# Poissons Ratio (x) = 0.17610 0.30942
# Poissons Ratio (y) = 0.43522 -0.33225
# Poissons Ratio (z) = 0.27053 -0.11754
#
# Static dielectric constant tensor:
#      x y z
#    x 1.683200 -1.055290 -0.381010 
#    y -1.055290 -1.767030 -1.745390 
#    z -0.381010 -1.745390 1.221910 
# 
# From -- ./inp_files/338632.got.cif
#   From: 2010.05.17/outbox.cif.g08.bks.cpg/sg2_170_cif.got.tgz:338632.got - 2010.06.03 11:33:40.
