data_PCOD9091539
_publ_section_title
;
Structure prediction by ZEFSAII (Michael W. Deem and Ramdas Pophale) SiO2 
 PCOD9091539
Probable space group: P -1
;
_chemical_formula_sum "Si O2"
_cell_formula_units_Z 14
_cell_length_a 7.985932
_cell_length_b 7.421528
_cell_length_c 12.777598
_cell_angle_alpha 110.596364
_cell_angle_beta 96.283129
_cell_angle_gamma 56.062439
_cell_volume 584.434194
_symmetry_space_group_name_H-M "P -1"
_symmetry_group_IT_number 2
_symmetry_cell_setting 'triclinic'
loop_
_space_group_symop_operation_xyz
x,y,z
-x,-y,-z
loop_
_atom_site_type_symbol
_atom_site_label
_atom_site_fract_x
_atom_site_fract_y
_atom_site_fract_z
Si Si1 0.678311 0.338626 0.795746
Si Si2 0.628922 0.034437 0.337537
Si Si3 0.615699 0.815546 0.841537
Si Si4 0.973919 0.230776 0.085596
Si Si5 0.186741 0.981252 0.445899
Si Si6 0.073145 0.860292 0.718298
Si Si7 0.342400 0.299621 0.876065
O O1 0.620793 0.598076 0.841638
O O2 0.675567 0.255451 0.659626
O O3 0.531275 0.310715 0.855110
O O4 0.911269 0.131844 0.795335
O O5 0.417385 0.169266 0.285828
O O6 0.670194 0.009306 0.458031
O O7 0.740829 0.152041 0.325229
O O8 0.732881 0.776695 0.244434
O O9 0.817571 0.798104 0.880539
O O10 0.424146 0.076001 0.908717
O O11 0.863366 0.285068 0.202180
O O12 0.834129 0.450444 0.047472
O O13 0.000000 0.000000 0.000000
O O14 0.000000 0.000000 0.500000
O O15 0.060685 0.168986 0.382998
#
# Coordination Sequence:
#
# PCOD9091539 Si02
#       7
#     2   2   2   2   2   2   2
#     4  10  19  39  67  90 140 168 205 261 320 369
#     4   9  18  38  65  93 135 167 205 256 320 376
#     4  10  22  41  63  94 127 167 212 268 314 383
#     4  12  25  45  68  90 124 173 218 277 332 374
#     4   8  17  33  66  98 131 173 208 249 315 391
#     4   9  18  39  63  93 128 165 214 259 310 381
#     4  10  23  41  65  93 132 164 219 268 317 382
#
# _framework density 23.954791
#
# number of rings (size 3 to 8) (size 9 to 14) (size 15 to 20)
#    1.714    0.571    1.429    1.714    0.000    1.714 
#    0.000    6.429    0.000    0.000    0.000    0.000 
#    0.000    0.000    0.000    0.000    0.000    0.000 
#
# Total GULP energy -78029.088579 kJ/mol
# GULP energy per Si atom -5573.506327 kJ/mol
# Density = 2.390027 g / cm^3
# Si number density = 23.954791 Si / 1000 Ang^3
#
#
#
# Elastic Constant Matrix: (Units=GPa)
#
#
# Indices 1 2 3 4 5 6 
#
# 1 84.6713 -2.0923 25.7929 -13.2682 17.7155 -7.7696
# 2 -2.0923 111.4909 32.0629 2.0080 21.6815 -3.8189
# 3 25.7929 32.0629 101.2802 -15.0661 12.0913 5.1732
# 4 -13.2682 2.0080 -15.0661 25.6649 0.1958 3.7312
# 5 17.7155 21.6815 12.0913 0.1958 24.6577 2.4144
# 6 -7.7696 -3.8189 5.1732 3.7312 2.4144 30.9786
#
#
#
# Elastic Compliance Matrix: (Units=1/GPa)
#
#
# Indices 1 2 3 4 5 6 
#
# 1 0.017752 0.004474 -0.003488 0.006015 -0.015621 0.006079
# 2 0.004474 0.012980 -0.004191 -0.001739 -0.013013 0.004646
# 3 -0.003488 -0.004191 0.013358 0.007016 0.000023 -0.004469
# 4 0.006015 -0.001739 0.007016 0.047113 -0.006110 -0.005076
# 5 -0.015621 -0.013013 0.000023 -0.006110 0.064217 -0.009795
# 6 0.006079 0.004646 -0.004469 -0.005076 -0.009795 0.036499
#
#
# Mechanical properties :
#
#
# Convention : Reuss Voigt Hill
#
# Bulk Modulus (GPa) = 26.53949 45.44104 35.99027
# Shear Modulus (GPa) = 23.70927 32.37215 28.04071
#
# Velocity S-wave (km/s) = 3.14944 3.68011 3.42507
# Velocity P-wave (km/s) = 4.93238 6.08837 5.54061
#
# Compressibility (1/GPa) = 0.03767970
#
# Stress axis : x y z
#
# Youngs Moduli (GPa) = 56.33102 77.04389 74.86271
#
# Poissons Ratio (x) = -0.34469 0.26113
# Poissons Ratio (y) = -0.25202 0.31373
# Poissons Ratio (z) = 0.19649 0.32287
#
# Static dielectric constant tensor:
#      x y z
#    x 1.931770 -0.027640 -0.012700 
#    y -0.027640 1.925600 -0.023920 
#    z -0.012700 -0.023920 2.024750 
# 
# From -- ./inp_files/491467.got.cif
#   From: 2010.05.17/outbox.cif.g08.bks.cpg/sg2_246_cif.got.tgz:491467.got - 2010.06.03 11:33:40.
