data_PCOD9091553
_publ_section_title
;
Structure prediction by ZEFSAII (Michael W. Deem and Ramdas Pophale) SiO2 
 PCOD9091553
Probable space group: P -1
;
_chemical_formula_sum "Si O2"
_cell_formula_units_Z 16
_cell_length_a 7.718358
_cell_length_b 9.332826
_cell_length_c 13.341827
_cell_angle_alpha 60.676260
_cell_angle_beta 78.326394
_cell_angle_gamma 115.199278
_cell_volume 647.242155
_symmetry_space_group_name_H-M "P -1"
_symmetry_group_IT_number 2
_symmetry_cell_setting 'triclinic'
loop_
_space_group_symop_operation_xyz
x,y,z
-x,-y,-z
loop_
_atom_site_type_symbol
_atom_site_label
_atom_site_fract_x
_atom_site_fract_y
_atom_site_fract_z
Si Si1 0.044392 0.708212 0.466946
Si Si2 0.296400 0.205150 0.948019
Si Si3 0.175123 0.819843 0.650350
Si Si4 0.273626 0.863502 0.007527
Si Si5 0.400813 0.124315 0.163688
Si Si6 0.647505 0.725851 0.539979
Si Si7 0.802722 0.522363 0.233302
Si Si8 0.699325 0.635950 0.783281
O O1 0.110303 0.748868 0.564324
O O2 0.000000 0.500000 0.500000
O O3 0.821487 0.695836 0.481720
O O4 0.252521 0.913427 0.316445
O O5 0.211663 0.337954 0.891674
O O6 0.562517 0.395399 0.854970
O O7 0.232080 0.033740 0.932050
O O8 0.247920 0.089712 0.097528
O O9 0.270853 0.701121 0.715804
O O10 0.941374 0.727757 0.762675
O O11 0.320779 0.066034 0.563716
O O12 0.361364 0.815276 0.917946
O O13 0.070897 0.670935 0.161333
O O14 0.500000 0.000000 0.000000
O O15 0.430704 0.316918 0.145536
O O16 0.380756 0.534463 0.640991
O O17 0.722740 0.753477 0.638322
#
# Coordination Sequence:
#
# PCOD9091553 Si02
#       8
#     2   2   2   2   2   2   2   2
#     4  11  24  39  70  99 122 167 214 265 310 374
#     4  10  23  39  63  91 130 167 206 264 320 364
#     4  11  20  41  66  92 126 173 214 252 315 381
#     4  10  23  42  66  90 119 172 215 263 312 376
#     4  11  21  40  66  94 128 158 224 259 306 374
#     4  10  21  43  65  93 130 168 210 264 316 373
#     4  11  24  40  65  93 129 170 211 257 325 378
#     4  10  19  39  67  93 121 168 220 260 302 371
#
# _framework density 24.720269999999999
#
# number of rings (size 3 to 8) (size 9 to 14) (size 15 to 20)
#    0.000    1.500    2.500    3.375    8.750    0.000 
#    0.000    7.500    0.000    0.000    0.000    0.000 
#    0.000    0.000    0.000    0.000    0.000    0.000 
#
# Total GULP energy -89286.257225 kJ/mol
# GULP energy per Si atom -5580.391077 kJ/mol
# Density = 2.466401 g / cm^3
# Si number density = 24.720270 Si / 1000 Ang^3
#
#
#
# Elastic Constant Matrix: (Units=GPa)
#
#
# Indices 1 2 3 4 5 6 
#
# 1 90.0912 37.3346 37.4347 -6.7270 -17.6422 -28.2349
# 2 37.3346 120.1421 50.7133 -25.4494 2.4500 -34.3622
# 3 37.4347 50.7133 115.2286 -38.6797 -20.8669 -17.4011
# 4 -6.7270 -25.4494 -38.6797 34.3447 0.2361 7.6243
# 5 -17.6422 2.4500 -20.8669 0.2361 55.5160 -12.4343
# 6 -28.2349 -34.3622 -17.4011 7.6243 -12.4343 32.9544
#
#
#
# Elastic Compliance Matrix: (Units=1/GPa)
#
#
# Indices 1 2 3 4 5 6 
#
# 1 0.020534 -0.000387 -0.003075 -0.004307 0.009956 0.020319
# 2 -0.000387 0.013950 -0.002296 0.004941 0.001129 0.012285
# 3 -0.003075 -0.002296 0.018199 0.017478 0.006566 0.003015
# 4 -0.004307 0.004941 0.017478 0.051443 0.004908 0.000641
# 5 0.009956 0.001129 0.006566 0.004908 0.028695 0.022866
# 6 0.020319 0.012285 0.003015 0.000641 0.022866 0.070636
#
#
# Mechanical properties :
#
#
# Convention : Reuss Voigt Hill
#
# Bulk Modulus (GPa) = 24.29061 64.04745 44.16903
# Shear Modulus (GPa) = 21.86317 37.89498 29.87907
#
# Velocity S-wave (km/s) = 2.97715 3.91954 3.48039
# Velocity P-wave (km/s) = 4.65461 6.81534 5.83585
#
# Compressibility (1/GPa) = 0.04116818
#
# Stress axis : x y z
#
# Youngs Moduli (GPa) = 48.69943 71.68439 54.94780
#
# Poissons Ratio (x) = 0.02773 0.16897
# Poissons Ratio (y) = 0.01884 0.12614
# Poissons Ratio (z) = 0.14975 0.16456
#
# Static dielectric constant tensor:
#      x y z
#    x 2.138960 -0.019550 0.013450 
#    y -0.019550 2.048850 0.042840 
#    z 0.013450 0.042840 1.984170 
# 
# From -- ./inp_files/556845.got.cif
#   From: 2010.05.17/outbox.cif.g08.bks.cpg/sg2_279_cif.got.tgz:556845.got - 2010.06.03 11:33:40.
