data_PCOD9091449
_publ_section_title
;
Structure prediction by ZEFSAII (Michael W. Deem and Ramdas Pophale) SiO2 
 PCOD9091449
Probable space group: P -1
;
_chemical_formula_sum "Si O2"
_cell_formula_units_Z 16
_cell_length_a 9.853134
_cell_length_b 11.017674
_cell_length_c 9.004480
_cell_angle_alpha 103.548471
_cell_angle_beta 43.661613
_cell_angle_gamma 115.365144
_cell_volume 605.314075
_symmetry_space_group_name_H-M "P -1"
_symmetry_group_IT_number 2
_symmetry_cell_setting 'triclinic'
loop_
_space_group_symop_operation_xyz
x,y,z
-x,-y,-z
loop_
_atom_site_type_symbol
_atom_site_label
_atom_site_fract_x
_atom_site_fract_y
_atom_site_fract_z
Si Si1 0.569630 0.320755 0.609926
Si Si2 0.916244 0.599345 0.795084
Si Si3 0.146397 0.686867 0.141638
Si Si4 0.273837 0.386885 0.377385
Si Si5 0.961058 0.119454 0.149077
Si Si6 0.163861 0.100234 0.288208
Si Si7 0.544590 0.111114 0.817556
Si Si8 0.414597 0.845394 0.699103
O O1 0.550918 0.464289 0.687868
O O2 0.495386 0.209971 0.767249
O O3 0.487306 0.242861 0.498469
O O4 0.829173 0.363505 0.413056
O O5 0.819686 0.451965 0.900004
O O6 0.822571 0.594348 0.702181
O O7 0.900889 0.720454 0.942032
O O8 0.263383 0.790428 0.209861
O O9 0.898245 0.648537 0.363111
O O10 0.246812 0.752982 0.926286
O O11 0.306251 0.247614 0.286006
O O12 0.724157 0.103467 0.289348
O O13 0.018997 0.114507 0.272481
O O14 0.000000 0.000000 0.000000
O O15 0.332441 0.048921 0.066620
O O16 0.000000 0.000000 0.500000
O O17 0.571794 0.981842 0.689232
#
# Coordination Sequence:
#
# PCOD9091449 Si02
#       8
#     2   2   2   2   2   2   2   2
#     4  10  20  38  61  91 125 158 211 255 311 361
#     4   9  18  37  66  90 124 166 209 259 300 374
#     4  11  21  40  66  98 126 159 216 256 313 364
#     4  10  19  39  66  90 124 169 210 255 301 378
#     4  10  21  42  61  89 125 169 211 247 312 377
#     4  11  25  43  64  92 124 169 213 254 310 379
#     4  12  22  41  63  93 129 165 204 260 314 373
#     4  11  24  38  62  98 124 167 206 264 312 361
#
# _framework density 26.432559000000001
#
# number of rings (size 3 to 8) (size 9 to 14) (size 15 to 20)
#    0.000    1.500    3.750    2.250    0.000    5.000 
#    2.250    0.000    0.000    0.750    0.000    0.000 
#    0.000    0.000    0.000    0.000    0.000    0.000 
#
# Total GULP energy -89668.543342 kJ/mol
# GULP energy per Si atom -5604.283959 kJ/mol
# Density = 2.637240 g / cm^3
# Si number density = 26.432559 Si / 1000 Ang^3
#
#
#
# Elastic Constant Matrix: (Units=GPa)
#
#
# Indices 1 2 3 4 5 6 
#
# 1 59.1541 32.5643 22.7236 -5.0004 4.9254 9.8307
# 2 32.5643 256.8276 73.0100 13.6887 10.2369 13.4292
# 3 22.7236 73.0100 105.5631 -11.0166 14.5907 4.9108
# 4 -5.0004 13.6887 -11.0166 50.6966 1.6812 1.5410
# 5 4.9254 10.2369 14.5907 1.6812 38.3624 1.2358
# 6 9.8307 13.4292 4.9108 1.5410 1.2358 35.3593
#
#
#
# Elastic Compliance Matrix: (Units=1/GPa)
#
#
# Indices 1 2 3 4 5 6 
#
# 1 0.019799 -0.001599 -0.002586 0.001998 -0.001072 -0.004588
# 2 -0.001599 0.005264 -0.003533 -0.002327 0.000277 -0.000972
# 3 -0.002586 -0.003533 0.013407 0.003739 -0.003994 0.000175
# 4 0.001998 -0.002327 0.003739 0.021460 -0.001964 -0.001058
# 5 -0.001072 0.000277 -0.003994 -0.001964 0.027740 -0.000137
# 6 -0.004588 -0.000972 0.000175 -0.001058 -0.000137 0.029952
#
#
# Mechanical properties :
#
#
# Convention : Reuss Voigt Hill
#
# Bulk Modulus (GPa) = 43.41196 75.34898 59.38047
# Shear Modulus (GPa) = 35.52702 44.43345 39.98023
#
# Velocity S-wave (km/s) = 3.67012 4.10446 3.89335
# Velocity P-wave (km/s) = 5.86678 7.14354 6.53641
#
# Compressibility (1/GPa) = 0.02303513
#
# Stress axis : x y z
#
# Youngs Moduli (GPa) = 50.50697 189.95196 74.58732
#
# Poissons Ratio (x) = 0.30377 0.19288
# Poissons Ratio (y) = 0.08077 0.26350
# Poissons Ratio (z) = 0.13061 0.67104
#
# Static dielectric constant tensor:
#      x y z
#    x 2.081580 -0.024230 -0.020500 
#    y -0.024230 2.097670 0.031900 
#    z -0.020500 0.031900 2.068390 
# 
# From -- ./inp_files/262666.got.cif
#   From: 2010.05.17/outbox.cif.g08.bks.cpg/sg2_132_cif.got.tgz:262666.got - 2010.06.03 11:33:40.
