data_PCOD9091953
_publ_section_title
;
Structure prediction by ZEFSAII (Michael W. Deem and Ramdas Pophale) SiO2 
 PCOD9091953
Probable space group: P -1
;
_chemical_formula_sum "Si O2"
_cell_formula_units_Z 15
_cell_length_a 13.619448
_cell_length_b 21.354038
_cell_length_c 18.416227
_cell_angle_alpha 161.205657
_cell_angle_beta 160.000305
_cell_angle_gamma 26.423568
_cell_volume 589.307685
_symmetry_space_group_name_H-M "P -1"
_symmetry_group_IT_number 2
_symmetry_cell_setting 'triclinic'
loop_
_space_group_symop_operation_xyz
x,y,z
-x,-y,-z
loop_
_atom_site_type_symbol
_atom_site_label
_atom_site_fract_x
_atom_site_fract_y
_atom_site_fract_z
Si Si1 0.404205 0.177952 0.866888
Si Si2 0.813261 0.387370 0.825104
Si Si3 0.518450 0.721811 0.818411
Si Si4 0.134300 0.913553 0.275409
Si Si5 0.500000 0.000000 0.500000
Si Si6 0.826384 0.220409 0.077115
Si Si7 0.432315 0.371884 0.687236
Si Si8 0.542297 0.716876 0.670174
O O1 0.220515 0.017694 0.524541
O O2 0.217257 0.383608 0.965324
O O3 0.510670 0.138387 0.979126
O O4 0.670494 0.215739 0.040930
O O5 0.620510 0.373585 0.747248
O O6 0.677532 0.273091 0.538525
O O7 0.137391 0.321168 0.996622
O O8 0.419137 0.784521 0.737805
O O9 0.388273 0.515935 0.523427
O O10 0.364411 0.727581 0.219974
O O11 0.232951 0.053011 0.433330
O O12 0.826549 0.825343 0.966988
O O13 0.737147 0.042717 0.772880
O O14 0.693867 0.409758 0.149004
O O15 0.160448 0.245626 0.345312
#
# Coordination Sequence:
#
# PCOD9091953 Si02
#       8
#     2   2   2   2   1   2   2   2
#     4   9  20  35  59  83 126 160 198 246 314 344
#     4  10  19  40  64  87 121 166 199 258 294 363
#     4  10  20  39  64  89 120 168 200 252 297 363
#     4  11  22  39  60  90 124 163 194 263 299 370
#     4  10  22  38  56  86 128 144 202 252 304 344
#     4   9  20  39  61  86 117 163 195 263 288 375
#     4  10  20  38  65  85 116 163 212 230 322 355
#     4  10  20  35  63  90 118 155 209 247 292 357
#
# _framework density 25.453596000000001
#
# number of rings (size 3 to 8) (size 9 to 14) (size 15 to 20)
#    0.000    2.133    1.333    2.400    0.000    4.267 
#    0.000    5.333   17.600    0.000    0.000    0.000 
#    0.000    0.000    0.000    0.000    0.000    0.000 
#
# Total GULP energy -83755.053212 kJ/mol
# GULP energy per Si atom -5583.670214 kJ/mol
# Density = 2.539566 g / cm^3
# Si number density = 25.453596 Si / 1000 Ang^3
#
#
#
# Elastic Constant Matrix: (Units=GPa)
#
#
# Indices 1 2 3 4 5 6 
#
# 1 17.2827 -32.9075 47.8727 21.5204 -27.9617 -29.4859
# 2 -32.9075 69.5386 19.4750 7.7289 -2.9222 7.1121
# 3 47.8727 19.4750 142.3745 -8.8397 20.5047 -3.5402
# 4 21.5204 7.7289 -8.8397 18.7109 -2.6163 10.2602
# 5 -27.9617 -2.9222 20.5047 -2.6163 47.9137 -5.7903
# 6 -29.4859 7.1121 -3.5402 10.2602 -5.7903 16.1707
#
#
#
# Elastic Compliance Matrix: (Units=1/GPa)
#
#
# Indices 1 2 3 4 5 6 
#
# 1 -0.003417 -0.002537 0.002599 0.013711 -0.004299 -0.014783
# 2 -0.002537 0.014390 -0.000968 0.004196 -0.001704 -0.014440
# 3 0.002599 -0.000968 0.006264 -0.004898 -0.000340 0.009522
# 4 0.013711 0.004196 -0.004898 0.031885 0.012875 0.006462
# 5 -0.004299 -0.001704 -0.000340 0.012875 0.018034 -0.008874
# 6 -0.014783 -0.014440 0.009522 0.006462 -0.008874 0.036041
#
#
# Mechanical properties :
#
#
# Convention : Reuss Voigt Hill
#
# Bulk Modulus (GPa) = 64.83483 33.11957 48.97720
# Shear Modulus (GPa) = 45.39139 29.54276 37.46708
#
# Velocity S-wave (km/s) = 4.22749 3.41053 3.84080
# Velocity P-wave (km/s) = 7.02538 5.34312 6.24119
#
# Compressibility (1/GPa) = 0.01542381
#
# Stress axis : x y z
#
# Youngs Moduli (GPa) = -292.69661 69.49314 159.64111
#
# Poissons Ratio (x) = 0.17631 -0.41484
# Poissons Ratio (y) = -0.74259 0.15458
# Poissons Ratio (z) = 0.76059 0.06729
#
# Static dielectric constant tensor:
#      x y z
#    x 2.119840 0.080360 0.028470 
#    y 0.080360 2.123140 0.063190 
#    z 0.028470 0.063190 1.990290 
# 
# From -- ./inp_files/598604.got.cif
#   From: 2010.05.17/outbox.cif.g08.bks.cpg/sg2_300_cif.got.tgz:598604.got - 2010.06.03 11:33:40.
