data_PCOD9091357
_publ_section_title
;
Structure prediction by ZEFSAII (Michael W. Deem and Ramdas Pophale) SiO2 
 PCOD9091357
Probable space group: P -1
;
_chemical_formula_sum "Si O2"
_cell_formula_units_Z 16
_cell_length_a 12.801866
_cell_length_b 11.794409
_cell_length_c 12.045272
_cell_angle_alpha 84.777807
_cell_angle_beta 35.443506
_cell_angle_gamma 111.454093
_cell_volume 680.453913
_symmetry_space_group_name_H-M "P -1"
_symmetry_group_IT_number 2
_symmetry_cell_setting 'triclinic'
loop_
_space_group_symop_operation_xyz
x,y,z
-x,-y,-z
loop_
_atom_site_type_symbol
_atom_site_label
_atom_site_fract_x
_atom_site_fract_y
_atom_site_fract_z
Si Si1 0.166154 0.236836 0.416863
Si Si2 0.143264 0.676585 0.083011
Si Si3 0.748336 0.211586 0.767336
Si Si4 0.882835 0.874578 0.965834
Si Si5 0.341069 0.188796 0.064209
Si Si6 0.189563 0.813920 0.812597
Si Si7 0.360093 0.662326 0.571438
Si Si8 0.582924 0.714432 0.592328
O O1 0.349503 0.267692 0.160596
O O2 0.314674 0.324176 0.399393
O O3 0.026634 0.282382 0.483899
O O4 0.910577 0.024641 0.680282
O O5 0.162967 0.791501 0.970176
O O6 0.375531 0.699223 0.838382
O O7 0.202295 0.732679 0.152845
O O8 0.840025 0.483425 0.335385
O O9 0.629398 0.259749 0.797725
O O10 0.500000 0.000000 0.000000
O O11 0.744560 0.786516 0.973749
O O12 0.981738 0.804639 0.941058
O O13 0.655152 0.828295 0.243073
O O14 0.150897 0.082650 0.693996
O O15 0.197263 0.691045 0.763266
O O16 0.500000 0.000000 0.500000
O O17 0.431104 0.611573 0.617400
#
# Coordination Sequence:
#
# PCOD9091357 Si02
#       8
#     2   2   2   2   2   2   2   2
#     4   9  18  32  61  90 119 160 216 265 309 359
#     4  11  23  43  64  96 135 165 208 274 328 371
#     4  10  21  37  63  94 119 166 223 263 307 378
#     4  11  23  39  65  96 130 169 218 258 316 386
#     4   9  19  36  57  91 124 157 208 276 308 353
#     4  11  23  39  68  97 129 168 219 261 313 383
#     4  11  25  42  61  97 138 171 201 267 334 376
#     4  10  19  39  65  92 132 166 214 266 315 377
#
# _framework density 23.513715000000001
#
# number of rings (size 3 to 8) (size 9 to 14) (size 15 to 20)
#    0.000    1.750    3.750    1.875    3.500    3.500 
#    2.250    0.625    0.000    1.500    0.000    0.000 
#    0.000    0.000    0.000    0.000    0.000    0.000 
#
# Total GULP energy -89448.626517 kJ/mol
# GULP energy per Si atom -5590.539157 kJ/mol
# Density = 2.346020 g / cm^3
# Si number density = 23.513715 Si / 1000 Ang^3
#
#
#
# Elastic Constant Matrix: (Units=GPa)
#
#
# Indices 1 2 3 4 5 6 
#
# 1 139.6301 22.0491 18.7108 -4.9593 -30.3909 7.2706
# 2 22.0491 50.0534 17.2308 -2.6999 -13.4562 15.9478
# 3 18.7108 17.2308 73.9240 7.9601 -24.6020 -10.1840
# 4 -4.9593 -2.6999 7.9601 18.0828 1.2544 -6.1065
# 5 -30.3909 -13.4562 -24.6020 1.2544 27.1422 4.2057
# 6 7.2706 15.9478 -10.1840 -6.1065 4.2057 42.8528
#
#
#
# Elastic Compliance Matrix: (Units=1/GPa)
#
#
# Indices 1 2 3 4 5 6 
#
# 1 0.009905 -0.000837 0.001443 0.000366 0.012305 -0.002181
# 2 -0.000837 0.029087 -0.004752 0.001133 0.011097 -0.012740
# 3 0.001443 -0.004752 0.022326 -0.010325 0.019440 0.003450
# 4 0.000366 0.001133 -0.010325 0.063454 -0.012455 0.007327
# 5 0.012305 0.011097 0.019440 -0.012455 0.075997 -0.010831
# 6 -0.002181 -0.012740 0.003450 0.007327 -0.010831 0.031374
#
#
# Mechanical properties :
#
#
# Convention : Reuss Voigt Hill
#
# Bulk Modulus (GPa) = 18.85826 42.17654 30.51740
# Shear Modulus (GPa) = 19.37150 31.32336 25.34743
#
# Velocity S-wave (km/s) = 2.87337 3.65380 3.28683
# Velocity P-wave (km/s) = 4.36416 5.98133 5.23556
#
# Compressibility (1/GPa) = 0.05302716
#
# Stress axis : x y z
#
# Youngs Moduli (GPa) = 100.95421 34.37983 44.79012
#
# Poissons Ratio (x) = 0.02879 -0.06465
# Poissons Ratio (y) = 0.08454 0.21283
# Poissons Ratio (z) = -0.14571 0.16336
#
# Static dielectric constant tensor:
#      x y z
#    x 1.869720 -0.018440 -0.016440 
#    y -0.018440 1.930280 -0.030440 
#    z -0.016440 -0.030440 1.869110 
# 
# From -- ./inp_files/283396.got.cif
#   From: 2010.05.17/outbox.cif.g08.bks.cpg/sg2_142_cif.got.tgz:283396.got - 2010.06.03 11:33:40.
