data_PCOD9091150
_publ_section_title
;
Structure prediction by ZEFSAII (Michael W. Deem and Ramdas Pophale) SiO2 
 PCOD9091150
Probable space group: P -1
;
_chemical_formula_sum "Si O2"
_cell_formula_units_Z 16
_cell_length_a 9.012920
_cell_length_b 12.114464
_cell_length_c 13.818538
_cell_angle_alpha 41.219043
_cell_angle_beta 113.494854
_cell_angle_gamma 86.164793
_cell_volume 724.658986
_symmetry_space_group_name_H-M "P -1"
_symmetry_group_IT_number 2
_symmetry_cell_setting 'triclinic'
loop_
_space_group_symop_operation_xyz
x,y,z
-x,-y,-z
loop_
_atom_site_type_symbol
_atom_site_label
_atom_site_fract_x
_atom_site_fract_y
_atom_site_fract_z
Si Si1 0.931705 0.812795 0.319078
Si Si2 0.636294 0.944914 0.665428
Si Si3 0.630176 0.303424 0.961149
Si Si4 0.240731 0.697880 0.201151
Si Si5 0.945961 0.342630 0.119757
Si Si6 0.721162 0.600654 0.058337
Si Si7 0.999824 0.576682 0.300207
Si Si8 0.788934 0.103664 0.741318
O O1 0.905650 0.754985 0.241532
O O2 0.954544 0.634860 0.507124
O O3 0.139089 0.788614 0.379244
O O4 0.756995 0.048716 0.154314
O O5 0.848340 0.871475 0.719944
O O6 0.500000 0.000000 0.500000
O O7 0.629102 0.086680 0.655732
O O8 0.631749 0.770868 0.836548
O O9 0.765965 0.366812 0.999343
O O10 0.599934 0.374553 0.794842
O O11 0.440579 0.392972 0.922565
O O12 0.286808 0.782485 0.250011
O O13 0.200557 0.538680 0.336082
O O14 0.015245 0.884518 0.973333
O O15 0.883727 0.381225 0.190077
O O16 0.000000 0.500000 0.000000
O O17 0.840373 0.652618 0.123573
#
# Coordination Sequence:
#
# PCOD9091150 Si02
#       8
#     2   2   2   2   2   2   2   2
#     4   9  20  36  67  93 130 167 205 273 321 385
#     4  11  22  41  66  95 127 167 217 266 321 381
#     4  11  21  40  64 100 124 168 219 259 322 378
#     4   9  16  33  70  88 125 168 211 260 315 391
#     4  10  21  43  64  86 126 169 215 262 314 372
#     4  11  24  39  64  94 128 174 215 266 309 388
#     4  10  19  39  63  96 128 170 210 258 338 373
#     4   9  16  35  62  98 121 167 214 257 323 381
#
# _framework density 22.079349000000001
#
# number of rings (size 3 to 8) (size 9 to 14) (size 15 to 20)
#    0.000    2.000    3.750    1.875    0.000    1.500 
#    6.750    1.250    0.000    2.250    0.000    0.000 
#    0.000    0.000    0.000    0.000    0.000    0.000 
#
# Total GULP energy -89236.617021 kJ/mol
# GULP energy per Si atom -5577.288564 kJ/mol
# Density = 2.202910 g / cm^3
# Si number density = 22.079349 Si / 1000 Ang^3
#
#
#
# Elastic Constant Matrix: (Units=GPa)
#
#
# Indices 1 2 3 4 5 6 
#
# 1 151.0712 61.6810 26.2756 3.1221 -18.9835 -29.1674
# 2 61.6810 140.9884 32.1165 20.0407 -2.1384 6.8327
# 3 26.2756 32.1165 49.2906 11.4685 -19.2234 -1.0459
# 4 3.1221 20.0407 11.4685 34.1596 2.0494 -4.8995
# 5 -18.9835 -2.1384 -19.2234 2.0494 30.6438 -0.4450
# 6 -29.1674 6.8327 -1.0459 -4.8995 -0.4450 34.1828
#
#
#
# Elastic Compliance Matrix: (Units=1/GPa)
#
#
# Indices 1 2 3 4 5 6 
#
# 1 0.012618 -0.006529 -0.000474 0.004248 0.006965 0.012756
# 2 -0.006529 0.012497 -0.006238 -0.005541 -0.006847 -0.009143
# 3 -0.000474 -0.006238 0.035450 -0.009403 0.022151 0.000868
# 4 0.004248 -0.005541 -0.009403 0.037041 -0.005991 0.009676
# 5 0.006965 -0.006847 0.022151 -0.005991 0.050880 0.007793
# 6 0.012756 -0.009143 0.000868 0.009676 0.007793 0.043481
#
#
# Mechanical properties :
#
#
# Convention : Reuss Voigt Hill
#
# Bulk Modulus (GPa) = 29.33864 64.61071 46.97467
# Shear Modulus (GPa) = 21.75734 34.54904 28.15319
#
# Velocity S-wave (km/s) = 3.14254 3.96001 3.57472
# Velocity P-wave (km/s) = 5.14627 7.08769 6.19352
#
# Compressibility (1/GPa) = 0.03408475
#
# Stress axis : x y z
#
# Youngs Moduli (GPa) = 79.25444 80.02085 28.20885
#
# Poissons Ratio (x) = 0.52242 0.01336
# Poissons Ratio (y) = 0.51742 0.17596
# Poissons Ratio (z) = 0.03753 0.49914
#
# Static dielectric constant tensor:
#      x y z
#    x 1.816030 -0.004740 0.002360 
#    y -0.004740 1.954210 -0.035500 
#    z 0.002360 -0.035500 1.895940 
# 
# From -- ./inp_files/498792.got.cif
#   From: 2010.05.17/outbox.cif.g08.bks.cpg/sg2_250_cif.got.tgz:498792.got - 2010.06.03 11:33:40.
