data_PCOD9091825
_publ_section_title
;
Structure prediction by ZEFSAII (Michael W. Deem and Ramdas Pophale) SiO2 
 PCOD9091825
Probable space group: P -1
;
_chemical_formula_sum "Si O2"
_cell_formula_units_Z 16
_cell_length_a 9.496721
_cell_length_b 12.038103
_cell_length_c 14.229376
_cell_angle_alpha 33.438125
_cell_angle_beta 63.256472
_cell_angle_gamma 48.927059
_cell_volume 656.584402
_symmetry_space_group_name_H-M "P -1"
_symmetry_group_IT_number 2
_symmetry_cell_setting 'triclinic'
loop_
_space_group_symop_operation_xyz
x,y,z
-x,-y,-z
loop_
_atom_site_type_symbol
_atom_site_label
_atom_site_fract_x
_atom_site_fract_y
_atom_site_fract_z
Si Si1 0.476081 0.786244 0.023719
Si Si2 0.541998 0.130048 0.474988
Si Si3 0.859996 0.710196 0.214389
Si Si4 0.812751 0.403120 0.316750
Si Si5 0.342931 0.606872 0.889777
Si Si6 0.169357 0.088682 0.305302
Si Si7 0.089372 0.059996 0.148474
Si Si8 0.204554 0.641344 0.275994
O O1 0.607968 0.646617 0.174125
O O2 0.614322 0.634735 0.003497
O O3 0.303974 0.741952 0.109238
O O4 0.359677 0.076969 0.844508
O O5 0.629460 0.251266 0.302630
O O6 0.683385 0.935201 0.646356
O O7 0.358867 0.350204 0.430382
O O8 0.500000 0.000000 0.500000
O O9 0.885485 0.464651 0.344473
O O10 0.009175 0.689796 0.259182
O O11 0.895015 0.807454 0.038987
O O12 0.805614 0.171857 0.503516
O O13 0.963583 0.309482 0.251474
O O14 0.133011 0.793376 0.861389
O O15 0.500000 0.500000 0.000000
O O16 0.188663 0.091548 0.186021
O O17 0.170022 0.786558 0.280595
#
# Coordination Sequence:
#
# PCOD9091825 Si02
#       8
#     2   2   2   2   2   2   2   2
#     4  10  19  40  61  88 123 164 204 247 315 368
#     4  11  23  44  65  88 122 169 213 248 307 379
#     4  11  23  39  65  95 124 160 210 261 303 366
#     4  11  21  41  63  89 125 167 206 247 312 374
#     4  11  20  38  65  89 121 160 205 254 310 362
#     4  11  22  41  64  88 127 169 201 253 316 371
#     4  11  22  39  64  93 126 159 205 259 311 362
#     4  10  21  41  63  90 126 165 205 253 314 365
#
# _framework density 24.368534
#
# number of rings (size 3 to 8) (size 9 to 14) (size 15 to 20)
#    0.000    1.250    3.750    5.625    0.000    1.000 
#    2.250    3.750    0.000    0.000    0.000    0.000 
#    0.000    0.000    0.000    0.000    0.000    0.000 
#
# Total GULP energy -89505.780336 kJ/mol
# GULP energy per Si atom -5594.111271 kJ/mol
# Density = 2.431307 g / cm^3
# Si number density = 24.368534 Si / 1000 Ang^3
#
#
#
# Elastic Constant Matrix: (Units=GPa)
#
#
# Indices 1 2 3 4 5 6 
#
# 1 122.7254 38.3939 25.8453 -10.9308 21.4926 22.4387
# 2 38.3939 139.7730 23.9803 -18.3519 5.4029 4.0924
# 3 25.8453 23.9803 56.2271 11.3313 7.9558 -8.1260
# 4 -10.9308 -18.3519 11.3313 32.2160 4.4902 7.6894
# 5 21.4926 5.4029 7.9558 4.4902 36.0162 -9.7343
# 6 22.4387 4.0924 -8.1260 7.6894 -9.7343 43.6001
#
#
#
# Elastic Compliance Matrix: (Units=1/GPa)
#
#
# Indices 1 2 3 4 5 6 
#
# 1 0.018163 0.000572 -0.012571 0.017380 -0.015236 -0.018211
# 2 0.000572 0.009617 -0.006565 0.009497 -0.002793 -0.004719
# 3 -0.012571 -0.006565 0.033057 -0.025766 0.009796 0.019978
# 4 0.017380 0.009497 -0.025766 0.061748 -0.022032 -0.030447
# 5 -0.015236 -0.002793 0.009796 -0.022032 0.044264 0.023697
# 6 -0.018211 -0.004719 0.019978 -0.030447 0.023697 0.047135
#
#
# Mechanical properties :
#
#
# Convention : Reuss Voigt Hill
#
# Bulk Modulus (GPa) = 42.17990 55.01826 48.59908
# Shear Modulus (GPa) = 19.30394 37.73353 28.51873
#
# Velocity S-wave (km/s) = 2.81760 3.93931 3.42469
# Velocity P-wave (km/s) = 5.28506 6.58160 5.96864
#
# Compressibility (1/GPa) = 0.02370798
#
# Stress axis : x y z
#
# Youngs Moduli (GPa) = 55.05800 103.98485 30.25070
#
# Poissons Ratio (x) = -0.05946 0.38028
# Poissons Ratio (y) = -0.03148 0.19860
# Poissons Ratio (z) = 0.69214 0.68266
#
# Static dielectric constant tensor:
#      x y z
#    x 2.034140 -0.002560 -0.075220 
#    y -0.002560 1.932250 -0.012330 
#    z -0.075220 -0.012330 1.974010 
# 
# From -- ./inp_files/499869.got.cif
#   From: 2010.05.17/outbox.cif.g08.bks.cpg/sg2_250_cif.got.tgz:499869.got - 2010.06.03 11:33:40.
