data_PCOD9091450
_publ_section_title
;
Structure prediction by ZEFSAII (Michael W. Deem and Ramdas Pophale) SiO2 
 PCOD9091450
Probable space group: P -1
;
_chemical_formula_sum "Si O2"
_cell_formula_units_Z 14
_cell_length_a 10.638662
_cell_length_b 8.995125
_cell_length_c 10.870898
_cell_angle_alpha 106.553191
_cell_angle_beta 40.154271
_cell_angle_gamma 96.411680
_cell_volume 633.493432
_symmetry_space_group_name_H-M "P -1"
_symmetry_group_IT_number 2
_symmetry_cell_setting 'triclinic'
loop_
_space_group_symop_operation_xyz
x,y,z
-x,-y,-z
loop_
_atom_site_type_symbol
_atom_site_label
_atom_site_fract_x
_atom_site_fract_y
_atom_site_fract_z
Si Si1 0.236874 0.742277 0.966230
Si Si2 0.293123 0.760686 0.445616
Si Si3 0.285666 0.601069 0.160217
Si Si4 0.940352 0.659635 0.829548
Si Si5 0.783334 0.978600 0.102791
Si Si6 0.298546 0.394219 0.775970
Si Si7 0.230914 0.116038 0.643714
O O1 0.300120 0.699607 0.048163
O O2 0.006049 0.823665 0.169879
O O3 0.324027 0.871028 0.852762
O O4 0.283656 0.579497 0.818289
O O5 0.231781 0.705197 0.345383
O O6 0.510544 0.672095 0.299412
O O7 0.149703 0.698630 0.639305
O O8 0.275327 0.950717 0.500406
O O9 0.132510 0.480861 0.221992
O O10 0.500000 0.500000 0.000000
O O11 0.893301 0.622599 0.998516
O O12 0.805593 0.832098 0.959431
O O13 0.692460 0.938799 0.289303
O O14 0.000000 0.000000 0.000000
O O15 0.303695 0.285641 0.625641
#
# Coordination Sequence:
#
# PCOD9091450 Si02
#       7
#     2   2   2   2   2   2   2
#     4  10  19  39  66  90 124 172 205 251 316 367
#     4  12  21  40  68  92 125 168 210 253 308 378
#     4  11  23  42  64  87 128 167 214 256 309 366
#     4  10  20  39  66  88 120 172 205 248 319 362
#     4   9  17  37  65  90 125 159 200 253 317 367
#     4  10  22  38  68  94 130 160 205 257 317 365
#     4  10  21  38  66  95 128 164 203 258 319 368
#
# _framework density 22.099678000000001
#
# number of rings (size 3 to 8) (size 9 to 14) (size 15 to 20)
#    0.000    1.714    5.714    1.286    0.000    1.714 
#    0.000    1.429   12.571    0.000    0.000    0.000 
#    0.000    0.000    0.000    0.000    0.000    0.000 
#
# Total GULP energy -78020.434929 kJ/mol
# GULP energy per Si atom -5572.888209 kJ/mol
# Density = 2.204938 g / cm^3
# Si number density = 22.099678 Si / 1000 Ang^3
#
#
#
# Elastic Constant Matrix: (Units=GPa)
#
#
# Indices 1 2 3 4 5 6 
#
# 1 90.1612 25.6425 32.7072 18.4959 10.8012 -2.7506
# 2 25.6425 101.8555 24.1858 33.9946 14.0268 -9.1087
# 3 32.7072 24.1858 87.1767 19.7310 9.4076 7.5316
# 4 18.4959 33.9946 19.7310 46.3733 14.1230 7.7383
# 5 10.8012 14.0268 9.4076 14.1230 35.0757 14.8936
# 6 -2.7506 -9.1087 7.5316 7.7383 14.8936 42.1715
#
#
#
# Elastic Compliance Matrix: (Units=1/GPa)
#
#
# Indices 1 2 3 4 5 6 
#
# 1 0.013903 -0.000919 -0.004304 -0.002636 -0.002977 0.003012
# 2 -0.000919 0.014843 -0.001723 -0.009633 -0.004152 0.006688
# 3 -0.004304 -0.001723 0.014396 -0.002821 0.000515 -0.002888
# 4 -0.002636 -0.009633 -0.002821 0.033566 -0.005572 -0.005940
# 5 -0.002977 -0.004152 0.000515 -0.005572 0.039128 -0.013979
# 6 0.003012 0.006688 -0.002888 -0.005940 -0.013979 0.031896
#
#
# Mechanical properties :
#
#
# Convention : Reuss Voigt Hill
#
# Bulk Modulus (GPa) = 34.18603 49.36273 41.77438
# Shear Modulus (GPa) = 29.17611 37.83463 33.50537
#
# Velocity S-wave (km/s) = 3.63740 4.14212 3.89794
# Velocity P-wave (km/s) = 5.75704 6.72764 6.26118
#
# Compressibility (1/GPa) = 0.02925171
#
# Stress axis : x y z
#
# Youngs Moduli (GPa) = 71.92608 67.37144 69.46441
#
# Poissons Ratio (x) = 0.06192 0.29894
# Poissons Ratio (y) = 0.06610 0.11966
# Poissons Ratio (z) = 0.30953 0.11606
#
# Static dielectric constant tensor:
#      x y z
#    x 1.795180 0.037190 -0.010310 
#    y 0.037190 1.939960 -0.019410 
#    z -0.010310 -0.019410 1.910600 
# 
# From -- ./inp_files/170007.got.cif
#   From: 2010.05.17/outbox.cif.g08.bks.cpg/sg2_86_cif.got.tgz:170007.got - 2010.06.03 11:33:40.
