data_PCOD9091148
_publ_section_title
;
Structure prediction by ZEFSAII (Michael W. Deem and Ramdas Pophale) SiO2 
 PCOD9091148
Probable space group: P -1
;
_chemical_formula_sum "Si O2"
_cell_formula_units_Z 16
_cell_length_a 6.944297
_cell_length_b 23.517628
_cell_length_c 11.741002
_cell_angle_alpha 22.607330
_cell_angle_beta 84.834250
_cell_angle_gamma 94.824285
_cell_volume 660.380185
_symmetry_space_group_name_H-M "P -1"
_symmetry_group_IT_number 2
_symmetry_cell_setting 'triclinic'
loop_
_space_group_symop_operation_xyz
x,y,z
-x,-y,-z
loop_
_atom_site_type_symbol
_atom_site_label
_atom_site_fract_x
_atom_site_fract_y
_atom_site_fract_z
Si Si1 0.235377 0.168503 0.263772
Si Si2 0.326667 0.887700 0.864709
Si Si3 0.221414 0.886021 0.120911
Si Si4 0.495875 0.339449 0.743978
Si Si5 0.015244 0.337822 0.262297
Si Si6 0.801364 0.065981 0.614096
Si Si7 0.639096 0.819806 0.277368
Si Si8 0.437139 0.482757 0.821538
O O1 0.005498 0.128274 0.404873
O O2 0.273574 0.007987 0.569429
O O3 0.269129 0.214206 0.043594
O O4 0.414481 0.320999 0.048145
O O5 0.571666 0.987114 0.712505
O O6 0.186406 0.851281 0.053848
O O7 0.332877 0.728161 0.103491
O O8 0.024926 0.775531 0.415546
O O9 0.412676 0.834398 0.240259
O O10 0.286105 0.074284 0.805632
O O11 0.500000 0.500000 0.500000
O O12 0.551500 0.392017 0.513194
O O13 0.830163 0.224120 0.394614
O O14 0.000000 0.500000 0.000000
O O15 0.232442 0.396445 0.072174
O O16 0.790416 0.932293 0.958175
O O17 0.600302 0.630293 0.621973
#
# Coordination Sequence:
#
# PCOD9091148 Si02
#       8
#     2   2   2   2   2   2   2   2
#     4  10  23  37  60  86 116 149 199 239 286 337
#     4  11  20  39  61  85 119 151 190 241 285 344
#     4   9  17  28  55  84 111 152 190 224 287 344
#     4  10  20  37  62  85 111 157 192 238 298 334
#     4  10  16  28  55  88 113 149 195 230 275 349
#     4   9  20  35  58  85 113 152 195 230 285 344
#     4   9  15  31  54  82 112 152 187 230 282 343
#     4  10  18  34  57  82 118 153 187 239 287 335
#
# _framework density 24.228466999999998
#
# number of rings (size 3 to 8) (size 9 to 14) (size 15 to 20)
#    0.000    2.250    3.750    1.125    0.000    0.500 
#    0.000    6.250   11.000    8.250    0.000    0.000 
#    0.000    0.000    0.000    0.000    0.000    0.000 
#
# Total GULP energy -89166.187350 kJ/mol
# GULP energy per Si atom -5572.886709 kJ/mol
# Density = 2.417332 g / cm^3
# Si number density = 24.228467 Si / 1000 Ang^3
#
#
#
# Elastic Constant Matrix: (Units=GPa)
#
#
# Indices 1 2 3 4 5 6 
#
# 1 43.6428 26.3605 14.1237 -3.9083 -4.7726 -16.0436
# 2 26.3605 126.2913 66.9120 13.2678 -0.8328 -23.8878
# 3 14.1237 66.9120 118.8527 -1.1645 -2.7865 -9.6084
# 4 -3.9083 13.2678 -1.1645 76.2098 -10.5847 -7.7892
# 5 -4.7726 -0.8328 -2.7865 -10.5847 25.7543 -2.2718
# 6 -16.0436 -23.8878 -9.6084 -7.7892 -2.2718 24.7710
#
#
#
# Elastic Compliance Matrix: (Units=1/GPa)
#
#
# Indices 1 2 3 4 5 6 
#
# 1 0.035000 -0.003744 0.000044 0.006207 0.010864 0.022024
# 2 -0.003744 0.013996 -0.006866 -0.002117 -0.001181 0.007635
# 3 0.000044 -0.006866 0.012226 0.001481 0.001609 -0.001237
# 4 0.006207 -0.002117 0.001481 0.015861 0.008495 0.008320
# 5 0.010864 -0.001181 0.001609 0.008495 0.045649 0.013379
# 6 0.022024 0.007635 -0.001237 0.008320 0.013379 0.065361
#
#
# Mechanical properties :
#
#
# Convention : Reuss Voigt Hill
#
# Bulk Modulus (GPa) = 24.94250 55.95324 40.44787
# Shear Modulus (GPa) = 22.46301 37.43973 29.95137
#
# Velocity S-wave (km/s) = 3.04819 3.93527 3.51979
# Velocity P-wave (km/s) = 4.76505 6.61760 5.76621
#
# Compressibility (1/GPa) = 0.04009221
#
# Stress axis : x y z
#
# Youngs Moduli (GPa) = 28.57120 71.44830 81.79209
#
# Poissons Ratio (x) = 0.26748 -0.00363
# Poissons Ratio (y) = 0.10696 0.56157
# Poissons Ratio (z) = -0.00127 0.49055
#
# Static dielectric constant tensor:
#      x y z
#    x 2.027880 0.093200 -0.026330 
#    y 0.093200 2.094610 -0.048560 
#    z -0.026330 -0.048560 1.987520 
# 
# From -- ./inp_files/224280.got.cif
#   From: 2010.05.17/outbox.cif.g08.bks.cpg/sg2_113_cif.got.tgz:224280.got - 2010.06.03 11:33:40.
