data_PCOD9091582
_publ_section_title
;
Structure prediction by ZEFSAII (Michael W. Deem and Ramdas Pophale) SiO2 
 PCOD9091582
Probable space group: P -1
;
_chemical_formula_sum "Si O2"
_cell_formula_units_Z 14
_cell_length_a 9.552358
_cell_length_b 7.657013
_cell_length_c 13.181182
_cell_angle_alpha 46.817345
_cell_angle_beta 107.888209
_cell_angle_gamma 84.308689
_cell_volume 598.851972
_symmetry_space_group_name_H-M "P -1"
_symmetry_group_IT_number 2
_symmetry_cell_setting 'triclinic'
loop_
_space_group_symop_operation_xyz
x,y,z
-x,-y,-z
loop_
_atom_site_type_symbol
_atom_site_label
_atom_site_fract_x
_atom_site_fract_y
_atom_site_fract_z
Si Si1 0.677105 0.185118 0.145474
Si Si2 0.185590 0.458765 0.063237
Si Si3 0.589052 0.679641 0.126951
Si Si4 0.871647 0.296113 0.825805
Si Si5 0.486298 0.072545 0.663043
Si Si6 0.474104 0.519424 0.352942
Si Si7 0.089624 0.376908 0.677489
O O1 0.638654 0.055881 0.289831
O O2 0.793226 0.928466 0.205255
O O3 0.778744 0.355690 0.083807
O O4 0.496686 0.328494 0.994759
O O5 0.192468 0.541255 0.148926
O O6 0.330522 0.165094 0.191387
O O7 0.000000 0.500000 0.000000
O O8 0.517988 0.531765 0.243566
O O9 0.779367 0.558562 0.252383
O O10 0.500000 0.000000 0.000000
O O11 0.714985 0.285941 0.745653
O O12 0.951433 0.411250 0.715227
O O13 0.000000 0.000000 0.000000
O O14 0.492954 0.229741 0.501599
O O15 0.437576 0.325905 0.629415
O O16 0.000000 0.500000 0.500000
#
# Coordination Sequence:
#
# PCOD9091582 Si02
#       7
#     2   2   2   2   2   2   2
#     4  11  22  45  66  99 133 184 228 276 338 415
#     4  12  27  43  67 102 140 179 229 289 341 402
#     4  10  19  39  67  97 129 171 236 269 329 407
#     4  12  23  42  67  97 134 179 226 279 338 404
#     4  11  25  41  70 101 136 176 227 283 345 404
#     4  11  22  42  70 100 130 179 231 282 336 411
#     4  11  23  38  69 102 135 170 229 284 338 399
#
# _framework density 23.378064999999999
#
# number of rings (size 3 to 8) (size 9 to 14) (size 15 to 20)
#    0.000    0.857    5.714    3.000    4.000    0.571 
#    0.000    0.000    0.000    2.571    0.000    0.000 
#    0.000    0.000    0.000    0.000    0.000    0.000 
#
# Total GULP energy -77997.167919 kJ/mol
# GULP energy per Si atom -5571.226280 kJ/mol
# Density = 2.332486 g / cm^3
# Si number density = 23.378065 Si / 1000 Ang^3
#
#
#
# Elastic Constant Matrix: (Units=GPa)
#
#
# Indices 1 2 3 4 5 6 
#
# 1 121.8490 32.1909 13.4919 -8.7122 -30.4654 14.4235
# 2 32.1909 81.8587 21.2575 3.0757 -11.1805 3.2753
# 3 13.4919 21.2575 98.8189 -5.1477 -29.5982 20.1092
# 4 -8.7122 3.0757 -5.1477 29.0033 3.3513 1.4880
# 5 -30.4654 -11.1805 -29.5982 3.3513 50.0115 7.2078
# 6 14.4235 3.2753 20.1092 1.4880 7.2078 32.2872
#
#
#
# Elastic Compliance Matrix: (Units=1/GPa)
#
#
# Indices 1 2 3 4 5 6 
#
# 1 0.013538 -0.004820 0.005317 0.004772 0.011682 -0.011698
# 2 -0.004820 0.014866 -0.004306 -0.003708 -0.002498 0.004056
# 3 0.005317 -0.004306 0.018726 0.004467 0.015550 -0.017279
# 4 0.004772 -0.003708 0.004467 0.037082 0.003241 -0.006970
# 5 0.011682 -0.002498 0.015550 0.003241 0.038924 -0.023489
# 6 -0.011698 0.004056 -0.017279 -0.006970 -0.023489 0.052113
#
#
# Mechanical properties :
#
#
# Convention : Reuss Voigt Hill
#
# Bulk Modulus (GPa) = 25.30954 48.48968 36.89961
# Shear Modulus (GPa) = 25.50502 37.96615 31.73559
#
# Velocity S-wave (km/s) = 3.30658 4.03427 3.68842
# Velocity P-wave (km/s) = 5.04259 6.51820 5.82729
#
# Compressibility (1/GPa) = 0.03951080
#
# Stress axis : x y z
#
# Youngs Moduli (GPa) = 73.86348 67.26775 53.40092
#
# Poissons Ratio (x) = 0.32425 -0.28392
# Poissons Ratio (y) = 0.35604 0.22997
# Poissons Ratio (z) = -0.39271 0.28968
#
# Static dielectric constant tensor:
#      x y z
#    x 1.889340 0.090400 0.025060 
#    y 0.090400 2.019320 -0.016510 
#    z 0.025060 -0.016510 1.870850 
# 
# From -- ./inp_files/490312.got.cif
#   From: 2010.05.17/outbox.cif.g08.bks.cpg/sg2_246_cif.got.tgz:490312.got - 2010.06.03 11:33:40.
