data_PCOD9091423
_publ_section_title
;
Structure prediction by ZEFSAII (Michael W. Deem and Ramdas Pophale) SiO2 
 PCOD9091423
Probable space group: P -1
;
_chemical_formula_sum "Si O2"
_cell_formula_units_Z 16
_cell_length_a 7.841588
_cell_length_b 7.754855
_cell_length_c 25.282740
_cell_angle_alpha 40.242194
_cell_angle_beta 43.278845
_cell_angle_gamma 46.172743
_cell_volume 647.623167
_symmetry_space_group_name_H-M "P -1"
_symmetry_group_IT_number 2
_symmetry_cell_setting 'triclinic'
loop_
_space_group_symop_operation_xyz
x,y,z
-x,-y,-z
loop_
_atom_site_type_symbol
_atom_site_label
_atom_site_fract_x
_atom_site_fract_y
_atom_site_fract_z
Si Si1 0.434173 0.838440 0.620695
Si Si2 0.889963 0.031179 0.236912
Si Si3 0.949972 0.593606 0.620542
Si Si4 0.790056 0.997984 0.926681
Si Si5 0.365178 0.010994 0.308848
Si Si6 0.123623 0.706186 0.010188
Si Si7 0.534800 0.390237 0.445073
Si Si8 0.707844 0.594366 0.858685
O O1 0.749176 0.714527 0.589263
O O2 0.350964 0.723988 0.612153
O O3 0.278651 0.789487 0.718770
O O4 0.387648 0.171022 0.546924
O O5 0.665284 0.999781 0.254123
O O6 0.029189 0.727854 0.301610
O O7 0.102149 0.078708 0.138086
O O8 0.242840 0.613580 0.560543
O O9 0.800560 0.774141 0.661410
O O10 0.790375 0.312564 0.869742
O O11 0.948184 0.756405 0.986913
O O12 0.500000 0.000000 0.000000
O O13 0.358047 0.703624 0.397625
O O14 0.283841 0.138612 0.239510
O O15 0.414087 0.653982 0.933689
O O16 0.123485 0.485713 0.107631
O O17 0.000000 0.000000 0.000000
#
# Coordination Sequence:
#
# PCOD9091423 Si02
#       8
#     2   2   2   2   2   2   2   2
#     4  10  23  43  65  96 138 169 222 278 326 394
#     4  10  21  40  65  91 132 177 215 275 327 398
#     4  10  21  39  67  96 129 176 214 267 339 395
#     4  11  22  39  65  93 128 172 220 271 334 391
#     4  10  20  38  68  92 127 175 218 265 334 398
#     4   9  20  37  61  90 118 161 214 269 320 387
#     4  10  23  41  66 101 131 174 221 273 328 402
#     4  10  19  39  66  87 124 169 213 272 328 387
#
# _framework density 24.705724
#
# number of rings (size 3 to 8) (size 9 to 14) (size 15 to 20)
#    0.000    2.000    2.500    0.375    0.000    7.000 
#    0.000   12.500    2.750    0.000    0.000    0.000 
#    0.000    0.000    0.000    0.000    0.000    0.000 
#
# Total GULP energy -89428.738302 kJ/mol
# GULP energy per Si atom -5589.296144 kJ/mol
# Density = 2.464949 g / cm^3
# Si number density = 24.705724 Si / 1000 Ang^3
#
#
#
# Elastic Constant Matrix: (Units=GPa)
#
#
# Indices 1 2 3 4 5 6 
#
# 1 88.5446 51.5059 60.0678 -6.9548 18.2889 4.6371
# 2 51.5059 105.4935 28.1039 5.7272 15.4501 -3.6437
# 3 60.0678 28.1039 115.5665 6.6597 33.4074 -21.7650
# 4 -6.9548 5.7272 6.6597 42.6670 -9.0766 13.4041
# 5 18.2889 15.4501 33.4074 -9.0766 30.9473 2.3430
# 6 4.6371 -3.6437 -21.7650 13.4041 2.3430 43.0168
#
#
#
# Elastic Compliance Matrix: (Units=1/GPa)
#
#
# Indices 1 2 3 4 5 6 
#
# 1 0.056689 -0.026240 -0.050821 0.048179 0.052521 -0.051920
# 2 -0.026240 0.022867 0.023411 -0.025813 -0.030746 0.026329
# 3 -0.050821 0.023411 0.066043 -0.057312 -0.074510 0.062794
# 4 0.048179 -0.025813 -0.057312 0.080155 0.074744 -0.065425
# 5 0.052521 -0.030746 -0.074510 0.074744 0.124737 -0.076050
# 6 -0.051920 0.026329 0.062794 -0.065425 -0.076050 0.087374
#
#
# Mechanical properties :
#
#
# Convention : Reuss Voigt Hill
#
# Bulk Modulus (GPa) = 26.10946 65.43997 45.77472
# Shear Modulus (GPa) = 8.96171 34.65471 21.80821
#
# Velocity S-wave (km/s) = 1.90663 3.74933 2.97428
# Velocity P-wave (km/s) = 3.92914 6.72968 5.51029
#
# Compressibility (1/GPa) = 0.03830029
#
# Stress axis : x y z
#
# Youngs Moduli (GPa) = 17.64014 43.73091 15.14170
#
# Poissons Ratio (x) = 1.14748 0.76952
# Poissons Ratio (y) = 0.46287 -0.35449
# Poissons Ratio (z) = 0.89649 -1.02381
#
# Static dielectric constant tensor:
#      x y z
#    x 2.013610 0.007180 -0.059460 
#    y 0.007180 1.970870 -0.032840 
#    z -0.059460 -0.032840 2.013120 
# 
# From -- ./inp_files/47554.got.cif
#   From: 2010.05.17/outbox.cif.g08.bks.cpg/sg2_24_cif.got.tgz:47554.got - 2010.06.03 11:33:40.
