data_PCOD9091749
_publ_section_title
;
Structure prediction by ZEFSAII (Michael W. Deem and Ramdas Pophale) SiO2 
 PCOD9091749
Probable space group: P -1
;
_chemical_formula_sum "Si O2"
_cell_formula_units_Z 16
_cell_length_a 9.027060
_cell_length_b 8.683071
_cell_length_c 12.406654
_cell_angle_alpha 54.590973
_cell_angle_beta 116.682995
_cell_angle_gamma 100.813989
_cell_volume 704.662939
_symmetry_space_group_name_H-M "P -1"
_symmetry_group_IT_number 2
_symmetry_cell_setting 'triclinic'
loop_
_space_group_symop_operation_xyz
x,y,z
-x,-y,-z
loop_
_atom_site_type_symbol
_atom_site_label
_atom_site_fract_x
_atom_site_fract_y
_atom_site_fract_z
Si Si1 0.564969 0.338476 0.229418
Si Si2 0.435377 0.294651 0.579759
Si Si3 0.207126 0.287689 0.188009
Si Si4 0.312923 0.854681 0.441532
Si Si5 0.670612 0.138875 0.913056
Si Si6 0.551411 0.759804 0.997435
Si Si7 0.982437 0.379057 0.881064
Si Si8 0.895831 0.468091 0.584715
O O1 0.383319 0.374322 0.210832
O O2 0.673721 0.221998 0.401314
O O3 0.618625 0.542500 0.131702
O O4 0.529484 0.230679 0.151537
O O5 0.500000 0.500000 0.500000
O O6 0.507568 0.169611 0.552265
O O7 0.527603 0.212561 0.750306
O O8 0.238719 0.349475 0.508824
O O9 0.084822 0.417949 0.171183
O O10 0.236844 0.069753 0.319593
O O11 0.135053 0.303585 0.037049
O O12 0.204197 0.713673 0.399125
O O13 0.596326 0.186375 0.987152
O O14 0.836894 0.238012 0.905065
O O15 0.682954 0.912298 0.995447
O O16 0.001824 0.417338 0.746416
O O17 0.000000 0.500000 0.500000
#
# Coordination Sequence:
#
# PCOD9091749 Si02
#       8
#     2   2   2   2   2   2   2   2
#     4  11  22  42  64 101 140 169 232 300 344 417
#     4  10  19  39  73  98 134 177 235 287 344 405
#     4  11  25  43  71 103 134 193 233 292 362 418
#     4  11  23  45  73 104 134 188 243 288 351 427
#     4  11  20  43  65 100 134 186 240 282 340 426
#     4  10  23  36  65 101 131 176 226 291 354 396
#     4  11  24  46  69  96 150 185 234 293 356 425
#     4  11  25  45  70 106 143 187 226 297 356 419
#
# _framework density 22.70589
#
# number of rings (size 3 to 8) (size 9 to 14) (size 15 to 20)
#    0.000    1.250    3.750    3.375    0.000    4.500 
#    6.750    0.625    0.000    0.000    0.000    0.000 
#    0.000    0.000    0.000    0.000    0.000    0.000 
#
# Total GULP energy -89557.558628 kJ/mol
# GULP energy per Si atom -5597.347414 kJ/mol
# Density = 2.265421 g / cm^3
# Si number density = 22.705890 Si / 1000 Ang^3
#
#
#
# Elastic Constant Matrix: (Units=GPa)
#
#
# Indices 1 2 3 4 5 6 
#
# 1 62.5553 15.6123 29.4871 -0.4735 -7.7005 -8.9401
# 2 15.6123 114.1844 49.3590 -15.3033 -3.0204 -5.1022
# 3 29.4871 49.3590 179.0805 2.8635 -8.6181 -10.2680
# 4 -0.4735 -15.3033 2.8635 38.1794 -5.5883 -7.9748
# 5 -7.7005 -3.0204 -8.6181 -5.5883 32.9942 15.0402
# 6 -8.9401 -5.1022 -10.2680 -7.9748 15.0402 27.3193
#
#
#
# Elastic Compliance Matrix: (Units=1/GPa)
#
#
# Indices 1 2 3 4 5 6 
#
# 1 0.018211 -0.001070 -0.002394 0.001116 0.001805 0.004192
# 2 -0.001070 0.010867 -0.002781 0.004984 -0.000119 0.002155
# 3 -0.002394 -0.002781 0.006824 -0.001468 0.000455 0.000583
# 4 0.001116 0.004984 -0.001468 0.030367 0.001464 0.008803
# 5 0.001805 -0.000119 0.000455 0.001464 0.040790 -0.021290
# 6 0.004192 0.002155 0.000583 0.008803 -0.021290 0.052888
#
#
# Mechanical properties :
#
#
# Convention : Reuss Voigt Hill
#
# Bulk Modulus (GPa) = 42.71488 60.52633 51.62061
# Shear Modulus (GPa) = 27.74053 37.12272 32.43162
#
# Velocity S-wave (km/s) = 3.49912 4.04782 3.78343
# Velocity P-wave (km/s) = 5.93112 6.96857 6.47067
#
# Compressibility (1/GPa) = 0.02341104
#
# Stress axis : x y z
#
# Youngs Moduli (GPa) = 54.91090 92.01918 146.55043
#
# Poissons Ratio (x) = 0.09850 0.35088
# Poissons Ratio (y) = 0.05878 0.40755
# Poissons Ratio (z) = 0.13147 0.25590
#
# Static dielectric constant tensor:
#      x y z
#    x 1.886760 -0.020610 0.017950 
#    y -0.020610 1.847780 -0.005000 
#    z 0.017950 -0.005000 1.835070 
# 
# From -- ./inp_files/381456.got.cif
#   From: 2010.05.17/outbox.cif.g08.bks.cpg/sg2_191_cif.got.tgz:381456.got - 2010.06.03 11:33:40.
