data_PCOD9091223
_publ_section_title
;
Structure prediction by ZEFSAII (Michael W. Deem and Ramdas Pophale) SiO2 
 PCOD9091223
Probable space group: P -1
;
_chemical_formula_sum "Si O2"
_cell_formula_units_Z 16
_cell_length_a 12.721266
_cell_length_b 15.110570
_cell_length_c 8.780042
_cell_angle_alpha 104.533008
_cell_angle_beta 67.247907
_cell_angle_gamma 47.109771
_cell_volume 739.815453
_symmetry_space_group_name_H-M "P -1"
_symmetry_group_IT_number 2
_symmetry_cell_setting 'triclinic'
loop_
_space_group_symop_operation_xyz
x,y,z
-x,-y,-z
loop_
_atom_site_type_symbol
_atom_site_label
_atom_site_fract_x
_atom_site_fract_y
_atom_site_fract_z
Si Si1 0.093374 0.111108 0.740871
Si Si2 0.834350 0.520416 0.743539
Si Si3 0.585430 0.269149 0.513494
Si Si4 0.323005 0.553561 0.051979
Si Si5 0.728586 0.818032 0.445812
Si Si6 0.205852 0.506073 0.577840
Si Si7 0.259636 0.241007 0.908037
Si Si8 0.776599 0.305819 0.300828
O O1 0.181078 0.152368 0.675811
O O2 0.302864 0.894476 0.535488
O O3 0.908833 0.227885 0.760149
O O4 0.948358 0.196509 0.014479
O O5 0.807694 0.545013 0.588169
O O6 0.096392 0.330809 0.582895
O O7 0.722933 0.501633 0.842609
O O8 0.716950 0.685274 0.971198
O O9 0.415492 0.443793 0.795842
O O10 0.437905 0.339865 0.479185
O O11 0.790496 0.197485 0.324585
O O12 0.500000 0.500000 0.000000
O O13 0.731682 0.745004 0.272105
O O14 0.469491 0.024069 0.730562
O O15 0.181882 0.630359 0.601077
O O16 0.987005 0.630124 0.855411
O O17 0.500000 0.500000 0.500000
#
# Coordination Sequence:
#
# PCOD9091223 Si02
#       8
#     2   2   2   2   2   2   2   2
#     4  11  21  41  65  95 122 161 215 252 313 372
#     4  11  24  40  63  95 128 163 208 259 319 370
#     4  11  23  40  68  92 124 171 211 253 311 380
#     4  11  23  42  65  91 130 165 205 264 310 369
#     4  10  23  42  67  91 124 167 209 263 312 369
#     4  11  22  42  65  93 130 167 205 262 316 368
#     4  11  22  43  64  91 126 166 217 256 307 376
#     4  10  19  39  64  91 123 164 205 255 310 366
#
# _framework density 21.627015
#
# number of rings (size 3 to 8) (size 9 to 14) (size 15 to 20)
#    0.000    1.250    3.750    3.375    1.750    3.000 
#    2.250    0.000    0.000    0.000    0.000    0.000 
#    0.000    0.000    0.000    0.000    0.000    0.000 
#
# Total GULP energy -89379.544497 kJ/mol
# GULP energy per Si atom -5586.221531 kJ/mol
# Density = 2.157779 g / cm^3
# Si number density = 21.627015 Si / 1000 Ang^3
#
#
#
# Elastic Constant Matrix: (Units=GPa)
#
#
# Indices 1 2 3 4 5 6 
#
# 1 122.2977 49.2994 34.1429 8.6164 11.5376 -12.6950
# 2 49.2994 87.9506 38.8525 5.9955 13.4196 0.6520
# 3 34.1429 38.8525 61.7207 15.7654 0.5163 1.1692
# 4 8.6164 5.9955 15.7654 21.1760 7.7687 -9.2543
# 5 11.5376 13.4196 0.5163 7.7687 35.0550 -8.1938
# 6 -12.6950 0.6520 1.1692 -9.2543 -8.1938 31.6579
#
#
#
# Elastic Compliance Matrix: (Units=1/GPa)
#
#
# Indices 1 2 3 4 5 6 
#
# 1 0.011782 -0.004721 -0.004296 0.002582 -0.001319 0.005394
# 2 -0.004721 0.019869 -0.011579 0.006985 -0.007867 -0.001869
# 3 -0.004296 -0.011579 0.032614 -0.026129 0.009306 -0.007918
# 4 0.002582 0.006985 -0.026129 0.078461 -0.015681 0.020734
# 5 -0.001319 -0.007867 0.009306 -0.015681 0.036267 0.004092
# 6 0.005394 -0.001869 -0.007918 0.020734 0.004092 0.041202
#
#
# Mechanical properties :
#
#
# Convention : Reuss Voigt Hill
#
# Bulk Modulus (GPa) = 43.34245 57.39542 50.36893
# Shear Modulus (GPa) = 18.58196 27.55606 23.06901
#
# Velocity S-wave (km/s) = 2.93439 3.57340 3.26954
# Velocity P-wave (km/s) = 5.61830 6.60469 6.13136
#
# Compressibility (1/GPa) = 0.02307207
#
# Stress axis : x y z
#
# Youngs Moduli (GPa) = 84.87768 50.32881 30.66181
#
# Poissons Ratio (x) = 0.23760 0.13174
# Poissons Ratio (y) = 0.40070 0.35503
# Poissons Ratio (z) = 0.36467 0.58276
#
# Static dielectric constant tensor:
#      x y z
#    x 1.820740 0.032760 -0.014560 
#    y 0.032760 1.817220 -0.015170 
#    z -0.014560 -0.015170 1.808390 
# 
# From -- ./inp_files/273658.got.cif
#   From: 2010.05.17/outbox.cif.g08.bks.cpg/sg2_137_cif.got.tgz:273658.got - 2010.06.03 11:33:40.
