data_PCOD9091470
_publ_section_title
;
Structure prediction by ZEFSAII (Michael W. Deem and Ramdas Pophale) SiO2 
 PCOD9091470
Probable space group: P -1
;
_chemical_formula_sum "Si O2"
_cell_formula_units_Z 16
_cell_length_a 14.823606
_cell_length_b 12.167829
_cell_length_c 8.595105
_cell_angle_alpha 116.580604
_cell_angle_beta 119.768844
_cell_angle_gamma 114.346403
_cell_volume 693.565337
_symmetry_space_group_name_H-M "P -1"
_symmetry_group_IT_number 2
_symmetry_cell_setting 'triclinic'
loop_
_space_group_symop_operation_xyz
x,y,z
-x,-y,-z
loop_
_atom_site_type_symbol
_atom_site_label
_atom_site_fract_x
_atom_site_fract_y
_atom_site_fract_z
Si Si1 0.877745 0.489284 0.465802
Si Si2 0.881412 0.766952 0.698377
Si Si3 0.825958 0.408373 0.743094
Si Si4 0.758117 0.757312 0.269719
Si Si5 0.483760 0.571601 0.676315
Si Si6 0.525378 0.063283 0.831427
Si Si7 0.012643 0.214727 0.709360
Si Si8 0.699141 0.022460 0.142310
O O1 0.962740 0.709206 0.695883
O O2 0.819980 0.402141 0.543445
O O3 0.000000 0.500000 0.500000
O O4 0.691700 0.315389 0.092629
O O5 0.781397 0.713428 0.423459
O O6 0.721809 0.593303 0.574398
O O7 0.000000 0.000000 0.000000
O O8 0.651523 0.180305 0.537070
O O9 0.000000 0.500000 0.000000
O O10 0.868596 0.584260 0.954231
O O11 0.867478 0.773736 0.258246
O O12 0.854800 0.984089 0.511833
O O13 0.569575 0.596469 0.921712
O O14 0.500000 0.500000 0.500000
O O15 0.609629 0.807230 0.891967
O O16 0.417149 0.036673 0.850976
O O17 0.649046 0.068232 0.994044
O O18 0.902795 0.193190 0.478268
#
# Coordination Sequence:
#
# PCOD9091470 Si02
#       8
#     2   2   2   2   2   2   2   2
#     4  12  27  45  67 100 143 181 225 288 354 407
#     4  12  27  46  69 101 142 183 232 289 353 408
#     4  12  22  40  72  99 130 176 235 278 332 415
#     4  10  25  42  69  97 141 177 226 287 354 406
#     4  11  25  43  70 101 132 182 232 282 340 422
#     4  11  20  40  67  94 125 180 220 270 334 408
#     4  10  22  40  68 102 130 171 229 286 340 410
#     4  10  19  39  66  92 133 166 224 273 335 399
#
# _framework density 23.069205
#
# number of rings (size 3 to 8) (size 9 to 14) (size 15 to 20)
#    0.000    1.000    5.000    1.125   12.250    0.000 
#    0.000    0.625    0.000    0.000    0.000    0.000 
#    0.000    0.000    0.000    0.000    0.000    0.000 
#
# Total GULP energy -89183.917356 kJ/mol
# GULP energy per Si atom -5573.994835 kJ/mol
# Density = 2.301670 g / cm^3
# Si number density = 23.069205 Si / 1000 Ang^3
#
#
#
# Elastic Constant Matrix: (Units=GPa)
#
#
# Indices 1 2 3 4 5 6 
#
# 1 102.4201 14.3111 52.1804 19.5936 -15.6067 -19.3949
# 2 14.3111 44.5811 26.3439 -0.1283 -13.4597 -22.5582
# 3 52.1804 26.3439 150.3106 27.0704 -10.2887 -12.2099
# 4 19.5936 -0.1283 27.0704 24.5443 -7.2335 0.9040
# 5 -15.6067 -13.4597 -10.2887 -7.2335 50.5555 4.1131
# 6 -19.3949 -22.5582 -12.2099 0.9040 4.1131 35.5257
#
#
#
# Elastic Compliance Matrix: (Units=1/GPa)
#
#
# Indices 1 2 3 4 5 6 
#
# 1 0.014458 0.002067 -0.003197 -0.007523 0.002636 0.007993
# 2 0.002067 0.040191 -0.006652 0.007763 0.009216 0.023098
# 3 -0.003197 -0.006652 0.010325 -0.009338 -0.001832 -0.001971
# 4 -0.007523 0.007763 -0.009338 0.059233 0.006699 -0.004670
# 5 0.002636 0.009216 -0.001832 0.006699 0.023325 0.003790
# 6 0.007993 0.023098 -0.001971 -0.004670 0.003790 0.046182
#
#
# Mechanical properties :
#
#
# Convention : Reuss Voigt Hill
#
# Bulk Modulus (GPa) = 20.23944 53.66476 36.95210
# Shear Modulus (GPa) = 22.14860 35.75686 28.95273
#
# Velocity S-wave (km/s) = 3.10190 3.94125 3.54649
# Velocity P-wave (km/s) = 4.64989 6.63508 5.72912
#
# Compressibility (1/GPa) = 0.04940849
#
# Stress axis : x y z
#
# Youngs Moduli (GPa) = 69.16558 24.88125 96.85528
#
# Poissons Ratio (x) = -0.05142 0.30963
# Poissons Ratio (y) = -0.14293 0.64431
# Poissons Ratio (z) = 0.22111 0.16552
#
# Static dielectric constant tensor:
#      x y z
#    x 1.786080 -0.049300 -0.070650 
#    y -0.049300 1.987100 0.027350 
#    z -0.070650 0.027350 1.898110 
# 
# From -- ./inp_files/308380.got.cif
#   From: 2010.05.17/outbox.cif.g08.bks.cpg/sg2_155_cif.got.tgz:308380.got - 2010.06.03 11:33:40.
