data_PCOD9091380
_publ_section_title
;
Structure prediction by ZEFSAII (Michael W. Deem and Ramdas Pophale) SiO2 
 PCOD9091380
Probable space group: P -1
;
_chemical_formula_sum "Si O2"
_cell_formula_units_Z 14
_cell_length_a 12.780767
_cell_length_b 25.665771
_cell_length_c 5.953599
_cell_angle_alpha 49.856723
_cell_angle_beta 134.356077
_cell_angle_gamma 156.693334
_cell_volume 552.455317
_symmetry_space_group_name_H-M "P -1"
_symmetry_group_IT_number 2
_symmetry_cell_setting 'triclinic'
loop_
_space_group_symop_operation_xyz
x,y,z
-x,-y,-z
loop_
_atom_site_type_symbol
_atom_site_label
_atom_site_fract_x
_atom_site_fract_y
_atom_site_fract_z
Si Si1 0.546888 0.177655 0.279112
Si Si2 0.597771 0.095367 0.206816
Si Si3 0.628038 0.780106 0.641288
Si Si4 0.471721 0.398320 0.084437
Si Si5 0.148559 0.983463 0.537686
Si Si6 0.303728 0.625028 0.215797
Si Si7 0.035302 0.307941 0.949168
O O1 0.634760 0.178892 0.174299
O O2 0.243053 0.021543 0.314954
O O3 0.780923 0.248330 0.615342
O O4 0.541270 0.256904 0.034283
O O5 0.500000 0.000000 0.500000
O O6 0.344279 0.008409 0.894381
O O7 0.881890 0.198546 0.203856
O O8 0.606521 0.694951 0.942401
O O9 0.743938 0.896286 0.585342
O O10 0.323263 0.666241 0.381234
O O11 0.843674 0.854685 0.544331
O O12 0.584136 0.405121 0.464262
O O13 0.728512 0.549372 0.981463
O O14 0.200992 0.333190 0.934023
O O15 0.000000 0.500000 0.000000
#
# Coordination Sequence:
#
# PCOD9091380 Si02
#       7
#     2   2   2   2   2   2   2
#     4  11  22  41  64  90 127 163 212 260 310 376
#     4  11  25  39  62  93 125 167 215 253 313 382
#     4   9  20  40  62  91 129 158 210 261 315 368
#     4   9  20  40  66  88 128 165 204 261 317 367
#     4  10  22  41  62  93 127 169 203 263 317 371
#     4  10  19  39  65  95 118 162 211 259 308 376
#     4  10  22  42  63  90 127 168 206 259 318 373
#
# _framework density 25.341418000000001
#
# number of rings (size 3 to 8) (size 9 to 14) (size 15 to 20)
#    0.857    1.143    2.857    0.000    4.000    1.714 
#    7.714    5.714    0.000    0.000    0.000    0.000 
#    0.000    0.000    0.000    0.000    0.000    0.000 
#
# Total GULP energy -78054.279908 kJ/mol
# GULP energy per Si atom -5575.305708 kJ/mol
# Density = 2.528374 g / cm^3
# Si number density = 25.341418 Si / 1000 Ang^3
#
#
#
# Elastic Constant Matrix: (Units=GPa)
#
#
# Indices 1 2 3 4 5 6 
#
# 1 57.2014 16.3900 -4.4627 -3.6784 12.0024 -3.4431
# 2 16.3900 103.9755 25.8267 -25.1500 7.3559 -1.4965
# 3 -4.4627 25.8267 78.4399 -22.2577 21.6761 19.0325
# 4 -3.6784 -25.1500 -22.2577 40.5715 -3.1293 4.9308
# 5 12.0024 7.3559 21.6761 -3.1293 30.1629 -3.5192
# 6 -3.4431 -1.4965 19.0325 4.9308 -3.5192 40.6198
#
#
#
# Elastic Compliance Matrix: (Units=1/GPa)
#
#
# Indices 1 2 3 4 5 6 
#
# 1 0.022121 -0.003739 0.008276 0.003616 -0.013905 -0.003784
# 2 -0.003739 0.012264 -0.003550 0.005292 0.001750 0.001307
# 3 0.008276 -0.003550 0.029396 0.014903 -0.024001 -0.017091
# 4 0.003616 0.005292 0.014903 0.037034 -0.010989 -0.011929
# 5 -0.013905 0.001750 -0.024001 -0.010989 0.056274 0.016341
# 6 -0.003784 0.001307 -0.017091 -0.011929 0.016341 0.035218
#
#
# Mechanical properties :
#
#
# Convention : Reuss Voigt Hill
#
# Bulk Modulus (GPa) = 15.20763 35.01388 25.11075
# Shear Modulus (GPa) = 23.55695 35.72836 29.64265
#
# Velocity S-wave (km/s) = 3.05221 3.75891 3.42384
# Velocity P-wave (km/s) = 4.29365 5.71717 5.05577
#
# Compressibility (1/GPa) = 0.06575648
#
# Stress axis : x y z
#
# Youngs Moduli (GPa) = 45.20506 81.54048 34.01774
#
# Poissons Ratio (x) = 0.30488 -0.28154
# Poissons Ratio (y) = 0.16902 0.12075
# Poissons Ratio (z) = -0.37412 0.28944
#
# Static dielectric constant tensor:
#      x y z
#    x 2.105890 -0.021280 -0.039850 
#    y -0.021280 1.996300 0.006540 
#    z -0.039850 0.006540 2.069050 
# 
# From -- ./inp_files/101746.got.cif
#   From: 2010.05.17/outbox.cif.g08.bks.cpg/sg2_51_cif.got.tgz:101746.got - 2010.06.03 11:33:40.
