data_PCOD9091492
_publ_section_title
;
Structure prediction by ZEFSAII (Michael W. Deem and Ramdas Pophale) SiO2 
 PCOD9091492
Probable space group: P -1
;
_chemical_formula_sum "Si O2"
_cell_formula_units_Z 16
_cell_length_a 25.921870
_cell_length_b 6.616367
_cell_length_c 5.253640
_cell_angle_alpha 97.329523
_cell_angle_beta 88.905893
_cell_angle_gamma 127.289511
_cell_volume 709.063066
_symmetry_space_group_name_H-M "P -1"
_symmetry_group_IT_number 2
_symmetry_cell_setting 'triclinic'
loop_
_space_group_symop_operation_xyz
x,y,z
-x,-y,-z
loop_
_atom_site_type_symbol
_atom_site_label
_atom_site_fract_x
_atom_site_fract_y
_atom_site_fract_z
Si Si1 0.998977 0.355862 0.726496
Si Si2 0.514255 0.353857 0.659951
Si Si3 0.726129 0.215364 0.157005
Si Si4 0.356702 0.381018 0.041702
Si Si5 0.858836 0.315565 0.234757
Si Si6 0.724175 0.473803 0.680401
Si Si7 0.439205 0.857216 0.784608
Si Si8 0.143252 0.977212 0.311707
O O1 0.927693 0.084974 0.687867
O O2 0.000000 0.500000 0.500000
O O3 0.068643 0.412777 0.726500
O O4 0.000000 0.500000 0.000000
O O5 0.500000 0.500000 0.500000
O O6 0.544094 0.245062 0.469719
O O7 0.446621 0.107272 0.738126
O O8 0.573269 0.542873 0.873068
O O9 0.801180 0.337749 0.223249
O O10 0.702669 0.290736 0.411247
O O11 0.688228 0.909821 0.092678
O O12 0.720935 0.326269 0.910305
O O13 0.377937 0.607604 0.879020
O O14 0.317971 0.421597 0.260122
O O15 0.850952 0.153836 0.460307
O O16 0.854130 0.159586 0.961163
O O17 0.797449 0.725541 0.664757
O O18 0.500000 0.000000 0.000000
#
# Coordination Sequence:
#
# PCOD9091492 Si02
#       8
#     2   2   2   2   2   2   2   2
#     4   8  16  30  60  97 122 181 231 280 353 411
#     4  10  23  45  76 103 134 171 224 279 347 403
#     4  12  28  44  70 104 139 190 238 287 347 412
#     4  11  27  47  70  98 145 180 227 283 347 416
#     4  10  19  39  66  94 138 178 238 289 346 414
#     4  12  28  45  68 103 142 186 238 286 349 418
#     4   9  22  44  68 100 134 172 213 273 341 404
#     4  10  19  39  67  92 141 182 228 294 352 403
#
# _framework density 22.564990000000002
#
# number of rings (size 3 to 8) (size 9 to 14) (size 15 to 20)
#    0.000    1.750    1.250    1.500    3.500    6.000 
#    0.000    1.250    0.000    0.000    0.000    0.000 
#    0.000    0.000    0.000    0.000    0.000    0.000 
#
# Total GULP energy -89364.259447 kJ/mol
# GULP energy per Si atom -5585.266215 kJ/mol
# Density = 2.251363 g / cm^3
# Si number density = 22.564990 Si / 1000 Ang^3
#
#
#
# Elastic Constant Matrix: (Units=GPa)
#
#
# Indices 1 2 3 4 5 6 
#
# 1 102.7263 68.1448 28.7942 12.4030 10.7662 12.5306
# 2 68.1448 142.9085 44.5296 -8.4232 -2.4554 14.7333
# 3 28.7942 44.5296 142.9011 -5.3071 -5.2817 -6.7466
# 4 12.4030 -8.4232 -5.3071 35.7352 -9.9193 0.4117
# 5 10.7662 -2.4554 -5.2817 -9.9193 37.7644 -2.2075
# 6 12.5306 14.7333 -6.7466 0.4117 -2.2075 34.0293
#
#
#
# Elastic Compliance Matrix: (Units=1/GPa)
#
#
# Indices 1 2 3 4 5 6 
#
# 1 0.019149 -0.008922 -0.002061 -0.011683 -0.009635 -0.004080
# 2 -0.008922 0.012544 -0.001772 0.007166 0.004861 -0.002268
# 3 -0.002061 -0.001772 0.008289 0.002154 0.002390 0.003299
# 4 -0.011683 0.007166 0.002154 0.037962 0.014191 0.002088
# 5 -0.009635 0.004861 0.002390 0.014191 0.033835 0.003940
# 6 -0.004080 -0.002268 0.003299 0.002088 0.003940 0.032755
#
#
# Mechanical properties :
#
#
# Convention : Reuss Voigt Hill
#
# Bulk Modulus (GPa) = 69.10122 74.60812 71.85467
# Shear Modulus (GPa) = 28.59264 37.97694 33.28479
#
# Velocity S-wave (km/s) = 3.56353 4.10689 3.84482
# Velocity P-wave (km/s) = 6.90082 7.45816 7.18490
#
# Compressibility (1/GPa) = 0.01447152
#
# Stress axis : x y z
#
# Youngs Moduli (GPa) = 52.22177 79.71910 120.63536
#
# Poissons Ratio (x) = 0.71129 0.24860
# Poissons Ratio (y) = 0.46594 0.21381
# Poissons Ratio (z) = 0.10762 0.14129
#
# Static dielectric constant tensor:
#      x y z
#    x 1.930260 0.060630 0.008650 
#    y 0.060630 1.816780 -0.013320 
#    z 0.008650 -0.013320 1.852360 
# 
# From -- ./inp_files/125875.got.cif
#   From: 2010.05.17/outbox.cif.g08.bks.cpg/sg2_63_cif.got.tgz:125875.got - 2010.06.03 11:33:40.
