data_PCOD9091276
_publ_section_title
;
Structure prediction by ZEFSAII (Michael W. Deem and Ramdas Pophale) SiO2 
 PCOD9091276
Probable space group: P -1
;
_chemical_formula_sum "Si O2"
_cell_formula_units_Z 14
_cell_length_a 9.323659
_cell_length_b 9.321873
_cell_length_c 13.550144
_cell_angle_alpha 104.159116
_cell_angle_beta 43.728779
_cell_angle_gamma 131.301824
_cell_volume 546.947789
_symmetry_space_group_name_H-M "P -1"
_symmetry_group_IT_number 2
_symmetry_cell_setting 'triclinic'
loop_
_space_group_symop_operation_xyz
x,y,z
-x,-y,-z
loop_
_atom_site_type_symbol
_atom_site_label
_atom_site_fract_x
_atom_site_fract_y
_atom_site_fract_z
Si Si1 0.604242 0.334392 0.384572
Si Si2 0.749209 0.072202 0.214025
Si Si3 0.689353 0.420961 0.150171
Si Si4 0.287121 0.620017 0.444635
Si Si5 0.590101 0.507665 0.815003
Si Si6 0.096906 0.048650 0.288985
Si Si7 0.282985 0.110804 0.998564
O O1 0.686047 0.476148 0.273787
O O2 0.751518 0.447527 0.435559
O O3 0.718484 0.228930 0.279753
O O4 0.243297 0.156669 0.548965
O O5 0.490382 0.868431 0.377533
O O6 0.688907 0.002070 0.116018
O O7 0.020864 0.095782 0.102636
O O8 0.676301 0.512153 0.071440
O O9 0.362461 0.170982 0.258788
O O10 0.000000 0.500000 0.000000
O O11 0.443158 0.580050 0.291193
O O12 0.000000 0.500000 0.500000
O O13 0.875443 0.760328 0.720203
O O14 0.562897 0.367070 0.885123
O O15 0.215203 0.026865 0.128569
#
# Coordination Sequence:
#
# PCOD9091276 Si02
#       7
#     2   2   2   2   2   2   2
#     4  12  23  41  66  90 135 165 208 266 311 375
#     4  10  22  36  63  92 129 160 210 255 326 368
#     4  10  24  42  63  91 125 176 216 245 316 386
#     4  11  23  38  62  98 123 161 211 261 321 369
#     4   9  22  38  64  90 132 158 214 252 313 376
#     4  10  22  40  67  95 122 166 211 262 317 362
#     4  10  19  39  64  96 124 166 205 269 310 374
#
# _framework density 25.596592999999999
#
# number of rings (size 3 to 8) (size 9 to 14) (size 15 to 20)
#    0.857    0.857    1.429    3.000    2.000    2.857 
#    0.000    0.714    0.000    0.000    0.000    0.000 
#    0.000    0.000    0.000    0.000    0.000    0.000 
#
# Total GULP energy -78044.063637 kJ/mol
# GULP energy per Si atom -5574.575974 kJ/mol
# Density = 2.553833 g / cm^3
# Si number density = 25.596593 Si / 1000 Ang^3
#
#
#
# Elastic Constant Matrix: (Units=GPa)
#
#
# Indices 1 2 3 4 5 6 
#
# 1 79.9031 17.5885 47.3666 13.9742 9.9121 31.3077
# 2 17.5885 53.4317 16.4666 11.3209 4.0938 10.2415
# 3 47.3666 16.4666 128.1466 14.0244 22.3049 22.6072
# 4 13.9742 11.3209 14.0244 38.5489 12.2912 0.0399
# 5 9.9121 4.0938 22.3049 12.2912 52.5622 8.5901
# 6 31.3077 10.2415 22.6072 0.0399 8.5901 33.1833
#
#
#
# Elastic Compliance Matrix: (Units=1/GPa)
#
#
# Indices 1 2 3 4 5 6 
#
# 1 0.024655 -0.001317 -0.005032 -0.007540 0.002637 -0.020101
# 2 -0.001317 0.021569 -0.000953 -0.005880 0.001175 -0.005062
# 3 -0.005032 -0.000953 0.010660 -0.000790 -0.003083 -0.001422
# 4 -0.007540 -0.005880 -0.000790 0.033023 -0.007359 0.011332
# 5 0.002637 0.001175 -0.003083 -0.007359 0.022540 -0.006576
# 6 -0.020101 -0.005062 -0.001422 0.011332 -0.006576 0.053320
#
#
# Mechanical properties :
#
#
# Convention : Reuss Voigt Hill
#
# Bulk Modulus (GPa) = 23.65122 47.14720 35.39921
# Shear Modulus (GPa) = 25.71173 36.86287 31.28730
#
# Velocity S-wave (km/s) = 3.17282 3.79904 3.49997
# Velocity P-wave (km/s) = 4.76261 6.14027 5.49479
#
# Compressibility (1/GPa) = 0.04228112
#
# Stress axis : x y z
#
# Youngs Moduli (GPa) = 40.55902 46.36359 93.81045
#
# Poissons Ratio (x) = 0.06106 0.47203
# Poissons Ratio (y) = 0.05341 0.08938
# Poissons Ratio (z) = 0.20408 0.04417
#
# Static dielectric constant tensor:
#      x y z
#    x 2.191940 -0.075180 -0.086860 
#    y -0.075180 2.165500 0.000250 
#    z -0.086860 0.000250 2.163670 
# 
# From -- ./inp_files/390352.got.cif
#   From: 2010.05.17/outbox.cif.g08.bks.cpg/sg2_196_cif.got.tgz:390352.got - 2010.06.03 11:33:40.
