data_PCOD9091446
_publ_section_title
;
Structure prediction by ZEFSAII (Michael W. Deem and Ramdas Pophale) SiO2 
 PCOD9091446
Probable space group: P -1
;
_chemical_formula_sum "Si O2"
_cell_formula_units_Z 16
_cell_length_a 9.588915
_cell_length_b 15.427272
_cell_length_c 18.653986
_cell_angle_alpha 150.007462
_cell_angle_beta 144.557999
_cell_angle_gamma 35.311657
_cell_volume 739.606054
_symmetry_space_group_name_H-M "P -1"
_symmetry_group_IT_number 2
_symmetry_cell_setting 'triclinic'
loop_
_space_group_symop_operation_xyz
x,y,z
-x,-y,-z
loop_
_atom_site_type_symbol
_atom_site_label
_atom_site_fract_x
_atom_site_fract_y
_atom_site_fract_z
Si Si1 0.543110 0.305576 0.453147
Si Si2 0.042316 0.361960 0.680969
Si Si3 0.270972 0.230158 0.150441
Si Si4 0.305509 0.385954 0.032710
Si Si5 0.899533 0.021946 0.821190
Si Si6 0.401368 0.071559 0.737811
Si Si7 0.360119 0.690531 0.737070
Si Si8 0.471617 0.614251 0.145513
O O1 0.347799 0.273740 0.292441
O O2 0.417112 0.494894 0.580765
O O3 0.790493 0.319429 0.525074
O O4 0.637262 0.122165 0.410314
O O5 0.205454 0.208997 0.697139
O O6 0.248708 0.370617 0.715385
O O7 0.928358 0.567780 0.816810
O O8 0.521339 0.186937 0.174628
O O9 0.123775 0.090695 0.991363
O O10 0.476634 0.355452 0.153909
O O11 0.400527 0.500966 0.096568
O O12 0.351174 0.185051 0.872325
O O13 0.000000 0.500000 0.000000
O O14 0.690450 0.032325 0.801642
O O15 0.740100 0.176843 0.806413
O O16 0.057748 0.813093 0.710572
O O17 0.500000 0.500000 0.000000
#
# Coordination Sequence:
#
# PCOD9091446 Si02
#       8
#     2   2   2   2   2   2   2   2
#     4  11  25  42  64  90 134 183 213 255 329 401
#     4  10  19  39  66  90 122 163 225 254 312 394
#     4  11  21  42  67  91 127 176 218 265 329 390
#     4  12  23  40  70 103 132 161 222 281 323 375
#     4  11  22  41  69  96 130 164 227 272 320 384
#     4  11  23  42  66  95 127 177 214 265 331 389
#     4  11  25  40  60  99 135 166 218 277 321 375
#     4  11  20  42  70  99 123 171 216 271 327 385
#
# _framework density 21.633139
#
# number of rings (size 3 to 8) (size 9 to 14) (size 15 to 20)
#    0.000    1.000    3.750    5.250    0.000    4.500 
#    0.000    2.500    0.000    8.250    0.000    0.000 
#    0.000    0.000    0.000    0.000    0.000    0.000 
#
# Total GULP energy -89477.606812 kJ/mol
# GULP energy per Si atom -5592.350426 kJ/mol
# Density = 2.158390 g / cm^3
# Si number density = 21.633139 Si / 1000 Ang^3
#
#
#
# Elastic Constant Matrix: (Units=GPa)
#
#
# Indices 1 2 3 4 5 6 
#
# 1 75.0348 27.1651 31.0020 7.6081 1.5044 -16.5635
# 2 27.1651 96.1881 26.0054 17.1154 -12.4847 -24.0432
# 3 31.0020 26.0054 85.6132 12.4476 7.9382 -12.6421
# 4 7.6081 17.1154 12.4476 27.9712 5.0125 1.9152
# 5 1.5044 -12.4847 7.9382 5.0125 28.8786 1.5777
# 6 -16.5635 -24.0432 -12.6421 1.9152 1.5777 41.6049
#
#
#
# Elastic Compliance Matrix: (Units=1/GPa)
#
#
# Indices 1 2 3 4 5 6 
#
# 1 0.017168 -0.002430 -0.004622 -0.001286 -0.000676 0.004111
# 2 -0.002430 0.016977 -0.002348 -0.010962 0.009562 0.008272
# 3 -0.004622 -0.002348 0.015237 -0.003406 -0.004467 0.001759
# 4 -0.001286 -0.010962 -0.003406 0.047020 -0.011372 -0.009615
# 5 -0.000676 0.009562 -0.004467 -0.011372 0.041844 0.002836
# 6 0.004111 0.008272 0.001759 -0.009615 0.002836 0.031322
#
#
# Mechanical properties :
#
#
# Convention : Reuss Voigt Hill
#
# Bulk Modulus (GPa) = 32.70035 47.24235 39.97135
# Shear Modulus (GPa) = 25.18108 31.20184 28.19146
#
# Velocity S-wave (km/s) = 3.41545 3.80190 3.61385
# Velocity P-wave (km/s) = 5.54098 6.41545 5.99418
#
# Compressibility (1/GPa) = 0.03058071
#
# Stress axis : x y z
#
# Youngs Moduli (GPa) = 58.24777 58.90422 65.63133
#
# Poissons Ratio (x) = 0.14315 0.30334
# Poissons Ratio (y) = 0.14156 0.15411
# Poissons Ratio (z) = 0.26922 0.13831
#
# Static dielectric constant tensor:
#      x y z
#    x 1.788240 -0.006010 0.005990 
#    y -0.006010 1.830020 -0.003380 
#    z 0.005990 -0.003380 1.786230 
# 
# From -- ./inp_files/561447.got.cif
#   From: 2010.05.17/outbox.cif.g08.bks.cpg/sg2_281_cif.got.tgz:561447.got - 2010.06.03 11:33:40.
