data_PCOD9091621
_publ_section_title
;
Structure prediction by ZEFSAII (Michael W. Deem and Ramdas Pophale) SiO2 
 PCOD9091621
Probable space group: P -1
;
_chemical_formula_sum "Si O2"
_cell_formula_units_Z 14
_cell_length_a 10.379051
_cell_length_b 8.321497
_cell_length_c 12.162022
_cell_angle_alpha 103.524565
_cell_angle_beta 63.560520
_cell_angle_gamma 62.460880
_cell_volume 694.393275
_symmetry_space_group_name_H-M "P -1"
_symmetry_group_IT_number 2
_symmetry_cell_setting 'triclinic'
loop_
_space_group_symop_operation_xyz
x,y,z
-x,-y,-z
loop_
_atom_site_type_symbol
_atom_site_label
_atom_site_fract_x
_atom_site_fract_y
_atom_site_fract_z
Si Si1 0.384646 0.426708 0.574251
Si Si2 0.906832 0.597809 0.432975
Si Si3 0.214274 0.803704 0.856453
Si Si4 0.093930 0.474288 0.116888
Si Si5 0.420908 0.482869 0.916838
Si Si6 0.252277 0.130336 0.825086
Si Si7 0.398477 0.906773 0.371452
O O1 0.500000 0.500000 0.500000
O O2 0.254494 0.418279 0.539777
O O3 0.241089 0.615876 0.747944
O O4 0.528096 0.206626 0.555262
O O5 0.000000 0.500000 0.500000
O O6 0.064538 0.475530 0.257459
O O7 0.802303 0.853795 0.510819
O O8 0.336886 0.684107 0.899937
O O9 0.277923 0.915960 0.781974
O O10 0.000000 0.000000 0.000000
O O11 0.893384 0.690009 0.180870
O O12 0.249816 0.489563 0.019153
O O13 0.157804 0.260000 0.996437
O O14 0.573279 0.265500 0.752125
O O15 0.500000 0.500000 0.000000
O O16 0.450360 0.071485 0.723957
#
# Coordination Sequence:
#
# PCOD9091621 Si02
#       7
#     2   2   2   2   2   2   2
#     4  11  24  40  63  92 124 167 217 259 310 378
#     4  12  26  43  63  95 133 170 213 261 326 386
#     4  11  21  35  62  95 118 155 215 266 302 365
#     4  10  21  39  65  91 124 165 210 262 310 375
#     4  10  23  41  61  94 132 163 204 266 327 371
#     4  10  19  39  68  93 116 161 223 259 304 367
#     4  10  23  42  65  88 124 175 211 257 315 387
#
# _framework density 20.161484999999999
#
# number of rings (size 3 to 8) (size 9 to 14) (size 15 to 20)
#    0.000    1.429    2.857    2.143    2.000    5.714 
#    0.000    4.286    0.000    0.000    0.000    0.000 
#    0.000    0.000    0.000    0.000    0.000    0.000 
#
# Total GULP energy -78238.112954 kJ/mol
# GULP energy per Si atom -5588.436640 kJ/mol
# Density = 2.011560 g / cm^3
# Si number density = 20.161485 Si / 1000 Ang^3
#
#
#
# Elastic Constant Matrix: (Units=GPa)
#
#
# Indices 1 2 3 4 5 6 
#
# 1 52.3633 28.4097 9.4964 2.5204 25.7000 -10.6854
# 2 28.4097 116.7716 43.1617 5.4745 23.8297 -6.3609
# 3 9.4964 43.1617 85.2426 -7.0757 16.2790 -16.3609
# 4 2.5204 5.4745 -7.0757 37.1263 1.2481 0.7980
# 5 25.7000 23.8297 16.2790 1.2481 31.9637 -14.5964
# 6 -10.6854 -6.3609 -16.3609 0.7980 -14.5964 31.4245
#
#
#
# Elastic Compliance Matrix: (Units=1/GPa)
#
#
# Indices 1 2 3 4 5 6 
#
# 1 0.033111 -0.004128 0.003253 -0.000192 -0.024951 0.000532
# 2 -0.004128 0.012684 -0.006041 -0.002488 -0.004873 -0.004182
# 3 0.003253 -0.006041 0.016756 0.003842 -0.003692 0.006794
# 4 -0.000192 -0.002488 0.003842 0.028071 -0.000908 0.000297
# 5 -0.024951 -0.004873 -0.003692 -0.000908 0.065623 0.019111
# 6 0.000532 -0.004182 0.006794 0.000297 0.019111 0.043564
#
#
# Mechanical properties :
#
#
# Convention : Reuss Voigt Hill
#
# Bulk Modulus (GPa) = 20.52642 46.27923 33.40282
# Shear Modulus (GPa) = 21.75031 31.65689 26.70360
#
# Velocity S-wave (km/s) = 3.28808 3.96683 3.64330
# Velocity P-wave (km/s) = 4.96169 6.63213 5.85677
#
# Compressibility (1/GPa) = 0.04871771
#
# Stress axis : x y z
#
# Youngs Moduli (GPa) = 30.20151 78.83738 59.68066
#
# Poissons Ratio (x) = 0.32546 -0.19412
# Poissons Ratio (y) = 0.12468 0.36054
# Poissons Ratio (z) = -0.09824 0.47627
#
# Static dielectric constant tensor:
#      x y z
#    x 1.719990 0.038800 -0.026740 
#    y 0.038800 1.687950 -0.031010 
#    z -0.026740 -0.031010 1.841010 
# 
# From -- ./inp_files/150965.got.cif
#   From: 2010.05.17/outbox.cif.g08.bks.cpg/sg2_76_cif.got.tgz:150965.got - 2010.06.03 11:33:40.
