data_PCOD9091288
_publ_section_title
;
Structure prediction by ZEFSAII (Michael W. Deem and Ramdas Pophale) SiO2 
 PCOD9091288
Probable space group: P -1
;
_chemical_formula_sum "Si O2"
_cell_formula_units_Z 14
_cell_length_a 12.861352
_cell_length_b 11.162870
_cell_length_c 9.641681
_cell_angle_alpha 61.522611
_cell_angle_beta 33.126599
_cell_angle_gamma 55.968690
_cell_volume 626.819066
_symmetry_space_group_name_H-M "P -1"
_symmetry_group_IT_number 2
_symmetry_cell_setting 'triclinic'
loop_
_space_group_symop_operation_xyz
x,y,z
-x,-y,-z
loop_
_atom_site_type_symbol
_atom_site_label
_atom_site_fract_x
_atom_site_fract_y
_atom_site_fract_z
Si Si1 0.796102 0.067651 0.969543
Si Si2 0.181020 0.107713 0.492118
Si Si3 0.654814 0.088893 0.806821
Si Si4 0.433415 0.848042 0.546200
Si Si5 0.293918 0.587389 0.763943
Si Si6 0.283486 0.322949 0.063233
Si Si7 0.117744 0.259304 0.995563
O O1 0.701964 0.110225 0.899602
O O2 0.961814 0.141348 0.784328
O O3 0.627316 0.102913 0.256676
O O4 0.899738 0.895484 0.936841
O O5 0.230291 0.247099 0.302196
O O6 0.163156 0.011674 0.430203
O O7 0.347275 0.990701 0.465421
O O8 0.522898 0.243302 0.811181
O O9 0.500000 0.000000 0.000000
O O10 0.319166 0.736394 0.698345
O O11 0.669587 0.759256 0.307932
O O12 0.500000 0.500000 0.500000
O O13 0.257676 0.489998 0.985094
O O14 0.090449 0.622110 0.881439
O O15 0.163958 0.280292 0.093355
#
# Coordination Sequence:
#
# PCOD9091288 Si02
#       7
#     2   2   2   2   2   2   2
#     4  12  24  41  71 109 140 176 232 292 347 405
#     4  11  21  41  71 101 137 181 233 286 340 399
#     4  10  19  39  64  98 135 174 227 282 332 395
#     4  12  26  46  70 105 141 182 230 287 349 409
#     4  12  26  46  70 102 141 185 234 278 341 428
#     4  11  23  41  68 101 135 178 234 287 334 402
#     4  12  23  43  73 102 136 180 229 291 344 399
#
# _framework density 22.334993999999998
#
# number of rings (size 3 to 8) (size 9 to 14) (size 15 to 20)
#    0.000    0.571    7.143    2.571    0.000    0.000 
#    0.000    1.429    0.000    0.000    0.000    0.000 
#    0.000    0.000    0.000    0.000    0.000    0.000 
#
# Total GULP energy -78122.741968 kJ/mol
# GULP energy per Si atom -5580.195855 kJ/mol
# Density = 2.228416 g / cm^3
# Si number density = 22.334994 Si / 1000 Ang^3
#
#
#
# Elastic Constant Matrix: (Units=GPa)
#
#
# Indices 1 2 3 4 5 6 
#
# 1 93.8817 47.8533 41.5601 2.8876 -4.3556 -22.6657
# 2 47.8533 79.4434 38.7639 -25.6905 -4.7441 -23.0748
# 3 41.5601 38.7639 128.8307 -10.5519 -13.2357 -8.9281
# 4 2.8876 -25.6905 -10.5519 35.8720 -0.8466 -6.3119
# 5 -4.3556 -4.7441 -13.2357 -0.8466 34.3763 3.6891
# 6 -22.6657 -23.0748 -8.9281 -6.3119 3.6891 37.2026
#
#
#
# Elastic Compliance Matrix: (Units=1/GPa)
#
#
# Indices 1 2 3 4 5 6 
#
# 1 0.019947 -0.014713 -0.003178 -0.013076 -0.001065 0.000152
# 2 -0.014713 0.038911 -0.002888 0.031702 0.001055 0.019752
# 3 -0.003178 -0.002888 0.009959 0.000929 0.003217 -0.001499
# 4 -0.013076 0.031702 0.000929 0.055680 0.002178 0.021150
# 5 -0.001065 0.001055 0.003217 0.002178 0.030595 -0.001887
# 6 0.000152 0.019752 -0.001499 0.021150 -0.001887 0.042639
#
#
# Mechanical properties :
#
#
# Convention : Reuss Voigt Hill
#
# Bulk Modulus (GPa) = 36.68355 62.05671 49.37013
# Shear Modulus (GPa) = 20.13087 33.08874 26.60981
#
# Velocity S-wave (km/s) = 3.00545 3.85317 3.45540
# Velocity P-wave (km/s) = 5.33887 6.90223 6.17026
#
# Compressibility (1/GPa) = 0.02726017
#
# Stress axis : x y z
#
# Youngs Moduli (GPa) = 50.13214 25.69979 100.41191
#
# Poissons Ratio (x) = 0.37811 0.31909
# Poissons Ratio (y) = 0.73758 0.28998
# Poissons Ratio (z) = 0.15931 0.07422
#
# Static dielectric constant tensor:
#      x y z
#    x 1.854100 -0.014140 -0.017700 
#    y -0.014140 1.858530 0.019050 
#    z -0.017700 0.019050 1.985200 
# 
# From -- ./inp_files/256553.got.cif
#   From: 2010.05.17/outbox.cif.g08.bks.cpg/sg2_129_cif.got.tgz:256553.got - 2010.06.03 11:33:40.
