data_PCOD9091131
_publ_section_title
;
Structure prediction by ZEFSAII (Michael W. Deem and Ramdas Pophale) SiO2 
 PCOD9091131
Probable space group: P -1
;
_chemical_formula_sum "Si O2"
_cell_formula_units_Z 16
_cell_length_a 8.115040
_cell_length_b 12.596983
_cell_length_c 12.060177
_cell_angle_alpha 54.205575
_cell_angle_beta 54.760971
_cell_angle_gamma 92.843914
_cell_volume 662.824872
_symmetry_space_group_name_H-M "P -1"
_symmetry_group_IT_number 2
_symmetry_cell_setting 'triclinic'
loop_
_space_group_symop_operation_xyz
x,y,z
-x,-y,-z
loop_
_atom_site_type_symbol
_atom_site_label
_atom_site_fract_x
_atom_site_fract_y
_atom_site_fract_z
Si Si1 0.956665 0.632040 0.910116
Si Si2 0.441010 0.924060 0.446765
Si Si3 0.354436 0.263700 0.609937
Si Si4 0.686777 0.635909 0.201847
Si Si5 0.851691 0.045537 0.634924
Si Si6 0.929056 0.257891 0.654046
Si Si7 0.692700 0.723572 0.829682
Si Si8 0.723414 0.400643 0.785491
O O1 0.721509 0.591387 0.954503
O O2 0.179857 0.754792 0.670922
O O3 0.928691 0.699614 0.995101
O O4 0.000000 0.500000 0.000000
O O5 0.604542 0.870268 0.362086
O O6 0.355969 0.006028 0.346908
O O7 0.500000 0.000000 0.500000
O O8 0.588522 0.453010 0.386747
O O9 0.281465 0.259628 0.768592
O O10 0.144664 0.249248 0.624461
O O11 0.474360 0.619957 0.216341
O O12 0.772022 0.101747 0.734817
O O13 0.134612 0.194757 0.396406
O O14 0.842230 0.886564 0.749510
O O15 0.042460 0.414380 0.434246
O O16 0.800985 0.286873 0.785201
O O17 0.408267 0.649314 0.013717
#
# Coordination Sequence:
#
# PCOD9091131 Si02
#       8
#     2   2   2   2   2   2   2   2
#     4  10  19  39  63  94 117 154 203 253 301 354
#     4  11  24  40  62  88 123 161 200 247 308 365
#     4  10  20  35  60  91 117 158 197 248 298 354
#     4   9  18  37  62  86 121 152 200 247 301 350
#     4  10  22  41  60  85 120 164 198 243 304 362
#     4  10  21  36  61  89 122 153 203 247 299 357
#     4   9  21  38  62  86 117 161 198 242 299 360
#     4   9  19  39  59  88 118 155 198 250 294 353
#
# _framework density 24.139106000000002
#
# number of rings (size 3 to 8) (size 9 to 14) (size 15 to 20)
#    0.000    2.250    1.250    0.750    5.250    2.000 
#    2.250    0.625    0.000    0.000    0.000    0.000 
#    0.000    0.000    0.000    0.000    0.000    0.000 
#
# Total GULP energy -89256.926293 kJ/mol
# GULP energy per Si atom -5578.557893 kJ/mol
# Density = 2.408416 g / cm^3
# Si number density = 24.139106 Si / 1000 Ang^3
#
#
#
# Elastic Constant Matrix: (Units=GPa)
#
#
# Indices 1 2 3 4 5 6 
#
# 1 49.1361 40.9965 10.0887 9.8475 7.2611 -14.6354
# 2 40.9965 175.3228 19.1397 41.0418 6.6033 -14.2559
# 3 10.0887 19.1397 60.7372 18.5524 5.9393 -17.2095
# 4 9.8475 41.0418 18.5524 28.8740 -8.9945 -1.9711
# 5 7.2611 6.6033 5.9393 -8.9945 21.4910 5.4169
# 6 -14.6354 -14.2559 -17.2095 -1.9711 5.4169 42.2124
#
#
#
# Elastic Compliance Matrix: (Units=1/GPa)
#
#
# Indices 1 2 3 4 5 6 
#
# 1 0.033370 -0.000479 0.010253 -0.025094 -0.029037 0.018142
# 2 -0.000479 0.014730 0.012027 -0.035662 -0.025465 0.011314
# 3 0.010253 0.012027 0.043823 -0.063306 -0.053163 0.029349
# 4 -0.025094 -0.035662 -0.063306 0.168599 0.121163 -0.054229
# 5 -0.029037 -0.025465 -0.053163 0.121163 0.142934 -0.053026
# 6 0.018142 0.011314 0.029349 -0.054229 -0.053026 0.050038
#
#
# Mechanical properties :
#
#
# Convention : Reuss Voigt Hill
#
# Bulk Modulus (GPa) = 7.37875 47.29400 27.33637
# Shear Modulus (GPa) = 10.98738 32.84690 21.91714
#
# Velocity S-wave (km/s) = 2.13578 3.69281 3.01649
# Velocity P-wave (km/s) = 3.02415 6.14958 4.84576
#
# Compressibility (1/GPa) = 0.13552440
#
# Stress axis : x y z
#
# Youngs Moduli (GPa) = 29.96691 67.88818 22.81909
#
# Poissons Ratio (x) = 0.03253 -0.23397
# Poissons Ratio (y) = 0.01436 -0.27444
# Poissons Ratio (z) = -0.30725 -0.81647
#
# Static dielectric constant tensor:
#      x y z
#    x 2.396270 -0.227490 0.042650 
#    y -0.227490 2.101780 -0.076450 
#    z 0.042650 -0.076450 2.003950 
# 
# From -- ./inp_files/190805.got.cif
#   From: 2010.05.17/outbox.cif.g08.bks.cpg/sg2_96_cif.got.tgz:190805.got - 2010.06.03 11:33:40.
