data_PCOD9091985
_publ_section_title
;
Structure prediction by ZEFSAII (Michael W. Deem and Ramdas Pophale) SiO2 
 PCOD9091985
Probable space group: P -1
;
_chemical_formula_sum "Si O2"
_cell_formula_units_Z 16
_cell_length_a 7.844512
_cell_length_b 15.532151
_cell_length_c 20.434733
_cell_angle_alpha 25.646701
_cell_angle_beta 43.525404
_cell_angle_gamma 34.990429
_cell_volume 617.052312
_symmetry_space_group_name_H-M "P -1"
_symmetry_group_IT_number 2
_symmetry_cell_setting 'triclinic'
loop_
_space_group_symop_operation_xyz
x,y,z
-x,-y,-z
loop_
_atom_site_type_symbol
_atom_site_label
_atom_site_fract_x
_atom_site_fract_y
_atom_site_fract_z
Si Si1 0.070796 0.700575 0.832966
Si Si2 0.879659 0.798556 0.958914
Si Si3 0.166552 0.234836 0.274863
Si Si4 0.328872 0.520584 0.264568
Si Si5 0.189315 0.199514 0.876811
Si Si6 0.772348 0.424125 0.601418
Si Si7 0.781335 0.905721 0.395352
Si Si8 0.852163 0.298100 0.443622
O O1 0.391089 0.575938 0.794793
O O2 0.043759 0.799589 0.846141
O O3 0.837565 0.860958 0.730140
O O4 0.000000 0.500000 0.000000
O O5 0.525877 0.979205 0.921044
O O6 0.916697 0.841990 0.995304
O O7 0.001399 0.518794 0.120081
O O8 0.972218 0.203554 0.402977
O O9 0.484788 0.125355 0.295207
O O10 0.340658 0.602643 0.278547
O O11 0.295005 0.298515 0.437193
O O12 0.041849 0.737675 0.159549
O O13 0.180168 0.446253 0.715368
O O14 0.482630 0.624684 0.505640
O O15 0.000000 0.500000 0.500000
O O16 0.950336 0.196918 0.661088
O O17 0.902847 0.889023 0.445829
#
# Coordination Sequence:
#
# PCOD9091985 Si02
#       8
#     2   2   2   2   2   2   2   2
#     4  10  21  39  62  91 128 169 210 265 320 374
#     4   9  20  40  64  90 127 164 215 260 313 378
#     4  10  20  38  63  93 133 164 209 261 321 380
#     4  10  21  40  61  95 126 166 213 262 317 380
#     4   9  20  39  66  92 123 167 213 265 315 371
#     4  10  21  39  62  93 132 168 211 255 312 385
#     4  10  22  37  63  97 127 170 208 260 322 380
#     4  10  19  40  64  92 133 164 206 265 319 378
#
# _framework density 25.929732000000001
#
# number of rings (size 3 to 8) (size 9 to 14) (size 15 to 20)
#    0.000    2.250    1.250    0.750    1.750    1.000 
#    0.000   15.000    0.000    0.000    0.000    0.000 
#    0.000    0.000    0.000    0.000    0.000    0.000 
#
# Total GULP energy -89513.796527 kJ/mol
# GULP energy per Si atom -5594.612283 kJ/mol
# Density = 2.587072 g / cm^3
# Si number density = 25.929732 Si / 1000 Ang^3
#
#
#
# Elastic Constant Matrix: (Units=GPa)
#
#
# Indices 1 2 3 4 5 6 
#
# 1 113.6810 43.9702 16.9411 -6.6947 42.6164 -8.0449
# 2 43.9702 153.1765 48.4984 2.1006 31.6140 0.6514
# 3 16.9411 48.4984 132.4833 1.5742 30.0790 -0.5571
# 4 -6.6947 2.1006 1.5742 55.6094 1.3851 8.0450
# 5 42.6164 31.6140 30.0790 1.3851 42.8342 -3.8375
# 6 -8.0449 0.6514 -0.5571 8.0450 -3.8375 47.9179
#
#
#
# Elastic Compliance Matrix: (Units=1/GPa)
#
#
# Indices 1 2 3 4 5 6 
#
# 1 0.015060 -0.001939 0.002183 0.002051 -0.015060 0.001030
# 2 -0.001939 0.008350 -0.002184 -0.000328 -0.002746 -0.000629
# 3 0.002183 -0.002184 0.009751 0.000273 -0.007428 -0.000131
# 4 0.002051 -0.000328 0.000273 0.018743 -0.002867 -0.003025
# 5 -0.015060 -0.002746 -0.007428 -0.002867 0.045806 0.001572
# 6 0.001030 -0.000629 -0.000131 -0.003025 0.001572 0.021683
#
#
# Mechanical properties :
#
#
# Convention : Reuss Voigt Hill
#
# Bulk Modulus (GPa) = 34.15027 68.68445 51.41736
# Shear Modulus (GPa) = 37.58446 48.60105 43.09275
#
# Velocity S-wave (km/s) = 3.81133 4.33406 4.08107
# Velocity P-wave (km/s) = 5.70677 7.18273 6.48686
#
# Compressibility (1/GPa) = 0.02928235
#
# Stress axis : x y z
#
# Youngs Moduli (GPa) = 66.39968 119.75416 102.55170
#
# Poissons Ratio (x) = 0.23216 -0.22387
# Poissons Ratio (y) = 0.12872 0.22399
# Poissons Ratio (z) = -0.14495 0.26157
#
# Static dielectric constant tensor:
#      x y z
#    x 2.254430 0.111260 -0.147220 
#    y 0.111260 2.020350 -0.041380 
#    z -0.147220 -0.041380 2.145420 
# 
# From -- ./inp_files/590962.got.cif
#   From: 2010.05.17/outbox.cif.g08.bks.cpg/sg2_296_cif.got.tgz:590962.got - 2010.06.03 11:33:40.
