data_PCOD9091432
_publ_section_title
;
Structure prediction by ZEFSAII (Michael W. Deem and Ramdas Pophale) SiO2 
 PCOD9091432
Probable space group: P -1
;
_chemical_formula_sum "Si O2"
_cell_formula_units_Z 16
_cell_length_a 9.667404
_cell_length_b 10.239983
_cell_length_c 15.335362
_cell_angle_alpha 79.479489
_cell_angle_beta 132.215586
_cell_angle_gamma 69.921299
_cell_volume 849.439715
_symmetry_space_group_name_H-M "P -1"
_symmetry_group_IT_number 2
_symmetry_cell_setting 'triclinic'
loop_
_space_group_symop_operation_xyz
x,y,z
-x,-y,-z
loop_
_atom_site_type_symbol
_atom_site_label
_atom_site_fract_x
_atom_site_fract_y
_atom_site_fract_z
Si Si1 0.209365 0.470114 0.857348
Si Si2 0.144877 0.462608 0.156294
Si Si3 0.722465 0.293008 0.838445
Si Si4 0.762280 0.235142 0.144851
Si Si5 0.980099 0.148706 0.430104
Si Si6 0.172321 0.510319 0.631246
Si Si7 0.108773 0.005806 0.176639
Si Si8 0.518813 0.946945 0.614910
O O1 0.200846 0.624015 0.875379
O O2 0.129072 0.507594 0.717434
O O3 0.045806 0.456996 0.853605
O O4 0.495601 0.308011 0.997915
O O5 0.260604 0.556417 0.185749
O O6 0.340074 0.256491 0.283886
O O7 0.000000 0.500000 0.000000
O O8 0.455726 0.367483 0.746122
O O9 0.802188 0.174269 0.801389
O O10 0.912325 0.160613 0.009249
O O11 0.793292 0.217366 0.263248
O O12 0.971267 0.061866 0.203960
O O13 0.891492 0.306938 0.434110
O O14 0.244780 0.064864 0.517084
O O15 0.000000 0.000000 0.500000
O O16 0.000000 0.500000 0.500000
O O17 0.330397 0.006973 0.278535
O O18 0.500000 0.000000 0.500000
#
# Coordination Sequence:
#
# PCOD9091432 Si02
#       8
#     2   2   2   2   2   2   2   2
#     4  10  21  38  68  94 120 164 223 258 318 381
#     4  12  24  41  66 104 130 163 219 278 324 376
#     4  11  24  40  67  94 131 167 216 268 319 388
#     4  10  19  39  66  88 123 167 211 264 309 386
#     4  11  24  37  62  94 124 161 211 268 322 369
#     4  11  23  45  64  89 129 177 213 254 325 396
#     4  11  21  42  64  93 126 174 215 259 322 385
#     4  12  22  40  65  92 129 168 215 262 319 387
#
# _framework density 18.835944000000001
#
# number of rings (size 3 to 8) (size 9 to 14) (size 15 to 20)
#    0.000    1.000    5.000    2.250    5.250    0.000 
#    2.250    1.875    0.000    0.000    0.000    0.000 
#    0.000    0.000    0.000    0.000    0.000    0.000 
#
# Total GULP energy -89361.460153 kJ/mol
# GULP energy per Si atom -5585.091260 kJ/mol
# Density = 1.879307 g / cm^3
# Si number density = 18.835944 Si / 1000 Ang^3
#
#
#
# Elastic Constant Matrix: (Units=GPa)
#
#
# Indices 1 2 3 4 5 6 
#
# 1 57.0350 12.9810 21.1360 10.0534 6.2357 -1.5685
# 2 12.9810 108.0892 38.9366 9.3328 -5.9652 1.8046
# 3 21.1360 38.9366 100.3132 9.4123 10.0447 11.9925
# 4 10.0534 9.3328 9.4123 31.6473 5.4363 0.9471
# 5 6.2357 -5.9652 10.0447 5.4363 23.9727 -6.3591
# 6 -1.5685 1.8046 11.9925 0.9471 -6.3591 28.9024
#
#
#
# Elastic Compliance Matrix: (Units=1/GPa)
#
#
# Indices 1 2 3 4 5 6 
#
# 1 0.020193 -0.000927 -0.003479 -0.004770 -0.002350 0.002237
# 2 -0.000927 0.011787 -0.005134 -0.002903 0.006760 0.002927
# 3 -0.003479 -0.005134 0.014470 0.000006 -0.008490 -0.007740
# 4 -0.004770 -0.002903 0.000006 0.035495 -0.008350 -0.003080
# 5 -0.002350 0.006760 -0.008490 -0.008350 0.053439 0.015004
# 6 0.002237 0.002927 -0.007740 -0.003080 0.015004 0.041152
#
#
# Mechanical properties :
#
#
# Convention : Reuss Voigt Hill
#
# Bulk Modulus (GPa) = 36.53828 45.72718 41.13273
# Shear Modulus (GPa) = 24.42138 29.73006 27.07572
#
# Velocity S-wave (km/s) = 3.60464 3.97718 3.79548
# Velocity P-wave (km/s) = 6.06341 6.73943 6.41033
#
# Compressibility (1/GPa) = 0.02736856
#
# Stress axis : x y z
#
# Youngs Moduli (GPa) = 49.52305 84.83638 69.10993
#
# Poissons Ratio (x) = 0.07864 0.24045
# Poissons Ratio (y) = 0.04590 0.35484
# Poissons Ratio (z) = 0.17231 0.43558
#
# Static dielectric constant tensor:
#      x y z
#    x 1.663680 -0.002450 -0.013260 
#    y -0.002450 1.662880 -0.017440 
#    z -0.013260 -0.017440 1.659030 
# 
# From -- ./inp_files/244727.got.cif
#   From: 2010.05.17/outbox.cif.g08.bks.cpg/sg2_123_cif.got.tgz:244727.got - 2010.06.03 11:33:40.
