data_PCOD9091968
_publ_section_title
;
Structure prediction by ZEFSAII (Michael W. Deem and Ramdas Pophale) SiO2 
 PCOD9091968
Probable space group: P -1
;
_chemical_formula_sum "Si O2"
_cell_formula_units_Z 16
_cell_length_a 14.556915
_cell_length_b 8.465874
_cell_length_c 6.777870
_cell_angle_alpha 104.783446
_cell_angle_beta 73.872530
_cell_angle_gamma 113.036882
_cell_volume 728.217630
_symmetry_space_group_name_H-M "P -1"
_symmetry_group_IT_number 2
_symmetry_cell_setting 'triclinic'
loop_
_space_group_symop_operation_xyz
x,y,z
-x,-y,-z
loop_
_atom_site_type_symbol
_atom_site_label
_atom_site_fract_x
_atom_site_fract_y
_atom_site_fract_z
Si Si1 0.671127 0.226909 0.209661
Si Si2 0.096206 0.363736 0.571091
Si Si3 0.839988 0.554841 0.025828
Si Si4 0.267600 0.300349 0.190528
Si Si5 0.118335 0.672729 0.392627
Si Si6 0.686324 0.020991 0.794881
Si Si7 0.449634 0.582994 0.392168
Si Si8 0.407638 0.074289 0.587170
O O1 0.612319 0.322942 0.408518
O O2 0.681133 0.074176 0.294808
O O3 0.765144 0.382547 0.120460
O O4 0.627716 0.117101 0.999415
O O5 0.180805 0.299886 0.401201
O O6 0.128312 0.567633 0.548410
O O7 0.982064 0.276237 0.529106
O O8 0.095948 0.337940 0.797416
O O9 0.774026 0.648067 0.972645
O O10 0.900617 0.480762 0.809432
O O11 0.280260 0.114293 0.139175
O O12 0.371796 0.450628 0.247754
O O13 0.217661 0.828280 0.312808
O O14 0.623412 0.913373 0.614951
O O15 0.500000 0.500000 0.500000
O O16 0.543205 0.736576 0.284888
O O17 0.500000 0.000000 0.500000
#
# Coordination Sequence:
#
# PCOD9091968 Si02
#       8
#     2   2   2   2   2   2   2   2
#     4  10  23  39  64  85 117 162 198 250 304 346
#     4  10  19  40  64  90 122 163 200 245 310 357
#     4  10  20  38  64  88 127 156 205 243 301 368
#     4  11  24  39  60  90 129 160 200 251 304 363
#     4   9  21  36  66  94 118 160 204 250 296 369
#     4  11  23  42  59  95 125 152 205 255 302 360
#     4  11  22  43  60  88 121 165 203 249 301 366
#     4  10  23  39  64  85 122 156 207 253 300 355
#
# _framework density 21.971454999999999
#
# number of rings (size 3 to 8) (size 9 to 14) (size 15 to 20)
#    0.000    1.750    2.500    1.125    8.750    4.500 
#    0.000    1.875    0.000    0.000    0.000    0.000 
#    0.000    0.000    0.000    0.000    0.000    0.000 
#
# Total GULP energy -89217.100060 kJ/mol
# GULP energy per Si atom -5576.068754 kJ/mol
# Density = 2.192145 g / cm^3
# Si number density = 21.971455 Si / 1000 Ang^3
#
#
#
# Elastic Constant Matrix: (Units=GPa)
#
#
# Indices 1 2 3 4 5 6 
#
# 1 40.7286 10.3939 23.3344 4.8557 17.3833 -15.2145
# 2 10.3939 62.9176 20.2656 -7.8641 -2.5961 -5.6189
# 3 23.3344 20.2656 84.4937 -5.7558 23.2374 -5.6850
# 4 4.8557 -7.8641 -5.7558 30.3398 -2.2083 1.5182
# 5 17.3833 -2.5961 23.2374 -2.2083 23.7031 -7.1024
# 6 -15.2145 -5.6189 -5.6850 1.5182 -7.1024 23.3036
#
#
#
# Elastic Compliance Matrix: (Units=1/GPa)
#
#
# Indices 1 2 3 4 5 6 
#
# 1 0.051668 -0.008439 -0.003458 -0.014428 -0.029981 0.022657
# 2 -0.008439 0.021154 -0.006625 0.006642 0.016378 0.002534
# 3 -0.003458 -0.006625 0.019186 0.001385 -0.018323 -0.004849
# 4 -0.014428 0.006642 0.001385 0.038421 0.011598 -0.006449
# 5 -0.029981 0.016378 -0.018323 0.011598 0.086682 0.005568
# 6 0.022657 0.002534 -0.004849 -0.006449 0.005568 0.059249
#
#
# Mechanical properties :
#
#
# Convention : Reuss Voigt Hill
#
# Bulk Modulus (GPa) = 18.19322 32.90306 25.54814
# Shear Modulus (GPa) = 15.07279 24.41239 19.74259
#
# Velocity S-wave (km/s) = 2.62203 3.33693 3.00084
# Velocity P-wave (km/s) = 4.17913 5.46394 4.86414
#
# Compressibility (1/GPa) = 0.05496552
#
# Stress axis : x y z
#
# Youngs Moduli (GPa) = 19.35446 47.27255 52.12058
#
# Poissons Ratio (x) = 0.39892 0.18023
# Poissons Ratio (y) = 0.16333 0.34528
# Poissons Ratio (z) = 0.06693 0.31316
#
# Static dielectric constant tensor:
#      x y z
#    x 1.800090 0.025410 -0.048090 
#    y 0.025410 1.826150 -0.004650 
#    z -0.048090 -0.004650 1.725940 
# 
# From -- ./inp_files/52101.got.cif
#   From: 2010.05.17/outbox.cif.g08.bks.cpg/sg2_27_cif.got.tgz:52101.got - 2010.06.03 11:33:40.
