data_PCOD9091661
_publ_section_title
;
Structure prediction by ZEFSAII (Michael W. Deem and Ramdas Pophale) SiO2 
 PCOD9091661
Probable space group: P -1
;
_chemical_formula_sum "Si O2"
_cell_formula_units_Z 16
_cell_length_a 21.526365
_cell_length_b 8.612509
_cell_length_c 5.558106
_cell_angle_alpha 83.947516
_cell_angle_beta 120.070941
_cell_angle_gamma 125.581169
_cell_volume 699.444151
_symmetry_space_group_name_H-M "P -1"
_symmetry_group_IT_number 2
_symmetry_cell_setting 'triclinic'
loop_
_space_group_symop_operation_xyz
x,y,z
-x,-y,-z
loop_
_atom_site_type_symbol
_atom_site_label
_atom_site_fract_x
_atom_site_fract_y
_atom_site_fract_z
Si Si1 0.972604 0.337392 0.173029
Si Si2 0.182731 0.677012 0.003288
Si Si3 0.918555 0.813890 0.525581
Si Si4 0.548791 0.235973 0.569309
Si Si5 0.477624 0.157201 0.944006
Si Si6 0.164257 0.070386 0.298705
Si Si7 0.736615 0.093821 0.364760
Si Si8 0.240787 0.430004 0.087731
O O1 0.056435 0.335470 0.387683
O O2 0.912562 0.363451 0.230018
O O3 0.000000 0.500000 0.000000
O O4 0.898474 0.113697 0.970915
O O5 0.223641 0.794331 0.317536
O O6 0.180732 0.489678 0.073255
O O7 0.240251 0.781484 0.854523
O O8 0.905667 0.905555 0.715314
O O9 0.817624 0.690968 0.238264
O O10 0.000000 0.000000 0.500000
O O11 0.511080 0.264743 0.733731
O O12 0.657398 0.374289 0.781656
O O13 0.500000 0.000000 0.500000
O O14 0.526235 0.281648 0.260172
O O15 0.371182 0.044726 0.787626
O O16 0.500000 0.000000 0.000000
O O17 0.237437 0.274129 0.272316
O O18 0.217753 0.014842 0.568629
#
# Coordination Sequence:
#
# PCOD9091661 Si02
#       8
#     2   2   2   2   2   2   2   2
#     4  11  25  46  70 105 143 190 248 305 354 428
#     4  11  25  43  71 108 141 187 244 299 358 423
#     4  12  26  46  71 100 146 194 242 293 366 437
#     4  10  22  41  68 104 138 179 236 293 353 425
#     4  10  19  39  69 100 135 176 232 296 353 418
#     4  11  27  46  68 102 151 190 240 296 370 433
#     4  11  24  46  73 106 144 187 241 302 360 429
#     4  12  27  44  73 105 144 193 238 301 366 434
#
# _framework density 22.875305999999998
#
# number of rings (size 3 to 8) (size 9 to 14) (size 15 to 20)
#    0.000    1.000    1.250    5.625   10.500    0.500 
#    0.000    1.250    0.000    0.000    0.000    0.000 
#    0.000    0.000    0.000    0.000    0.000    0.000 
#
# Total GULP energy -89334.017841 kJ/mol
# GULP energy per Si atom -5583.376115 kJ/mol
# Density = 2.282324 g / cm^3
# Si number density = 22.875306 Si / 1000 Ang^3
#
#
#
# Elastic Constant Matrix: (Units=GPa)
#
#
# Indices 1 2 3 4 5 6 
#
# 1 97.7347 23.2721 30.0463 -1.0079 -3.3175 10.9688
# 2 23.2721 103.4200 23.0958 -4.6291 5.6628 3.6705
# 3 30.0463 23.0958 105.5748 -2.8372 0.6522 12.3634
# 4 -1.0079 -4.6291 -2.8372 38.7366 8.3513 7.1977
# 5 -3.3175 5.6628 0.6522 8.3513 40.7735 1.2535
# 6 10.9688 3.6705 12.3634 7.1977 1.2535 39.0851
#
#
#
# Elastic Compliance Matrix: (Units=1/GPa)
#
#
# Indices 1 2 3 4 5 6 
#
# 1 0.011848 -0.002065 -0.002655 0.000007 0.001364 -0.002336
# 2 -0.002065 0.010689 -0.001684 0.001539 -0.001937 -0.000113
# 3 -0.002655 -0.001684 0.010950 0.001108 -0.000300 -0.002755
# 4 0.000007 0.001539 0.001108 0.028375 -0.005873 -0.005534
# 5 0.001364 -0.001937 -0.000300 -0.005873 0.026109 0.000138
# 6 -0.002336 -0.000113 -0.002755 -0.005534 0.000138 0.028138
#
#
# Mechanical properties :
#
#
# Convention : Reuss Voigt Hill
#
# Bulk Modulus (GPa) = 48.35622 51.06198 49.70910
# Shear Modulus (GPa) = 36.81612 39.07339 37.94476
#
# Velocity S-wave (km/s) = 4.01612 4.13740 4.07721
# Velocity P-wave (km/s) = 6.53380 6.72269 6.62892
#
# Compressibility (1/GPa) = 0.02067986
#
# Stress axis : x y z
#
# Youngs Moduli (GPa) = 84.40119 93.55416 91.32218
#
# Poissons Ratio (x) = 0.19316 0.24245
# Poissons Ratio (y) = 0.17426 0.15381
# Poissons Ratio (z) = 0.22408 0.15757
#
# Static dielectric constant tensor:
#      x y z
#    x 1.897930 0.001390 -0.030510 
#    y 0.001390 1.837560 0.002900 
#    z -0.030510 0.002900 1.970900 
# 
# From -- ./inp_files/116976.got.cif
#   From: 2010.05.17/outbox.cif.g08.bks.cpg/sg2_59_cif.got.tgz:116976.got - 2010.06.03 11:33:40.
