data_PCOD9091979
_publ_section_title
;
Structure prediction by ZEFSAII (Michael W. Deem and Ramdas Pophale) SiO2 
 PCOD9091979
Probable space group: P -1
;
_chemical_formula_sum "Si O2"
_cell_formula_units_Z 12
_cell_length_a 8.366354
_cell_length_b 11.772842
_cell_length_c 13.360990
_cell_angle_alpha 53.453066
_cell_angle_beta 30.897010
_cell_angle_gamma 47.193596
_cell_volume 495.507211
_symmetry_space_group_name_H-M "P -1"
_symmetry_group_IT_number 2
_symmetry_cell_setting 'triclinic'
loop_
_space_group_symop_operation_xyz
x,y,z
-x,-y,-z
loop_
_atom_site_type_symbol
_atom_site_label
_atom_site_fract_x
_atom_site_fract_y
_atom_site_fract_z
Si Si1 0.285530 0.585910 0.853748
Si Si2 0.210935 0.329522 0.345129
Si Si3 0.828409 0.634753 0.278673
Si Si4 0.816394 0.160815 0.957818
Si Si5 0.400890 0.237125 0.946062
Si Si6 0.185816 0.853197 0.408107
O O1 0.595007 0.633411 0.686655
O O2 0.416890 0.407807 0.841825
O O3 0.066931 0.596020 0.069440
O O4 0.007584 0.705879 0.865379
O O5 0.925642 0.485127 0.372544
O O6 0.069427 0.197558 0.491797
O O7 0.501705 0.271380 0.135107
O O8 0.438036 0.713268 0.414364
O O9 0.924442 0.756590 0.226435
O O10 0.638655 0.153585 0.954032
O O11 0.000000 0.000000 0.000000
O O12 0.556001 0.133381 0.819916
O O13 0.000000 0.000000 0.500000
#
# Coordination Sequence:
#
# PCOD9091979 Si02
#       6
#     2   2   2   2   2   2
#     4   9  18  37  69  97 120 156 219 269 305 366
#     4  11  20  40  65  93 123 168 216 260 315 378
#     4  10  19  40  64  91 125 167 214 260 311 378
#     4  11  21  39  68  96 126 168 210 262 319 377
#     4  10  20  40  66  93 133 160 211 264 313 380
#     4  11  25  41  59  92 137 171 205 260 329 373
#
# _framework density 24.217607999999998
#
# number of rings (size 3 to 8) (size 9 to 14) (size 15 to 20)
#    0.000    1.667    3.333    2.500    0.000    0.667 
#    0.000   16.667    0.000    0.000    0.000    0.000 
#    0.000    0.000    0.000    0.000    0.000    0.000 
#
# Total GULP energy -67123.817581 kJ/mol
# GULP energy per Si atom -5593.651465 kJ/mol
# Density = 2.416249 g / cm^3
# Si number density = 24.217608 Si / 1000 Ang^3
#
#
#
# Elastic Constant Matrix: (Units=GPa)
#
#
# Indices 1 2 3 4 5 6 
#
# 1 151.8632 73.2237 37.4248 17.4525 -23.0689 -14.2483
# 2 73.2237 126.1881 28.8871 16.7069 -8.1173 0.5884
# 3 37.4248 28.8871 55.6090 7.8699 -11.3023 13.3229
# 4 17.4525 16.7069 7.8699 33.0401 9.4643 -3.9410
# 5 -23.0689 -8.1173 -11.3023 9.4643 45.2244 0.8777
# 6 -14.2483 0.5884 13.3229 -3.9410 0.8777 46.4276
#
#
#
# Elastic Compliance Matrix: (Units=1/GPa)
#
#
# Indices 1 2 3 4 5 6 
#
# 1 0.011703 -0.004944 -0.005119 -0.003145 0.004369 0.004774
# 2 -0.004944 0.011627 -0.002065 -0.002836 -0.000332 -0.001306
# 3 -0.005119 -0.002065 0.026550 -0.005140 0.004917 -0.009693
# 4 -0.003145 -0.002836 -0.005140 0.038360 -0.011504 0.004020
# 5 0.004369 -0.000332 0.004917 -0.011504 0.027947 -0.001571
# 6 0.004774 -0.001306 -0.009693 0.004020 -0.001571 0.026173
#
#
# Mechanical properties :
#
#
# Convention : Reuss Voigt Hill
#
# Bulk Modulus (GPa) = 39.02771 68.08129 53.55450
# Shear Modulus (GPa) = 28.54580 37.88007 33.21294
#
# Velocity S-wave (km/s) = 3.43697 3.95923 3.70731
# Velocity P-wave (km/s) = 5.64808 7.00528 6.36297
#
# Compressibility (1/GPa) = 0.02562282
#
# Stress axis : x y z
#
# Youngs Moduli (GPa) = 85.44780 86.00921 37.66548
#
# Poissons Ratio (x) = 0.42524 0.19279
# Poissons Ratio (y) = 0.42247 0.07780
# Poissons Ratio (z) = 0.43737 0.17765
#
# Static dielectric constant tensor:
#      x y z
#    x 1.960350 0.046480 -0.023340 
#    y 0.046480 1.803960 0.015660 
#    z -0.023340 0.015660 1.956960 
# 
# From -- ./inp_files/144822.got.cif
#   From: 2010.05.17/outbox.cif.g08.bks.cpg/sg2_73_cif.got.tgz:144822.got - 2010.06.03 11:33:40.
