data_PCOD9091677
_publ_section_title
;
Structure prediction by ZEFSAII (Michael W. Deem and Ramdas Pophale) SiO2 
 PCOD9091677
Probable space group: P -1
;
_chemical_formula_sum "Si O2"
_cell_formula_units_Z 16
_cell_length_a 11.273509
_cell_length_b 8.730418
_cell_length_c 12.559918
_cell_angle_alpha 129.507610
_cell_angle_beta 70.372671
_cell_angle_gamma 136.862478
_cell_volume 632.546324
_symmetry_space_group_name_H-M "P -1"
_symmetry_group_IT_number 2
_symmetry_cell_setting 'triclinic'
loop_
_space_group_symop_operation_xyz
x,y,z
-x,-y,-z
loop_
_atom_site_type_symbol
_atom_site_label
_atom_site_fract_x
_atom_site_fract_y
_atom_site_fract_z
Si Si1 0.998267 0.513723 0.380183
Si Si2 0.413492 0.080473 0.492945
Si Si3 0.030953 0.369235 0.095417
Si Si4 0.815379 0.081364 0.824553
Si Si5 0.923350 0.842618 0.564788
Si Si6 0.547929 0.182170 0.262386
Si Si7 0.585017 0.384532 0.955476
Si Si8 0.304479 0.357599 0.737591
O O1 0.956756 0.306351 0.210301
O O2 0.000000 0.500000 0.500000
O O3 0.202823 0.800081 0.416644
O O4 0.867000 0.555010 0.433923
O O5 0.493093 0.192189 0.401064
O O6 0.422069 0.295960 0.649218
O O7 0.500000 0.000000 0.500000
O O8 0.061770 0.628706 0.153735
O O9 0.222176 0.468025 0.087307
O O10 0.899768 0.138551 0.940916
O O11 0.795927 0.856209 0.664851
O O12 0.626862 0.979140 0.833324
O O13 0.101659 0.053195 0.678154
O O14 0.000000 0.000000 0.500000
O O15 0.682685 0.474260 0.288410
O O16 0.554080 0.950980 0.167566
O O17 0.500000 0.500000 0.000000
O O18 0.632200 0.460972 0.097870
#
# Coordination Sequence:
#
# PCOD9091677 Si02
#       8
#     2   2   2   2   2   2   2   2
#     4  11  24  42  65  94 130 169 221 268 330 404
#     4  11  23  43  63  94 136 181 215 275 342 391
#     4  10  20  41  68  94 128 175 216 275 335 388
#     4  10  19  39  69  94 128 167 217 274 335 381
#     4  11  21  40  65  94 128 170 215 272 327 387
#     4  11  23  43  66 102 132 173 228 279 329 399
#     4  11  22  42  68  96 137 179 217 273 343 401
#     4  11  24  39  65 100 130 172 232 269 329 401
#
# _framework density 25.294588000000001
#
# number of rings (size 3 to 8) (size 9 to 14) (size 15 to 20)
#    0.000    1.250    5.000    2.250    0.000    2.000 
#    0.000    3.125    0.000    0.000    0.000    0.000 
#    0.000    0.000    0.000    0.000    0.000    0.000 
#
# Total GULP energy -89460.226025 kJ/mol
# GULP energy per Si atom -5591.264127 kJ/mol
# Density = 2.523702 g / cm^3
# Si number density = 25.294588 Si / 1000 Ang^3
#
#
#
# Elastic Constant Matrix: (Units=GPa)
#
#
# Indices 1 2 3 4 5 6 
#
# 1 127.7084 31.6802 39.0344 -11.4434 -25.3710 -12.3602
# 2 31.6802 62.3361 31.6862 -15.8837 -6.0795 7.1816
# 3 39.0344 31.6862 165.9376 -27.8918 -28.1912 -9.2976
# 4 -11.4434 -15.8837 -27.8918 42.0575 -13.6827 5.7175
# 5 -25.3710 -6.0795 -28.1912 -13.6827 43.5540 4.1933
# 6 -12.3602 7.1816 -9.2976 5.7175 4.1933 40.1666
#
#
#
# Elastic Compliance Matrix: (Units=1/GPa)
#
#
# Indices 1 2 3 4 5 6 
#
# 1 0.010725 -0.004482 0.000054 0.002887 0.006270 0.003049
# 2 -0.004482 0.022302 -0.001913 0.007675 0.002363 -0.007149
# 3 0.000054 -0.001913 0.009110 0.007900 0.008095 0.000498
# 4 0.002887 0.007675 0.007900 0.040510 0.021231 -0.006638
# 5 0.006270 0.002363 0.008095 0.021231 0.039212 -0.003735
# 6 0.003049 -0.007149 0.000498 -0.006638 -0.003735 0.028563
#
#
# Mechanical properties :
#
#
# Convention : Reuss Voigt Hill
#
# Bulk Modulus (GPa) = 33.95053 62.30932 48.12993
# Shear Modulus (GPa) = 28.91471 42.06103 35.48787
#
# Velocity S-wave (km/s) = 3.38467 4.08223 3.74970
# Velocity P-wave (km/s) = 5.35965 6.84882 6.14948
#
# Compressibility (1/GPa) = 0.02945462
#
# Stress axis : x y z
#
# Youngs Moduli (GPa) = 93.23886 44.83821 109.77105
#
# Poissons Ratio (x) = 0.20098 -0.00597
# Poissons Ratio (y) = 0.41794 0.21003
# Poissons Ratio (z) = -0.00507 0.08579
#
# Static dielectric constant tensor:
#      x y z
#    x -3.015650 -1.241760 -4.451240 
#    y -1.241760 1.751960 -1.083110 
#    z -4.451240 -1.083110 -1.870610 
# 
# From -- ./inp_files/419994.got.cif
#   From: 2010.05.17/outbox.cif.g08.bks.cpg/sg2_210_cif.got.tgz:419994.got - 2010.06.03 11:33:40.
