data_PCOD9091329
_publ_section_title
;
Structure prediction by ZEFSAII (Michael W. Deem and Ramdas Pophale) SiO2 
 PCOD9091329
Probable space group: P -1
;
_chemical_formula_sum "Si O2"
_cell_formula_units_Z 16
_cell_length_a 16.057299
_cell_length_b 8.151187
_cell_length_c 12.341908
_cell_angle_alpha 74.899417
_cell_angle_beta 25.897521
_cell_angle_gamma 79.600962
_cell_volume 675.600085
_symmetry_space_group_name_H-M "P -1"
_symmetry_group_IT_number 2
_symmetry_cell_setting 'triclinic'
loop_
_space_group_symop_operation_xyz
x,y,z
-x,-y,-z
loop_
_atom_site_type_symbol
_atom_site_label
_atom_site_fract_x
_atom_site_fract_y
_atom_site_fract_z
Si Si1 0.229850 0.344919 0.283120
Si Si2 0.003470 0.586761 0.247943
Si Si3 0.493721 0.700731 0.462275
Si Si4 0.947522 0.211824 0.445900
Si Si5 0.406413 0.745890 0.017803
Si Si6 0.140161 0.090300 0.049484
Si Si7 0.619619 0.215479 0.199796
Si Si8 0.949628 0.302595 0.057069
O O1 0.085907 0.338361 0.554562
O O2 0.115020 0.272024 0.325463
O O3 0.310418 0.547760 0.147010
O O4 0.411088 0.252874 0.119515
O O5 0.924399 0.385165 0.374207
O O6 0.234541 0.609183 0.986422
O O7 0.964395 0.685532 0.167126
O O8 0.500000 0.500000 0.500000
O O9 0.668547 0.778302 0.169998
O O10 0.524057 0.786130 0.531902
O O11 0.282080 0.736046 0.668990
O O12 0.756346 0.162331 0.748398
O O13 0.005988 0.076832 0.314459
O O14 0.462529 0.806828 0.820442
O O15 0.231805 0.922630 0.939345
O O16 0.035132 0.173856 0.059717
O O17 0.000000 0.500000 0.000000
#
# Coordination Sequence:
#
# PCOD9091329 Si02
#       8
#     2   2   2   2   2   2   2   2
#     4  10  20  36  65  94 117 161 220 262 306 367
#     4  10  19  39  65  89 125 163 209 270 303 373
#     4  11  24  42  68  93 124 168 214 264 305 375
#     4  11  20  41  63  90 128 159 218 256 309 370
#     4  10  21  37  63  96 118 167 208 264 314 372
#     4  12  26  42  63  95 133 173 201 266 320 381
#     4  11  23  43  63  94 136 164 208 259 331 372
#     4  11  22  41  66  96 122 166 220 256 314 374
#
# _framework density 23.682649999999999
#
# number of rings (size 3 to 8) (size 9 to 14) (size 15 to 20)
#    0.000    1.250    5.000    1.875    1.750    3.500 
#    2.250    0.625    0.000    0.000    0.000    0.000 
#    0.000    0.000    0.000    0.000    0.000    0.000 
#
# Total GULP energy -89513.570010 kJ/mol
# GULP energy per Si atom -5594.598126 kJ/mol
# Density = 2.362875 g / cm^3
# Si number density = 23.682650 Si / 1000 Ang^3
#
#
#
# Elastic Constant Matrix: (Units=GPa)
#
#
# Indices 1 2 3 4 5 6 
#
# 1 124.3293 23.8426 38.2826 22.4771 15.9688 -25.6325
# 2 23.8426 77.5459 5.6426 20.4469 10.3211 -4.4664
# 3 38.2826 5.6426 79.4364 19.3376 3.4130 -6.7170
# 4 22.4771 20.4469 19.3376 30.8323 7.8001 -2.0192
# 5 15.9688 10.3211 3.4130 7.8001 37.9780 9.6616
# 6 -25.6325 -4.4664 -6.7170 -2.0192 9.6616 31.6202
#
#
#
# Elastic Compliance Matrix: (Units=1/GPa)
#
#
# Indices 1 2 3 4 5 6 
#
# 1 0.013701 -0.001214 -0.004240 -0.003888 -0.007309 0.012020
# 2 -0.001214 0.016340 0.002278 -0.010644 -0.002424 0.001869
# 3 -0.004240 0.002278 0.016604 -0.009329 0.001772 -0.000725
# 4 -0.003888 -0.010644 -0.009329 0.049080 -0.004146 -0.002236
# 5 -0.007309 -0.002424 0.001772 -0.004146 0.035046 -0.016864
# 6 0.012020 0.001869 -0.000725 -0.002236 -0.016864 0.046489
#
#
# Mechanical properties :
#
#
# Convention : Reuss Voigt Hill
#
# Bulk Modulus (GPa) = 24.81846 46.31637 35.56742
# Shear Modulus (GPa) = 25.37521 34.32237 29.84879
#
# Velocity S-wave (km/s) = 3.27688 3.81105 3.55401
# Velocity P-wave (km/s) = 4.98193 6.24219 5.64733
#
# Compressibility (1/GPa) = 0.04029258
#
# Stress axis : x y z
#
# Youngs Moduli (GPa) = 72.98624 61.19987 60.22733
#
# Poissons Ratio (x) = 0.07429 0.25536
# Poissons Ratio (y) = 0.08859 -0.13718
# Poissons Ratio (z) = 0.30946 -0.13939
#
# Static dielectric constant tensor:
#      x y z
#    x 1.912410 0.011020 0.012570 
#    y 0.011020 1.940690 -0.037140 
#    z 0.012570 -0.037140 1.904200 
# 
# From -- ./inp_files/259049.got.cif
#   From: 2010.05.17/outbox.cif.g08.bks.cpg/sg2_130_cif.got.tgz:259049.got - 2010.06.03 11:33:40.
