data_PCOD9091527
_publ_section_title
;
Structure prediction by ZEFSAII (Michael W. Deem and Ramdas Pophale) SiO2 
 PCOD9091527
Probable space group: P -1
;
_chemical_formula_sum "Si O2"
_cell_formula_units_Z 16
_cell_length_a 11.187634
_cell_length_b 16.678557
_cell_length_c 8.351660
_cell_angle_alpha 113.740354
_cell_angle_beta 39.918144
_cell_angle_gamma 128.223200
_cell_volume 777.558142
_symmetry_space_group_name_H-M "P -1"
_symmetry_group_IT_number 2
_symmetry_cell_setting 'triclinic'
loop_
_space_group_symop_operation_xyz
x,y,z
-x,-y,-z
loop_
_atom_site_type_symbol
_atom_site_label
_atom_site_fract_x
_atom_site_fract_y
_atom_site_fract_z
Si Si1 0.120566 0.413310 0.187472
Si Si2 0.901671 0.109850 0.249264
Si Si3 0.747385 0.882109 0.337827
Si Si4 0.477789 0.429957 0.617215
Si Si5 0.965499 0.708717 0.504285
Si Si6 0.757756 0.200547 0.216685
Si Si7 0.024941 0.468017 0.768723
Si Si8 0.132380 0.221774 0.640903
O O1 0.129809 0.376600 0.325764
O O2 0.923732 0.310808 0.218634
O O3 0.079888 0.502067 0.242688
O O4 0.349138 0.446449 0.900253
O O5 0.908706 0.185613 0.440315
O O6 0.748696 0.113912 0.273191
O O7 0.822779 0.998940 0.312307
O O8 0.134393 0.148371 0.947539
O O9 0.483195 0.818964 0.568148
O O10 0.845462 0.872220 0.398361
O O11 0.500000 0.500000 0.500000
O O12 0.714099 0.462684 0.460209
O O13 0.321198 0.313558 0.627276
O O14 0.060263 0.653118 0.252153
O O15 0.826195 0.733453 0.544296
O O16 0.894020 0.198888 0.922290
O O17 0.000000 0.500000 0.000000
#
# Coordination Sequence:
#
# PCOD9091527 Si02
#       8
#     2   2   2   2   2   2   2   2
#     4  10  22  38  59  88 118 153 194 242 292 347
#     4   9  21  38  62  91 118 146 194 251 294 339
#     4  10  19  39  67  86 110 159 200 232 294 362
#     4  11  20  40  61  86 116 153 199 241 286 348
#     4  11  23  40  55  86 129 150 188 254 291 334
#     4   9  18  38  62  87 117 151 197 240 288 349
#     4  12  22  39  63  82 113 160 199 232 292 355
#     4  10  21  37  57  86 119 156 194 239 289 349
#
# _framework density 20.577238000000001
#
# number of rings (size 3 to 8) (size 9 to 14) (size 15 to 20)
#    0.000    1.750    2.500    3.000    0.000    1.000 
#    0.000    9.375    0.000    0.000    0.000    0.000 
#    0.000    0.000    0.000    0.000    0.000    0.000 
#
# Total GULP energy -89091.593156 kJ/mol
# GULP energy per Si atom -5568.224572 kJ/mol
# Density = 2.053040 g / cm^3
# Si number density = 20.577238 Si / 1000 Ang^3
#
#
#
# Elastic Constant Matrix: (Units=GPa)
#
#
# Indices 1 2 3 4 5 6 
#
# 1 104.5913 21.6386 57.2335 -1.9435 5.9638 -34.8579
# 2 21.6386 82.4369 22.7253 -4.3888 18.6764 -28.1581
# 3 57.2335 22.7253 96.0898 -0.4548 -16.8682 -6.9320
# 4 -1.9435 -4.3888 -0.4548 24.1289 -2.4466 7.2872
# 5 5.9638 18.6764 -16.8682 -2.4466 39.4086 -5.9850
# 6 -34.8579 -28.1581 -6.9320 7.2872 -5.9850 43.8133
#
#
#
# Elastic Compliance Matrix: (Units=1/GPa)
#
#
# Indices 1 2 3 4 5 6 
#
# 1 0.025402 0.008164 -0.017665 -0.004615 -0.012257 0.021755
# 2 0.008164 0.022102 -0.011315 -0.002202 -0.014054 0.017356
# 3 -0.017665 -0.011315 0.025441 0.003403 0.016771 -0.015577
# 4 -0.004615 -0.002202 0.003403 0.044605 0.004239 -0.011389
# 5 -0.012257 -0.014054 0.016771 0.004239 0.039597 -0.011427
# 6 0.021755 0.017356 -0.015577 -0.011389 -0.011427 0.049156
#
#
# Mechanical properties :
#
#
# Convention : Reuss Voigt Hill
#
# Bulk Modulus (GPa) = 31.93570 54.03474 42.98522
# Shear Modulus (GPa) = 19.35175 33.57156 26.46165
#
# Velocity S-wave (km/s) = 3.06999 4.04355 3.58993
# Velocity P-wave (km/s) = 5.30284 6.93663 6.17402
#
# Compressibility (1/GPa) = 0.03131292
#
# Stress axis : x y z
#
# Youngs Moduli (GPa) = 39.36660 45.24470 39.30598
#
# Poissons Ratio (x) = -0.36939 0.69435
# Poissons Ratio (y) = -0.32140 0.44477
# Poissons Ratio (z) = 0.69542 0.51197
#
# Static dielectric constant tensor:
#      x y z
#    x 1.383780 0.121730 -0.011870 
#    y 0.121730 1.751940 0.045150 
#    z -0.011870 0.045150 1.775020 
# 
# From -- ./inp_files/273304.got.cif
#   From: 2010.05.17/outbox.cif.g08.bks.cpg/sg2_137_cif.got.tgz:273304.got - 2010.06.03 11:33:40.
