data_PCOD9091947
_publ_section_title
;
Structure prediction by ZEFSAII (Michael W. Deem and Ramdas Pophale) SiO2 
 PCOD9091947
Probable space group: P -1
;
_chemical_formula_sum "Si O2"
_cell_formula_units_Z 16
_cell_length_a 18.472173
_cell_length_b 27.400722
_cell_length_c 17.724691
_cell_angle_alpha 13.670786
_cell_angle_beta 23.427157
_cell_angle_gamma 21.366531
_cell_volume 764.078927
_symmetry_space_group_name_H-M "P -1"
_symmetry_group_IT_number 2
_symmetry_cell_setting 'triclinic'
loop_
_space_group_symop_operation_xyz
x,y,z
-x,-y,-z
loop_
_atom_site_type_symbol
_atom_site_label
_atom_site_fract_x
_atom_site_fract_y
_atom_site_fract_z
Si Si1 0.518327 0.498064 0.301975
Si Si2 0.448204 0.132736 0.187447
Si Si3 0.776806 0.382411 0.853361
Si Si4 0.534717 0.649593 0.897455
Si Si5 0.701569 0.344485 0.586414
Si Si6 0.090758 0.954473 0.397676
Si Si7 0.901802 0.870902 0.560203
Si Si8 0.945685 0.458344 0.728952
O O1 0.331348 0.540818 0.471967
O O2 0.683034 0.240564 0.526285
O O3 0.617197 0.650176 0.020933
O O4 0.457038 0.605010 0.118091
O O5 0.291241 0.172700 0.210223
O O6 0.466154 0.912421 0.546816
O O7 0.663711 0.115144 0.978789
O O8 0.816151 0.503322 0.707430
O O9 0.911964 0.415809 0.608000
O O10 0.554206 0.461484 0.914426
O O11 0.849466 0.122578 0.199478
O O12 0.775363 0.540738 0.831509
O O13 0.500000 0.500000 0.500000
O O14 0.903063 0.293850 0.425893
O O15 0.960463 0.873626 0.586870
O O16 0.924766 0.809240 0.978208
O O17 0.000000 0.000000 0.500000
#
# Coordination Sequence:
#
# PCOD9091947 Si02
#       8
#     2   2   2   2   2   2   2   2
#     4  10  22  38  59  87 122 152 194 238 293 344
#     4   9  22  37  62  91 110 157 193 238 296 343
#     4   9  21  36  59  91 109 152 201 235 288 349
#     4  11  19  39  59  86 120 145 194 244 294 342
#     4  10  20  36  58  86 117 151 190 238 280 346
#     4  11  21  38  61  86 119 160 191 239 291 344
#     4  10  19  40  64  86 117 148 199 243 289 344
#     4  10  20  37  62  79 119 158 191 240 285 341
#
# _framework density 20.940245999999998
#
# number of rings (size 3 to 8) (size 9 to 14) (size 15 to 20)
#    0.750    1.250    2.500    1.500    0.000    2.000 
#    2.250    3.125    2.750    0.000    0.000    0.000 
#    0.000    0.000    0.000    0.000    0.000    0.000 
#
# Total GULP energy -89190.277994 kJ/mol
# GULP energy per Si atom -5574.392375 kJ/mol
# Density = 2.089258 g / cm^3
# Si number density = 20.940246 Si / 1000 Ang^3
#
#
#
# Elastic Constant Matrix: (Units=GPa)
#
#
# Indices 1 2 3 4 5 6 
#
# 1 77.7637 14.5688 24.8315 1.6912 12.8703 9.0049
# 2 14.5688 67.3398 11.2810 7.3189 -5.8931 6.9065
# 3 24.8315 11.2810 44.9030 5.5460 4.4110 -3.2288
# 4 1.6912 7.3189 5.5460 26.7367 -3.9890 2.4877
# 5 12.8703 -5.8931 4.4110 -3.9890 24.9526 1.9177
# 6 9.0049 6.9065 -3.2288 2.4877 1.9177 25.7689
#
#
#
# Elastic Compliance Matrix: (Units=1/GPa)
#
#
# Indices 1 2 3 4 5 6 
#
# 1 0.018307 -0.002524 -0.009298 0.000899 -0.007759 -0.006395
# 2 -0.002524 0.017227 -0.003515 -0.002537 0.005922 -0.004372
# 3 -0.009298 -0.003515 0.029943 -0.005912 -0.002944 0.008733
# 4 0.000899 -0.002537 -0.005912 0.040738 0.006865 -0.004819
# 5 -0.007759 0.005922 -0.002944 0.006865 0.047359 -0.003432
# 6 -0.006395 -0.004372 0.008733 -0.004819 -0.003432 0.044028
#
#
# Mechanical properties :
#
#
# Convention : Reuss Voigt Hill
#
# Bulk Modulus (GPa) = 28.73378 32.37436 30.55407
# Shear Modulus (GPa) = 20.84408 24.78000 22.81204
#
# Velocity S-wave (km/s) = 3.15843 3.44374 3.30417
# Velocity P-wave (km/s) = 5.20120 5.59521 5.40180
#
# Compressibility (1/GPa) = 0.03480225
#
# Stress axis : x y z
#
# Youngs Moduli (GPa) = 54.62503 58.04753 33.39715
#
# Poissons Ratio (x) = 0.14650 0.31053
# Poissons Ratio (y) = 0.13786 0.11740
# Poissons Ratio (z) = 0.50792 0.20405
#
# Static dielectric constant tensor:
#      x y z
#    x 1.787160 0.024430 0.024570 
#    y 0.024430 1.767980 0.010600 
#    z 0.024570 0.010600 1.798610 
# 
# From -- ./inp_files/535372.got.cif
#   From: 2010.05.17/outbox.cif.g08.bks.cpg/sg2_268_cif.got.tgz:535372.got - 2010.06.03 11:33:40.
