data_PCOD9091649
_publ_section_title
;
Structure prediction by ZEFSAII (Michael W. Deem and Ramdas Pophale) SiO2 
 PCOD9091649
Probable space group: P -1
;
_chemical_formula_sum "Si O2"
_cell_formula_units_Z 16
_cell_length_a 12.505312
_cell_length_b 9.810964
_cell_length_c 7.878498
_cell_angle_alpha 117.229250
_cell_angle_beta 48.379497
_cell_angle_gamma 99.824480
_cell_volume 629.474063
_symmetry_space_group_name_H-M "P -1"
_symmetry_group_IT_number 2
_symmetry_cell_setting 'triclinic'
loop_
_space_group_symop_operation_xyz
x,y,z
-x,-y,-z
loop_
_atom_site_type_symbol
_atom_site_label
_atom_site_fract_x
_atom_site_fract_y
_atom_site_fract_z
Si Si1 0.441683 0.568288 0.920236
Si Si2 0.438089 0.127239 0.000784
Si Si3 0.688687 0.032147 0.437740
Si Si4 0.034183 0.091314 0.732256
Si Si5 0.978501 0.393547 0.216742
Si Si6 0.312369 0.655691 0.599600
Si Si7 0.851185 0.333450 0.868192
Si Si8 0.156053 0.161447 0.124368
O O1 0.520155 0.432715 0.634544
O O2 0.267985 0.623062 0.128528
O O3 0.500000 0.500000 0.000000
O O4 0.511862 0.717672 0.904396
O O5 0.528268 0.063978 0.700473
O O6 0.266993 0.159466 0.160255
O O7 0.500000 0.000000 0.000000
O O8 0.703301 0.184661 0.399753
O O9 0.740007 0.886183 0.176484
O O10 0.800813 0.998487 0.460277
O O11 0.967905 0.170333 0.670217
O O12 0.011919 0.244628 0.966721
O O13 0.935719 0.974123 0.838054
O O14 0.802920 0.437795 0.419575
O O15 0.058544 0.528440 0.145581
O O16 0.046808 0.322051 0.282490
O O17 0.256415 0.675011 0.862517
#
# Coordination Sequence:
#
# PCOD9091649 Si02
#       8
#     2   2   2   2   2   2   2   2
#     4  12  26  46  62  89 139 180 207 256 320 380
#     4  12  28  43  60  94 134 172 217 260 311 378
#     4  11  21  42  70  96 123 170 210 268 321 377
#     4  10  19  39  68  98 127 155 209 277 324 364
#     4  10  20  37  66 104 123 155 210 275 322 365
#     4  11  21  42  70  95 127 165 217 261 321 379
#     4  11  23  40  68 100 125 164 217 268 313 375
#     4  11  20  42  69  94 125 166 214 260 321 384
#
# _framework density 25.418044999999999
#
# number of rings (size 3 to 8) (size 9 to 14) (size 15 to 20)
#    0.000    1.000    5.000    4.500    0.000    3.000 
#    0.000    7.500    0.000    0.000    0.000    0.000 
#    0.000    0.000    0.000    0.000    0.000    0.000 
#
# Total GULP energy -89566.875944 kJ/mol
# GULP energy per Si atom -5597.929746 kJ/mol
# Density = 2.536019 g / cm^3
# Si number density = 25.418045 Si / 1000 Ang^3
#
#
#
# Elastic Constant Matrix: (Units=GPa)
#
#
# Indices 1 2 3 4 5 6 
#
# 1 126.8723 29.0224 7.0373 0.0050 -34.7422 -31.0243
# 2 29.0224 156.7240 11.7655 -3.0462 -9.6586 -22.5942
# 3 7.0373 11.7655 96.4988 5.2180 -9.4889 -4.3634
# 4 0.0050 -3.0462 5.2180 36.0697 -7.3684 -3.2385
# 5 -34.7422 -9.6586 -9.4889 -7.3684 41.8007 2.4050
# 6 -31.0243 -22.5942 -4.3634 -3.2385 2.4050 39.8228
#
#
#
# Elastic Compliance Matrix: (Units=1/GPa)
#
#
# Indices 1 2 3 4 5 6 
#
# 1 0.013396 -0.000346 0.000440 0.003064 0.011126 0.009865
# 2 -0.000346 0.007131 -0.000624 0.001279 0.001229 0.003738
# 3 0.000440 -0.000624 0.010743 -0.001027 0.002425 0.000936
# 4 0.003064 0.001279 -0.001027 0.029981 0.007607 0.004979
# 5 0.011126 0.001229 0.002425 0.007607 0.034877 0.008143
# 6 0.009865 0.003738 0.000936 0.004979 0.008143 0.034933
#
#
# Mechanical properties :
#
#
# Convention : Reuss Voigt Hill
#
# Bulk Modulus (GPa) = 33.10197 52.86062 42.98129
# Shear Modulus (GPa) = 35.16398 45.68998 40.42698
#
# Velocity S-wave (km/s) = 3.72348 4.24434 3.99241
# Velocity P-wave (km/s) = 5.61578 6.69783 6.18053
#
# Compressibility (1/GPa) = 0.03020969
#
# Stress axis : x y z
#
# Youngs Moduli (GPa) = 74.65142 140.23274 93.08285
#
# Poissons Ratio (x) = 0.04855 -0.04093
# Poissons Ratio (y) = 0.02585 0.05804
# Poissons Ratio (z) = -0.03283 0.08744
#
# Static dielectric constant tensor:
#      x y z
#    x 2.114380 -0.052010 0.079700 
#    y -0.052010 1.953240 0.016110 
#    z 0.079700 0.016110 2.046710 
# 
# From -- ./inp_files/184353.got.cif
#   From: 2010.05.17/outbox.cif.g08.bks.cpg/sg2_93_cif.got.tgz:184353.got - 2010.06.03 11:33:40.
