data_PCOD9091070
_publ_section_title
;
Structure prediction by ZEFSAII (Michael W. Deem and Ramdas Pophale) SiO2 
 PCOD9091070
Probable space group: P -1
;
_chemical_formula_sum "Si O2"
_cell_formula_units_Z 13
_cell_length_a 7.773196
_cell_length_b 10.431631
_cell_length_c 10.482830
_cell_angle_alpha 43.781797
_cell_angle_beta 71.401420
_cell_angle_gamma 59.459398
_cell_volume 504.907279
_symmetry_space_group_name_H-M "P -1"
_symmetry_group_IT_number 2
_symmetry_cell_setting 'triclinic'
loop_
_space_group_symop_operation_xyz
x,y,z
-x,-y,-z
loop_
_atom_site_type_symbol
_atom_site_label
_atom_site_fract_x
_atom_site_fract_y
_atom_site_fract_z
Si Si1 0.230970 0.968995 0.837782
Si Si2 0.878359 0.385870 0.545824
Si Si3 0.935537 0.694883 0.704668
Si Si4 0.487864 0.235607 0.550809
Si Si5 0.500000 0.000000 0.500000
Si Si6 0.300212 0.973049 0.103100
Si Si7 0.906560 0.300521 0.075441
O O1 0.247826 0.777141 0.890511
O O2 0.391935 0.061834 0.702338
O O3 0.253141 0.906909 0.024011
O O4 0.014640 0.151544 0.722224
O O5 0.659081 0.533765 0.541956
O O6 0.000000 0.500000 0.500000
O O7 0.904888 0.397388 0.380091
O O8 0.037244 0.761177 0.747720
O O9 0.736818 0.868597 0.570690
O O10 0.859595 0.534855 0.898487
O O11 0.519150 0.208516 0.413128
O O12 0.648881 0.159544 0.682739
O O13 0.113169 0.182542 0.031563
O O14 0.500000 0.000000 0.000000
#
# Coordination Sequence:
#
# PCOD9091070 Si02
#       7
#     2   2   2   2   1   2   2
#     4  10  21  38  64  90 122 159 207 254 297 355
#     4  10  19  39  63  88 117 166 201 244 300 370
#     4  11  23  39  65  86 123 166 206 244 309 367
#     4  10  21  39  66  90 123 162 204 242 308 364
#     4  12  20  40  64  90 120 166 202 252 296 372
#     4  10  20  36  61  88 122 159 199 245 301 365
#     4  11  23  40  61  92 121 164 206 252 302 366
#
# _framework density 25.747299999999999
#
# number of rings (size 3 to 8) (size 9 to 14) (size 15 to 20)
#    0.000    1.538    4.615    3.231    0.000    0.615 
#    0.000    3.077    0.000    0.000    0.000    0.000 
#    0.000    0.000    0.000    0.000    0.000    0.000 
#
# Total GULP energy -72414.126619 kJ/mol
# GULP energy per Si atom -5570.317432 kJ/mol
# Density = 2.568870 g / cm^3
# Si number density = 25.747300 Si / 1000 Ang^3
#
#
#
# Elastic Constant Matrix: (Units=GPa)
#
#
# Indices 1 2 3 4 5 6 
#
# 1 68.3660 40.4012 29.5849 14.8335 11.1256 20.1595
# 2 40.4012 138.4445 2.2768 21.2951 12.6525 40.4706
# 3 29.5849 2.2768 47.5354 9.5802 4.4310 23.8390
# 4 14.8335 21.2951 9.5802 44.5592 3.5233 15.5549
# 5 11.1256 12.6525 4.4310 3.5233 46.5618 11.6960
# 6 20.1595 40.4706 23.8390 15.5549 11.6960 52.9131
#
#
#
# Elastic Compliance Matrix: (Units=1/GPa)
#
#
# Indices 1 2 3 4 5 6 
#
# 1 0.027305 -0.008780 -0.018912 -0.002794 -0.003756 0.006484
# 2 -0.008780 0.013075 0.010698 -0.001806 0.000437 -0.011041
# 3 -0.018912 0.010698 0.042491 -0.001041 0.002779 -0.020429
# 4 -0.002794 -0.001806 -0.001041 0.026121 0.000506 -0.004876
# 5 -0.003756 0.000437 0.002779 0.000506 0.023324 -0.005459
# 6 0.006484 -0.011041 -0.020429 -0.004876 -0.005459 0.036717
#
#
# Mechanical properties :
#
#
# Convention : Reuss Voigt Hill
#
# Bulk Modulus (GPa) = 20.45686 44.31907 32.38796
# Shear Modulus (GPa) = 22.79832 40.94569 31.87200
#
# Velocity S-wave (km/s) = 2.97890 3.99217 3.52217
# Velocity P-wave (km/s) = 4.44908 6.20487 5.39883
#
# Compressibility (1/GPa) = 0.04888337
#
# Stress axis : x y z
#
# Youngs Moduli (GPa) = 36.62315 76.48410 23.53449
#
# Poissons Ratio (x) = 0.67150 0.44509
# Poissons Ratio (y) = 0.32154 -0.25178
# Poissons Ratio (z) = 0.69262 -0.81824
#
# Static dielectric constant tensor:
#      x y z
#    x 2.149640 0.084280 -0.062390 
#    y 0.084280 2.169820 -0.128070 
#    z -0.062390 -0.128070 1.802330 
# 
# From -- ./inp_files/375428.got.cif
#   From: 2010.05.17/outbox.cif.g08.bks.cpg/sg2_188_cif.got.tgz:375428.got - 2010.06.03 11:33:40.
