data_PCOD9091438
_publ_section_title
;
Structure prediction by ZEFSAII (Michael W. Deem and Ramdas Pophale) SiO2 
 PCOD9091438
Probable space group: P -1
;
_chemical_formula_sum "Si O2"
_cell_formula_units_Z 16
_cell_length_a 5.524937
_cell_length_b 17.639017
_cell_length_c 8.018263
_cell_angle_alpha 81.127436
_cell_angle_beta 121.160727
_cell_angle_gamma 102.220646
_cell_volume 652.585440
_symmetry_space_group_name_H-M "P -1"
_symmetry_group_IT_number 2
_symmetry_cell_setting 'triclinic'
loop_
_space_group_symop_operation_xyz
x,y,z
-x,-y,-z
loop_
_atom_site_type_symbol
_atom_site_label
_atom_site_fract_x
_atom_site_fract_y
_atom_site_fract_z
Si Si1 0.433107 0.934484 0.641010
Si Si2 0.190353 0.420834 0.991906
Si Si3 0.113594 0.130635 0.685019
Si Si4 0.713560 0.069212 0.882098
Si Si5 0.260374 0.270982 0.898369
Si Si6 0.153318 0.544874 0.694667
Si Si7 0.121858 0.171849 0.204813
Si Si8 0.907427 0.306477 0.211617
O O1 0.582403 0.861004 0.671280
O O2 0.095250 0.904585 0.526850
O O3 0.500000 0.000000 0.500000
O O4 0.591012 0.978410 0.841130
O O5 0.502111 0.449541 0.173772
O O6 0.013763 0.366273 0.081486
O O7 0.230725 0.360901 0.874837
O O8 0.056492 0.490677 0.839498
O O9 0.425255 0.108287 0.769680
O O10 0.159496 0.221914 0.716214
O O11 0.933602 0.093290 0.797176
O O12 0.887144 0.097487 0.101101
O O13 0.103146 0.224115 0.014044
O O14 0.591008 0.267405 0.058743
O O15 0.098763 0.633675 0.659225
O O16 0.000000 0.500000 0.500000
O O17 0.086663 0.236064 0.308598
#
# Coordination Sequence:
#
# PCOD9091438 Si02
#       8
#     2   2   2   2   2   2   2   2
#     4  10  22  40  58  89 128 163 214 284 339 393
#     4   9  20  39  65  90 133 168 214 267 327 396
#     4  10  20  39  60  89 127 163 214 274 337 388
#     4  10  20  39  62  89 118 170 219 271 329 405
#     4   9  19  38  60  88 120 171 215 266 318 400
#     4  10  21  39  64  98 129 166 214 269 330 397
#     4  10  20  39  63  87 122 171 222 268 332 401
#     4  10  19  39  66  89 126 170 223 262 327 397
#
# _framework density 24.517862999999998
#
# number of rings (size 3 to 8) (size 9 to 14) (size 15 to 20)
#    0.000    2.250    1.250    1.125    0.000    0.500 
#   15.750    3.750    2.750    0.000    0.000    0.000 
#    0.000    0.000    0.000    0.000    0.000    0.000 
#
# Total GULP energy -89361.695634 kJ/mol
# GULP energy per Si atom -5585.105977 kJ/mol
# Density = 2.446206 g / cm^3
# Si number density = 24.517863 Si / 1000 Ang^3
#
#
#
# Elastic Constant Matrix: (Units=GPa)
#
#
# Indices 1 2 3 4 5 6 
#
# 1 82.4024 25.3510 26.8350 8.2549 3.7760 -6.2847
# 2 25.3510 127.5494 46.2782 22.5288 -0.4105 -24.5914
# 3 26.8350 46.2782 125.0093 39.7713 -3.9459 -5.8728
# 4 8.2549 22.5288 39.7713 49.1569 5.1648 0.4842
# 5 3.7760 -0.4105 -3.9459 5.1648 29.8868 -7.5030
# 6 -6.2847 -24.5914 -5.8728 0.4842 -7.5030 51.9404
#
#
#
# Elastic Compliance Matrix: (Units=1/GPa)
#
#
# Indices 1 2 3 4 5 6 
#
# 1 0.013577 -0.001913 -0.002554 0.000894 -0.002203 0.000122
# 2 -0.001913 0.010475 -0.002274 -0.002873 0.001775 0.004754
# 3 -0.002554 -0.002274 0.012373 -0.008926 0.003623 0.000620
# 4 0.000894 -0.002873 -0.008926 0.029538 -0.007338 -0.003597
# 5 -0.002203 0.001775 0.003623 -0.007338 0.037119 0.006414
# 6 0.000122 0.004754 0.000620 -0.003597 0.006414 0.022549
#
#
# Mechanical properties :
#
#
# Convention : Reuss Voigt Hill
#
# Bulk Modulus (GPa) = 43.58761 59.09883 51.34322
# Shear Modulus (GPa) = 34.06918 41.96326 38.01622
#
# Velocity S-wave (km/s) = 3.73173 4.14156 3.94198
# Velocity P-wave (km/s) = 6.03194 6.85761 6.45798
#
# Compressibility (1/GPa) = 0.02294230
#
# Stress axis : x y z
#
# Youngs Moduli (GPa) = 73.65583 95.46434 80.82254
#
# Poissons Ratio (x) = 0.18264 0.20645
# Poissons Ratio (y) = 0.14091 0.18376
# Poissons Ratio (z) = 0.18814 0.21705
#
# Static dielectric constant tensor:
#      x y z
#    x 2.069490 -0.027510 -0.109420 
#    y -0.027510 1.980980 0.028630 
#    z -0.109420 0.028630 1.995020 
# 
# From -- ./inp_files/137752.got.cif
#   From: 2010.05.17/outbox.cif.g08.bks.cpg/sg2_69_cif.got.tgz:137752.got - 2010.06.03 11:33:40.
