data_PCOD9091678
_publ_section_title
;
Structure prediction by ZEFSAII (Michael W. Deem and Ramdas Pophale) SiO2 
 PCOD9091678
Probable space group: P -1
;
_chemical_formula_sum "Si O2"
_cell_formula_units_Z 14
_cell_length_a 15.507927
_cell_length_b 8.760350
_cell_length_c 8.629603
_cell_angle_alpha 106.028994
_cell_angle_beta 62.434177
_cell_angle_gamma 141.032502
_cell_volume 646.180668
_symmetry_space_group_name_H-M "P -1"
_symmetry_group_IT_number 2
_symmetry_cell_setting 'triclinic'
loop_
_space_group_symop_operation_xyz
x,y,z
-x,-y,-z
loop_
_atom_site_type_symbol
_atom_site_label
_atom_site_fract_x
_atom_site_fract_y
_atom_site_fract_z
Si Si1 0.455294 0.051835 0.696503
Si Si2 0.036314 0.907251 0.562699
Si Si3 0.831307 0.171258 0.806499
Si Si4 0.860974 0.931669 0.154592
Si Si5 0.384371 0.287972 0.913968
Si Si6 0.246701 0.665554 0.317424
Si Si7 0.854828 0.307815 0.259798
O O1 0.460496 0.249561 0.729770
O O2 0.581120 0.172550 0.753691
O O3 0.500000 0.000000 0.500000
O O4 0.275506 0.798826 0.779945
O O5 0.127910 0.889792 0.388984
O O6 0.878606 0.630227 0.670875
O O7 0.137188 0.096503 0.672040
O O8 0.000000 0.000000 0.500000
O O9 0.763680 0.242315 0.801879
O O10 0.989099 0.412024 0.820249
O O11 0.729448 0.948333 0.945699
O O12 0.712761 0.716004 0.114234
O O13 0.876858 0.144710 0.191445
O O14 0.000000 0.000000 0.000000
O O15 0.500000 0.500000 0.000000
O O16 0.196985 0.703006 0.525265
#
# Coordination Sequence:
#
# PCOD9091678 Si02
#       7
#     2   2   2   2   2   2   2
#     4   9  21  39  67  92 132 173 217 277 327 392
#     4  11  22  39  68 101 128 172 224 269 333 392
#     4  11  21  41  71  93 128 176 219 275 325 394
#     4  11  22  40  64  96 139 173 216 273 327 397
#     4  11  27  44  63  97 141 177 218 278 341 391
#     4  10  19  39  69  94 129 165 217 271 326 389
#     4   9  18  40  63  99 124 165 225 269 320 391
#
# _framework density 21.665768
#
# number of rings (size 3 to 8) (size 9 to 14) (size 15 to 20)
#    0.000    1.714    2.857    1.714    4.000    2.857 
#    0.000    9.286    0.000    0.000    0.000    0.000 
#    0.000    0.000    0.000    0.000    0.000    0.000 
#
# Total GULP energy -78104.968567 kJ/mol
# GULP energy per Si atom -5578.926326 kJ/mol
# Density = 2.161646 g / cm^3
# Si number density = 21.665768 Si / 1000 Ang^3
#
#
#
# Elastic Constant Matrix: (Units=GPa)
#
#
# Indices 1 2 3 4 5 6 
#
# 1 167.0024 44.9036 34.6556 0.5260 11.9125 36.2392
# 2 44.9036 77.2739 23.4816 6.8809 7.6082 36.6229
# 3 34.6556 23.4816 60.3602 15.1536 5.1151 20.4190
# 4 0.5260 6.8809 15.1536 35.4566 -3.1392 7.5460
# 5 11.9125 7.6082 5.1151 -3.1392 46.1634 6.6886
# 6 36.2392 36.6229 20.4190 7.5460 6.6886 35.7603
#
#
#
# Elastic Compliance Matrix: (Units=1/GPa)
#
#
# Indices 1 2 3 4 5 6 
#
# 1 0.008222 -0.001363 -0.002832 0.002524 -0.000579 -0.005743
# 2 -0.001363 0.025502 -0.001102 0.000681 -0.000174 -0.024218
# 3 -0.002832 -0.001102 0.023267 -0.008231 -0.001163 -0.007333
# 4 0.002524 0.000681 -0.008231 0.033156 0.003297 -0.006168
# 5 -0.000579 -0.000174 -0.001163 0.003297 0.022702 -0.003513
# 6 -0.005743 -0.024218 -0.007333 -0.006168 -0.003513 0.064732
#
#
# Mechanical properties :
#
#
# Convention : Reuss Voigt Hill
#
# Bulk Modulus (GPa) = 21.55289 56.74644 39.14967
# Shear Modulus (GPa) = 24.55299 36.91577 30.73438
#
# Velocity S-wave (km/s) = 3.37005 4.13228 3.77048
# Velocity P-wave (km/s) = 5.01123 7.00116 6.08805
#
# Compressibility (1/GPa) = 0.04639748
#
# Stress axis : x y z
#
# Youngs Moduli (GPa) = 121.62927 39.21247 42.97873
#
# Poissons Ratio (x) = 0.05344 0.12171
# Poissons Ratio (y) = 0.16575 0.04737
# Poissons Ratio (z) = 0.34445 0.04322
#
# Static dielectric constant tensor:
#      x y z
#    x 1.732870 0.029310 0.020630 
#    y 0.029310 1.806310 0.039020 
#    z 0.020630 0.039020 1.860820 
# 
# From -- ./inp_files/298789.got.cif
#   From: 2010.05.17/outbox.cif.g08.bks.cpg/sg2_150_cif.got.tgz:298789.got - 2010.06.03 11:33:40.
