data_PCOD9091703
_publ_section_title
;
Structure prediction by ZEFSAII (Michael W. Deem and Ramdas Pophale) SiO2 
 PCOD9091703
Probable space group: P -1
;
_chemical_formula_sum "Si O2"
_cell_formula_units_Z 14
_cell_length_a 8.312127
_cell_length_b 13.695094
_cell_length_c 10.548484
_cell_angle_alpha 46.316198
_cell_angle_beta 135.207355
_cell_angle_gamma 132.376849
_cell_volume 570.579076
_symmetry_space_group_name_H-M "P -1"
_symmetry_group_IT_number 2
_symmetry_cell_setting 'triclinic'
loop_
_space_group_symop_operation_xyz
x,y,z
-x,-y,-z
loop_
_atom_site_type_symbol
_atom_site_label
_atom_site_fract_x
_atom_site_fract_y
_atom_site_fract_z
Si Si1 0.179995 0.733802 0.395613
Si Si2 0.848936 0.486602 0.611537
Si Si3 0.565515 0.232784 0.095206
Si Si4 0.315577 0.472744 0.240492
Si Si5 0.630593 0.881619 0.656391
Si Si6 0.955777 0.836336 0.581414
Si Si7 0.124271 0.106998 0.784144
O O1 0.129666 0.660858 0.296040
O O2 0.470640 0.804979 0.514915
O O3 0.070087 0.611877 0.553201
O O4 0.034622 0.838616 0.253440
O O5 0.596950 0.492661 0.406990
O O6 0.814817 0.499793 0.729087
O O7 0.437473 0.222070 0.167930
O O8 0.778521 0.170134 0.287547
O O9 0.668802 0.398144 0.960071
O O10 0.373535 0.133272 0.973621
O O11 0.172132 0.304920 0.276591
O O12 0.500000 0.000000 0.500000
O O13 0.922881 0.956870 0.758099
O O14 0.817252 0.805407 0.394882
O O15 0.000000 0.000000 0.500000
#
# Coordination Sequence:
#
# PCOD9091703 Si02
#       7
#     2   2   2   2   2   2   2
#     4  10  19  39  70 101 138 190 232 283 350 417
#     4  10  20  38  71 104 143 186 232 288 358 417
#     4  12  23  45  74 101 140 187 240 295 349 422
#     4  11  22  43  70 106 144 184 235 299 347 418
#     4  10  21  40  69  96 141 187 222 289 360 407
#     4  12  27  45  71 101 146 189 232 288 362 430
#     4  11  22  44  69 103 141 189 236 291 356 417
#
# _framework density 24.536477000000001
#
# number of rings (size 3 to 8) (size 9 to 14) (size 15 to 20)
#    0.000    1.143    5.714    1.714    2.000    0.571 
#    0.000    5.000    3.143    0.000    0.000    0.000 
#    0.000    0.000    0.000    0.000    0.000    0.000 
#
# Total GULP energy -78245.287394 kJ/mol
# GULP energy per Si atom -5588.949100 kJ/mol
# Density = 2.448063 g / cm^3
# Si number density = 24.536477 Si / 1000 Ang^3
#
#
#
# Elastic Constant Matrix: (Units=GPa)
#
#
# Indices 1 2 3 4 5 6 
#
# 1 58.0296 25.7212 -12.9374 -21.2523 -4.0134 -7.3741
# 2 25.7212 130.5095 1.2986 -0.2510 -3.4531 9.5095
# 3 -12.9374 1.2986 58.1649 10.1449 -0.0211 3.4758
# 4 -21.2523 -0.2510 10.1449 40.9861 15.0104 -0.1283
# 5 -4.0134 -3.4531 -0.0211 15.0104 21.9681 -2.6082
# 6 -7.3741 9.5095 3.4758 -0.1283 -2.6082 45.9051
#
#
#
# Elastic Compliance Matrix: (Units=1/GPa)
#
#
# Indices 1 2 3 4 5 6 
#
# 1 0.026062 -0.005641 0.003047 0.014818 -0.005672 0.004844
# 2 -0.005641 0.009031 -0.000662 -0.003659 0.002581 -0.002590
# 3 0.003047 -0.000662 0.018665 -0.004257 0.003307 -0.000611
# 4 0.014818 -0.003659 -0.004257 0.043016 -0.027021 0.002046
# 5 -0.005672 0.002581 0.003307 -0.027021 0.063575 0.001840
# 6 0.004844 -0.002590 -0.000611 0.002046 0.001840 0.023255
#
#
# Mechanical properties :
#
#
# Convention : Reuss Voigt Hill
#
# Bulk Modulus (GPa) = 21.16641 30.54097 25.85369
# Shear Modulus (GPa) = 24.28768 37.27994 30.78381
#
# Velocity S-wave (km/s) = 3.14962 3.90214 3.54590
# Velocity P-wave (km/s) = 4.67675 5.72507 5.22726
#
# Compressibility (1/GPa) = 0.04724467
#
# Stress axis : x y z
#
# Youngs Moduli (GPa) = 38.36968 110.73389 53.57560
#
# Poissons Ratio (x) = 0.62468 -0.16324
# Poissons Ratio (y) = 0.21645 0.03549
# Poissons Ratio (z) = -0.11691 0.07335
#
# Static dielectric constant tensor:
#      x y z
#    x 1.998790 0.002020 -0.033810 
#    y 0.002020 2.027730 -0.000500 
#    z -0.033810 -0.000500 1.919500 
# 
# From -- ./inp_files/395688.got.cif
#   From: 2010.05.17/outbox.cif.g08.bks.cpg/sg2_198_cif.got.tgz:395688.got - 2010.06.03 11:33:40.
