data_PCOD9091655
_publ_section_title
;
Structure prediction by ZEFSAII (Michael W. Deem and Ramdas Pophale) SiO2 
 PCOD9091655
Probable space group: P -1
;
_chemical_formula_sum "Si O2"
_cell_formula_units_Z 16
_cell_length_a 12.717645
_cell_length_b 10.923404
_cell_length_c 15.597721
_cell_angle_alpha 112.667048
_cell_angle_beta 42.876012
_cell_angle_gamma 144.661764
_cell_volume 717.864813
_symmetry_space_group_name_H-M "P -1"
_symmetry_group_IT_number 2
_symmetry_cell_setting 'triclinic'
loop_
_space_group_symop_operation_xyz
x,y,z
-x,-y,-z
loop_
_atom_site_type_symbol
_atom_site_label
_atom_site_fract_x
_atom_site_fract_y
_atom_site_fract_z
Si Si1 0.465133 0.966231 0.162098
Si Si2 0.133188 0.504588 0.132015
Si Si3 0.904342 0.566897 0.169241
Si Si4 0.444130 0.571901 0.384883
Si Si5 0.519656 0.369040 0.198545
Si Si6 0.999104 0.163154 0.675037
Si Si7 0.896429 0.278751 0.527271
Si Si8 0.249656 0.929677 0.623446
O O1 0.356300 0.750007 0.125011
O O2 0.253625 0.918636 0.229173
O O3 0.387279 0.912963 0.294306
O O4 0.802308 0.232941 0.009137
O O5 0.924959 0.465779 0.201394
O O6 0.974807 0.283225 0.227363
O O7 0.300299 0.554067 0.968595
O O8 0.932669 0.729923 0.243513
O O9 0.625006 0.366780 0.220415
O O10 0.590149 0.571363 0.235397
O O11 0.296399 0.391700 0.505887
O O12 0.155540 0.412938 0.466540
O O13 0.633814 0.837645 0.367497
O O14 0.176198 0.099993 0.308323
O O15 0.859840 0.165874 0.433883
O O16 0.000000 0.500000 0.500000
O O17 0.500000 0.000000 0.500000
#
# Coordination Sequence:
#
# PCOD9091655 Si02
#       8
#     2   2   2   2   2   2   2   2
#     4  10  19  39  68  99 127 159 225 276 323 380
#     4  11  22  41  66  99 135 170 216 273 319 389
#     4  11  22  39  68 101 128 168 221 271 332 379
#     4  11  27  44  63  98 134 175 222 262 329 397
#     4  12  25  41  65  97 136 178 213 267 332 389
#     4  10  21  42  64  91 136 170 215 275 316 385
#     4  11  22  43  70  95 122 173 217 273 328 376
#     4  12  24  43  70  98 131 167 224 277 319 388
#
# _framework density 22.288319999999999
#
# number of rings (size 3 to 8) (size 9 to 14) (size 15 to 20)
#    0.000    1.000    5.000    3.000    1.750    5.000 
#    0.000    0.625    0.000    0.000    0.000    0.000 
#    0.000    0.000    0.000    0.000    0.000    0.000 
#
# Total GULP energy -89491.093757 kJ/mol
# GULP energy per Si atom -5593.193360 kJ/mol
# Density = 2.223759 g / cm^3
# Si number density = 22.288320 Si / 1000 Ang^3
#
#
#
# Elastic Constant Matrix: (Units=GPa)
#
#
# Indices 1 2 3 4 5 6 
#
# 1 44.5724 32.8305 32.3273 7.7701 13.3136 17.3417
# 2 32.8305 203.4201 60.9358 22.1257 15.9139 9.2078
# 3 32.3273 60.9358 97.3248 6.8778 27.4695 0.7964
# 4 7.7701 22.1257 6.8778 28.6100 2.1967 -6.8959
# 5 13.3136 15.9139 27.4695 2.1967 32.8788 10.6620
# 6 17.3417 9.2078 0.7964 -6.8959 10.6620 27.8513
#
#
#
# Elastic Compliance Matrix: (Units=1/GPa)
#
#
# Indices 1 2 3 4 5 6 
#
# 1 0.051980 0.000425 -0.018092 -0.020423 0.008266 -0.040209
# 2 0.000425 0.006889 -0.004662 -0.005624 0.002280 -0.004674
# 3 -0.018092 -0.004662 0.023256 0.009338 -0.017306 0.021079
# 4 -0.020423 -0.005624 0.009338 0.050807 -0.010189 0.030789
# 5 0.008266 0.002280 -0.017306 -0.010189 0.049865 -0.027018
# 6 -0.040209 -0.004674 0.021079 0.030789 -0.027018 0.079850
#
#
# Mechanical properties :
#
#
# Convention : Reuss Voigt Hill
#
# Bulk Modulus (GPa) = 26.69134 66.38939 46.54037
# Shear Modulus (GPa) = 15.63508 32.48293 24.05901
#
# Velocity S-wave (km/s) = 2.65144 3.82173 3.28905
# Velocity P-wave (km/s) = 4.62331 7.02321 5.94561
#
# Compressibility (1/GPa) = 0.03746534
#
# Stress axis : x y z
#
# Youngs Moduli (GPa) = 19.23834 145.16248 43.00002
#
# Poissons Ratio (x) = -0.06175 0.77797
# Poissons Ratio (y) = -0.00818 0.20048
# Poissons Ratio (z) = 0.34807 0.67680
#
# Static dielectric constant tensor:
#      x y z
#    x 1.817010 -0.002910 0.027250 
#    y -0.002910 1.861140 0.005240 
#    z 0.027250 0.005240 1.828270 
# 
# From -- ./inp_files/471743.got.cif
#   From: 2010.05.17/outbox.cif.g08.bks.cpg/sg2_236_cif.got.tgz:471743.got - 2010.06.03 11:33:40.
