data_PCOD9091279
_publ_section_title
;
Structure prediction by ZEFSAII (Michael W. Deem and Ramdas Pophale) SiO2 
 PCOD9091279
Probable space group: P -1
;
_chemical_formula_sum "Si O2"
_cell_formula_units_Z 16
_cell_length_a 7.630264
_cell_length_b 17.481021
_cell_length_c 11.848669
_cell_angle_alpha 149.216828
_cell_angle_beta 125.726116
_cell_angle_gamma 63.464333
_cell_volume 650.883422
_symmetry_space_group_name_H-M "P -1"
_symmetry_group_IT_number 2
_symmetry_cell_setting 'triclinic'
loop_
_space_group_symop_operation_xyz
x,y,z
-x,-y,-z
loop_
_atom_site_type_symbol
_atom_site_label
_atom_site_fract_x
_atom_site_fract_y
_atom_site_fract_z
Si Si1 0.118486 0.460597 0.106919
Si Si2 0.145025 0.149945 0.713705
Si Si3 0.246438 0.479184 0.414236
Si Si4 0.541363 0.832098 0.337391
Si Si5 0.253652 0.206202 0.400753
Si Si6 0.216990 0.931797 0.865046
Si Si7 0.659912 0.841599 0.976430
Si Si8 0.375053 0.541864 0.776662
O O1 0.116566 0.526387 0.316138
O O2 0.373863 0.468021 0.178725
O O3 0.019622 0.287983 0.871004
O O4 0.000000 0.500000 0.000000
O O5 0.232367 0.174220 0.652250
O O6 0.343316 0.160519 0.891778
O O7 0.000000 0.000000 0.500000
O O8 0.500000 0.500000 0.500000
O O9 0.214250 0.297311 0.189022
O O10 0.238515 0.558813 0.632208
O O11 0.579549 0.813984 0.460637
O O12 0.500000 0.000000 0.500000
O O13 0.384114 0.688791 0.045839
O O14 0.293358 0.379156 0.593951
O O15 0.011059 0.154293 0.290950
O O16 0.277481 0.082566 0.155911
O O17 0.414526 0.833729 0.829197
O O18 0.219586 0.002367 0.830502
#
# Coordination Sequence:
#
# PCOD9091279 Si02
#       8
#     2   2   2   2   2   2   2   2
#     4   9  20  37  64 102 134 164 216 274 336 391
#     4  10  21  39  65  94 129 164 221 272 329 383
#     4   9  18  37  64  93 132 169 214 275 330 391
#     4  11  24  42  67  89 132 180 223 271 339 401
#     4  11  22  41  64  97 135 177 220 274 330 404
#     4  10  22  37  67  97 133 169 223 268 338 393
#     4  10  19  39  64  96 126 175 217 276 324 395
#     4  10  21  42  68  93 133 179 221 275 335 394
#
# _framework density 24.581972
#
# number of rings (size 3 to 8) (size 9 to 14) (size 15 to 20)
#    0.000    2.000    1.250    2.625    0.000    2.000 
#   11.250    0.000   11.000   12.000    0.000    0.000 
#    0.000    0.000    0.000    0.000    0.000    0.000 
#
# Total GULP energy -89384.991358 kJ/mol
# GULP energy per Si atom -5586.561960 kJ/mol
# Density = 2.452602 g / cm^3
# Si number density = 24.581972 Si / 1000 Ang^3
#
#
#
# Elastic Constant Matrix: (Units=GPa)
#
#
# Indices 1 2 3 4 5 6 
#
# 1 62.3277 17.2886 25.9138 1.7919 9.0292 2.4060
# 2 17.2886 164.4320 84.8646 -21.0549 -5.8063 30.2225
# 3 25.9138 84.8646 155.7559 11.1457 1.5767 11.3781
# 4 1.7919 -21.0549 11.1457 49.5572 11.0343 2.2853
# 5 9.0292 -5.8063 1.5767 11.0343 32.2435 5.5554
# 6 2.4060 30.2225 11.3781 2.2853 5.5554 30.7566
#
#
#
# Elastic Compliance Matrix: (Units=1/GPa)
#
#
# Indices 1 2 3 4 5 6 
#
# 1 0.018122 -0.000924 -0.002610 0.000722 -0.005604 0.001414
# 2 -0.000924 0.012296 -0.006270 0.006637 0.002336 -0.010606
# 3 -0.002610 -0.006270 0.010427 -0.005125 0.000359 0.002823
# 4 0.000722 0.006637 -0.005125 0.025860 -0.006676 -0.005398
# 5 -0.005604 0.002336 0.000359 -0.006676 0.036670 -0.008117
# 6 0.001414 -0.010606 0.002823 -0.005398 -0.008117 0.043647
#
#
# Mechanical properties :
#
#
# Convention : Reuss Voigt Hill
#
# Bulk Modulus (GPa) = 47.08353 70.96108 59.02230
# Shear Modulus (GPa) = 28.78368 39.47469 34.12919
#
# Velocity S-wave (km/s) = 3.42559 4.01164 3.73014
# Velocity P-wave (km/s) = 5.90267 7.09841 6.52798
#
# Compressibility (1/GPa) = 0.02123885
#
# Stress axis : x y z
#
# Youngs Moduli (GPa) = 55.18115 81.32610 95.90036
#
# Poissons Ratio (x) = 0.07512 0.25030
# Poissons Ratio (y) = 0.05097 0.60127
# Poissons Ratio (z) = 0.14402 0.50989
#
# Static dielectric constant tensor:
#      x y z
#    x 1.964270 0.000180 -0.055990 
#    y 0.000180 1.887960 0.032540 
#    z -0.055990 0.032540 2.069340 
# 
# From -- ./inp_files/403660.got.cif
#   From: 2010.05.17/outbox.cif.g08.bks.cpg/sg2_202_cif.got.tgz:403660.got - 2010.06.03 11:33:40.
