data_PCOD9091827
_publ_section_title
;
Structure prediction by ZEFSAII (Michael W. Deem and Ramdas Pophale) SiO2 
 PCOD9091827
Probable space group: P -1
;
_chemical_formula_sum "Si O2"
_cell_formula_units_Z 14
_cell_length_a 21.998751
_cell_length_b 19.098427
_cell_length_c 7.580834
_cell_angle_alpha 39.158003
_cell_angle_beta 38.048587
_cell_angle_gamma 19.459315
_cell_volume 645.505785
_symmetry_space_group_name_H-M "P -1"
_symmetry_group_IT_number 2
_symmetry_cell_setting 'triclinic'
loop_
_space_group_symop_operation_xyz
x,y,z
-x,-y,-z
loop_
_atom_site_type_symbol
_atom_site_label
_atom_site_fract_x
_atom_site_fract_y
_atom_site_fract_z
Si Si1 0.286205 0.588016 0.926270
Si Si2 0.306004 0.356618 0.553368
Si Si3 0.364510 0.073929 0.806204
Si Si4 0.397010 0.878630 0.398840
Si Si5 0.570375 0.485687 0.645455
Si Si6 0.029523 0.949978 0.322368
Si Si7 0.060949 0.205638 0.293943
O O1 0.437138 0.512227 0.844100
O O2 0.346824 0.546389 0.666406
O O3 0.288158 0.460058 0.232025
O O4 0.085190 0.842544 0.916016
O O5 0.273367 0.262603 0.754408
O O6 0.514950 0.167646 0.528895
O O7 0.149458 0.547818 0.678181
O O8 0.500000 0.000000 0.500000
O O9 0.194831 0.156964 0.965627
O O10 0.476621 0.886590 0.051504
O O11 0.464319 0.690020 0.575884
O O12 0.174596 0.099590 0.428692
O O13 0.746041 0.275789 0.771213
O O14 0.941958 0.915741 0.535751
O O15 0.000000 0.000000 0.500000
#
# Coordination Sequence:
#
# PCOD9091827 Si02
#       7
#     2   2   2   2   2   2   2
#     4  10  22  35  63  90 126 162 215 244 307 365
#     4  12  23  41  64  95 126 168 201 257 315 371
#     4  10  23  44  69  88 122 164 212 258 307 369
#     4  10  22  39  66  86 130 159 208 253 319 359
#     4  10  19  40  61  89 124 168 202 262 296 364
#     4  10  20  38  63  89 125 164 204 253 302 365
#     4  10  23  41  64  91 130 159 206 260 313 358
#
# _framework density 21.688417999999999
#
# number of rings (size 3 to 8) (size 9 to 14) (size 15 to 20)
#    0.857    0.857    2.857    1.714    0.000    2.286 
#    0.000    2.143    0.000    0.000    0.000    0.000 
#    0.000    0.000    0.000    0.000    0.000    0.000 
#
# Total GULP energy -78168.727974 kJ/mol
# GULP energy per Si atom -5583.480570 kJ/mol
# Density = 2.163905 g / cm^3
# Si number density = 21.688418 Si / 1000 Ang^3
#
#
#
# Elastic Constant Matrix: (Units=GPa)
#
#
# Indices 1 2 3 4 5 6 
#
# 1 62.2915 12.0850 31.8114 -5.3390 -11.1514 -13.5766
# 2 12.0850 46.1886 31.9839 -10.5571 -5.4179 -16.3917
# 3 31.8114 31.9839 107.5074 -3.1591 -2.8912 -2.3070
# 4 -5.3390 -10.5571 -3.1591 26.1849 9.8207 0.5691
# 5 -11.1514 -5.4179 -2.8912 9.8207 24.6355 2.2313
# 6 -13.5766 -16.3917 -2.3070 0.5691 2.2313 38.5652
#
#
#
# Elastic Compliance Matrix: (Units=1/GPa)
#
#
# Indices 1 2 3 4 5 6 
#
# 1 0.022655 0.003567 -0.007297 0.001719 0.008726 0.008525
# 2 0.003567 0.037776 -0.011499 0.013586 0.001678 0.016327
# 3 -0.007297 -0.011499 0.014586 -0.003407 -0.002182 -0.006407
# 4 0.001719 0.013586 -0.003407 0.049881 -0.017101 0.006430
# 5 0.008726 0.001678 -0.002182 -0.017101 0.051387 0.000934
# 6 0.008525 0.016327 -0.006407 0.006430 0.000934 0.035339
#
#
# Mechanical properties :
#
#
# Convention : Reuss Voigt Hill
#
# Bulk Modulus (GPa) = 22.44214 40.86088 31.65151
# Shear Modulus (GPa) = 19.46016 27.21760 23.33888
#
# Velocity S-wave (km/s) = 2.99868 3.54635 3.28395
# Velocity P-wave (km/s) = 4.72858 5.97073 5.38559
#
# Compressibility (1/GPa) = 0.04455903
#
# Stress axis : x y z
#
# Youngs Moduli (GPa) = 44.13954 26.47168 68.56056
#
# Poissons Ratio (x) = -0.09443 0.50027
# Poissons Ratio (y) = -0.15745 0.78840
# Poissons Ratio (z) = 0.32208 0.30441
#
# Static dielectric constant tensor:
#      x y z
#    x 1.788500 -0.004840 0.035760 
#    y -0.004840 1.803490 0.030250 
#    z 0.035760 0.030250 1.780780 
# 
# From -- ./inp_files/355230.got.cif
#   From: 2010.05.17/outbox.cif.g08.bks.cpg/sg2_178_cif.got.tgz:355230.got - 2010.06.03 11:33:40.
