data_PCOD9091121
_publ_section_title
;
Structure prediction by ZEFSAII (Michael W. Deem and Ramdas Pophale) SiO2 
 PCOD9091121
Probable space group: P -1
;
_chemical_formula_sum "Si O2"
_cell_formula_units_Z 14
_cell_length_a 11.930629
_cell_length_b 7.449776
_cell_length_c 18.821304
_cell_angle_alpha 50.614132
_cell_angle_beta 141.784415
_cell_angle_gamma 103.546169
_cell_volume 666.497355
_symmetry_space_group_name_H-M "P -1"
_symmetry_group_IT_number 2
_symmetry_cell_setting 'triclinic'
loop_
_space_group_symop_operation_xyz
x,y,z
-x,-y,-z
loop_
_atom_site_type_symbol
_atom_site_label
_atom_site_fract_x
_atom_site_fract_y
_atom_site_fract_z
Si Si1 0.595914 0.315803 0.986663
Si Si2 0.128650 0.505158 0.320799
Si Si3 0.641447 0.742100 0.989467
Si Si4 0.932149 0.214451 0.639986
Si Si5 0.442975 0.361096 0.737972
Si Si6 0.246502 0.150722 0.349181
Si Si7 0.200374 0.683139 0.179250
O O1 0.415018 0.345425 0.942783
O O2 0.645950 0.541583 0.981754
O O3 0.522779 0.353410 0.859501
O O4 0.811173 0.005267 0.182852
O O5 0.138103 0.545107 0.397657
O O6 0.205419 0.209260 0.398993
O O7 0.255828 0.601356 0.310808
O O8 0.874225 0.699423 0.124572
O O9 0.468810 0.068460 0.810087
O O10 0.798185 0.373849 0.463299
O O11 0.847537 0.026903 0.675096
O O12 0.605053 0.369865 0.759999
O O13 0.140588 0.458100 0.185431
O O14 0.500000 0.000000 0.500000
O O15 0.000000 0.000000 0.000000
#
# Coordination Sequence:
#
# PCOD9091121 Si02
#       7
#     2   2   2   2   2   2   2
#     4  11  25  46  68  93 129 177 218 273 328 376
#     4  10  22  40  66  94 134 172 209 266 327 376
#     4  11  23  47  67  91 135 169 220 278 321 381
#     4  12  23  42  70  96 134 175 214 264 333 385
#     4  12  24  41  67 102 126 169 226 263 324 397
#     4  10  21  39  62  94 134 170 209 264 319 382
#     4  10  19  39  63  92 134 166 213 260 319 387
#
# _framework density 21.005334999999999
#
# number of rings (size 3 to 8) (size 9 to 14) (size 15 to 20)
#    0.857    0.286    5.714    0.429    0.000    4.000 
#    2.571    3.571    0.000    0.000    0.000    0.000 
#    0.000    0.000    0.000    0.000    0.000    0.000 
#
# Total GULP energy -78052.800810 kJ/mol
# GULP energy per Si atom -5575.200058 kJ/mol
# Density = 2.095753 g / cm^3
# Si number density = 21.005335 Si / 1000 Ang^3
#
#
#
# Elastic Constant Matrix: (Units=GPa)
#
#
# Indices 1 2 3 4 5 6 
#
# 1 74.0225 19.9222 23.2292 9.5481 -1.0029 -14.5726
# 2 19.9222 77.4062 20.5333 -8.7453 -8.3266 -16.1267
# 3 23.2292 20.5333 101.8817 1.4984 -14.4728 -21.1494
# 4 9.5481 -8.7453 1.4984 20.7166 1.8922 -3.0061
# 5 -1.0029 -8.3266 -14.4728 1.8922 18.4151 -6.2505
# 6 -14.5726 -16.1267 -21.1494 -3.0061 -6.2505 33.3941
#
#
#
# Elastic Compliance Matrix: (Units=1/GPa)
#
#
# Indices 1 2 3 4 5 6 
#
# 1 0.017152 -0.004306 -0.002476 -0.009036 -0.001072 0.002823
# 2 -0.004306 0.018365 0.000959 0.010172 0.011391 0.010645
# 3 -0.002476 0.000959 0.014912 0.000732 0.015976 0.011883
# 4 -0.009036 0.010172 0.000732 0.057567 0.001082 0.006817
# 5 -0.001072 0.011391 0.015976 0.001082 0.082241 0.030642
# 6 0.002823 0.010645 0.011883 0.006817 0.030642 0.050193
#
#
# Mechanical properties :
#
#
# Convention : Reuss Voigt Hill
#
# Bulk Modulus (GPa) = 25.78473 42.29776 34.04125
# Shear Modulus (GPa) = 18.86765 27.14686 23.00726
#
# Velocity S-wave (km/s) = 3.00030 3.59887 3.31313
# Velocity P-wave (km/s) = 4.92995 6.11960 5.55670
#
# Compressibility (1/GPa) = 0.03878264
#
# Stress axis : x y z
#
# Youngs Moduli (GPa) = 58.30178 54.45159 67.05904
#
# Poissons Ratio (x) = 0.23445 0.16606
# Poissons Ratio (y) = 0.25103 -0.06429
# Poissons Ratio (z) = 0.14437 -0.05220
#
# Static dielectric constant tensor:
#      x y z
#    x 1.765770 -0.002250 0.001070 
#    y -0.002250 1.788100 -0.000060 
#    z 0.001070 -0.000060 1.788840 
# 
# From -- ./inp_files/593480.got.cif
#   From: 2010.05.17/outbox.cif.g08.bks.cpg/sg2_297_cif.got.tgz:593480.got - 2010.06.03 11:33:40.
