data_PCOD9091644
_publ_section_title
;
Structure prediction by ZEFSAII (Michael W. Deem and Ramdas Pophale) SiO2 
 PCOD9091644
Probable space group: P -1
;
_chemical_formula_sum "Si O2"
_cell_formula_units_Z 16
_cell_length_a 22.382572
_cell_length_b 13.008362
_cell_length_c 18.737527
_cell_angle_alpha 40.368497
_cell_angle_beta 161.749794
_cell_angle_gamma 150.869923
_cell_volume 745.236462
_symmetry_space_group_name_H-M "P -1"
_symmetry_group_IT_number 2
_symmetry_cell_setting 'triclinic'
loop_
_space_group_symop_operation_xyz
x,y,z
-x,-y,-z
loop_
_atom_site_type_symbol
_atom_site_label
_atom_site_fract_x
_atom_site_fract_y
_atom_site_fract_z
Si Si1 0.071531 0.148466 0.407757
Si Si2 0.211692 0.280010 0.245983
Si Si3 0.920489 0.763738 0.177702
Si Si4 0.632378 0.130795 0.290838
Si Si5 0.896874 0.257772 0.017999
Si Si6 0.267255 0.479930 0.052319
Si Si7 0.566242 0.630728 0.078796
Si Si8 0.682860 0.139560 0.062324
O O1 0.401042 0.314638 0.703758
O O2 0.893668 0.878267 0.332904
O O3 0.043571 0.246646 0.254409
O O4 0.906478 0.143437 0.286238
O O5 0.500000 0.500000 0.500000
O O6 0.243341 0.361379 0.158889
O O7 0.108069 0.035377 0.257108
O O8 0.966616 0.218940 0.043473
O O9 0.060996 0.722167 0.411841
O O10 0.911021 0.700060 0.119716
O O11 0.595132 0.569784 0.938045
O O12 0.427524 0.946408 0.219281
O O13 0.537557 0.984943 0.188159
O O14 0.560528 0.269499 0.123390
O O15 0.000000 0.500000 0.000000
O O16 0.175951 0.602609 0.902854
O O17 0.500000 0.500000 0.000000
O O18 0.500000 0.000000 0.000000
#
# Coordination Sequence:
#
# PCOD9091644 Si02
#       8
#     2   2   2   2   2   2   2   2
#     4  10  23  43  65 101 134 177 219 279 333 391
#     4  12  23  42  72  93 126 178 224 274 331 395
#     4  12  25  43  62 100 136 173 218 273 340 395
#     4  10  23  41  65  97 136 170 219 281 331 397
#     4  10  19  39  68  97 123 168 231 270 328 394
#     4  12  25  44  67  99 141 173 225 273 332 404
#     4  10  22  41  68  97 129 170 229 274 331 396
#     4  10  22  42  69  97 130 176 224 269 334 394
#
# _framework density 21.469695999999999
#
# number of rings (size 3 to 8) (size 9 to 14) (size 15 to 20)
#    0.000    1.500    1.250    6.750    1.750    2.000 
#    4.500    0.625    0.000    0.000    0.000    0.000 
#    0.000    0.000    0.000    0.000    0.000    0.000 
#
# Total GULP energy -89391.200230 kJ/mol
# GULP energy per Si atom -5586.950014 kJ/mol
# Density = 2.142083 g / cm^3
# Si number density = 21.469696 Si / 1000 Ang^3
#
#
#
# Elastic Constant Matrix: (Units=GPa)
#
#
# Indices 1 2 3 4 5 6 
#
# 1 151.2057 40.5851 23.4090 14.5955 -4.4293 -10.0916
# 2 40.5851 135.0725 18.3340 18.1734 -4.9468 -9.1812
# 3 23.4090 18.3340 40.0940 20.8949 -2.5642 -12.4784
# 4 14.5955 18.1734 20.8949 25.0484 2.1786 4.3611
# 5 -4.4293 -4.9468 -2.5642 2.1786 37.2813 5.4224
# 6 -10.0916 -9.1812 -12.4784 4.3611 5.4224 47.3089
#
#
#
# Elastic Compliance Matrix: (Units=1/GPa)
#
#
# Indices 1 2 3 4 5 6 
#
# 1 0.007680 -0.001735 -0.003128 -0.000731 0.000438 0.000494
# 2 -0.001735 0.008885 0.001448 -0.007138 0.001161 0.002261
# 3 -0.003128 0.001448 0.060531 -0.053576 0.004200 0.020037
# 4 -0.000731 -0.007138 -0.053576 0.094929 -0.006828 -0.023641
# 5 0.000438 0.001161 0.004200 -0.006828 0.027883 -0.001140
# 6 0.000494 0.002261 0.020037 -0.023641 -0.001140 0.029277
#
#
# Mechanical properties :
#
#
# Convention : Reuss Voigt Hill
#
# Bulk Modulus (GPa) = 14.23173 54.55871 34.39522
# Shear Modulus (GPa) = 19.27253 38.19732 28.73493
#
# Velocity S-wave (km/s) = 2.99935 4.22255 3.66238
# Velocity P-wave (km/s) = 4.31717 7.01714 5.82573
#
# Compressibility (1/GPa) = 0.07026554
#
# Stress axis : x y z
#
# Youngs Moduli (GPa) = 130.21199 112.55247 16.52039
#
# Poissons Ratio (x) = 0.19528 0.05167
# Poissons Ratio (y) = 0.22592 -0.02392
# Poissons Ratio (z) = 0.40729 -0.16296
#
# Static dielectric constant tensor:
#      x y z
#    x 1.756830 0.018630 0.013280 
#    y 0.018630 1.812770 0.005820 
#    z 0.013280 0.005820 1.860080 
# 
# From -- ./inp_files/577967.got.cif
#   From: 2010.05.17/outbox.cif.g08.bks.cpg/sg2_289_cif.got.tgz:577967.got - 2010.06.03 11:33:40.
