data_PCOD9091069
_publ_section_title
;
Structure prediction by ZEFSAII (Michael W. Deem and Ramdas Pophale) SiO2 
 PCOD9091069
Probable space group: P -1
;
_chemical_formula_sum "Si O2"
_cell_formula_units_Z 16
_cell_length_a 12.203780
_cell_length_b 8.679432
_cell_length_c 12.465717
_cell_angle_alpha 56.601628
_cell_angle_beta 136.429281
_cell_angle_gamma 109.713526
_cell_volume 755.439975
_symmetry_space_group_name_H-M "P -1"
_symmetry_group_IT_number 2
_symmetry_cell_setting 'triclinic'
loop_
_space_group_symop_operation_xyz
x,y,z
-x,-y,-z
loop_
_atom_site_type_symbol
_atom_site_label
_atom_site_fract_x
_atom_site_fract_y
_atom_site_fract_z
Si Si1 0.486675 0.255901 0.324979
Si Si2 0.874431 0.867715 0.510185
Si Si3 0.036319 0.462235 0.817494
Si Si4 0.110994 0.836380 0.053726
Si Si5 0.719636 0.383449 0.928269
Si Si6 0.771112 0.960174 0.645892
Si Si7 0.278366 0.178749 0.012506
Si Si8 0.685472 0.990013 0.131658
O O1 0.440714 0.476832 0.224898
O O2 0.359819 0.167887 0.348724
O O3 0.667450 0.162971 0.507350
O O4 0.433896 0.204609 0.185114
O O5 0.808508 0.927211 0.558350
O O6 0.947173 0.655682 0.648304
O O7 0.743822 0.883794 0.319348
O O8 0.000000 0.000000 0.500000
O O9 0.172073 0.375266 0.867064
O O10 0.135065 0.500485 0.980536
O O11 0.929026 0.299386 0.828430
O O12 0.947131 0.907539 0.844802
O O13 0.194424 0.016702 0.075966
O O14 0.238147 0.707998 0.120866
O O15 0.730250 0.201319 0.080775
O O16 0.272938 0.109411 0.913749
O O17 0.500000 0.000000 0.000000
#
# Coordination Sequence:
#
# PCOD9091069 Si02
#       8
#     2   2   2   2   2   2   2   2
#     4  10  22  39  64  96 123 154 206 253 324 361
#     4  12  23  41  62  90 122 165 215 249 291 369
#     4  11  20  36  65  93 114 156 207 255 297 360
#     4  11  19  37  68  93 123 153 205 254 319 350
#     4  10  19  39  63  88 117 164 209 246 290 381
#     4  11  21  37  64  94 124 156 199 263 303 363
#     4  10  22  40  62  91 125 157 197 262 308 365
#     4  11  24  43  59  82 126 171 198 247 312 362
#
# _framework density 21.179708999999999
#
# number of rings (size 3 to 8) (size 9 to 14) (size 15 to 20)
#    0.000    1.250    5.000    3.000    0.000    0.500 
#    4.500    1.875    0.000    6.000    0.000    0.000 
#    0.000    0.000    0.000    0.000    0.000    0.000 
#
# Total GULP energy -89214.951242 kJ/mol
# GULP energy per Si atom -5575.934453 kJ/mol
# Density = 2.113150 g / cm^3
# Si number density = 21.179709 Si / 1000 Ang^3
#
#
#
# Elastic Constant Matrix: (Units=GPa)
#
#
# Indices 1 2 3 4 5 6 
#
# 1 38.6683 21.3003 31.8058 -1.5285 -1.2986 -16.4856
# 2 21.3003 80.0527 32.8891 -18.0683 12.8409 -31.6246
# 3 31.8058 32.8891 129.8749 -23.7842 12.3404 -16.4577
# 4 -1.5285 -18.0683 -23.7842 38.3489 -9.3916 10.1528
# 5 -1.2986 12.8409 12.3404 -9.3916 30.9373 3.5622
# 6 -16.4856 -31.6246 -16.4577 10.1528 3.5622 24.2605
#
#
#
# Elastic Compliance Matrix: (Units=1/GPa)
#
#
# Indices 1 2 3 4 5 6 
#
# 1 0.046381 0.002976 -0.009755 -0.012754 -0.003252 0.034594
# 2 0.002976 0.035161 -0.001769 -0.002905 -0.020504 0.050882
# 3 -0.009755 -0.001769 0.011428 0.006342 -0.001899 -0.003558
# 4 -0.012754 -0.002905 0.006342 0.038119 0.012702 -0.025968
# 5 -0.003252 -0.020504 -0.001899 0.012702 0.050253 -0.042920
# 6 0.034594 0.050882 -0.003558 -0.025968 -0.042920 0.145810
#
#
# Mechanical properties :
#
#
# Convention : Reuss Voigt Hill
#
# Bulk Modulus (GPa) = 13.17981 46.73183 29.95582
# Shear Modulus (GPa) = 13.53043 29.54938 21.53991
#
# Velocity S-wave (km/s) = 2.53027 3.73926 3.19251
# Velocity P-wave (km/s) = 3.84353 6.38397 5.26914
#
# Compressibility (1/GPa) = 0.07587362
#
# Stress axis : x y z
#
# Youngs Moduli (GPa) = 21.56072 28.44075 87.50709
#
# Poissons Ratio (x) = -0.08464 0.85364
# Poissons Ratio (y) = -0.06417 0.15478
# Poissons Ratio (z) = 0.21033 0.05030
#
# Static dielectric constant tensor:
#      x y z
#    x 1.799520 0.039160 0.052870 
#    y 0.039160 1.641950 -0.034340 
#    z 0.052870 -0.034340 1.743070 
# 
# From -- ./inp_files/419215.got.cif
#   From: 2010.05.17/outbox.cif.g08.bks.cpg/sg2_210_cif.got.tgz:419215.got - 2010.06.03 11:33:40.
