data_PCOD9091351
_publ_section_title
;
Structure prediction by ZEFSAII (Michael W. Deem and Ramdas Pophale) SiO2 
 PCOD9091351
Probable space group: P -1
;
_chemical_formula_sum "Si O2"
_cell_formula_units_Z 16
_cell_length_a 8.932796
_cell_length_b 16.975487
_cell_length_c 12.706883
_cell_angle_alpha 139.839689
_cell_angle_beta 43.979996
_cell_angle_gamma 107.392649
_cell_volume 714.635646
_symmetry_space_group_name_H-M "P -1"
_symmetry_group_IT_number 2
_symmetry_cell_setting 'triclinic'
loop_
_space_group_symop_operation_xyz
x,y,z
-x,-y,-z
loop_
_atom_site_type_symbol
_atom_site_label
_atom_site_fract_x
_atom_site_fract_y
_atom_site_fract_z
Si Si1 0.927635 0.713638 0.462875
Si Si2 0.419550 0.209670 0.643502
Si Si3 0.768627 0.099360 0.803791
Si Si4 0.490571 0.941156 0.768264
Si Si5 0.567598 0.508468 0.095635
Si Si6 0.002174 0.948309 0.754844
Si Si7 0.519750 0.446950 0.271993
Si Si8 0.900136 0.440790 0.226980
O O1 0.655509 0.834036 0.672184
O O2 0.011016 0.798273 0.581020
O O3 0.934614 0.575130 0.362326
O O4 0.145685 0.640392 0.186966
O O5 0.387099 0.140449 0.485984
O O6 0.421357 0.350935 0.753319
O O7 0.708063 0.093499 0.421637
O O8 0.174751 0.283558 0.921006
O O9 0.539915 0.070534 0.878687
O O10 0.886993 0.040345 0.799800
O O11 0.642836 0.272782 0.037798
O O12 0.000000 0.000000 0.500000
O O13 0.202879 0.978567 0.971120
O O14 0.414591 0.503117 0.265226
O O15 0.500000 0.500000 0.000000
O O16 0.746669 0.465124 0.219662
O O17 0.285364 0.542554 0.569156
#
# Coordination Sequence:
#
# PCOD9091351 Si02
#       8
#     2   2   2   2   2   2   2   2
#     4  10  19  39  65  92 123 165 216 254 306 376
#     4  11  23  41  64  95 127 164 209 261 323 365
#     4  11  23  40  66  92 126 173 209 257 311 378
#     4  11  22  39  65  96 122 170 219 254 304 380
#     4  11  22  39  67  90 126 164 204 265 313 371
#     4  11  22  40  66  90 130 164 210 262 310 380
#     4  11  22  41  65  98 126 166 214 258 316 377
#     4  10  22  39  66  95 130 163 209 268 316 374
#
# _framework density 22.389033999999999
#
# number of rings (size 3 to 8) (size 9 to 14) (size 15 to 20)
#    0.000    1.250    1.250    7.125    0.000    3.000 
#    0.000    6.250    0.000    0.000    0.000    0.000 
#    0.000    0.000    0.000    0.000    0.000    0.000 
#
# Total GULP energy -89368.010250 kJ/mol
# GULP energy per Si atom -5585.500641 kJ/mol
# Density = 2.233808 g / cm^3
# Si number density = 22.389034 Si / 1000 Ang^3
#
#
#
# Elastic Constant Matrix: (Units=GPa)
#
#
# Indices 1 2 3 4 5 6 
#
# 1 74.6203 17.5274 16.4398 -9.2244 -3.7803 -3.5195
# 2 17.5274 52.4122 24.3389 -15.1075 2.8407 -11.2285
# 3 16.4398 24.3389 95.9042 -18.6806 -8.7954 -11.4507
# 4 -9.2244 -15.1075 -18.6806 34.1168 9.8206 6.4346
# 5 -3.7803 2.8407 -8.7954 9.8206 34.7975 -4.8889
# 6 -3.5195 -11.2285 -11.4507 6.4346 -4.8889 19.1860
#
#
#
# Elastic Compliance Matrix: (Units=1/GPa)
#
#
# Indices 1 2 3 4 5 6 
#
# 1 0.014848 -0.004249 -0.001181 0.001240 0.001232 -0.000569
# 2 -0.004249 0.026800 -0.003858 0.008364 -0.004779 0.008580
# 3 -0.001181 -0.003858 0.013159 0.003256 0.003315 0.005132
# 4 0.001240 0.008364 0.003256 0.040582 -0.012547 -0.009742
# 5 0.001232 -0.004779 0.003315 -0.012547 0.035416 0.012640
# 6 -0.000569 0.008580 0.005132 -0.009742 0.012640 0.066590
#
#
# Mechanical properties :
#
#
# Convention : Reuss Voigt Hill
#
# Bulk Modulus (GPa) = 27.59888 37.72767 32.66327
# Shear Modulus (GPa) = 21.92534 28.59543 25.26039
#
# Velocity S-wave (km/s) = 3.13275 3.57768 3.36258
# Velocity P-wave (km/s) = 5.04374 5.82700 5.44946
#
# Compressibility (1/GPa) = 0.03623335
#
# Stress axis : x y z
#
# Youngs Moduli (GPa) = 67.34920 37.31376 75.99080
#
# Poissons Ratio (x) = 0.15853 0.08971
# Poissons Ratio (y) = 0.28614 0.29316
# Poissons Ratio (z) = 0.07951 0.14395
#
# Static dielectric constant tensor:
#      x y z
#    x 1.848680 0.019520 -0.062740 
#    y 0.019520 1.816660 -0.030940 
#    z -0.062740 -0.030940 1.889420 
# 
# From -- ./inp_files/279243.got.cif
#   From: 2010.05.17/outbox.cif.g08.bks.cpg/sg2_140_cif.got.tgz:279243.got - 2010.06.03 11:33:40.
