data_PCOD9091747
_publ_section_title
;
Structure prediction by ZEFSAII (Michael W. Deem and Ramdas Pophale) SiO2 
 PCOD9091747
Probable space group: P -1
;
_chemical_formula_sum "Si O2"
_cell_formula_units_Z 16
_cell_length_a 16.405786
_cell_length_b 13.722330
_cell_length_c 9.410080
_cell_angle_alpha 39.704112
_cell_angle_beta 40.482345
_cell_angle_gamma 35.570362
_cell_volume 733.594999
_symmetry_space_group_name_H-M "P -1"
_symmetry_group_IT_number 2
_symmetry_cell_setting 'triclinic'
loop_
_space_group_symop_operation_xyz
x,y,z
-x,-y,-z
loop_
_atom_site_type_symbol
_atom_site_label
_atom_site_fract_x
_atom_site_fract_y
_atom_site_fract_z
Si Si1 0.633307 0.491791 0.419131
Si Si2 0.187432 0.966767 0.624074
Si Si3 0.559028 0.425058 0.162658
Si Si4 0.906664 0.627384 0.111906
Si Si5 0.360800 0.027268 0.064767
Si Si6 0.618414 0.692844 0.958793
Si Si7 0.931060 0.648464 0.549141
Si Si8 0.061853 0.843025 0.707969
O O1 0.500000 0.500000 0.500000
O O2 0.580520 0.538586 0.596233
O O3 0.777916 0.298761 0.414417
O O4 0.660727 0.622127 0.144249
O O5 0.314718 0.790201 0.741677
O O6 0.082104 0.909639 0.757063
O O7 0.263553 0.000420 0.344722
O O8 0.094335 0.152879 0.628367
O O9 0.500000 0.500000 0.000000
O O10 0.616430 0.544321 0.027722
O O11 0.951820 0.475010 0.342266
O O12 0.743078 0.782877 0.094623
O O13 0.000000 0.500000 0.000000
O O14 0.972692 0.745347 0.944264
O O15 0.500000 0.000000 0.000000
O O16 0.448830 0.869430 0.004090
O O17 0.755766 0.709945 0.717597
O O18 0.000000 0.500000 0.500000
O O19 0.000000 0.000000 0.500000
#
# Coordination Sequence:
#
# PCOD9091747 Si02
#       8
#     2   2   2   2   2   2   2   2
#     4  10  19  39  73  95 136 176 229 287 343 400
#     4  12  22  45  70 105 135 185 234 290 351 415
#     4  11  24  42  68 106 143 177 229 283 358 425
#     4  12  24  44  71 107 140 184 239 285 347 420
#     4  12  23  40  76 106 133 179 244 295 336 405
#     4  11  21  46  70  99 137 185 229 292 347 409
#     4  12  27  49  67  98 148 188 227 290 364 422
#     4  12  22  40  72 105 136 172 242 295 338 408
#
# _framework density 21.810399
#
# number of rings (size 3 to 8) (size 9 to 14) (size 15 to 20)
#    0.000    0.500    8.750    0.750    0.000    1.000 
#    6.750    2.500    0.000    0.000    0.000    0.000 
#    0.000    0.000    0.000    0.000    0.000    0.000 
#
# Total GULP energy -89255.185664 kJ/mol
# GULP energy per Si atom -5578.449104 kJ/mol
# Density = 2.176076 g / cm^3
# Si number density = 21.810399 Si / 1000 Ang^3
#
#
#
# Elastic Constant Matrix: (Units=GPa)
#
#
# Indices 1 2 3 4 5 6 
#
# 1 120.4354 64.7587 33.3655 -13.9927 13.0810 6.0036
# 2 64.7587 205.7780 26.7262 -31.2376 23.9550 -4.1347
# 3 33.3655 26.7262 27.0754 -8.5866 14.9726 10.1949
# 4 -13.9927 -31.2376 -8.5866 35.8083 -1.5058 6.1948
# 5 13.0810 23.9550 14.9726 -1.5058 50.3651 -5.7629
# 6 6.0036 -4.1347 10.1949 6.1948 -5.7629 46.6192
#
#
#
# Elastic Compliance Matrix: (Units=1/GPa)
#
#
# Indices 1 2 3 4 5 6 
#
# 1 0.014013 -0.002626 -0.017734 -0.001353 0.003117 0.002406
# 2 -0.002626 0.006738 -0.000958 0.004484 -0.002070 0.000294
# 3 -0.017734 -0.000958 0.084731 0.015272 -0.022083 -0.021090
# 4 -0.001353 0.004484 0.015272 0.036153 -0.006194 -0.008338
# 5 0.003117 -0.002070 -0.022083 -0.006194 0.027377 0.008452
# 6 0.002406 0.000294 -0.021090 -0.008338 0.008452 0.027931
#
#
# Mechanical properties :
#
#
# Convention : Reuss Voigt Hill
#
# Bulk Modulus (GPa) = 15.91257 66.99884 41.45570
# Shear Modulus (GPa) = 19.19168 41.78773 30.48971
#
# Velocity S-wave (km/s) = 2.96958 4.38191 3.74296
# Velocity P-wave (km/s) = 4.36688 7.50913 6.14234
#
# Compressibility (1/GPa) = 0.06284341
#
# Stress axis : x y z
#
# Youngs Moduli (GPa) = 71.36256 148.40702 11.80212
#
# Poissons Ratio (x) = 0.38979 0.20930
# Poissons Ratio (y) = 0.18743 0.01131
# Poissons Ratio (z) = 1.26556 0.14223
#
# Static dielectric constant tensor:
#      x y z
#    x 1.769580 0.021100 -0.041020 
#    y 0.021100 1.840230 -0.020860 
#    z -0.041020 -0.020860 1.871410 
# 
# From -- ./inp_files/186810.got.cif
#   From: 2010.05.17/outbox.cif.g08.bks.cpg/sg2_94_cif.got.tgz:186810.got - 2010.06.03 11:33:40.
