data_PCOD9091627
_publ_section_title
;
Structure prediction by ZEFSAII (Michael W. Deem and Ramdas Pophale) SiO2 
 PCOD9091627
Probable space group: P -1
;
_chemical_formula_sum "Si O2"
_cell_formula_units_Z 16
_cell_length_a 9.426454
_cell_length_b 9.154867
_cell_length_c 15.144441
_cell_angle_alpha 76.673226
_cell_angle_beta 145.678771
_cell_angle_gamma 91.979244
_cell_volume 687.516023
_symmetry_space_group_name_H-M "P -1"
_symmetry_group_IT_number 2
_symmetry_cell_setting 'triclinic'
loop_
_space_group_symop_operation_xyz
x,y,z
-x,-y,-z
loop_
_atom_site_type_symbol
_atom_site_label
_atom_site_fract_x
_atom_site_fract_y
_atom_site_fract_z
Si Si1 0.950741 0.624068 0.103054
Si Si2 0.676051 0.957636 0.509451
Si Si3 0.105613 0.769973 0.474583
Si Si4 0.286337 0.334566 0.838437
Si Si5 0.798047 0.306540 0.030864
Si Si6 0.495465 0.445732 0.678619
Si Si7 0.984198 0.679360 0.611902
Si Si8 0.826363 0.908788 0.870347
O O1 0.839924 0.691490 0.130702
O O2 0.264838 0.587393 0.261935
O O3 0.887020 0.460549 0.076530
O O4 0.824920 0.754893 0.947053
O O5 0.842826 0.077705 0.560635
O O6 0.461370 0.983312 0.315907
O O7 0.500000 0.000000 0.500000
O O8 0.875214 0.785905 0.625258
O O9 0.365432 0.627722 0.607329
O O10 0.864977 0.727840 0.307828
O O11 0.055539 0.773612 0.553220
O O12 0.597364 0.267582 0.001991
O O13 0.220567 0.523506 0.769781
O O14 0.618921 0.358659 0.843230
O O15 0.027812 0.160026 0.135970
O O16 0.257118 0.385093 0.532191
O O17 0.000000 0.000000 0.000000
#
# Coordination Sequence:
#
# PCOD9091627 Si02
#       8
#     2   2   2   2   2   2   2   2
#     4  11  24  39  68 100 131 176 226 282 332 389
#     4  12  28  44  70 100 137 176 229 275 325 405
#     4  11  22  42  67  97 137 176 220 272 345 395
#     4  11  24  40  70 103 130 171 229 284 334 392
#     4  11  20  43  65  97 133 169 225 276 331 401
#     4  10  19  39  68  94 126 171 227 267 332 391
#     4  11  23  43  68  96 136 175 215 278 340 399
#     4  11  26  46  70  95 138 183 218 268 347 404
#
# _framework density 23.272183999999999
#
# number of rings (size 3 to 8) (size 9 to 14) (size 15 to 20)
#    0.000    1.000    2.500    6.000    7.000    1.000 
#    0.000    0.625    0.000    0.000    0.000    0.000 
#    0.000    0.000    0.000    0.000    0.000    0.000 
#
# Total GULP energy -89621.531550 kJ/mol
# GULP energy per Si atom -5601.345722 kJ/mol
# Density = 2.321922 g / cm^3
# Si number density = 23.272184 Si / 1000 Ang^3
#
#
#
# Elastic Constant Matrix: (Units=GPa)
#
#
# Indices 1 2 3 4 5 6 
#
# 1 145.9993 12.9744 4.2721 3.3707 1.8164 0.9759
# 2 12.9744 81.0764 7.2937 3.8787 -0.2777 -2.2910
# 3 4.2721 7.2937 70.1915 -7.7428 13.4875 1.2820
# 4 3.3707 3.8787 -7.7428 21.4935 -7.7261 4.7884
# 5 1.8164 -0.2777 13.4875 -7.7261 24.8781 7.3346
# 6 0.9759 -2.2910 1.2820 4.7884 7.3346 31.0619
#
#
#
# Elastic Compliance Matrix: (Units=1/GPa)
#
#
# Indices 1 2 3 4 5 6 
#
# 1 0.006990 -0.001026 -0.000315 -0.001337 -0.000800 0.000113
# 2 -0.001026 0.012840 -0.001579 -0.003241 -0.000416 0.001642
# 3 -0.000315 -0.001579 0.016314 0.003183 -0.008035 0.000627
# 4 -0.001337 -0.003241 0.003183 0.059217 0.020974 -0.014410
# 5 -0.000800 -0.000416 -0.008035 0.020974 0.055866 -0.016099
# 6 0.000113 0.001642 0.000627 -0.014410 -0.016099 0.038308
#
#
# Mechanical properties :
#
#
# Convention : Reuss Voigt Hill
#
# Bulk Modulus (GPa) = 32.99894 38.48308 35.74101
# Shear Modulus (GPa) = 24.33376 33.66849 29.00113
#
# Velocity S-wave (km/s) = 3.23711 3.80771 3.53394
# Velocity P-wave (km/s) = 5.30869 5.99196 5.66064
#
# Compressibility (1/GPa) = 0.03030400
#
# Stress axis : x y z
#
# Youngs Moduli (GPa) = 143.06607 77.87981 61.29817
#
# Poissons Ratio (x) = 0.07989 0.01929
# Poissons Ratio (y) = 0.14676 0.09681
# Poissons Ratio (z) = 0.04503 0.12300
#
# Static dielectric constant tensor:
#      x y z
#    x 1.882020 -0.026530 -0.039600 
#    y -0.026530 1.845100 0.003300 
#    z -0.039600 0.003300 1.875560 
# 
# From -- ./inp_files/185146.got.cif
#   From: 2010.05.17/outbox.cif.g08.bks.cpg/sg2_93_cif.got.tgz:185146.got - 2010.06.03 11:33:40.
