data_PCOD9091415
_publ_section_title
;
Structure prediction by ZEFSAII (Michael W. Deem and Ramdas Pophale) SiO2 
 PCOD9091415
Probable space group: P -1
;
_chemical_formula_sum "Si O2"
_cell_formula_units_Z 16
_cell_length_a 8.377992
_cell_length_b 18.096304
_cell_length_c 20.223307
_cell_angle_alpha 160.130212
_cell_angle_beta 39.863644
_cell_angle_gamma 137.610957
_cell_volume 665.984469
_symmetry_space_group_name_H-M "P -1"
_symmetry_group_IT_number 2
_symmetry_cell_setting 'triclinic'
loop_
_space_group_symop_operation_xyz
x,y,z
-x,-y,-z
loop_
_atom_site_type_symbol
_atom_site_label
_atom_site_fract_x
_atom_site_fract_y
_atom_site_fract_z
Si Si1 0.652436 0.646935 0.264921
Si Si2 0.462337 0.076345 0.649434
Si Si3 0.033889 0.242215 0.996369
Si Si4 0.184741 0.398420 0.219574
Si Si5 0.015000 0.761707 0.665373
Si Si6 0.494654 0.865215 0.957540
Si Si7 0.415737 0.986282 0.804680
Si Si8 0.780999 0.259532 0.812909
O O1 0.467188 0.838162 0.480799
O O2 0.471220 0.468647 0.209490
O O3 0.921629 0.746612 0.285358
O O4 0.718869 0.502526 0.058732
O O5 0.500000 0.000000 0.500000
O O6 0.230256 0.217035 0.854459
O O7 0.686623 0.209926 0.727776
O O8 0.023058 0.991883 0.816725
O O9 0.134546 0.399783 0.156826
O O10 0.762109 0.286465 0.094305
O O11 0.014290 0.555594 0.443559
O O12 0.184280 0.142555 0.015269
O O13 0.753490 0.752274 0.779053
O O14 0.264918 0.777760 0.644787
O O15 0.481912 0.013691 0.153002
O O16 0.500000 0.000000 0.000000
O O17 0.621778 0.095349 0.777593
#
# Coordination Sequence:
#
# PCOD9091415 Si02
#       8
#     2   2   2   2   2   2   2   2
#     4  10  20  38  62  85 117 156 203 241 285 347
#     4  12  23  37  60  90 121 160 194 240 298 355
#     4  10  21  41  56  86 127 157 189 243 301 350
#     4  10  19  39  66  83 118 158 199 247 290 348
#     4  10  19  39  66  85 111 157 204 243 297 344
#     4  10  23  39  62  90 121 155 194 248 303 354
#     4  10  20  39  65  86 118 155 197 251 293 345
#     4  10  21  40  61  88 117 156 205 243 285 347
#
# _framework density 24.024584999999998
#
# number of rings (size 3 to 8) (size 9 to 14) (size 15 to 20)
#    0.000    1.750    5.000    0.750    1.750    1.500 
#    0.000    2.500    0.000    0.000    0.000    0.000 
#    0.000    0.000    0.000    0.000    0.000    0.000 
#
# Total GULP energy -89136.340586 kJ/mol
# GULP energy per Si atom -5571.021287 kJ/mol
# Density = 2.396990 g / cm^3
# Si number density = 24.024585 Si / 1000 Ang^3
#
#
#
# Elastic Constant Matrix: (Units=GPa)
#
#
# Indices 1 2 3 4 5 6 
#
# 1 105.0291 59.9228 33.3530 -23.4844 44.1351 19.3314
# 2 59.9228 102.3102 42.1833 -23.0138 13.4365 30.9913
# 3 33.3530 42.1833 125.3678 -26.9245 34.5573 10.0435
# 4 -23.4844 -23.0138 -26.9245 38.4490 -8.2374 -5.8790
# 5 44.1351 13.4365 34.5573 -8.2374 43.5636 -5.3644
# 6 19.3314 30.9913 10.0435 -5.8790 -5.3644 38.4511
#
#
#
# Elastic Compliance Matrix: (Units=1/GPa)
#
#
# Indices 1 2 3 4 5 6 
#
# 1 0.034119 -0.012540 0.008446 0.009275 -0.037249 -0.013031
# 2 -0.012540 0.020648 -0.005391 0.001985 0.010099 -0.007217
# 3 0.008446 -0.005391 0.014368 0.007491 -0.017485 -0.004948
# 4 0.009275 0.001985 0.007491 0.035374 -0.009777 -0.004175
# 5 -0.037249 0.010099 -0.017485 -0.009777 0.072527 0.023778
# 6 -0.013031 -0.007217 -0.004948 -0.004175 0.023778 0.042347
#
#
# Mechanical properties :
#
#
# Convention : Reuss Voigt Hill
#
# Bulk Modulus (GPa) = 19.93417 67.06949 43.50183
# Shear Modulus (GPa) = 19.60220 37.24262 28.42241
#
# Velocity S-wave (km/s) = 2.85953 3.94151 3.44329
# Velocity P-wave (km/s) = 4.38383 6.97794 5.82708
#
# Compressibility (1/GPa) = 0.05016511
#
# Stress axis : x y z
#
# Youngs Moduli (GPa) = 29.30960 48.43157 69.59803
#
# Poissons Ratio (x) = 0.60733 -0.58782
# Poissons Ratio (y) = 0.36754 0.37518
# Poissons Ratio (z) = -0.24755 0.26108
#
# Static dielectric constant tensor:
#      x y z
#    x 2.003660 -0.086880 0.011790 
#    y -0.086880 2.115990 0.008390 
#    z 0.011790 0.008390 1.957380 
# 
# From -- ./inp_files/455357.got.cif
#   From: 2010.05.17/outbox.cif.g08.bks.cpg/sg2_228_cif.got.tgz:455357.got - 2010.06.03 11:33:40.
