data_PCOD9091631
_publ_section_title
;
Structure prediction by ZEFSAII (Michael W. Deem and Ramdas Pophale) SiO2 
 PCOD9091631
Probable space group: P -1
;
_chemical_formula_sum "Si O2"
_cell_formula_units_Z 16
_cell_length_a 16.422160
_cell_length_b 10.791877
_cell_length_c 9.262086
_cell_angle_alpha 125.928687
_cell_angle_beta 87.920178
_cell_angle_gamma 136.070252
_cell_volume 669.541116
_symmetry_space_group_name_H-M "P -1"
_symmetry_group_IT_number 2
_symmetry_cell_setting 'triclinic'
loop_
_space_group_symop_operation_xyz
x,y,z
-x,-y,-z
loop_
_atom_site_type_symbol
_atom_site_label
_atom_site_fract_x
_atom_site_fract_y
_atom_site_fract_z
Si Si1 0.259233 0.341877 0.786173
Si Si2 0.638304 0.351986 0.735942
Si Si3 0.805373 0.420396 0.577820
Si Si4 0.623949 0.863857 0.095810
Si Si5 0.999036 0.419196 0.101337
Si Si6 0.475028 0.551931 0.359719
Si Si7 0.263824 0.231471 0.414431
Si Si8 0.052777 0.762937 0.545316
O O1 0.242680 0.325365 0.602852
O O2 0.106932 0.993923 0.605475
O O3 0.276061 0.501430 0.013394
O O4 0.435415 0.544738 0.932053
O O5 0.759409 0.509180 0.704459
O O6 0.559060 0.385723 0.722414
O O7 0.500000 0.000000 0.500000
O O8 0.837601 0.379056 0.696493
O O9 0.957502 0.655126 0.621751
O O10 0.664582 0.108389 0.281671
O O11 0.775421 0.032488 0.281307
O O12 0.620262 0.761728 0.878642
O O13 0.954635 0.480364 0.262724
O O14 0.000000 0.500000 0.000000
O O15 0.892755 0.092705 0.871910
O O16 0.398306 0.495262 0.470305
O O17 0.658021 0.794252 0.532554
#
# Coordination Sequence:
#
# PCOD9091631 Si02
#       8
#     2   2   2   2   2   2   2   2
#     4  11  22  38  67  92 129 169 221 269 313 386
#     4  12  26  44  66  97 130 174 221 270 329 382
#     4  11  25  41  65  97 135 170 213 273 328 384
#     4  10  19  39  68  95 121 167 224 276 308 367
#     4  11  22  38  65  97 133 165 212 264 328 387
#     4  10  22  40  71  95 126 167 221 273 318 386
#     4  10  22  41  65 100 128 169 215 267 326 382
#     4  11  21  38  64  99 125 169 219 271 316 375
#
# _framework density 23.896965000000002
#
# number of rings (size 3 to 8) (size 9 to 14) (size 15 to 20)
#    0.000    1.250    3.750    3.375    3.500    0.500 
#    0.000    2.500    0.000    0.000    0.000    0.000 
#    0.000    0.000    0.000    0.000    0.000    0.000 
#
# Total GULP energy -89176.036160 kJ/mol
# GULP energy per Si atom -5573.502260 kJ/mol
# Density = 2.384257 g / cm^3
# Si number density = 23.896965 Si / 1000 Ang^3
#
#
#
# Elastic Constant Matrix: (Units=GPa)
#
#
# Indices 1 2 3 4 5 6 
#
# 1 36.1524 1.6615 7.3142 -8.0332 -1.3292 16.3080
# 2 1.6615 74.0225 31.1241 -13.1527 -5.4240 21.2043
# 3 7.3142 31.1241 153.6218 -13.6971 -20.7154 15.8017
# 4 -8.0332 -13.1527 -13.6971 44.6090 8.2011 -5.0848
# 5 -1.3292 -5.4240 -20.7154 8.2011 29.1629 -10.1630
# 6 16.3080 21.2043 15.8017 -5.0848 -10.1630 27.5027
#
#
#
# Elastic Compliance Matrix: (Units=1/GPa)
#
#
# Indices 1 2 3 4 5 6 
#
# 1 0.046279 0.011232 -0.001442 0.009183 -0.012751 -0.038287
# 2 0.011232 0.021755 -0.002993 0.006229 -0.007444 -0.023313
# 3 -0.001442 -0.002993 0.007839 0.000406 0.005039 0.000596
# 4 0.009183 0.006229 0.000406 0.026628 -0.008677 -0.008765
# 5 -0.012751 -0.007444 0.005039 -0.008677 0.047532 0.026365
# 6 -0.038287 -0.023313 0.000596 -0.008765 0.026365 0.084817
#
#
# Mechanical properties :
#
#
# Convention : Reuss Voigt Hill
#
# Bulk Modulus (GPa) = 11.17700 38.22181 24.69940
# Shear Modulus (GPa) = 19.91417 35.16804 27.54111
#
# Velocity S-wave (km/s) = 2.88989 3.84037 3.39852
# Velocity P-wave (km/s) = 3.97776 5.97443 5.07525
#
# Compressibility (1/GPa) = 0.08946943
#
# Stress axis : x y z
#
# Youngs Moduli (GPa) = 21.60807 45.96591 127.56776
#
# Poissons Ratio (x) = -0.51631 0.18389
# Poissons Ratio (y) = -0.24271 0.38179
# Poissons Ratio (z) = 0.03115 0.13757
#
# Static dielectric constant tensor:
#      x y z
#    x 1.984620 0.020580 -0.040400 
#    y 0.020580 1.928980 -0.007400 
#    z -0.040400 -0.007400 1.940010 
# 
# From -- ./inp_files/333762.got.cif
#   From: 2010.05.17/outbox.cif.g08.bks.cpg/sg2_167_cif.got.tgz:333762.got - 2010.06.03 11:33:40.
