data_PCOD9091645
_publ_section_title
;
Structure prediction by ZEFSAII (Michael W. Deem and Ramdas Pophale) SiO2 
 PCOD9091645
Probable space group: P -1
;
_chemical_formula_sum "Si O2"
_cell_formula_units_Z 16
_cell_length_a 14.489057
_cell_length_b 10.398137
_cell_length_c 18.364458
_cell_angle_alpha 127.615096
_cell_angle_beta 29.145771
_cell_angle_gamma 145.488943
_cell_volume 700.971805
_symmetry_space_group_name_H-M "P -1"
_symmetry_group_IT_number 2
_symmetry_cell_setting 'triclinic'
loop_
_space_group_symop_operation_xyz
x,y,z
-x,-y,-z
loop_
_atom_site_type_symbol
_atom_site_label
_atom_site_fract_x
_atom_site_fract_y
_atom_site_fract_z
Si Si1 0.115520 0.202829 0.807388
Si Si2 0.343369 0.334807 0.478711
Si Si3 0.789812 0.163599 0.746653
Si Si4 0.744064 0.508870 0.916003
Si Si5 0.238416 0.883680 0.417249
Si Si6 0.143700 0.662305 0.030039
Si Si7 0.131361 0.817747 0.880987
Si Si8 0.140550 0.280591 0.246839
O O1 0.441196 0.476852 0.670235
O O2 0.937826 0.202476 0.873287
O O3 0.070955 0.994297 0.735701
O O4 0.992061 0.156501 0.957390
O O5 0.500000 0.500000 0.500000
O O6 0.310135 0.121563 0.438649
O O7 0.042349 0.228177 0.633833
O O8 0.745551 0.316629 0.858554
O O9 0.854651 0.224448 0.637040
O O10 0.486883 0.874450 0.866052
O O11 0.783569 0.562850 0.821243
O O12 0.989773 0.761321 0.880831
O O13 0.434819 0.384855 0.106117
O O14 0.525920 0.972584 0.273821
O O15 0.007839 0.725483 0.585923
O O16 0.984902 0.441765 0.118111
O O17 0.000000 0.500000 0.000000
#
# Coordination Sequence:
#
# PCOD9091645 Si02
#       8
#     2   2   2   2   2   2   2   2
#     4  11  21  44  67  97 137 177 208 275 335 397
#     4  12  25  40  66 109 140 167 215 272 336 402
#     4  12  25  43  68  98 139 174 217 270 337 397
#     4  11  27  46  63  97 128 180 228 273 328 393
#     4  12  23  43  67  99 132 174 214 279 329 392
#     4  10  19  39  68  97 128 169 211 261 335 408
#     4  11  23  41  70  98 133 172 220 268 337 401
#     4  11  26  45  67  91 133 174 232 276 324 384
#
# _framework density 22.825455000000002
#
# number of rings (size 3 to 8) (size 9 to 14) (size 15 to 20)
#    0.000    0.750    6.250    1.875    3.500    2.000 
#    0.000    0.000    0.000    0.000    0.000    0.000 
#    0.000    0.000    0.000    0.000    0.000    0.000 
#
# Total GULP energy -89470.349954 kJ/mol
# GULP energy per Si atom -5591.896872 kJ/mol
# Density = 2.277350 g / cm^3
# Si number density = 22.825455 Si / 1000 Ang^3
#
#
#
# Elastic Constant Matrix: (Units=GPa)
#
#
# Indices 1 2 3 4 5 6 
#
# 1 65.3753 14.2873 42.6456 -1.1354 -11.5243 38.3674
# 2 14.2873 40.0943 7.3712 1.4539 -9.4296 16.9390
# 3 42.6456 7.3712 137.4972 -21.2428 -7.8913 24.6386
# 4 -1.1354 1.4539 -21.2428 28.2319 11.5655 1.3721
# 5 -11.5243 -9.4296 -7.8913 11.5655 38.8552 0.1799
# 6 38.3674 16.9390 24.6386 1.3721 0.1799 40.8148
#
#
#
# Elastic Compliance Matrix: (Units=1/GPa)
#
#
# Indices 1 2 3 4 5 6 
#
# 1 0.045305 0.006519 -0.007592 -0.008948 0.016328 -0.040482
# 2 0.006519 0.034106 -0.000507 -0.005797 0.011925 -0.019834
# 3 -0.007592 -0.000507 0.010779 0.008976 -0.002860 0.000552
# 4 -0.008948 -0.005797 0.008976 0.048802 -0.016782 0.003832
# 5 0.016328 0.011925 -0.002860 -0.016782 0.037972 -0.018175
# 6 -0.040482 -0.019834 0.000552 0.003832 -0.018175 0.070405
#
#
# Mechanical properties :
#
#
# Convention : Reuss Voigt Hill
#
# Bulk Modulus (GPa) = 11.49059 41.28612 26.38835
# Shear Modulus (GPa) = 17.88659 33.49123 25.68891
#
# Velocity S-wave (km/s) = 2.80237 3.83466 3.35841
# Velocity P-wave (km/s) = 3.93904 6.14273 5.15990
#
# Compressibility (1/GPa) = 0.08702772
#
# Stress axis : x y z
#
# Youngs Moduli (GPa) = 22.07261 29.32066 92.77644
#
# Poissons Ratio (x) = -0.19114 0.70439
# Poissons Ratio (y) = -0.14389 0.04708
# Poissons Ratio (z) = 0.16758 0.01488
#
# Static dielectric constant tensor:
#      x y z
#    x 2.056700 0.123530 0.117420 
#    y 0.123530 2.010040 0.122470 
#    z 0.117420 0.122470 1.949180 
# 
# From -- ./inp_files/207989.got.cif
#   From: 2010.05.17/outbox.cif.g08.bks.cpg/sg2_104_cif.got.tgz:207989.got - 2010.06.03 11:33:40.
