data_PCOD9091536
_publ_section_title
;
Structure prediction by ZEFSAII (Michael W. Deem and Ramdas Pophale) SiO2 
 PCOD9091536
Probable space group: P -1
;
_chemical_formula_sum "Si O2"
_cell_formula_units_Z 14
_cell_length_a 14.784366
_cell_length_b 8.828117
_cell_length_c 9.311707
_cell_angle_alpha 85.650999
_cell_angle_beta 100.917285
_cell_angle_gamma 142.642077
_cell_volume 718.400908
_symmetry_space_group_name_H-M "P -1"
_symmetry_group_IT_number 2
_symmetry_cell_setting 'triclinic'
loop_
_space_group_symop_operation_xyz
x,y,z
-x,-y,-z
loop_
_atom_site_type_symbol
_atom_site_label
_atom_site_fract_x
_atom_site_fract_y
_atom_site_fract_z
Si Si1 0.398769 0.324613 0.756855
Si Si2 0.276747 0.592825 0.864439
Si Si3 0.837268 0.741473 0.407017
Si Si4 0.727195 0.332661 0.608350
Si Si5 0.407663 0.009737 0.659928
Si Si6 0.584587 0.803745 0.927314
Si Si7 0.849839 0.391478 0.916251
O O1 0.263436 0.242178 0.652333
O O2 0.430442 0.214905 0.686187
O O3 0.538285 0.624577 0.801807
O O4 0.362166 0.218916 0.915116
O O5 0.168817 0.359285 0.738276
O O6 0.427676 0.688016 0.926367
O O7 0.334784 0.821660 0.784336
O O8 0.194801 0.536465 0.988715
O O9 0.757877 0.523469 0.511832
O O10 0.000000 0.000000 0.500000
O O11 0.570144 0.149280 0.661145
O O12 0.856954 0.467764 0.752825
O O13 0.698873 0.162199 0.497178
O O14 0.711812 0.089043 0.898674
O O15 0.000000 0.500000 0.000000
#
# Coordination Sequence:
#
# PCOD9091536 Si02
#       7
#     2   2   2   2   2   2   2
#     4  10  21  36  65  89 114 159 204 249 291 360
#     4  10  20  42  68  85 115 174 200 239 305 364
#     4  10  24  42  60  85 129 162 196 241 315 368
#     4  10  23  39  61  92 121 158 201 257 293 358
#     4  10  19  39  67  90 115 155 214 247 294 354
#     4  10  20  39  64  91 117 154 210 250 294 354
#     4  12  24  38  63  94 125 153 206 255 297 357
#
# _framework density 19.487725999999999
#
# number of rings (size 3 to 8) (size 9 to 14) (size 15 to 20)
#    0.000    1.714    2.857    1.286    4.000    1.714 
#    2.571    3.571    0.000    0.000    0.000    0.000 
#    0.000    0.000    0.000    0.000    0.000    0.000 
#
# Total GULP energy -78200.988494 kJ/mol
# GULP energy per Si atom -5585.784892 kJ/mol
# Density = 1.944337 g / cm^3
# Si number density = 19.487726 Si / 1000 Ang^3
#
#
#
# Elastic Constant Matrix: (Units=GPa)
#
#
# Indices 1 2 3 4 5 6 
#
# 1 84.4307 27.6120 53.9199 14.6979 7.6810 -22.1775
# 2 27.6120 61.2179 25.1850 21.9625 1.1565 -11.3049
# 3 53.9199 25.1850 128.7436 14.2435 22.5262 -4.3367
# 4 14.6979 21.9625 14.2435 23.6332 0.9190 -0.7953
# 5 7.6810 1.1565 22.5262 0.9190 30.5044 4.6424
# 6 -22.1775 -11.3049 -4.3367 -0.7953 4.6424 24.2611
#
#
#
# Elastic Compliance Matrix: (Units=1/GPa)
#
#
# Indices 1 2 3 4 5 6 
#
# 1 0.024431 -0.000605 -0.007832 -0.009079 -0.003265 0.020978
# 2 -0.000605 0.028333 -0.002155 -0.024253 -0.000356 0.011537
# 3 -0.007832 -0.002155 0.012500 -0.000568 -0.006443 -0.004715
# 4 -0.009079 -0.024253 -0.000568 0.070061 0.004289 -0.018226
# 5 -0.003265 -0.000356 -0.006443 0.004289 0.040046 -0.011824
# 6 0.020978 0.011537 -0.004715 -0.018226 -0.011824 0.066593
#
#
# Mechanical properties :
#
#
# Convention : Reuss Voigt Hill
#
# Bulk Modulus (GPa) = 22.68536 54.20288 38.44412
# Shear Modulus (GPa) = 17.99598 26.85810 22.42704
#
# Velocity S-wave (km/s) = 3.04213 3.71645 3.39607
# Velocity P-wave (km/s) = 4.89954 6.80369 5.92856
#
# Compressibility (1/GPa) = 0.04408129
#
# Stress axis : x y z
#
# Youngs Moduli (GPa) = 40.93132 35.29511 79.99807
#
# Poissons Ratio (x) = 0.02134 0.62651
# Poissons Ratio (y) = 0.02475 0.17241
# Poissons Ratio (z) = 0.32055 0.07607
#
# Static dielectric constant tensor:
#      x y z
#    x 1.655030 -0.014490 -0.003800 
#    y -0.014490 1.680860 0.008890 
#    z -0.003800 0.008890 1.713560 
# 
# From -- ./inp_files/155308.got.cif
#   From: 2010.05.17/outbox.cif.g08.bks.cpg/sg2_78_cif.got.tgz:155308.got - 2010.06.03 11:33:40.
