data_PCOD9091010
_publ_section_title
;
Structure prediction by ZEFSAII (Michael W. Deem and Ramdas Pophale) SiO2 
 PCOD9091010
Probable space group: P -1
;
_chemical_formula_sum "Si O2"
_cell_formula_units_Z 14
_cell_length_a 7.440624
_cell_length_b 10.766880
_cell_length_c 7.071181
_cell_angle_alpha 99.619664
_cell_angle_beta 84.173495
_cell_angle_gamma 64.174086
_cell_volume 492.945510
_symmetry_space_group_name_H-M "P -1"
_symmetry_group_IT_number 2
_symmetry_cell_setting 'triclinic'
loop_
_space_group_symop_operation_xyz
x,y,z
-x,-y,-z
loop_
_atom_site_type_symbol
_atom_site_label
_atom_site_fract_x
_atom_site_fract_y
_atom_site_fract_z
Si Si1 0.594367 0.299412 0.271458
Si Si2 0.917037 0.600359 0.355630
Si Si3 0.437646 0.881350 0.264192
Si Si4 0.919110 0.753150 0.085584
Si Si5 0.490823 0.404312 0.728162
Si Si6 0.147757 0.974433 0.654747
Si Si7 0.753303 0.803248 0.735401
O O1 0.597587 0.357609 0.499168
O O2 0.541920 0.438301 0.185810
O O3 0.797867 0.151081 0.231393
O O4 0.417861 0.251323 0.243629
O O5 0.038927 0.614027 0.166862
O O6 0.731646 0.580246 0.289853
O O7 0.845399 0.752183 0.505887
O O8 0.000000 0.500000 0.500000
O O9 0.675275 0.821380 0.176431
O O10 0.404830 0.741868 0.199255
O O11 0.362113 0.926464 0.502118
O O12 0.327257 0.028119 0.198273
O O13 0.953809 0.882006 0.180821
O O14 0.920699 0.725241 0.858147
O O15 0.000000 0.000000 0.500000
#
# Coordination Sequence:
#
# PCOD9091010 Si02
#       7
#     2   2   2   2   2   2   2
#     4   9  18  34  56  90 118 159 205 256 304 360
#     4  10  22  38  62  88 125 167 203 252 312 379
#     4  10  19  39  62  92 119 162 211 254 296 373
#     4  11  22  39  66  94 119 166 216 256 301 370
#     4   8  18  33  57  84 120 155 203 249 306 356
#     4  11  22  35  63  92 127 167 209 254 320 369
#     4  11  21  38  70  91 118 163 220 255 301 368
#
# _framework density 28.400707000000001
#
# number of rings (size 3 to 8) (size 9 to 14) (size 15 to 20)
#    0.000    2.000    2.857    1.714    2.000    0.571 
#    0.000    3.571    3.143    0.000    0.000    0.000 
#    0.000    0.000    0.000    0.000    0.000    0.000 
#
# Total GULP energy -78247.442662 kJ/mol
# GULP energy per Si atom -5589.103047 kJ/mol
# Density = 2.833607 g / cm^3
# Si number density = 28.400707 Si / 1000 Ang^3
#
#
#
# Elastic Constant Matrix: (Units=GPa)
#
#
# Indices 1 2 3 4 5 6 
#
# 1 74.3874 38.6384 23.2721 -1.8967 3.4257 4.1582
# 2 38.6384 253.4810 34.5928 -19.2598 28.5151 31.0727
# 3 23.2721 34.5928 125.3059 3.0066 13.3146 14.3556
# 4 -1.8967 -19.2598 3.0066 37.7419 4.2963 2.5558
# 5 3.4257 28.5151 13.3146 4.2963 36.4125 2.2005
# 6 4.1582 31.0727 14.3556 2.5558 2.2005 42.5763
#
#
#
# Elastic Compliance Matrix: (Units=1/GPa)
#
#
# Indices 1 2 3 4 5 6 
#
# 1 0.015270 -0.002282 -0.002437 -0.000408 0.001232 0.000956
# 2 -0.002282 0.005521 -0.000316 0.003453 -0.004177 -0.003691
# 3 -0.002437 -0.000316 0.009092 -0.000544 -0.002637 -0.002428
# 4 -0.000408 0.003453 -0.000544 0.029182 -0.005683 -0.003755
# 5 0.001232 -0.004177 -0.002637 -0.005683 0.032102 0.002499
# 6 0.000956 -0.003691 -0.002428 -0.003755 0.002499 0.027002
#
#
# Mechanical properties :
#
#
# Convention : Reuss Voigt Hill
#
# Bulk Modulus (GPa) = 50.47290 71.79788 61.13539
# Shear Modulus (GPa) = 37.07998 47.12422 42.10210
#
# Velocity S-wave (km/s) = 3.61723 4.07782 3.85441
# Velocity P-wave (km/s) = 5.93768 6.89251 6.43284
#
# Compressibility (1/GPa) = 0.01981261
#
# Stress axis : x y z
#
# Youngs Moduli (GPa) = 65.48734 181.13063 109.99048
#
# Poissons Ratio (x) = 0.41332 0.26801
# Poissons Ratio (y) = 0.14944 0.03481
# Poissons Ratio (z) = 0.15957 0.05732
#
# Static dielectric constant tensor:
#      x y z
#    x 2.296610 -0.000080 -0.050000 
#    y -0.000080 2.326360 -0.019230 
#    z -0.050000 -0.019230 2.143700 
# 
# From -- ./inp_files/172287.got.cif
#   From: 2010.05.17/outbox.cif.g08.bks.cpg/sg2_87_cif.got.tgz:172287.got - 2010.06.03 11:33:40.
