data_PCOD9091895
_publ_section_title
;
Structure prediction by ZEFSAII (Michael W. Deem and Ramdas Pophale) SiO2 
 PCOD9091895
Probable space group: P -1
;
_chemical_formula_sum "Si O2"
_cell_formula_units_Z 16
_cell_length_a 14.694796
_cell_length_b 8.548148
_cell_length_c 22.851795
_cell_angle_alpha 66.911153
_cell_angle_beta 20.063551
_cell_angle_gamma 76.593865
_cell_volume 816.743545
_symmetry_space_group_name_H-M "P -1"
_symmetry_group_IT_number 2
_symmetry_cell_setting 'triclinic'
loop_
_space_group_symop_operation_xyz
x,y,z
-x,-y,-z
loop_
_atom_site_type_symbol
_atom_site_label
_atom_site_fract_x
_atom_site_fract_y
_atom_site_fract_z
Si Si1 0.608444 0.869071 0.614968
Si Si2 0.654989 0.880810 0.721557
Si Si3 0.756167 0.513572 0.979423
Si Si4 0.694103 0.125527 0.953414
Si Si5 0.770740 0.855236 0.853220
Si Si6 0.174551 0.334590 0.714071
Si Si7 0.069932 0.954270 0.899964
Si Si8 0.248811 0.450073 0.887268
O O1 0.569246 0.895484 0.704073
O O2 0.364418 0.920146 0.724481
O O3 0.534376 0.650057 0.679249
O O4 0.936098 0.000362 0.377501
O O5 0.559471 0.657302 0.818848
O O6 0.485265 0.933878 0.867954
O O7 0.000000 0.000000 0.500000
O O8 0.819556 0.678896 0.871678
O O9 0.974217 0.415233 0.856721
O O10 0.785581 0.581218 0.017929
O O11 0.020005 0.279773 0.751637
O O12 0.714449 0.957894 0.929046
O O13 0.505477 0.198598 0.015417
O O14 0.500000 0.500000 0.500000
O O15 0.131428 0.135245 0.796231
O O16 0.800408 0.752179 0.077513
O O17 0.000000 0.000000 0.000000
O O18 0.000000 0.500000 0.000000
#
# Coordination Sequence:
#
# PCOD9091895 Si02
#       8
#     2   2   2   2   2   2   2   2
#     4  10  21  38  65  93 121 165 213 253 314 379
#     4  10  19  40  63  87 120 165 206 255 304 372
#     4  10  22  38  62  89 123 162 207 256 316 367
#     4  10  23  40  65  86 132 161 206 266 313 371
#     4  11  22  41  63  94 127 162 207 261 324 370
#     4  11  23  39  58  87 123 164 207 253 310 373
#     4  11  21  37  60  89 124 160 209 259 306 362
#     4   9  19  37  60  86 121 164 202 252 306 369
#
# _framework density 19.589993
#
# number of rings (size 3 to 8) (size 9 to 14) (size 15 to 20)
#    0.000    1.750    1.250    4.500    0.000    5.000 
#    2.250    5.000   11.000    0.000    0.000    0.000 
#    0.000    0.000    0.000    0.000    0.000    0.000 
#
# Total GULP energy -89200.086924 kJ/mol
# GULP energy per Si atom -5575.005433 kJ/mol
# Density = 1.954541 g / cm^3
# Si number density = 19.589993 Si / 1000 Ang^3
#
#
#
# Elastic Constant Matrix: (Units=GPa)
#
#
# Indices 1 2 3 4 5 6 
#
# 1 101.2474 55.8416 56.1493 -19.4437 -6.3046 12.4267
# 2 55.8416 118.0846 40.8812 -22.0728 2.0901 0.1650
# 3 56.1493 40.8812 98.3438 -24.8888 -13.7274 -2.2162
# 4 -19.4437 -22.0728 -24.8888 30.8733 3.6029 4.8181
# 5 -6.3046 2.0901 -13.7274 3.6029 33.9829 -0.3099
# 6 12.4267 0.1650 -2.2162 4.8181 -0.3099 38.9627
#
#
#
# Elastic Compliance Matrix: (Units=1/GPa)
#
#
# Indices 1 2 3 4 5 6 
#
# 1 0.018599 -0.005655 -0.007759 0.002412 0.000348 -0.006645
# 2 -0.005655 0.012439 -0.001148 0.004555 -0.002751 0.001101
# 3 -0.007759 -0.001148 0.017765 0.007623 0.005023 0.002587
# 4 0.002412 0.004555 0.007623 0.044403 -0.001514 -0.005858
# 5 0.000348 -0.002751 0.005023 -0.001514 0.031855 0.000627
# 6 -0.006645 0.001101 0.002587 -0.005858 0.000627 0.028657
#
#
# Mechanical properties :
#
#
# Convention : Reuss Voigt Hill
#
# Bulk Modulus (GPa) = 50.82030 69.26888 60.04459
# Shear Modulus (GPa) = 26.39877 31.75072 29.07475
#
# Velocity S-wave (km/s) = 3.67490 4.03024 3.85666
# Velocity P-wave (km/s) = 6.63361 7.55600 7.10978
#
# Compressibility (1/GPa) = 0.01967718
#
# Stress axis : x y z
#
# Youngs Moduli (GPa) = 53.76524 80.39187 56.29161
#
# Poissons Ratio (x) = 0.45464 0.43678
# Poissons Ratio (y) = 0.30406 0.06464
# Poissons Ratio (z) = 0.41718 0.09232
#
# Static dielectric constant tensor:
#      x y z
#    x 1.713590 0.007840 -0.029430 
#    y 0.007840 1.691420 -0.010020 
#    z -0.029430 -0.010020 1.727870 
# 
# From -- ./inp_files/469602.got.cif
#   From: 2010.05.17/outbox.cif.g08.bks.cpg/sg2_235_cif.got.tgz:469602.got - 2010.06.03 11:33:40.
