data_PCOD9091820
_publ_section_title
;
Structure prediction by ZEFSAII (Michael W. Deem and Ramdas Pophale) SiO2 
 PCOD9091820
Probable space group: P -1
;
_chemical_formula_sum "Si O2"
_cell_formula_units_Z 16
_cell_length_a 15.213504
_cell_length_b 18.990772
_cell_length_c 11.821803
_cell_angle_alpha 23.668876
_cell_angle_beta 139.003319
_cell_angle_gamma 153.180891
_cell_volume 580.487916
_symmetry_space_group_name_H-M "P -1"
_symmetry_group_IT_number 2
_symmetry_cell_setting 'triclinic'
loop_
_space_group_symop_operation_xyz
x,y,z
-x,-y,-z
loop_
_atom_site_type_symbol
_atom_site_label
_atom_site_fract_x
_atom_site_fract_y
_atom_site_fract_z
Si Si1 0.778650 0.455543 0.275645
Si Si2 0.221349 0.898249 0.054289
Si Si3 0.322621 0.951358 0.494176
Si Si4 0.677379 0.306118 0.816794
Si Si5 0.321733 0.176939 0.962095
Si Si6 0.773159 0.543843 0.797354
Si Si7 0.773157 0.002475 0.429485
Si Si8 0.678266 0.533471 0.283827
O O1 0.773018 0.273016 0.613494
O O2 0.568920 0.237060 0.322626
O O3 0.765206 0.595406 0.151728
O O4 0.000001 0.689568 0.086553
O O5 0.431082 0.099230 0.891536
O O6 0.234790 0.064996 0.916930
O O7 0.262526 0.693430 0.846154
O O8 0.234511 0.983284 0.462612
O O9 0.264144 0.946604 0.318457
O O10 0.735853 0.418313 0.582601
O O11 0.765494 0.514270 0.697117
O O12 0.737469 0.168374 0.108681
O O13 0.255227 0.255227 0.872389
O O14 0.569873 0.440466 0.794855
O O15 0.000000 0.835610 0.621782
O O16 0.569874 0.699279 0.635274
#
# Coordination Sequence:
#
# PCOD9091820 Si02
#       8
#     2   2   2   2   2   2   2   2
#     4  10  21  38  60  88 117 152 199 242 290 350
#     4  10  21  38  60  88 117 152 199 242 290 350
#     4  10  19  40  61  87 117 158 197 245 294 344
#     4  10  19  40  61  87 117 158 197 245 294 344
#     4  11  24  40  59  89 126 157 192 242 300 353
#     4  10  21  38  62  90 116 154 202 245 291 347
#     4  10  21  38  62  90 116 154 202 245 291 347
#     4  11  24  40  59  89 126 157 192 242 300 353
#
# _framework density 27.563019000000001
#
# number of rings (size 3 to 8) (size 9 to 14) (size 15 to 20)
#    0.000    1.750    5.000    2.250    0.000    8.000 
#    0.000    2.500    0.000    0.000    0.000    0.000 
#    0.000    0.000    0.000    0.000    0.000    0.000 
#
# Total GULP energy -89658.388063 kJ/mol
# GULP energy per Si atom -5603.649254 kJ/mol
# Density = 2.750028 g / cm^3
# Si number density = 27.563019 Si / 1000 Ang^3
#
#
#
# Elastic Constant Matrix: (Units=GPa)
#
#
# Indices 1 2 3 4 5 6 
#
# 1 67.9984 47.5284 30.1187 -23.4178 9.3074 -28.2153
# 2 47.5284 87.3831 33.0812 -25.4949 -45.0114 25.9932
# 3 30.1187 33.0812 29.2259 13.6749 4.1608 14.4065
# 4 -23.4178 -25.4949 13.6749 28.4859 -5.1165 -38.0167
# 5 9.3074 -45.0114 4.1608 -5.1165 44.0847 -7.3471
# 6 -28.2153 25.9932 14.4065 -38.0167 -7.3471 43.7069
#
#
#
# Elastic Compliance Matrix: (Units=1/GPa)
#
#
# Indices 1 2 3 4 5 6 
#
# 1 -0.008265 0.019808 -0.005587 -0.005653 0.019008 -0.016996
# 2 0.019808 -0.029339 0.016216 -0.008761 -0.034781 0.011424
# 3 -0.005587 0.016216 0.004635 0.021763 0.021108 0.007700
# 4 -0.005653 -0.008761 0.021763 -0.000800 -0.011265 -0.008202
# 5 0.019008 -0.034781 0.021108 -0.011265 -0.017945 0.013183
# 6 -0.016996 0.011424 0.007700 -0.008202 0.013183 -0.002342
#
#
# Mechanical properties :
#
#
# Convention : Reuss Voigt Hill
#
# Bulk Modulus (GPa) = 35.83538 45.11825 40.47682
# Shear Modulus (GPa) = -47.33526 28.18078 -9.57724
#
# Velocity S-wave (km/s) = -4.14858 3.20099 -1.86607
# Velocity P-wave (km/s) = 3.14932 5.48329 3.17398
#
# Compressibility (1/GPa) = 0.02790538
#
# Stress axis : x y z
#
# Youngs Moduli (GPa) = -120.98986 -34.08402 215.76569
#
# Poissons Ratio (x) = 0.67514 1.20542
# Poissons Ratio (y) = 2.39658 -3.49890
# Poissons Ratio (z) = -0.67594 0.55271
#
# Static dielectric constant tensor:
#      x y z
#    x 2.112600 0.034470 0.068850 
#    y 0.034470 2.095180 0.012960 
#    z 0.068850 0.012960 2.210690 
# 
# From -- ./inp_files/456923.got.cif
#   From: 2010.05.17/outbox.cif.g08.bks.cpg/sg2_229_cif.got.tgz:456923.got - 2010.06.03 11:33:40.
