data_PCOD9091796
_publ_section_title
;
Structure prediction by ZEFSAII (Michael W. Deem and Ramdas Pophale) SiO2 
 PCOD9091796
Probable space group: P -1
;
_chemical_formula_sum "Si O2"
_cell_formula_units_Z 15
_cell_length_a 14.518479
_cell_length_b 13.085833
_cell_length_c 5.681751
_cell_angle_alpha 105.682928
_cell_angle_beta 124.383561
_cell_angle_gamma 40.452874
_cell_volume 551.793090
_symmetry_space_group_name_H-M "P -1"
_symmetry_group_IT_number 2
_symmetry_cell_setting 'triclinic'
loop_
_space_group_symop_operation_xyz
x,y,z
-x,-y,-z
loop_
_atom_site_type_symbol
_atom_site_label
_atom_site_fract_x
_atom_site_fract_y
_atom_site_fract_z
Si Si1 0.467477 0.435636 0.653893
Si Si2 0.726217 0.222626 0.528502
Si Si3 0.041295 0.116607 0.832235
Si Si4 0.602732 0.068655 0.276506
Si Si5 0.542880 0.164054 0.756518
Si Si6 0.059566 0.278778 0.603566
Si Si7 0.000000 0.500000 0.000000
Si Si8 0.825446 0.445661 0.977539
O O1 0.659786 0.305374 0.744595
O O2 0.372935 0.616090 0.677785
O O3 0.459946 0.342043 0.759007
O O4 0.361180 0.465192 0.291269
O O5 0.928307 0.093527 0.686492
O O6 0.677654 0.134918 0.393564
O O7 0.999473 0.213138 0.596478
O O8 0.958549 0.252367 0.997560
O O9 0.248055 0.966972 0.043998
O O10 0.509657 0.134163 0.435681
O O11 0.766072 0.871115 0.382894
O O12 0.505575 0.127807 0.920660
O O13 0.897865 0.439528 0.320047
O O14 0.104584 0.331805 0.897242
O O15 0.861616 0.509901 0.882200
#
# Coordination Sequence:
#
# PCOD9091796 Si02
#       8
#     2   2   2   2   2   2   1   2
#     4   9  20  37  58  87 131 160 206 249 304 356
#     4   9  19  39  53  93 122 177 204 244 289 365
#     4   9  19  36  59  87 125 163 213 242 293 355
#     4  10  21  37  61  85 126 164 211 250 300 355
#     4  10  20  38  57  88 119 174 203 257 291 354
#     4  10  20  37  62  92 115 155 200 269 304 369
#     4  10  22  38  66  90 114 146 208 264 322 372
#     4  10  19  40  60  90 117 156 198 260 315 372
#
# _framework density 27.184101999999999
#
# number of rings (size 3 to 8) (size 9 to 14) (size 15 to 20)
#    0.000    2.400    1.333    0.400    0.000    4.800 
#   28.800    0.000    0.000   10.400    0.000    0.000 
#    0.000    0.000    0.000    0.000    0.000    0.000 
#
# Total GULP energy -83519.860367 kJ/mol
# GULP energy per Si atom -5567.990691 kJ/mol
# Density = 2.712223 g / cm^3
# Si number density = 27.184102 Si / 1000 Ang^3
#
#
#
# Elastic Constant Matrix: (Units=GPa)
#
#
# Indices 1 2 3 4 5 6 
#
# 1 70.3398 0.4534 40.0205 15.1022 19.4862 -12.1839
# 2 0.4534 99.0540 26.3365 14.7269 19.6453 -20.6982
# 3 40.0205 26.3365 69.7547 -0.6632 -25.8468 -12.1510
# 4 15.1022 14.7269 -0.6632 33.4006 -7.1417 9.7639
# 5 19.4862 19.6453 -25.8468 -7.1417 36.2179 16.5100
# 6 -12.1839 -20.6982 -12.1510 9.7639 16.5100 12.1710
#
#
#
# Elastic Compliance Matrix: (Units=1/GPa)
#
#
# Indices 1 2 3 4 5 6 
#
# 1 0.008582 -0.006422 -0.003334 0.007075 0.007989 -0.022172
# 2 -0.006422 0.005279 0.003074 0.004790 0.007653 -0.008607
# 3 -0.003334 0.003074 0.019783 -0.009081 -0.001918 0.031527
# 4 0.007075 0.004790 -0.009081 0.018203 -0.014276 0.010924
# 5 0.007989 0.007653 -0.001918 -0.014276 0.002753 0.026817
# 6 -0.022172 -0.008607 0.031527 0.010924 0.026817 0.031663
#
#
# Mechanical properties :
#
#
# Convention : Reuss Voigt Hill
#
# Bulk Modulus (GPa) = 49.31094 41.41883 45.36488
# Shear Modulus (GPa) = 46.99789 27.84710 37.42250
#
# Velocity S-wave (km/s) = 4.16248 3.20408 3.71432
# Velocity P-wave (km/s) = 6.42501 5.38123 5.92614
#
# Compressibility (1/GPa) = 0.02027948
#
# Stress axis : x y z
#
# Youngs Moduli (GPa) = 116.52164 189.42619 50.54820
#
# Poissons Ratio (x) = 1.21655 0.16851
# Poissons Ratio (y) = 0.74834 -0.15536
# Poissons Ratio (z) = 0.38845 -0.58222
#
# Static dielectric constant tensor:
#      x y z
#    x 2.102670 0.043000 0.014290 
#    y 0.043000 2.274710 0.256890 
#    z 0.014290 0.256890 2.806930 
# 
# From -- ./inp_files/111012.got.cif
#   From: 2010.05.17/outbox.cif.g08.bks.cpg/sg2_56_cif.got.tgz:111012.got - 2010.06.03 11:33:40.
