data_PCOD9091347
_publ_section_title
;
Structure prediction by ZEFSAII (Michael W. Deem and Ramdas Pophale) SiO2 
 PCOD9091347
Probable space group: P -1
;
_chemical_formula_sum "Si O2"
_cell_formula_units_Z 15
_cell_length_a 7.507905
_cell_length_b 8.833886
_cell_length_c 12.743490
_cell_angle_alpha 64.803932
_cell_angle_beta 110.788074
_cell_angle_gamma 73.324076
_cell_volume 611.671167
_symmetry_space_group_name_H-M "P -1"
_symmetry_group_IT_number 2
_symmetry_cell_setting 'triclinic'
loop_
_space_group_symop_operation_xyz
x,y,z
-x,-y,-z
loop_
_atom_site_type_symbol
_atom_site_label
_atom_site_fract_x
_atom_site_fract_y
_atom_site_fract_z
Si Si1 0.104436 0.133838 0.290955
Si Si2 0.081074 0.348669 0.793531
Si Si3 0.307446 0.368140 0.215023
Si Si4 0.582879 0.664653 0.398857
Si Si5 0.000000 0.500000 0.500000
Si Si6 0.319182 0.721315 0.539034
Si Si7 0.093622 0.916149 0.155849
Si Si8 0.307692 0.456232 0.949657
O O1 0.303455 0.177901 0.311280
O O2 0.888086 0.342095 0.201567
O O3 0.150922 0.951460 0.426058
O O4 0.075096 0.075081 0.185632
O O5 0.011610 0.484019 0.638122
O O6 0.309128 0.305594 0.909419
O O7 0.891493 0.452311 0.815191
O O8 0.052602 0.170117 0.807665
O O9 0.541293 0.341321 0.307456
O O10 0.263232 0.401166 0.072516
O O11 0.497488 0.678560 0.494499
O O12 0.755938 0.433092 0.466536
O O13 0.358290 0.755826 0.259225
O O14 0.757250 0.726155 0.392711
O O15 0.000000 0.000000 0.000000
O O16 0.500000 0.500000 0.000000
#
# Coordination Sequence:
#
# PCOD9091347 Si02
#       8
#     2   2   2   2   1   2   2   2
#     4  10  22  37  64  97 126 164 223 271 317 397
#     4  11  23  41  70  95 130 178 222 266 331 397
#     4  11  20  42  67  91 126 175 221 260 333 398
#     4  10  21  37  62  97 135 171 214 276 331 387
#     4  12  22  38  64 102 134 168 222 266 336 394
#     4  10  19  39  65  91 126 172 223 263 320 395
#     4  11  21  41  68  96 126 176 235 273 320 396
#     4  11  26  45  65  96 136 176 215 276 346 396
#
# _framework density 24.52298
#
# number of rings (size 3 to 8) (size 9 to 14) (size 15 to 20)
#    0.000    1.333    2.667    5.200    1.867    0.000 
#    0.000   10.000    0.000    0.000    0.000    0.000 
#    0.000    0.000    0.000    0.000    0.000    0.000 
#
# Total GULP energy -83552.667887 kJ/mol
# GULP energy per Si atom -5570.177859 kJ/mol
# Density = 2.446716 g / cm^3
# Si number density = 24.522980 Si / 1000 Ang^3
#
#
#
# Elastic Constant Matrix: (Units=GPa)
#
#
# Indices 1 2 3 4 5 6 
#
# 1 89.7812 0.5075 35.6743 9.6848 5.8520 2.5465
# 2 0.5075 51.3749 9.0822 9.3940 -1.0067 21.8412
# 3 35.6743 9.0822 134.3136 27.3229 8.6273 4.9583
# 4 9.6848 9.3940 27.3229 42.5751 10.4914 7.3586
# 5 5.8520 -1.0067 8.6273 10.4914 38.7233 8.4294
# 6 2.5465 21.8412 4.9583 7.3586 8.4294 22.9666
#
#
#
# Elastic Compliance Matrix: (Units=1/GPa)
#
#
# Indices 1 2 3 4 5 6 
#
# 1 0.012549 0.001082 -0.003180 -0.000660 -0.000706 -0.001263
# 2 0.001082 0.036158 -0.001307 -0.003498 0.010022 -0.036782
# 3 -0.003180 -0.001307 0.009406 -0.005130 -0.000568 0.001416
# 4 -0.000660 -0.003498 -0.005130 0.029724 -0.006314 -0.002699
# 5 -0.000706 0.010022 -0.000568 -0.006314 0.032191 -0.019122
# 6 -0.001263 -0.036782 0.001416 -0.002699 -0.019122 0.086238
#
#
# Mechanical properties :
#
#
# Convention : Reuss Voigt Hill
#
# Bulk Modulus (GPa) = 19.49167 40.66640 30.07904
# Shear Modulus (GPa) = 21.72249 36.20006 28.96127
#
# Velocity S-wave (km/s) = 2.97947 3.84626 3.44027
# Velocity P-wave (km/s) = 4.44993 6.02859 5.29839
#
# Compressibility (1/GPa) = 0.05130396
#
# Stress axis : x y z
#
# Youngs Moduli (GPa) = 79.68986 27.65624 106.31672
#
# Poissons Ratio (x) = -0.02993 0.33807
# Poissons Ratio (y) = -0.08624 0.13893
# Poissons Ratio (z) = 0.25340 0.03614
#
# Static dielectric constant tensor:
#      x y z
#    x 8.718200 1.364460 0.467390 
#    y 1.364460 2.368380 0.025310 
#    z 0.467390 0.025310 1.962040 
# 
# From -- ./inp_files/381757.got.cif
#   From: 2010.05.17/outbox.cif.g08.bks.cpg/sg2_191_cif.got.tgz:381757.got - 2010.06.03 11:33:40.
