data_PCOD9091720
_publ_section_title
;
Structure prediction by ZEFSAII (Michael W. Deem and Ramdas Pophale) SiO2 
 PCOD9091720
Probable space group: P -1
;
_chemical_formula_sum "Si O2"
_cell_formula_units_Z 14
_cell_length_a 11.089079
_cell_length_b 7.661740
_cell_length_c 21.064930
_cell_angle_alpha 133.251580
_cell_angle_beta 29.704752
_cell_angle_gamma 137.978544
_cell_volume 589.352375
_symmetry_space_group_name_H-M "P -1"
_symmetry_group_IT_number 2
_symmetry_cell_setting 'triclinic'
loop_
_space_group_symop_operation_xyz
x,y,z
-x,-y,-z
loop_
_atom_site_type_symbol
_atom_site_label
_atom_site_fract_x
_atom_site_fract_y
_atom_site_fract_z
Si Si1 0.150457 0.830819 0.416347
Si Si2 0.635468 0.728478 0.407336
Si Si3 0.308261 0.743626 0.666240
Si Si4 0.230995 0.440210 0.068688
Si Si5 0.359377 0.421735 0.335171
Si Si6 0.446682 0.537106 0.181398
Si Si7 0.782081 0.997425 0.794877
O O1 0.226836 0.643893 0.287803
O O2 0.935770 0.651052 0.520801
O O3 0.431763 0.046647 0.365565
O O4 0.000000 0.000000 0.500000
O O5 0.395323 0.779797 0.561710
O O6 0.704049 0.538625 0.376599
O O7 0.553469 0.577494 0.341080
O O8 0.913968 0.976116 0.337888
O O9 0.032419 0.740643 0.817091
O O10 0.500000 0.500000 0.000000
O O11 0.288083 0.334311 0.948835
O O12 0.785550 0.281968 0.869378
O O13 0.448987 0.578834 0.267156
O O14 0.352616 0.142572 0.244683
O O15 0.355488 0.222048 0.143213
#
# Coordination Sequence:
#
# PCOD9091720 Si02
#       7
#     2   2   2   2   2   2   2
#     4  12  23  42  73 102 133 171 224 287 342 392
#     4  10  19  39  71 100 128 174 222 285 338 389
#     4  10  22  39  65 103 137 167 231 279 325 404
#     4  11  25  43  69  96 135 189 225 266 336 403
#     4  10  22  40  70  99 132 174 216 281 347 378
#     4  10  25  43  67  96 137 182 219 273 338 404
#     4   9  22  45  69  99 134 172 227 281 330 403
#
# _framework density 23.754888999999999
#
# number of rings (size 3 to 8) (size 9 to 14) (size 15 to 20)
#    0.857    0.857    2.857    0.857    4.000    0.571 
#    2.571    5.714    0.000    0.000    0.000    0.000 
#    0.000    0.000    0.000    0.000    0.000    0.000 
#
# Total GULP energy -78057.155351 kJ/mol
# GULP energy per Si atom -5575.511096 kJ/mol
# Density = 2.370082 g / cm^3
# Si number density = 23.754889 Si / 1000 Ang^3
#
#
#
# Elastic Constant Matrix: (Units=GPa)
#
#
# Indices 1 2 3 4 5 6 
#
# 1 73.1246 18.6665 54.4853 -10.0382 0.6284 3.2042
# 2 18.6665 42.5282 18.5592 1.5259 -3.8759 0.7581
# 3 54.4853 18.5592 177.2152 -11.6110 12.2434 9.4376
# 4 -10.0382 1.5259 -11.6110 37.9234 -3.2854 -10.8263
# 5 0.6284 -3.8759 12.2434 -3.2854 30.8045 4.1726
# 6 3.2042 0.7581 9.4376 -10.8263 4.1726 40.8486
#
#
#
# Elastic Compliance Matrix: (Units=1/GPa)
#
#
# Indices 1 2 3 4 5 6 
#
# 1 0.019766 -0.006437 -0.005252 0.004209 0.001219 0.000774
# 2 -0.006437 0.027397 -0.001315 -0.003137 0.003892 -0.000929
# 3 -0.005252 -0.001315 0.007679 0.000501 -0.002934 -0.000905
# 4 0.004209 -0.003137 0.000501 0.030010 0.001517 0.007411
# 5 0.001219 0.003892 -0.002934 0.001517 0.034611 -0.002623
# 6 0.000774 -0.000929 -0.000905 0.007411 -0.002623 0.026878
#
#
# Mechanical properties :
#
#
# Convention : Reuss Voigt Hill
#
# Bulk Modulus (GPa) = 34.68314 52.92112 43.80213
# Shear Modulus (GPa) = 27.47841 35.32577 31.40209
#
# Velocity S-wave (km/s) = 3.40479 3.86047 3.63977
# Velocity P-wave (km/s) = 5.48534 6.49595 6.01191
#
# Compressibility (1/GPa) = 0.02883246
#
# Stress axis : x y z
#
# Youngs Moduli (GPa) = 50.59312 36.50046 130.22140
#
# Poissons Ratio (x) = 0.23496 0.68398
# Poissons Ratio (y) = 0.32567 0.17125
# Poissons Ratio (z) = 0.26574 0.04800
#
# Static dielectric constant tensor:
#      x y z
#    x 1.989600 -0.025100 0.032530 
#    y -0.025100 1.947440 0.023650 
#    z 0.032530 0.023650 1.939720 
# 
# From -- ./inp_files/594178.got.cif
#   From: 2010.05.17/outbox.cif.g08.bks.cpg/sg2_298_cif.got.tgz:594178.got - 2010.06.03 11:33:40.
