data_PCOD9091298
_publ_section_title
;
Structure prediction by ZEFSAII (Michael W. Deem and Ramdas Pophale) SiO2 
 PCOD9091298
Probable space group: P -1
;
_chemical_formula_sum "Si O2"
_cell_formula_units_Z 16
_cell_length_a 8.882581
_cell_length_b 8.201956
_cell_length_c 14.613480
_cell_angle_alpha 134.362959
_cell_angle_beta 82.347446
_cell_angle_gamma 90.328638
_cell_volume 748.614348
_symmetry_space_group_name_H-M "P -1"
_symmetry_group_IT_number 2
_symmetry_cell_setting 'triclinic'
loop_
_space_group_symop_operation_xyz
x,y,z
-x,-y,-z
loop_
_atom_site_type_symbol
_atom_site_label
_atom_site_fract_x
_atom_site_fract_y
_atom_site_fract_z
Si Si1 0.103621 0.032596 0.641930
Si Si2 0.416339 0.627412 0.684571
Si Si3 0.745768 0.466281 0.529802
Si Si4 0.670131 0.179353 0.968419
Si Si5 0.652222 0.849238 0.463997
Si Si6 0.172494 0.382531 0.926845
Si Si7 0.779258 0.946495 0.679603
Si Si8 0.328895 0.113028 0.977261
O O1 0.158861 0.761757 0.532060
O O2 0.920990 0.069800 0.681303
O O3 0.185925 0.112092 0.576896
O O4 0.170568 0.166852 0.773885
O O5 0.598564 0.565533 0.639944
O O6 0.333566 0.607638 0.586154
O O7 0.362287 0.414915 0.659269
O O8 0.370664 0.875986 0.825675
O O9 0.838744 0.682310 0.596429
O O10 0.489777 0.212384 0.020163
O O11 0.701173 0.073154 0.823244
O O12 0.736053 0.422968 0.050274
O O13 0.737744 0.985055 0.961587
O O14 0.660853 0.911840 0.594887
O O15 0.500000 0.000000 0.500000
O O16 0.233140 0.288792 0.984682
O O17 0.000000 0.500000 0.000000
#
# Coordination Sequence:
#
# PCOD9091298 Si02
#       8
#     2   2   2   2   2   2   2   2
#     4  12  23  44  67  98 137 180 219 284 355 405
#     4  10  19  39  65 101 128 170 231 282 334 410
#     4  10  20  37  68  94 129 172 217 274 348 405
#     4  11  25  47  70 105 137 190 240 289 346 409
#     4  11  24  40  70 105 134 177 226 288 351 417
#     4  12  26  47  71 103 143 189 236 288 351 417
#     4  11  24  44  65  99 144 173 228 282 347 423
#     4  11  24  46  73 100 141 187 241 290 343 415
#
# _framework density 21.372817999999999
#
# number of rings (size 3 to 8) (size 9 to 14) (size 15 to 20)
#    0.000    1.000    5.000    1.875    1.750    0.500 
#    6.750    0.000    0.000    0.000    0.000    0.000 
#    0.000    0.000    0.000    0.000    0.000    0.000 
#
# Total GULP energy -89316.653259 kJ/mol
# GULP energy per Si atom -5582.290829 kJ/mol
# Density = 2.132417 g / cm^3
# Si number density = 21.372818 Si / 1000 Ang^3
#
#
#
# Elastic Constant Matrix: (Units=GPa)
#
#
# Indices 1 2 3 4 5 6 
#
# 1 62.3293 48.6526 8.8993 8.6503 3.0424 17.3656
# 2 48.6526 125.2870 20.5273 8.2246 -0.4193 10.9056
# 3 8.8993 20.5273 66.3557 -3.8343 1.1344 5.9539
# 4 8.6503 8.2246 -3.8343 38.0401 4.5003 4.6370
# 5 3.0424 -0.4193 1.1344 4.5003 28.9828 4.5621
# 6 17.3656 10.9056 5.9539 4.6370 4.5621 39.4688
#
#
#
# Elastic Compliance Matrix: (Units=1/GPa)
#
#
# Indices 1 2 3 4 5 6 
#
# 1 0.026006 -0.009180 -0.000031 -0.002772 -0.001101 -0.008448
# 2 -0.009180 0.011956 -0.002649 -0.001046 0.001227 0.001116
# 3 -0.000031 -0.002649 0.016225 0.002539 -0.000763 -0.001912
# 4 -0.002772 -0.001046 0.002539 0.028073 -0.003912 -0.001720
# 5 -0.001101 0.001227 -0.000763 -0.003912 0.035812 -0.003419
# 6 -0.008448 0.001116 -0.001912 -0.001720 -0.003419 0.029631
#
#
# Mechanical properties :
#
#
# Convention : Reuss Voigt Hill
#
# Bulk Modulus (GPa) = 32.82261 45.57004 39.19632
# Shear Modulus (GPa) = 27.53604 33.02454 30.28029
#
# Velocity S-wave (km/s) = 3.59328 3.93512 3.76808
# Velocity P-wave (km/s) = 5.71017 6.48188 6.10822
#
# Compressibility (1/GPa) = 0.03046680
#
# Stress axis : x y z
#
# Youngs Moduli (GPa) = 38.45216 83.63819 61.63225
#
# Poissons Ratio (x) = 0.76782 0.00192
# Poissons Ratio (y) = 0.35300 0.16327
# Poissons Ratio (z) = 0.00120 0.22156
#
# Static dielectric constant tensor:
#      x y z
#    x 1.782670 0.018310 0.019660 
#    y 0.018310 1.834290 -0.024680 
#    z 0.019660 -0.024680 1.768000 
# 
# From -- ./inp_files/405735.got.cif
#   From: 2010.05.17/outbox.cif.g08.bks.cpg/sg2_203_cif.got.tgz:405735.got - 2010.06.03 11:33:40.
