data_PCOD9091430
_publ_section_title
;
Structure prediction by ZEFSAII (Michael W. Deem and Ramdas Pophale) SiO2 
 PCOD9091430
Probable space group: P -1
;
_chemical_formula_sum "Si O2"
_cell_formula_units_Z 16
_cell_length_a 11.858580
_cell_length_b 8.570398
_cell_length_c 12.533463
_cell_angle_alpha 122.232954
_cell_angle_beta 125.283281
_cell_angle_gamma 89.479565
_cell_volume 792.832076
_symmetry_space_group_name_H-M "P -1"
_symmetry_group_IT_number 2
_symmetry_cell_setting 'triclinic'
loop_
_space_group_symop_operation_xyz
x,y,z
-x,-y,-z
loop_
_atom_site_type_symbol
_atom_site_label
_atom_site_fract_x
_atom_site_fract_y
_atom_site_fract_z
Si Si1 0.799914 0.239729 0.521764
Si Si2 0.552606 0.808812 0.156433
Si Si3 0.084300 0.493526 0.649832
Si Si4 0.785462 0.290374 0.004859
Si Si5 0.419238 0.526001 0.797114
Si Si6 0.102909 0.000076 0.156645
Si Si7 0.363788 0.459906 0.496821
Si Si8 0.007140 0.330110 0.862547
O O1 0.726020 0.400031 0.524873
O O2 0.958668 0.296484 0.567045
O O3 0.854729 0.246304 0.675636
O O4 0.681145 0.029292 0.332120
O O5 0.388775 0.800380 0.090973
O O6 0.572514 0.654559 0.194947
O O7 0.538652 0.728345 0.997912
O O8 0.247966 0.504169 0.715566
O O9 0.000000 0.500000 0.500000
O O10 0.114866 0.671732 0.818607
O O11 0.812319 0.137457 0.885542
O O12 0.845449 0.520721 0.072577
O O13 0.435686 0.511452 0.674239
O O14 0.231696 0.225749 0.336644
O O15 0.996879 0.863907 0.146303
O O16 0.000000 0.000000 0.000000
O O17 0.500000 0.500000 0.500000
O O18 0.000000 0.500000 0.000000
#
# Coordination Sequence:
#
# PCOD9091430 Si02
#       8
#     2   2   2   2   2   2   2   2
#     4  11  22  40  65  93 123 165 211 256 315 373
#     4  10  22  42  64  93 125 161 210 261 321 376
#     4  10  19  39  66  88 121 160 206 265 304 358
#     4   9  20  39  62  89 125 164 205 254 319 367
#     4  10  23  42  64  89 127 164 211 263 310 374
#     4  11  22  38  60  90 123 165 216 256 298 373
#     4  12  25  40  58  92 132 165 205 254 317 376
#     4   9  19  37  61  86 120 164 206 249 306 365
#
# _framework density 20.180817999999999
#
# number of rings (size 3 to 8) (size 9 to 14) (size 15 to 20)
#    0.000    1.750    1.250    3.750    0.000    4.000 
#    2.250    6.875    0.000    0.000    0.000    0.000 
#    0.000    0.000    0.000    0.000    0.000    0.000 
#
# Total GULP energy -89205.023291 kJ/mol
# GULP energy per Si atom -5575.313956 kJ/mol
# Density = 2.013489 g / cm^3
# Si number density = 20.180818 Si / 1000 Ang^3
#
#
#
# Elastic Constant Matrix: (Units=GPa)
#
#
# Indices 1 2 3 4 5 6 
#
# 1 55.1890 3.6693 37.3531 5.3054 -17.1098 15.5049
# 2 3.6693 82.7331 61.0180 2.4192 -15.5979 6.3916
# 3 37.3531 61.0180 182.5756 10.5141 -12.3598 16.9950
# 4 5.3054 2.4192 10.5141 47.3586 5.9167 -1.9052
# 5 -17.1098 -15.5979 -12.3598 5.9167 24.9154 -4.7368
# 6 15.5049 6.3916 16.9950 -1.9052 -4.7368 23.2599
#
#
#
# Elastic Compliance Matrix: (Units=1/GPa)
#
#
# Indices 1 2 3 4 5 6 
#
# 1 0.035263 0.009725 -0.006812 -0.006773 0.025379 -0.016587
# 2 0.009725 0.020304 -0.007204 -0.002644 0.015718 -0.003814
# 3 -0.006812 -0.007204 0.009075 -0.000326 -0.004821 -0.001119
# 4 -0.006773 -0.002644 -0.000326 0.023677 -0.011111 0.005156
# 5 0.025379 0.015718 -0.004821 -0.011111 0.066692 -0.005042
# 6 -0.016587 -0.003814 -0.001119 0.005156 -0.005042 0.055310
#
#
# Mechanical properties :
#
#
# Convention : Reuss Voigt Hill
#
# Bulk Modulus (GPa) = 17.83845 58.28650 38.06248
# Shear Modulus (GPa) = 21.04452 33.67061 27.35757
#
# Velocity S-wave (km/s) = 3.23274 4.08909 3.68587
# Velocity P-wave (km/s) = 4.77417 7.15815 6.08407
#
# Compressibility (1/GPa) = 0.05605868
#
# Stress axis : x y z
#
# Youngs Moduli (GPa) = 28.35847 49.25056 110.19186
#
# Poissons Ratio (x) = -0.47894 0.75067
# Poissons Ratio (y) = -0.27577 0.79383
# Poissons Ratio (z) = 0.19319 0.35480
#
# Static dielectric constant tensor:
#      x y z
#    x 1.023310 -0.317460 -0.240740 
#    y -0.317460 1.589110 -0.125600 
#    z -0.240740 -0.125600 1.667390 
# 
# From -- ./inp_files/271386.got.cif
#   From: 2010.05.17/outbox.cif.g08.bks.cpg/sg2_136_cif.got.tgz:271386.got - 2010.06.03 11:33:40.
