data_PCOD9091931
_publ_section_title
;
Structure prediction by ZEFSAII (Michael W. Deem and Ramdas Pophale) SiO2 
 PCOD9091931
Probable space group: P -1
;
_chemical_formula_sum "Si O2"
_cell_formula_units_Z 13
_cell_length_a 20.667321
_cell_length_b 4.999246
_cell_length_c 8.638456
_cell_angle_alpha 101.023179
_cell_angle_beta 124.696677
_cell_angle_gamma 117.635936
_cell_volume 507.478490
_symmetry_space_group_name_H-M "P -1"
_symmetry_group_IT_number 2
_symmetry_cell_setting 'triclinic'
loop_
_space_group_symop_operation_xyz
x,y,z
-x,-y,-z
loop_
_atom_site_type_symbol
_atom_site_label
_atom_site_fract_x
_atom_site_fract_y
_atom_site_fract_z
Si Si1 0.128558 0.552868 0.215659
Si Si2 0.704153 0.606621 0.286426
Si Si3 0.570463 0.660706 0.460358
Si Si4 0.895312 0.954500 0.359173
Si Si5 0.306333 0.559174 0.424924
Si Si6 0.500000 0.500000 0.000000
Si Si7 0.048773 0.729554 0.842319
O O1 0.187002 0.410264 0.242863
O O2 0.031695 0.262376 0.175743
O O3 0.215056 0.978173 0.464596
O O4 0.088490 0.610371 0.012931
O O5 0.661083 0.303781 0.333995
O O6 0.781560 0.638043 0.270385
O O7 0.599535 0.524498 0.080524
O O8 0.500000 0.500000 0.500000
O O9 0.671240 0.692804 0.619645
O O10 0.616933 0.072212 0.536844
O O11 0.516910 0.443231 0.199769
O O12 0.868875 0.964983 0.146606
O O13 0.954675 0.347530 0.569354
O O14 0.000000 0.000000 0.500000
#
# Coordination Sequence:
#
# PCOD9091931 Si02
#       7
#     2   2   2   2   2   1   2
#     4  10  19  40  63  95 124 180 219 276 334 403
#     4  10  22  39  66  89 135 173 223 275 334 403
#     4  11  25  44  69  97 133 177 229 284 334 402
#     4  10  20  39  59  98 130 171 216 279 335 403
#     4  11  21  43  67  94 132 172 223 281 334 407
#     4  10  22  46  66  98 132 184 222 278 338 400
#     4   9  21  36  64  91 133 166 225 274 335 397
#
# _framework density 25.616852000000002
#
# number of rings (size 3 to 8) (size 9 to 14) (size 15 to 20)
#    0.000    1.846    3.077    1.385    0.000    4.923 
#    2.769    4.615    0.000    0.000    0.000    0.000 
#    0.000    0.000    0.000    0.000    0.000    0.000 
#
# Total GULP energy -72409.195207 kJ/mol
# GULP energy per Si atom -5569.938093 kJ/mol
# Density = 2.555855 g / cm^3
# Si number density = 25.616852 Si / 1000 Ang^3
#
#
#
# Elastic Constant Matrix: (Units=GPa)
#
#
# Indices 1 2 3 4 5 6 
#
# 1 205.8311 47.9781 49.6414 -26.8958 8.1254 50.2261
# 2 47.9781 92.0939 7.2510 -26.8369 2.9267 47.2158
# 3 49.6414 7.2510 101.8891 -22.6287 9.2809 16.7454
# 4 -26.8958 -26.8369 -22.6287 33.6022 -8.5885 -1.8187
# 5 8.1254 2.9267 9.2809 -8.5885 40.3137 9.3267
# 6 50.2261 47.2158 16.7454 -1.8187 9.3267 60.0135
#
#
#
# Elastic Compliance Matrix: (Units=1/GPa)
#
#
# Indices 1 2 3 4 5 6 
#
# 1 0.007288 0.002011 -0.001141 0.006729 0.001802 -0.007439
# 2 0.002011 0.038206 0.009864 0.039711 0.011112 -0.035017
# 3 -0.001141 0.009864 0.015038 0.017066 0.002192 -0.010825
# 4 0.006729 0.039711 0.017066 0.080881 0.018805 -0.042107
# 5 0.001802 0.011112 0.002192 0.018805 0.030619 -0.015051
# 6 -0.007439 -0.035017 -0.010825 -0.042107 -0.015051 0.054522
#
#
# Mechanical properties :
#
#
# Convention : Reuss Voigt Hill
#
# Bulk Modulus (GPa) = 12.19522 67.72833 39.96177
# Shear Modulus (GPa) = 21.51255 46.44879 33.98067
#
# Velocity S-wave (km/s) = 2.90104 4.26280 3.64606
# Velocity P-wave (km/s) = 3.99904 7.12215 5.77570
#
# Compressibility (1/GPa) = 0.08199934
#
# Stress axis : x y z
#
# Youngs Moduli (GPa) = 137.20521 26.17362 66.49730
#
# Poissons Ratio (x) = -0.05262 0.07588
# Poissons Ratio (y) = -0.27585 -0.65592
# Poissons Ratio (z) = 0.15657 -0.25817
#
# Static dielectric constant tensor:
#      x y z
#    x 2.078160 -0.348040 -0.255190 
#    y -0.348040 3.502950 0.980830 
#    z -0.255190 0.980830 2.659980 
# 
# From -- ./inp_files/132416.got.cif
#   From: 2010.05.17/outbox.cif.g08.bks.cpg/sg2_67_cif.got.tgz:132416.got - 2010.06.03 11:33:40.
