data_PCOD9091667
_publ_section_title
;
Structure prediction by ZEFSAII (Michael W. Deem and Ramdas Pophale) SiO2 
 PCOD9091667
Probable space group: P -1
;
_chemical_formula_sum "Si O2"
_cell_formula_units_Z 14
_cell_length_a 11.668247
_cell_length_b 8.009865
_cell_length_c 7.748687
_cell_angle_alpha 52.863589
_cell_angle_beta 81.967338
_cell_angle_gamma 90.983145
_cell_volume 566.921265
_symmetry_space_group_name_H-M "P -1"
_symmetry_group_IT_number 2
_symmetry_cell_setting 'triclinic'
loop_
_space_group_symop_operation_xyz
x,y,z
-x,-y,-z
loop_
_atom_site_type_symbol
_atom_site_label
_atom_site_fract_x
_atom_site_fract_y
_atom_site_fract_z
Si Si1 0.298529 0.607224 0.263435
Si Si2 0.148809 0.267905 0.300225
Si Si3 0.502691 0.330202 0.405122
Si Si4 0.484828 0.872833 0.841985
Si Si5 0.688475 0.703262 0.084339
Si Si6 0.053737 0.897413 0.772347
Si Si7 0.851260 0.080032 0.899361
O O1 0.193897 0.437841 0.326138
O O2 0.402007 0.474485 0.380929
O O3 0.232553 0.777192 0.271960
O O4 0.362121 0.756132 0.006066
O O5 0.242263 0.301330 0.106483
O O6 0.141189 0.042464 0.539311
O O7 0.024458 0.267681 0.230862
O O8 0.485025 0.246178 0.265123
O O9 0.490672 0.119410 0.650805
O O10 0.628532 0.472172 0.292846
O O11 0.579855 0.829425 0.989397
O O12 0.779564 0.847738 0.094293
O O13 0.960582 0.043890 0.780309
O O14 0.109406 0.824564 0.981665
#
# Coordination Sequence:
#
# PCOD9091667 Si02
#       7
#     2   2   2   2   2   2   2
#     4  11  21  36  62  94 122 165 196 255 306 363
#     4  10  19  39  69  87 117 160 218 250 294 360
#     4  10  20  36  61  98 125 157 208 248 294 373
#     4  10  20  36  62  96 123 160 206 251 287 381
#     4  10  19  41  62  94 127 163 195 254 305 365
#     4   9  22  42  63  89 118 166 211 258 300 366
#     4  10  23  40  61  90 133 157 200 259 319 354
#
# _framework density 24.694787000000002
#
# number of rings (size 3 to 8) (size 9 to 14) (size 15 to 20)
#    0.000    2.000    2.857    0.857    2.000    3.429 
#    2.571    1.429    6.286    0.000    0.000    0.000 
#    0.000    0.000    0.000    0.000    0.000    0.000 
#
# Total GULP energy -78266.054294 kJ/mol
# GULP energy per Si atom -5590.432450 kJ/mol
# Density = 2.463858 g / cm^3
# Si number density = 24.694787 Si / 1000 Ang^3
#
#
#
# Elastic Constant Matrix: (Units=GPa)
#
#
# Indices 1 2 3 4 5 6 
#
# 1 62.9819 12.9078 27.9881 -18.3103 -12.7551 -1.9204
# 2 12.9078 49.6276 24.1568 -5.8856 -20.9538 14.7921
# 3 27.9881 24.1568 108.8794 -14.4925 -16.4286 -3.1820
# 4 -18.3103 -5.8856 -14.4925 46.5562 5.7318 -1.4313
# 5 -12.7551 -20.9538 -16.4286 5.7318 25.9135 -12.5745
# 6 -1.9204 14.7921 -3.1820 -1.4313 -12.5745 43.0140
#
#
#
# Elastic Compliance Matrix: (Units=1/GPa)
#
#
# Indices 1 2 3 4 5 6 
#
# 1 0.020980 -0.000919 -0.003038 0.006315 0.007996 0.003576
# 2 -0.000919 0.032804 -0.004089 -0.000223 0.020843 -0.005539
# 3 -0.003038 -0.004089 0.011774 0.001571 0.003939 0.003345
# 4 0.006315 -0.000223 0.001571 0.024582 -0.001032 0.000991
# 5 0.007996 0.020843 0.003939 -0.001032 0.068665 0.013520
# 6 0.003576 -0.005539 0.003345 0.000991 0.013520 0.029545
#
#
# Mechanical properties :
#
#
# Convention : Reuss Voigt Hill
#
# Bulk Modulus (GPa) = 20.21520 39.06604 29.64062
# Shear Modulus (GPa) = 22.63168 33.52581 28.07875
#
# Velocity S-wave (km/s) = 3.03059 3.68857 3.37565
# Velocity P-wave (km/s) = 4.52214 5.83049 5.21749
#
# Compressibility (1/GPa) = 0.04946772
#
# Stress axis : x y z
#
# Youngs Moduli (GPa) = 47.66417 30.48409 84.93544
#
# Poissons Ratio (x) = 0.02801 0.25800
# Poissons Ratio (y) = 0.04379 0.34727
# Poissons Ratio (z) = 0.14478 0.12464
#
# Static dielectric constant tensor:
#      x y z
#    x 1.997660 0.025910 0.054610 
#    y 0.025910 1.980330 0.024210 
#    z 0.054610 0.024210 1.962470 
# 
# From -- ./inp_files/242115.got.cif
#   From: 2010.05.17/outbox.cif.g08.bks.cpg/sg2_122_cif.got.tgz:242115.got - 2010.06.03 11:33:40.
