data_PCOD9091231
_publ_section_title
;
Structure prediction by ZEFSAII (Michael W. Deem and Ramdas Pophale) SiO2 
 PCOD9091231
Probable space group: P -1
;
_chemical_formula_sum "Si O2"
_cell_formula_units_Z 16
_cell_length_a 16.546891
_cell_length_b 29.336578
_cell_length_c 9.454266
_cell_angle_alpha 35.595009
_cell_angle_beta 136.595021
_cell_angle_gamma 163.512282
_cell_volume 717.737527
_symmetry_space_group_name_H-M "P -1"
_symmetry_group_IT_number 2
_symmetry_cell_setting 'triclinic'
loop_
_space_group_symop_operation_xyz
x,y,z
-x,-y,-z
loop_
_atom_site_type_symbol
_atom_site_label
_atom_site_fract_x
_atom_site_fract_y
_atom_site_fract_z
Si Si1 0.086682 0.295883 0.194556
Si Si2 0.476919 0.543316 0.724132
Si Si3 0.444149 0.114993 0.595534
Si Si4 0.767789 0.872130 0.157401
Si Si5 0.046798 0.392489 0.670995
Si Si6 0.751215 0.187443 0.248006
Si Si7 0.479856 0.178355 0.801577
Si Si8 0.234623 0.589468 0.988487
O O1 0.868815 0.184774 0.321769
O O2 0.386981 0.434124 0.272353
O O3 0.872734 0.114230 0.277611
O O4 0.144344 0.412693 0.891998
O O5 0.709007 0.758234 0.463505
O O6 0.159036 0.393883 0.700372
O O7 0.500000 0.500000 0.000000
O O8 0.406830 0.131699 0.659679
O O9 0.582428 0.256247 0.294501
O O10 0.699567 0.203124 0.706222
O O11 0.774326 0.946101 0.096840
O O12 0.468550 0.704757 0.110388
O O13 0.000000 0.000000 0.000000
O O14 0.241168 0.590427 0.405077
O O15 0.500000 0.000000 0.500000
O O16 0.601397 0.166678 0.022594
O O17 0.037370 0.399442 0.153960
O O18 0.000000 0.500000 0.000000
#
# Coordination Sequence:
#
# PCOD9091231 Si02
#       8
#     2   2   2   2   2   2   2   2
#     4  11  23  39  64 100 133 172 216 277 336 394
#     4   9  21  41  62  90 132 177 212 264 333 403
#     4  12  22  39  71 101 132 168 231 280 336 399
#     4  11  24  45  73  97 138 178 225 284 345 410
#     4  10  19  39  64  91 127 166 217 270 327 389
#     4  12  25  40  65  98 140 173 227 284 335 396
#     4  11  23  43  66 100 129 176 227 281 335 400
#     4  12  23  44  70 102 131 181 227 281 343 403
#
# _framework density 22.292273999999999
#
# number of rings (size 3 to 8) (size 9 to 14) (size 15 to 20)
#    0.000    1.000    3.750    3.750    1.750    0.000 
#    2.250   10.000    0.000    0.000    0.000    0.000 
#    0.000    0.000    0.000    0.000    0.000    0.000 
#
# Total GULP energy -89227.387483 kJ/mol
# GULP energy per Si atom -5576.711718 kJ/mol
# Density = 2.224154 g / cm^3
# Si number density = 22.292274 Si / 1000 Ang^3
#
#
#
# Elastic Constant Matrix: (Units=GPa)
#
#
# Indices 1 2 3 4 5 6 
#
# 1 139.8218 43.4582 37.4072 8.9571 -28.4269 18.1579
# 2 43.4582 55.0212 25.3816 2.0841 1.0405 3.5530
# 3 37.4072 25.3816 101.7578 -8.4856 -11.5649 -6.3129
# 4 8.9571 2.0841 -8.4856 28.0831 8.3443 -0.0402
# 5 -28.4269 1.0405 -11.5649 8.3443 35.1070 2.1207
# 6 18.1579 3.5530 -6.3129 -0.0402 2.1207 42.0773
#
#
#
# Elastic Compliance Matrix: (Units=1/GPa)
#
#
# Indices 1 2 3 4 5 6 
#
# 1 0.015703 -0.010647 -0.002655 -0.009435 0.014823 -0.007032
# 2 -0.010647 0.028414 -0.004081 0.003559 -0.011785 0.002180
# 3 -0.002655 -0.004081 0.012508 0.004705 0.000772 0.003333
# 4 -0.009435 0.003559 0.004705 0.044891 -0.017190 0.005386
# 5 0.014823 -0.011785 0.000772 -0.017190 0.045635 -0.007602
# 6 -0.007032 0.002180 0.003333 0.005386 -0.007602 0.027504
#
#
# Mechanical properties :
#
#
# Convention : Reuss Voigt Hill
#
# Bulk Modulus (GPa) = 45.74753 56.56607 51.15680
# Shear Modulus (GPa) = 23.07270 33.74374 28.40822
#
# Velocity S-wave (km/s) = 3.22065 3.89485 3.57368
# Velocity P-wave (km/s) = 5.86484 6.75694 6.32663
#
# Compressibility (1/GPa) = 0.02185910
#
# Stress axis : x y z
#
# Youngs Moduli (GPa) = 63.68379 35.19428 79.94884
#
# Poissons Ratio (x) = 0.37470 0.21228
# Poissons Ratio (y) = 0.67801 0.32626
# Poissons Ratio (z) = 0.16909 0.14362
#
# Static dielectric constant tensor:
#      x y z
#    x 1.948570 0.026250 -0.039810 
#    y 0.026250 1.855860 -0.013950 
#    z -0.039810 -0.013950 1.877470 
# 
# From -- ./inp_files/320668.got.cif
#   From: 2010.05.17/outbox.cif.g08.bks.cpg/sg2_161_cif.got.tgz:320668.got - 2010.06.03 11:33:40.
