data_PCOD9091556
_publ_section_title
;
Structure prediction by ZEFSAII (Michael W. Deem and Ramdas Pophale) SiO2 
 PCOD9091556
Probable space group: P -1
;
_chemical_formula_sum "Si O2"
_cell_formula_units_Z 16
_cell_length_a 8.801283
_cell_length_b 13.534750
_cell_length_c 6.987497
_cell_angle_alpha 48.040978
_cell_angle_beta 89.016966
_cell_angle_gamma 97.684772
_cell_volume 606.965590
_symmetry_space_group_name_H-M "P -1"
_symmetry_group_IT_number 2
_symmetry_cell_setting 'triclinic'
loop_
_space_group_symop_operation_xyz
x,y,z
-x,-y,-z
loop_
_atom_site_type_symbol
_atom_site_label
_atom_site_fract_x
_atom_site_fract_y
_atom_site_fract_z
Si Si1 0.654020 0.982219 0.779419
Si Si2 0.493871 0.706938 0.244443
Si Si3 0.488686 0.766198 0.617680
Si Si4 0.008032 0.297592 0.394665
Si Si5 0.826829 0.911533 0.534279
Si Si6 0.875937 0.087084 0.960496
Si Si7 0.313176 0.468389 0.611477
Si Si8 0.240594 0.534936 0.957474
O O1 0.799139 0.950043 0.700437
O O2 0.599810 0.110435 0.521716
O O3 0.716157 0.027117 0.930601
O O4 0.515753 0.852065 0.954111
O O5 0.485199 0.725928 0.447510
O O6 0.314023 0.616267 0.330530
O O7 0.678798 0.684535 0.239888
O O8 0.662642 0.818082 0.604855
O O9 0.402618 0.626922 0.899354
O O10 0.054367 0.181991 0.410572
O O11 0.943685 0.234328 0.679895
O O12 0.878579 0.365649 0.208032
O O13 0.160076 0.417335 0.253235
O O14 0.851379 0.048162 0.231117
O O15 0.000000 0.000000 0.000000
O O16 0.500000 0.500000 0.500000
O O17 0.262491 0.472045 0.827245
#
# Coordination Sequence:
#
# PCOD9091556 Si02
#       8
#     2   2   2   2   2   2   2   2
#     4  12  21  38  66  95 129 175 213 274 327 381
#     4   8  17  32  59  88 125 160 204 261 332 366
#     4  11  21  38  62 100 130 170 219 277 326 389
#     4  10  22  40  63  91 131 179 217 269 319 398
#     4  11  25  39  64 101 131 169 222 271 329 392
#     4  10  23  42  62  95 128 172 219 264 331 388
#     4   7  16  31  56  95 118 156 212 267 310 385
#     4  10  19  39  67  93 128 175 227 260 333 393
#
# _framework density 26.360637000000001
#
# number of rings (size 3 to 8) (size 9 to 14) (size 15 to 20)
#    0.750    1.250    2.500    1.500    0.000    2.500 
#    0.000    0.000    0.000    1.500    0.000    0.000 
#    0.000    0.000    0.000    0.000    0.000    0.000 
#
# Total GULP energy -89132.163467 kJ/mol
# GULP energy per Si atom -5570.760217 kJ/mol
# Density = 2.630064 g / cm^3
# Si number density = 26.360637 Si / 1000 Ang^3
#
#
#
# Elastic Constant Matrix: (Units=GPa)
#
#
# Indices 1 2 3 4 5 6 
#
# 1 74.8198 27.5335 18.1291 -14.0770 4.1258 -16.9581
# 2 27.5335 86.1393 38.0392 6.1130 -3.4847 -23.9860
# 3 18.1291 38.0392 192.0952 -19.2715 -32.2607 -3.0149
# 4 -14.0770 6.1130 -19.2715 36.4053 5.7421 -9.3414
# 5 4.1258 -3.4847 -32.2607 5.7421 39.8414 -8.7573
# 6 -16.9581 -23.9860 -3.0149 -9.3414 -8.7573 41.6412
#
#
#
# Elastic Compliance Matrix: (Units=1/GPa)
#
#
# Indices 1 2 3 4 5 6 
#
# 1 0.018714 -0.004946 -0.000087 0.010079 -0.002463 0.006509
# 2 -0.004946 0.016774 -0.002936 -0.004838 0.001777 0.006724
# 3 -0.000087 -0.002936 0.007010 0.003536 0.005059 0.000638
# 4 0.010079 -0.004838 0.003536 0.036760 -0.001828 0.009436
# 5 -0.002463 0.001777 0.005059 -0.001828 0.031312 0.006562
# 6 0.006509 0.006724 0.000638 0.009436 0.006562 0.034081
#
#
# Mechanical properties :
#
#
# Convention : Reuss Voigt Hill
#
# Bulk Modulus (GPa) = 37.65106 57.82866 47.73986
# Shear Modulus (GPa) = 29.50852 41.53439 35.52145
#
# Velocity S-wave (km/s) = 3.34940 3.97372 3.67484
# Velocity P-wave (km/s) = 5.41036 6.56041 6.01295
#
# Compressibility (1/GPa) = 0.02655968
#
# Stress axis : x y z
#
# Youngs Moduli (GPa) = 53.43566 59.61537 142.65852
#
# Poissons Ratio (x) = 0.29484 0.01242
# Poissons Ratio (y) = 0.26428 0.41890
# Poissons Ratio (z) = 0.00465 0.17505
#
# Static dielectric constant tensor:
#      x y z
#    x 2.124080 0.144950 -0.067120 
#    y 0.144950 1.915660 0.178550 
#    z -0.067120 0.178550 1.924990 
# 
# From -- ./inp_files/205181.got.cif
#   From: 2010.05.17/outbox.cif.g08.bks.cpg/sg2_103_cif.got.tgz:205181.got - 2010.06.03 11:33:40.
