data_PCOD9091439
_publ_section_title
;
Structure prediction by ZEFSAII (Michael W. Deem and Ramdas Pophale) SiO2 
 PCOD9091439
Probable space group: P -1
;
_chemical_formula_sum "Si O2"
_cell_formula_units_Z 14
_cell_length_a 11.516992
_cell_length_b 9.257098
_cell_length_c 7.927670
_cell_angle_alpha 131.650027
_cell_angle_beta 92.283838
_cell_angle_gamma 76.876096
_cell_volume 607.849981
_symmetry_space_group_name_H-M "P -1"
_symmetry_group_IT_number 2
_symmetry_cell_setting 'triclinic'
loop_
_space_group_symop_operation_xyz
x,y,z
-x,-y,-z
loop_
_atom_site_type_symbol
_atom_site_label
_atom_site_fract_x
_atom_site_fract_y
_atom_site_fract_z
Si Si1 0.831659 0.983077 0.416231
Si Si2 0.623147 0.259158 0.411623
Si Si3 0.063136 0.877099 0.141778
Si Si4 0.749051 0.979807 0.910792
Si Si5 0.326353 0.351761 0.137661
Si Si6 0.862554 0.539458 0.086096
Si Si7 0.529151 0.999843 0.698061
O O1 0.827258 0.768367 0.321467
O O2 0.921495 0.937707 0.222642
O O3 0.706652 0.116103 0.444844
O O4 0.884933 0.097245 0.649211
O O5 0.627094 0.480977 0.631000
O O6 0.498656 0.197956 0.375288
O O7 0.685300 0.170756 0.171949
O O8 0.117552 0.013390 0.128312
O O9 0.123857 0.642660 0.924079
O O10 0.662696 0.003177 0.760458
O O11 0.738293 0.781045 0.853176
O O12 0.230694 0.456987 0.069121
O O13 0.436566 0.190828 0.929022
O O14 0.000000 0.500000 0.000000
O O15 0.500000 0.000000 0.500000
#
# Coordination Sequence:
#
# PCOD9091439 Si02
#       7
#     2   2   2   2   2   2   2
#     4  10  19  39  66  89 128 169 208 263 304 377
#     4  11  22  42  63  92 130 169 206 256 328 370
#     4  10  22  38  64  94 126 166 217 255 313 366
#     4  11  25  42  62  96 130 163 212 265 317 372
#     4  11  23  43  67  93 130 168 209 260 320 375
#     4  10  20  38  66  93 122 169 212 254 307 374
#     4  11  25  44  67  93 124 164 216 266 311 377
#
# _framework density 23.031997
#
# number of rings (size 3 to 8) (size 9 to 14) (size 15 to 20)
#    0.000    1.429    4.286    2.571    0.000    4.571 
#    0.000    0.714    0.000    0.000    0.000    0.000 
#    0.000    0.000    0.000    0.000    0.000    0.000 
#
# Total GULP energy -78256.845678 kJ/mol
# GULP energy per Si atom -5589.774691 kJ/mol
# Density = 2.297957 g / cm^3
# Si number density = 23.031997 Si / 1000 Ang^3
#
#
#
# Elastic Constant Matrix: (Units=GPa)
#
#
# Indices 1 2 3 4 5 6 
#
# 1 74.5693 15.9663 30.2787 8.0488 4.5264 16.3769
# 2 15.9663 68.4508 30.1220 28.5711 -16.4732 9.6398
# 3 30.2787 30.1220 117.2714 27.0659 9.8346 15.9245
# 4 8.0488 28.5711 27.0659 41.2627 5.0505 6.0774
# 5 4.5264 -16.4732 9.8346 5.0505 28.0740 -7.3289
# 6 16.3769 9.6398 15.9245 6.0774 -7.3289 41.5863
#
#
#
# Elastic Compliance Matrix: (Units=1/GPa)
#
#
# Indices 1 2 3 4 5 6 
#
# 1 0.016977 -0.005401 -0.002394 0.003848 -0.007428 -0.006389
# 2 -0.005401 0.033683 -0.004838 -0.023131 0.027646 0.004424
# 3 -0.002394 -0.004838 0.012076 -0.002736 -0.007081 -0.003408
# 4 0.003848 -0.023131 -0.002736 0.044924 -0.022802 -0.005690
# 5 -0.007428 0.027646 -0.007081 -0.022802 0.063198 0.013698
# 6 -0.006389 0.004424 -0.003408 -0.005690 0.013698 0.030087
#
#
# Mechanical properties :
#
#
# Convention : Reuss Voigt Hill
#
# Bulk Modulus (GPa) = 26.68722 45.89172 36.28947
# Shear Modulus (GPa) = 20.94669 34.44622 27.69646
#
# Velocity S-wave (km/s) = 3.01900 3.87147 3.47150
# Velocity P-wave (km/s) = 4.87490 6.32083 5.64435
#
# Compressibility (1/GPa) = 0.03747112
#
# Stress axis : x y z
#
# Youngs Moduli (GPa) = 58.90216 29.68881 82.80933
#
# Poissons Ratio (x) = 0.16034 0.19825
# Poissons Ratio (y) = 0.31811 0.40062
# Poissons Ratio (z) = 0.14101 0.14363
#
# Static dielectric constant tensor:
#      x y z
#    x 1.868900 0.021560 0.018730 
#    y 0.021560 1.881690 -0.009620 
#    z 0.018730 -0.009620 1.861520 
# 
# From -- ./inp_files/241399.got.cif
#   From: 2010.05.17/outbox.cif.g08.bks.cpg/sg2_121_cif.got.tgz:241399.got - 2010.06.03 11:33:40.
