data_PCOD9091396
_publ_section_title
;
Structure prediction by ZEFSAII (Michael W. Deem and Ramdas Pophale) SiO2 
 PCOD9091396
Probable space group: P -1
;
_chemical_formula_sum "Si O2"
_cell_formula_units_Z 16
_cell_length_a 10.736720
_cell_length_b 6.125212
_cell_length_c 11.309974
_cell_angle_alpha 89.920952
_cell_angle_beta 62.608914
_cell_angle_gamma 105.398680
_cell_volume 630.034180
_symmetry_space_group_name_H-M "P -1"
_symmetry_group_IT_number 2
_symmetry_cell_setting 'triclinic'
loop_
_space_group_symop_operation_xyz
x,y,z
-x,-y,-z
loop_
_atom_site_type_symbol
_atom_site_label
_atom_site_fract_x
_atom_site_fract_y
_atom_site_fract_z
Si Si1 0.671528 0.085305 0.332794
Si Si2 0.111069 0.470504 0.697161
Si Si3 0.363570 0.682924 0.081447
Si Si4 0.477380 0.529804 0.815259
Si Si5 0.649131 0.907844 0.582579
Si Si6 0.177239 0.181284 0.872254
Si Si7 0.870487 0.141040 0.680897
Si Si8 0.893803 0.761839 0.836493
O O1 0.730291 0.336835 0.367351
O O2 0.689197 0.910887 0.427772
O O3 0.505288 0.032110 0.360554
O O4 0.769625 0.035372 0.185459
O O5 0.098443 0.276099 0.801329
O O6 0.024778 0.344236 0.618596
O O7 0.009260 0.623072 0.780607
O O8 0.473285 0.663583 0.136540
O O9 0.249861 0.812931 0.173597
O O10 0.264641 0.421115 0.109681
O O11 0.450206 0.720204 0.919281
O O12 0.324878 0.398216 0.822126
O O13 0.601196 0.665355 0.669894
O O14 0.780919 0.078157 0.598681
O O15 0.103780 0.143407 0.032682
O O16 0.911093 0.927879 0.718414
#
# Coordination Sequence:
#
# PCOD9091396 Si02
#       8
#     2   2   2   2   2   2   2   2
#     4  11  26  45  65  95 128 174 222 259 312 380
#     4  11  24  44  63  97 133 166 214 267 321 381
#     4   9  20  36  62 102 132 159 207 264 333 384
#     4  10  19  39  65  97 132 163 209 272 318 381
#     4  11  24  45  67  93 132 170 219 268 305 379
#     4  11  23  41  68  97 130 173 209 264 326 381
#     4  11  23  41  68  96 128 171 207 266 331 375
#     4  10  22  39  67 100 131 162 213 265 327 388
#
# _framework density 25.395448999999999
#
# number of rings (size 3 to 8) (size 9 to 14) (size 15 to 20)
#    0.000    1.500    2.500    1.875    1.750    4.500 
#    2.250    2.500    0.000    0.000    0.000    0.000 
#    0.000    0.000    0.000    0.000    0.000    0.000 
#
# Total GULP energy -89450.221148 kJ/mol
# GULP energy per Si atom -5590.638822 kJ/mol
# Density = 2.533765 g / cm^3
# Si number density = 25.395449 Si / 1000 Ang^3
#
#
#
# Elastic Constant Matrix: (Units=GPa)
#
#
# Indices 1 2 3 4 5 6 
#
# 1 146.6156 29.4387 20.8028 11.0988 28.3972 11.3440
# 2 29.4387 56.8517 19.6231 -0.2640 11.1034 9.2803
# 3 20.8028 19.6231 45.3392 -1.9263 12.1547 5.1912
# 4 11.0988 -0.2640 -1.9263 29.2783 -0.0819 -1.9455
# 5 28.3972 11.1034 12.1547 -0.0819 36.0006 11.4435
# 6 11.3440 9.2803 5.1912 -1.9455 11.4435 42.1712
#
#
#
# Elastic Compliance Matrix: (Units=1/GPa)
#
#
# Indices 1 2 3 4 5 6 
#
# 1 0.009013 -0.003056 -0.001432 -0.003569 -0.005624 -0.000214
# 2 -0.003056 0.022503 -0.007709 0.000660 -0.001011 -0.002876
# 3 -0.001432 -0.007709 0.027702 0.002306 -0.005966 0.000397
# 4 -0.003569 0.000660 0.002306 0.035790 0.001336 0.001819
# 5 -0.005624 -0.001011 -0.005966 0.001336 0.036923 -0.007488
# 6 -0.000214 -0.002876 0.000397 0.001819 -0.007488 0.026470
#
#
# Mechanical properties :
#
#
# Convention : Reuss Voigt Hill
#
# Bulk Modulus (GPa) = 28.71627 43.17064 35.94345
# Shear Modulus (GPa) = 25.71974 33.41949 29.56962
#
# Velocity S-wave (km/s) = 3.18586 3.63156 3.41598
# Velocity P-wave (km/s) = 4.98649 5.88392 5.45370
#
# Compressibility (1/GPa) = 0.03482346
#
# Stress axis : x y z
#
# Youngs Moduli (GPa) = 110.94679 44.43852 36.09904
#
# Poissons Ratio (x) = 0.13581 0.05171
# Poissons Ratio (y) = 0.33907 0.27828
# Poissons Ratio (z) = 0.15891 0.34257
#
# Static dielectric constant tensor:
#      x y z
#    x 2.028460 0.080580 -0.006420 
#    y 0.080580 2.046970 0.005280 
#    z -0.006420 0.005280 1.979250 
# 
# From -- ./inp_files/410488.got.cif
#   From: 2010.05.17/outbox.cif.g08.bks.cpg/sg2_206_cif.got.tgz:410488.got - 2010.06.03 11:33:40.
