data_PCOD9091029
_publ_section_title
;
Structure prediction by ZEFSAII (Michael W. Deem and Ramdas Pophale) SiO2 
 PCOD9091029
Probable space group: P -1
;
_chemical_formula_sum "Si O2"
_cell_formula_units_Z 14
_cell_length_a 5.390489
_cell_length_b 12.319009
_cell_length_c 8.960165
_cell_angle_alpha 89.737900
_cell_angle_beta 69.653656
_cell_angle_gamma 83.728130
_cell_volume 554.185092
_symmetry_space_group_name_H-M "P -1"
_symmetry_group_IT_number 2
_symmetry_cell_setting 'triclinic'
loop_
_space_group_symop_operation_xyz
x,y,z
-x,-y,-z
loop_
_atom_site_type_symbol
_atom_site_label
_atom_site_fract_x
_atom_site_fract_y
_atom_site_fract_z
Si Si1 0.390964 0.242163 0.228308
Si Si2 0.668401 0.596823 0.012898
Si Si3 0.178821 0.065598 0.660941
Si Si4 0.622508 0.002695 0.814030
Si Si5 0.091434 0.641907 0.490278
Si Si6 0.626371 0.171616 0.457712
Si Si7 0.871380 0.522473 0.271040
O O1 0.439128 0.294340 0.057359
O O2 0.645510 0.213934 0.283371
O O3 0.190383 0.326697 0.364877
O O4 0.279758 0.125089 0.238841
O O5 0.956942 0.561140 0.876793
O O6 0.500000 0.500000 0.000000
O O7 0.691880 0.595592 0.187742
O O8 0.372572 0.043578 0.762214
O O9 0.313834 0.161720 0.552921
O O10 0.869284 0.073416 0.758774
O O11 0.240168 0.952685 0.554929
O O12 0.500000 0.000000 0.000000
O O13 0.250083 0.745849 0.462909
O O14 0.235008 0.551269 0.575230
O O15 0.044959 0.596215 0.336304
#
# Coordination Sequence:
#
# PCOD9091029 Si02
#       7
#     2   2   2   2   2   2   2
#     4  10  22  38  64  91 128 177 222 279 343 406
#     4  10  20  40  61  90 134 172 218 268 342 408
#     4  10  23  40  69  96 134 179 229 290 342 403
#     4  11  23  45  65  97 138 182 228 284 347 415
#     4  10  19  39  62  95 132 169 228 280 337 403
#     4  10  21  37  65  95 130 172 231 281 344 399
#     4   9  21  37  63  93 130 174 217 279 334 406
#
# _framework density 25.262315000000001
#
# number of rings (size 3 to 8) (size 9 to 14) (size 15 to 20)
#    0.000    2.000    1.429    1.286    2.000    2.857 
#    5.143    4.286    0.000    0.000    0.000    0.000 
#    0.000    0.000    0.000    0.000    0.000    0.000 
#
# Total GULP energy -78251.805666 kJ/mol
# GULP energy per Si atom -5589.414690 kJ/mol
# Density = 2.520482 g / cm^3
# Si number density = 25.262315 Si / 1000 Ang^3
#
#
#
# Elastic Constant Matrix: (Units=GPa)
#
#
# Indices 1 2 3 4 5 6 
#
# 1 110.7663 34.1533 53.8644 -14.4670 20.6937 19.0793
# 2 34.1533 81.2646 35.0969 -26.3322 28.9802 21.6787
# 3 53.8644 35.0969 151.1491 -21.0965 54.1110 2.2384
# 4 -14.4670 -26.3322 -21.0965 49.9005 -18.4485 3.7182
# 5 20.6937 28.9802 54.1110 -18.4485 39.6766 -3.4369
# 6 19.0793 21.6787 2.2384 3.7182 -3.4369 50.2515
#
#
#
# Elastic Compliance Matrix: (Units=1/GPa)
#
#
# Indices 1 2 3 4 5 6 
#
# 1 0.012276 -0.002559 -0.003976 0.001208 0.001157 -0.003390
# 2 -0.002559 0.023707 0.002813 0.007370 -0.017353 -0.011113
# 3 -0.003976 0.002813 0.014607 -0.000941 -0.020486 -0.001686
# 4 0.001208 0.007370 -0.000941 0.026988 0.007378 -0.005089
# 5 0.001157 -0.017353 -0.020486 0.007378 0.069700 0.012181
# 6 -0.003390 -0.011113 -0.001686 -0.005089 0.012181 0.027266
#
#
# Mechanical properties :
#
#
# Convention : Reuss Voigt Hill
#
# Bulk Modulus (GPa) = 23.17673 65.48992 44.33332
# Shear Modulus (GPa) = 25.46201 42.63674 34.04938
#
# Velocity S-wave (km/s) = 3.17820 4.11269 3.67527
# Velocity P-wave (km/s) = 4.76049 6.96653 5.96636
#
# Compressibility (1/GPa) = 0.04314673
#
# Stress axis : x y z
#
# Youngs Moduli (GPa) = 81.45928 42.18095 68.45948
#
# Poissons Ratio (x) = 0.10793 0.27219
# Poissons Ratio (y) = 0.20844 -0.19255
# Poissons Ratio (z) = 0.32387 -0.11864
#
# Static dielectric constant tensor:
#      x y z
#    x 2.059360 -0.073070 -0.016580 
#    y -0.073070 2.046620 -0.048760 
#    z -0.016580 -0.048760 2.060390 
# 
# From -- ./inp_files/131612.got.cif
#   From: 2010.05.17/outbox.cif.g08.bks.cpg/sg2_66_cif.got.tgz:131612.got - 2010.06.03 11:33:40.
