data_PCOD9091066
_publ_section_title
;
Structure prediction by ZEFSAII (Michael W. Deem and Ramdas Pophale) SiO2 
 PCOD9091066
Probable space group: P -1
;
_chemical_formula_sum "Si O2"
_cell_formula_units_Z 12
_cell_length_a 9.790386
_cell_length_b 7.045965
_cell_length_c 11.935846
_cell_angle_alpha 36.668418
_cell_angle_beta 109.111235
_cell_angle_gamma 115.833430
_cell_volume 442.187739
_symmetry_space_group_name_H-M "P -1"
_symmetry_group_IT_number 2
_symmetry_cell_setting 'triclinic'
loop_
_space_group_symop_operation_xyz
x,y,z
-x,-y,-z
loop_
_atom_site_type_symbol
_atom_site_label
_atom_site_fract_x
_atom_site_fract_y
_atom_site_fract_z
Si Si1 0.366348 0.879020 0.210515
Si Si2 0.431108 0.362999 0.356902
Si Si3 0.308665 0.495506 0.799235
Si Si4 0.049469 0.195997 0.708107
Si Si5 0.836812 0.833828 0.479609
Si Si6 0.271995 0.338966 0.106919
O O1 0.857339 0.655934 0.226469
O O2 0.212967 0.567246 0.326220
O O3 0.695742 0.431123 0.102926
O O4 0.361923 0.156894 0.989176
O O5 0.578266 0.324070 0.355395
O O6 0.298696 0.087286 0.522189
O O7 0.330098 0.466671 0.183507
O O8 0.481997 0.679724 0.304928
O O9 0.147806 0.102274 0.678960
O O10 0.000000 0.500000 0.500000
O O11 0.630288 0.920155 0.769189
O O12 0.902900 0.878361 0.837769
O O13 0.000000 0.000000 0.500000
#
# Coordination Sequence:
#
# PCOD9091066 Si02
#       6
#     2   2   2   2   2   2
#     4   8  20  36  61  85 118 154 194 237 306 335
#     4  10  19  39  63  87 125 144 203 247 287 359
#     4  10  22  36  60  92 114 160 199 239 304 344
#     4  12  20  39  60  82 124 160 199 243 292 356
#     4  10  20  36  62  85 118 165 186 242 305 343
#     4  10  20  36  64  84 120 155 197 241 297 351
#
# _framework density 27.137796000000002
#
# number of rings (size 3 to 8) (size 9 to 14) (size 15 to 20)
#    2.000    0.000    3.333    1.500    0.000    0.667 
#    0.000    5.833    0.000    0.000    0.000    0.000 
#    0.000    0.000    0.000    0.000    0.000    0.000 
#
# Total GULP energy -66968.762048 kJ/mol
# GULP energy per Si atom -5580.730171 kJ/mol
# Density = 2.707603 g / cm^3
# Si number density = 27.137796 Si / 1000 Ang^3
#
#
#
# Elastic Constant Matrix: (Units=GPa)
#
#
# Indices 1 2 3 4 5 6 
#
# 1 124.3356 9.3575 27.4757 16.2793 -49.4884 -17.2097
# 2 9.3575 64.9459 12.2351 29.2339 -4.0469 -1.7743
# 3 27.4757 12.2351 157.4157 16.1529 -33.1045 12.4040
# 4 16.2793 29.2339 16.1529 48.2830 12.8501 -7.5963
# 5 -49.4884 -4.0469 -33.1045 12.8501 42.0386 4.4352
# 6 -17.2097 -1.7743 12.4040 -7.5963 4.4352 54.5659
#
#
#
# Elastic Compliance Matrix: (Units=1/GPa)
#
#
# Indices 1 2 3 4 5 6 
#
# 1 0.036824 0.016898 0.011279 -0.044796 0.067777 -0.002146
# 2 0.016898 0.031528 0.007604 -0.038966 0.041265 -0.004152
# 3 0.011279 0.007604 0.013032 -0.021890 0.031465 -0.004763
# 4 -0.044796 -0.038966 -0.021890 0.096314 -0.104375 0.011473
# 5 0.067777 0.041265 0.031465 -0.104375 0.165542 -0.012420
# 6 -0.002146 -0.004152 -0.004763 0.011473 -0.012420 0.021204
#
#
# Mechanical properties :
#
#
# Convention : Reuss Voigt Hill
#
# Bulk Modulus (GPa) = 6.53832 49.42597 27.98215
# Shear Modulus (GPa) = 14.54066 48.81943 31.68005
#
# Velocity S-wave (km/s) = 2.31726 4.24600 3.42040
# Velocity P-wave (km/s) = 3.09421 6.50312 5.09238
#
# Compressibility (1/GPa) = 0.15294443
#
# Stress axis : x y z
#
# Youngs Moduli (GPa) = 27.15638 31.71804 76.73678
#
# Poissons Ratio (x) = -0.53598 -0.86548
# Poissons Ratio (y) = -0.45890 -0.58348
# Poissons Ratio (z) = -0.30629 -0.24117
#
# Static dielectric constant tensor:
#      x y z
#    x 2.195060 -0.101500 -0.012910 
#    y -0.101500 2.171680 -0.120090 
#    z -0.012910 -0.120090 2.081480 
# 
# From -- ./inp_files/488964.got.cif
#   From: 2010.05.17/outbox.cif.g08.bks.cpg/sg2_245_cif.got.tgz:488964.got - 2010.06.03 11:33:40.
