data_PCOD9091521
_publ_section_title
;
Structure prediction by ZEFSAII (Michael W. Deem and Ramdas Pophale) SiO2 
 PCOD9091521
Probable space group: P -1
;
_chemical_formula_sum "Si O2"
_cell_formula_units_Z 16
_cell_length_a 8.144232
_cell_length_b 13.223118
_cell_length_c 12.573361
_cell_angle_alpha 43.338862
_cell_angle_beta 124.930113
_cell_angle_gamma 93.412045
_cell_volume 588.985137
_symmetry_space_group_name_H-M "P -1"
_symmetry_group_IT_number 2
_symmetry_cell_setting 'triclinic'
loop_
_space_group_symop_operation_xyz
x,y,z
-x,-y,-z
loop_
_atom_site_type_symbol
_atom_site_label
_atom_site_fract_x
_atom_site_fract_y
_atom_site_fract_z
Si Si1 0.773451 0.718464 0.930807
Si Si2 0.839811 0.197984 0.162005
Si Si3 0.946638 0.139577 0.780109
Si Si4 0.537319 0.182916 0.903446
Si Si5 0.238715 0.529405 0.393849
Si Si6 0.152729 0.637752 0.752060
Si Si7 0.649435 0.174859 0.454108
Si Si8 0.612484 0.997357 0.274737
O O1 0.737271 0.570836 0.081187
O O2 0.065157 0.613349 0.158006
O O3 0.632076 0.755186 0.737671
O O4 0.592696 0.917685 0.773611
O O5 0.813556 0.339535 0.127938
O O6 0.775254 0.073784 0.293659
O O7 0.622831 0.288882 0.920933
O O8 0.124382 0.047091 0.329776
O O9 0.910248 0.313751 0.687785
O O10 0.699591 0.201093 0.573039
O O11 0.000000 0.000000 0.000000
O O12 0.190164 0.003648 0.897005
O O13 0.330472 0.330704 0.628616
O O14 0.529776 0.903941 0.964305
O O15 0.500000 0.500000 0.500000
O O16 0.273367 0.712928 0.670043
O O17 0.842149 0.776349 0.521315
#
# Coordination Sequence:
#
# PCOD9091521 Si02
#       8
#     2   2   2   2   2   2   2   2
#     4  12  25  37  65 105 132 169 217 263 326 397
#     4   8  16  34  64  94 136 163 194 255 326 392
#     4  11  23  45  74  86 121 185 224 262 329 378
#     4   9  21  41  67  92 123 175 216 255 331 387
#     4  12  28  48  63  84 134 177 230 278 310 372
#     4  11  18  35  64 101 146 163 193 263 341 397
#     4  10  19  39  67 103 127 168 214 264 325 393
#     4   9  19  37  60 102 139 161 203 260 329 398
#
# _framework density 27.165368999999998
#
# number of rings (size 3 to 8) (size 9 to 14) (size 15 to 20)
#    0.750    1.000    5.000    1.125    3.500    1.500 
#    0.000    2.500    0.000    0.000    0.000    0.000 
#    0.000    0.000    0.000    0.000    0.000    0.000 
#
# Total GULP energy -89483.210093 kJ/mol
# GULP energy per Si atom -5592.700631 kJ/mol
# Density = 2.710354 g / cm^3
# Si number density = 27.165369 Si / 1000 Ang^3
#
#
#
# Elastic Constant Matrix: (Units=GPa)
#
#
# Indices 1 2 3 4 5 6 
#
# 1 41.5970 19.6960 14.7347 14.2830 12.9776 -3.3405
# 2 19.6960 121.0704 56.7653 30.1482 11.4340 9.4773
# 3 14.7347 56.7653 178.3754 35.8053 20.2998 5.6887
# 4 14.2830 30.1482 35.8053 70.7112 4.2700 3.0604
# 5 12.9776 11.4340 20.2998 4.2700 32.1923 2.4888
# 6 -3.3405 9.4773 5.6887 3.0604 2.4888 29.1431
#
#
#
# Elastic Compliance Matrix: (Units=1/GPa)
#
#
# Indices 1 2 3 4 5 6 
#
# 1 0.031215 -0.003597 0.000620 -0.004652 -0.011552 0.006102
# 2 -0.003597 0.010935 -0.002553 -0.002490 -0.000247 -0.003187
# 3 0.000620 -0.002553 0.007279 -0.002507 -0.003605 0.000052
# 4 -0.004652 -0.002490 -0.002507 0.017337 0.002137 -0.001237
# 5 -0.011552 -0.000247 -0.003605 0.002137 0.038108 -0.004019
# 6 0.006102 -0.003187 0.000052 -0.001237 -0.004019 0.036512
#
#
# Mechanical properties :
#
#
# Convention : Reuss Voigt Hill
#
# Bulk Modulus (GPa) = 26.06295 58.15943 42.11119
# Shear Modulus (GPa) = 30.25955 43.06576 36.66266
#
# Velocity S-wave (km/s) = 3.34114 3.98593 3.67769
# Velocity P-wave (km/s) = 4.94967 6.52988 5.79390
#
# Compressibility (1/GPa) = 0.03836865
#
# Stress axis : x y z
#
# Youngs Moduli (GPa) = 32.03583 91.45155 137.37620
#
# Poissons Ratio (x) = 0.32896 -0.08518
# Poissons Ratio (y) = 0.11524 0.35074
# Poissons Ratio (z) = -0.01986 0.23349
#
# Static dielectric constant tensor:
#      x y z
#    x 4.173620 -3.083530 0.984130 
#    y -3.083530 6.837200 -1.469140 
#    z 0.984130 -1.469140 2.610320 
# 
# From -- ./inp_files/519625.got.cif
#   From: 2010.05.17/outbox.cif.g08.bks.cpg/sg2_260_cif.got.tgz:519625.got - 2010.06.03 11:33:40.
