data_PCOD9091065
_publ_section_title
;
Structure prediction by ZEFSAII (Michael W. Deem and Ramdas Pophale) SiO2 
 PCOD9091065
Probable space group: P -1
;
_chemical_formula_sum "Si O2"
_cell_formula_units_Z 16
_cell_length_a 7.469625
_cell_length_b 18.722177
_cell_length_c 9.315723
_cell_angle_alpha 40.725056
_cell_angle_beta 113.135935
_cell_angle_gamma 131.563849
_cell_volume 619.643230
_symmetry_space_group_name_H-M "P -1"
_symmetry_group_IT_number 2
_symmetry_cell_setting 'triclinic'
loop_
_space_group_symop_operation_xyz
x,y,z
-x,-y,-z
loop_
_atom_site_type_symbol
_atom_site_label
_atom_site_fract_x
_atom_site_fract_y
_atom_site_fract_z
Si Si1 0.629279 0.342532 0.377335
Si Si2 0.126916 0.757067 0.944520
Si Si3 0.390091 0.449067 0.782251
Si Si4 0.469511 0.107691 0.898894
Si Si5 0.651580 0.245696 0.244450
Si Si6 0.164128 0.426073 0.444132
Si Si7 0.148658 0.983445 0.456351
Si Si8 0.087442 0.861070 0.339260
O O1 0.547197 0.432060 0.270405
O O2 0.482858 0.201121 0.636296
O O3 0.606381 0.323330 0.229044
O O4 0.915980 0.411173 0.393094
O O5 0.147427 0.683227 0.926711
O O6 0.232768 0.904698 0.687806
O O7 0.303378 0.785616 0.086829
O O8 0.852730 0.687551 0.017838
O O9 0.285584 0.468759 0.573031
O O10 0.630537 0.470195 0.766397
O O11 0.500000 0.000000 0.000000
O O12 0.228531 0.001424 0.078688
O O13 0.734692 0.172818 0.485869
O O14 0.392199 0.131294 0.263085
O O15 0.092190 0.275367 0.606038
O O16 0.003751 0.892275 0.410727
O O17 0.000000 0.000000 0.500000
#
# Coordination Sequence:
#
# PCOD9091065 Si02
#       8
#     2   2   2   2   2   2   2   2
#     4  11  23  40  68  92 126 171 211 253 316 371
#     4  11  21  41  64  87 125 168 206 255 316 369
#     4  11  24  42  62  90 131 168 216 250 308 375
#     4  12  18  36  68  95 117 162 212 256 315 376
#     4  10  20  40  63  92 122 162 205 262 312 375
#     4  10  22  41  61  89 128 166 203 267 304 362
#     4  11  22  38  62  95 127 157 202 267 321 370
#     4  10  19  39  63  87 123 157 207 255 323 359
#
# _framework density 25.821307999999998
#
# number of rings (size 3 to 8) (size 9 to 14) (size 15 to 20)
#    0.000    1.250    6.250    1.125    1.750    0.500 
#    6.750    6.250    0.000    0.000    0.000    0.000 
#    0.000    0.000    0.000    0.000    0.000    0.000 
#
# Total GULP energy -89546.220496 kJ/mol
# GULP energy per Si atom -5596.638781 kJ/mol
# Density = 2.576254 g / cm^3
# Si number density = 25.821308 Si / 1000 Ang^3
#
#
#
# Elastic Constant Matrix: (Units=GPa)
#
#
# Indices 1 2 3 4 5 6 
#
# 1 96.9696 16.0677 8.1202 17.2440 -28.5654 -6.0399
# 2 16.0677 85.4869 26.0635 17.2640 -5.9155 -17.1166
# 3 8.1202 26.0635 116.1340 9.3868 -24.8176 2.8415
# 4 17.2440 17.2640 9.3868 36.4551 -4.1981 -15.3331
# 5 -28.5654 -5.9155 -24.8176 -4.1981 33.3522 2.5696
# 6 -6.0399 -17.1166 2.8415 -15.3331 2.5696 43.4949
#
#
#
# Elastic Compliance Matrix: (Units=1/GPa)
#
#
# Indices 1 2 3 4 5 6 
#
# 1 0.015750 -0.001959 0.003058 -0.006417 0.014757 -0.001918
# 2 -0.001959 0.014580 -0.003504 -0.003411 -0.002487 0.004639
# 3 0.003058 -0.003504 0.011789 -0.003036 0.010651 -0.003424
# 4 -0.006417 -0.003411 -0.003036 0.037095 -0.004562 0.011312
# 5 0.014757 -0.002487 0.010651 -0.004562 0.049854 -0.004179
# 6 -0.001918 0.004639 -0.003424 0.011312 -0.004179 0.029009
#
#
# Mechanical properties :
#
#
# Convention : Reuss Voigt Hill
#
# Bulk Modulus (GPa) = 26.80520 44.34370 35.57445
# Shear Modulus (GPa) = 28.51850 39.21638 33.86744
#
# Velocity S-wave (km/s) = 3.32694 3.90136 3.62554
# Velocity P-wave (km/s) = 5.01614 6.12411 5.59760
#
# Compressibility (1/GPa) = 0.03730619
#
# Stress axis : x y z
#
# Youngs Moduli (GPa) = 63.49232 68.58734 84.82740
#
# Poissons Ratio (x) = 0.13440 -0.25937
# Poissons Ratio (y) = 0.12441 0.29726
# Poissons Ratio (z) = -0.19414 0.24035
#
# Static dielectric constant tensor:
#      x y z
#    x 1.948570 -0.170740 -0.428970 
#    y -0.170740 1.842220 -0.552270 
#    z -0.428970 -0.552270 0.547530 
# 
# From -- ./inp_files/214772.got.cif
#   From: 2010.05.17/outbox.cif.g08.bks.cpg/sg2_108_cif.got.tgz:214772.got - 2010.06.03 11:33:40.
