data_PCOD9091719
_publ_section_title
;
Structure prediction by ZEFSAII (Michael W. Deem and Ramdas Pophale) SiO2 
 PCOD9091719
Probable space group: P -1
;
_chemical_formula_sum "Si O2"
_cell_formula_units_Z 14
_cell_length_a 14.407158
_cell_length_b 9.341423
_cell_length_c 17.993039
_cell_angle_alpha 151.190117
_cell_angle_beta 33.359859
_cell_angle_gamma 153.369557
_cell_volume 507.712037
_symmetry_space_group_name_H-M "P -1"
_symmetry_group_IT_number 2
_symmetry_cell_setting 'triclinic'
loop_
_space_group_symop_operation_xyz
x,y,z
-x,-y,-z
loop_
_atom_site_type_symbol
_atom_site_label
_atom_site_fract_x
_atom_site_fract_y
_atom_site_fract_z
Si Si1 0.992847 0.494009 0.284433
Si Si2 0.279142 0.302024 0.381576
Si Si3 0.734578 0.862394 0.406876
Si Si4 0.692428 0.392350 0.770681
Si Si5 0.766928 0.283512 0.193077
Si Si6 0.447263 0.269606 0.096086
Si Si7 0.826738 0.588332 0.085418
O O1 0.124626 0.383617 0.187723
O O2 0.860521 0.551487 0.456705
O O3 0.829400 0.242469 0.214757
O O4 0.155299 0.898476 0.319749
O O5 0.489477 0.590400 0.420214
O O6 0.338771 0.282600 0.249349
O O7 0.780441 0.653411 0.341088
O O8 0.853026 0.878020 0.259927
O O9 0.764847 0.211774 0.583160
O O10 0.619885 0.594048 0.863749
O O11 0.481221 0.057330 0.803063
O O12 0.954803 0.345768 0.046264
O O13 0.697052 0.531484 0.071138
O O14 0.345203 0.832687 0.956192
#
# Coordination Sequence:
#
# PCOD9091719 Si02
#       7
#     2   2   2   2   2   2   2
#     4  11  22  40  71 107 140 187 234 295 352 420
#     4  10  19  39  70  99 140 186 233 280 356 422
#     4  11  22  43  73 108 138 186 243 296 351 425
#     4  12  26  43  76 113 142 173 250 311 345 402
#     4  12  23  46  73 106 145 195 235 291 355 444
#     4  10  24  46  71 107 143 190 239 294 354 432
#     4  10  24  46  75  96 148 200 233 275 375 443
#
# _framework density 27.574687999999998
#
# number of rings (size 3 to 8) (size 9 to 14) (size 15 to 20)
#    0.000    1.143    4.286    2.571    0.000    3.429 
#    0.000    4.286    0.000    0.000    0.000    0.000 
#    0.000    0.000    0.000    0.000    0.000    0.000 
#
# Total GULP energy -78651.244111 kJ/mol
# GULP energy per Si atom -5617.946008 kJ/mol
# Density = 2.751193 g / cm^3
# Si number density = 27.574688 Si / 1000 Ang^3
#
#
#
# Elastic Constant Matrix: (Units=GPa)
#
#
# Indices 1 2 3 4 5 6 
#
# 1 157.2068 17.4153 45.7416 10.4838 -37.4100 12.1765
# 2 17.4153 50.3265 10.5905 -0.8955 -5.7242 9.9901
# 3 45.7416 10.5905 129.5608 3.8048 7.6926 2.9927
# 4 10.4838 -0.8955 3.8048 45.2493 -6.8584 -11.3657
# 5 -37.4100 -5.7242 7.6926 -6.8584 63.5526 1.4841
# 6 12.1765 9.9901 2.9927 -11.3657 1.4841 40.5287
#
#
#
# Elastic Compliance Matrix: (Units=1/GPa)
#
#
# Indices 1 2 3 4 5 6 
#
# 1 0.009129 -0.001290 -0.003329 -0.001742 0.005540 -0.002871
# 2 -0.001290 0.021738 -0.001287 -0.000195 0.001450 -0.004984
# 3 -0.003329 -0.001287 0.009187 -0.000352 -0.003241 0.000659
# 4 -0.001742 -0.000195 -0.000352 0.024625 0.001483 0.007449
# 5 0.005540 0.001450 -0.003241 0.001483 0.019728 -0.002089
# 6 -0.002871 -0.004984 0.000659 0.007449 -0.002089 0.028881
#
#
# Mechanical properties :
#
#
# Convention : Reuss Voigt Hill
#
# Bulk Modulus (GPa) = 35.40756 53.84322 44.62539
# Shear Modulus (GPa) = 37.17094 47.42257 42.29675
#
# Velocity S-wave (km/s) = 3.67551 4.15153 3.92075
# Velocity P-wave (km/s) = 5.55706 6.52296 6.05929
#
# Compressibility (1/GPa) = 0.02824256
#
# Stress axis : x y z
#
# Youngs Moduli (GPa) = 109.53607 46.00233 108.85537
#
# Poissons Ratio (x) = 0.05933 0.36240
# Poissons Ratio (y) = 0.14127 0.14008
# Poissons Ratio (z) = 0.36467 0.05920
#
# Static dielectric constant tensor:
#      x y z
#    x 2.149590 -0.010630 0.049350 
#    y -0.010630 2.147010 0.011490 
#    z 0.049350 0.011490 2.095620 
# 
# From -- ./inp_files/597467.got.cif
#   From: 2010.05.17/outbox.cif.g08.bks.cpg/sg2_299_cif.got.tgz:597467.got - 2010.06.03 11:33:40.
