data_PCOD9091277
_publ_section_title
;
Structure prediction by ZEFSAII (Michael W. Deem and Ramdas Pophale) SiO2 
 PCOD9091277
Probable space group: P -1
;
_chemical_formula_sum "Si O2"
_cell_formula_units_Z 14
_cell_length_a 9.060088
_cell_length_b 13.922978
_cell_length_c 5.120103
_cell_angle_alpha 61.356028
_cell_angle_beta 89.037417
_cell_angle_gamma 106.553596
_cell_volume 534.223452
_symmetry_space_group_name_H-M "P -1"
_symmetry_group_IT_number 2
_symmetry_cell_setting 'triclinic'
loop_
_space_group_symop_operation_xyz
x,y,z
-x,-y,-z
loop_
_atom_site_type_symbol
_atom_site_label
_atom_site_fract_x
_atom_site_fract_y
_atom_site_fract_z
Si Si1 0.093247 0.385201 0.060879
Si Si2 0.595912 0.889369 0.725650
Si Si3 0.332789 0.865351 0.416662
Si Si4 0.115233 0.940434 0.692342
Si Si5 0.639003 0.490248 0.829407
Si Si6 0.348557 0.320779 0.827131
Si Si7 0.913761 0.271021 0.729272
O O1 0.216299 0.509603 0.991998
O O2 0.997151 0.335745 0.386253
O O3 0.222170 0.325648 0.045588
O O4 0.976792 0.361125 0.848329
O O5 0.441868 0.820751 0.657828
O O6 0.724424 0.952470 0.417068
O O7 0.578743 0.995077 0.760291
O O8 0.661636 0.811289 0.008882
O O9 0.270184 0.789569 0.261407
O O10 0.176626 0.866525 0.575608
O O11 0.000000 0.000000 0.500000
O O12 0.048063 0.846995 0.042397
O O13 0.535040 0.386697 0.785350
O O14 0.691815 0.605733 0.498223
O O15 0.500000 0.500000 0.000000
#
# Coordination Sequence:
#
# PCOD9091277 Si02
#       7
#     2   2   2   2   2   2   2
#     4  11  21  37  64  95 124 163 206 271 326 362
#     4   9  20  43  61  92 132 175 210 258 317 378
#     4   9  22  40  59  91 133 177 212 250 311 387
#     4  10  21  38  59  93 128 165 216 259 302 377
#     4   9  20  36  62  95 127 156 215 272 330 372
#     4  10  19  39  64  96 124 168 210 270 322 383
#     4  12  22  39  61  89 129 171 209 255 318 375
#
# _framework density 26.206261999999999
#
# number of rings (size 3 to 8) (size 9 to 14) (size 15 to 20)
#    0.857    1.143    2.857    0.857    0.000    1.143 
#    7.714    0.000    0.000    1.714    0.000    0.000 
#    0.000    0.000    0.000    0.000    0.000    0.000 
#
# Total GULP energy -77995.026599 kJ/mol
# GULP energy per Si atom -5571.073328 kJ/mol
# Density = 2.614662 g / cm^3
# Si number density = 26.206262 Si / 1000 Ang^3
#
#
#
# Elastic Constant Matrix: (Units=GPa)
#
#
# Indices 1 2 3 4 5 6 
#
# 1 92.5156 39.5657 28.3652 11.0164 11.5937 12.6149
# 2 39.5657 120.5408 31.6627 35.0733 7.2504 56.7827
# 3 28.3652 31.6627 113.8107 17.3937 -7.3443 -8.6475
# 4 11.0164 35.0733 17.3937 36.8666 1.2866 17.9027
# 5 11.5937 7.2504 -7.3443 1.2866 24.7990 1.1579
# 6 12.6149 56.7827 -8.6475 17.9027 1.1579 41.1087
#
#
#
# Elastic Compliance Matrix: (Units=1/GPa)
#
#
# Indices 1 2 3 4 5 6 
#
# 1 0.014008 -0.003527 -0.003112 0.001034 -0.006477 -0.000349
# 2 -0.003527 0.046056 -0.017311 -0.002747 -0.013785 -0.064590
# 3 -0.003112 -0.017311 0.018555 -0.007048 0.010905 0.031532
# 4 0.001034 -0.002747 -0.007048 0.040395 -0.003139 -0.015508
# 5 -0.006477 -0.013785 0.010905 -0.003139 0.049687 0.023289
# 6 -0.000349 -0.064590 0.031532 -0.015508 0.023289 0.126381
#
#
# Mechanical properties :
#
#
# Convention : Reuss Voigt Hill
#
# Bulk Modulus (GPa) = 32.55504 58.45047 45.50276
# Shear Modulus (GPa) = 14.15538 35.70641 24.93090
#
# Velocity S-wave (km/s) = 2.32664 3.69523 3.08772
# Velocity P-wave (km/s) = 4.43478 6.36857 5.48753
#
# Compressibility (1/GPa) = 0.03071721
#
# Stress axis : x y z
#
# Youngs Moduli (GPa) = 71.38890 21.71284 53.89402
#
# Poissons Ratio (x) = 0.07658 0.16774
# Poissons Ratio (y) = 0.25179 0.93297
# Poissons Ratio (z) = 0.22219 0.37587
#
# Static dielectric constant tensor:
#      x y z
#    x 2.059380 0.080580 -0.049020 
#    y 0.080580 2.234070 0.026850 
#    z -0.049020 0.026850 2.137940 
# 
# From -- ./inp_files/81803.got.cif
#   From: 2010.05.17/outbox.cif.g08.bks.cpg/sg2_41_cif.got.tgz:81803.got - 2010.06.03 11:33:40.
