data_PCOD9091485
_publ_section_title
;
Structure prediction by ZEFSAII (Michael W. Deem and Ramdas Pophale) SiO2 
 PCOD9091485
Probable space group: P -1
;
_chemical_formula_sum "Si O2"
_cell_formula_units_Z 16
_cell_length_a 9.826472
_cell_length_b 16.007794
_cell_length_c 15.219920
_cell_angle_alpha 31.541076
_cell_angle_beta 63.773700
_cell_angle_gamma 39.245516
_cell_volume 595.884128
_symmetry_space_group_name_H-M "P -1"
_symmetry_group_IT_number 2
_symmetry_cell_setting 'triclinic'
loop_
_space_group_symop_operation_xyz
x,y,z
-x,-y,-z
loop_
_atom_site_type_symbol
_atom_site_label
_atom_site_fract_x
_atom_site_fract_y
_atom_site_fract_z
Si Si1 0.042240 0.358921 0.836242
Si Si2 0.482567 0.985443 0.623235
Si Si3 0.787667 0.977670 0.611551
Si Si4 0.497011 0.876505 0.995088
Si Si5 0.768421 0.222472 0.235770
Si Si6 0.876153 0.037738 0.780617
Si Si7 0.622389 0.652966 0.444142
Si Si8 0.218378 0.978399 0.834049
O O1 0.263771 0.079655 0.956659
O O2 0.770786 0.666493 0.589932
O O3 0.987317 0.261993 0.004450
O O4 0.194862 0.373212 0.825488
O O5 0.757898 0.817436 0.740749
O O6 0.373754 0.919775 0.757780
O O7 0.500000 0.000000 0.500000
O O8 0.719143 0.130802 0.403651
O O9 0.549000 0.241450 0.514782
O O10 0.088877 0.763537 0.758835
O O11 0.440375 0.103214 0.767446
O O12 0.443905 0.786483 0.021143
O O13 0.022036 0.947446 0.343636
O O14 0.500000 0.500000 0.000000
O O15 0.053048 0.960985 0.877502
O O16 0.540353 0.302077 0.627182
O O17 0.954756 0.322860 0.635073
#
# Coordination Sequence:
#
# PCOD9091485 Si02
#       8
#     2   2   2   2   2   2   2   2
#     4  10  22  42  65  90 131 176 211 265 336 393
#     4  12  24  41  66  96 127 171 228 272 323 396
#     4  10  21  39  65  95 122 176 224 265 331 401
#     4  10  20  39  67  93 126 170 218 265 327 399
#     4  10  21  41  64  89 129 173 218 265 327 404
#     4  10  23  38  63  96 133 168 212 270 336 391
#     4  10  19  39  66  94 126 172 220 268 323 401
#     4  12  22  38  64  99 129 164 216 277 325 388
#
# _framework density 26.850856
#
# number of rings (size 3 to 8) (size 9 to 14) (size 15 to 20)
#    0.000    1.500    2.500    3.000    0.000    0.500 
#    2.250    0.625    2.750    0.000    0.000    0.000 
#    0.000    0.000    0.000    0.000    0.000    0.000 
#
# Total GULP energy -89437.531810 kJ/mol
# GULP energy per Si atom -5589.845738 kJ/mol
# Density = 2.678974 g / cm^3
# Si number density = 26.850856 Si / 1000 Ang^3
#
#
#
# Elastic Constant Matrix: (Units=GPa)
#
#
# Indices 1 2 3 4 5 6 
#
# 1 215.9924 10.9397 33.4150 6.4569 55.4188 -3.3902
# 2 10.9397 105.2971 21.7344 19.7832 1.4237 -15.1237
# 3 33.4150 21.7344 91.7139 12.3492 26.4140 -8.1001
# 4 6.4569 19.7832 12.3492 31.2708 3.2216 0.7126
# 5 55.4188 1.4237 26.4140 3.2216 42.6709 7.6368
# 6 -3.3902 -15.1237 -8.1001 0.7126 7.6368 37.6885
#
#
#
# Elastic Compliance Matrix: (Units=1/GPa)
#
#
# Indices 1 2 3 4 5 6 
#
# 1 0.007232 -0.000239 0.000715 -0.000629 -0.010282 0.002804
# 2 -0.000239 0.011768 -0.001561 -0.006943 0.000627 0.004369
# 3 0.000715 -0.001561 0.015121 -0.004130 -0.010812 0.004956
# 4 -0.000629 -0.006943 -0.004130 0.038077 0.001585 -0.004771
# 5 -0.010282 0.000627 -0.010812 0.001585 0.045534 -0.012254
# 6 0.002804 0.004369 0.004956 -0.004771 -0.012254 0.032177
#
#
# Mechanical properties :
#
#
# Convention : Reuss Voigt Hill
#
# Bulk Modulus (GPa) = 31.29890 60.57574 45.93732
# Shear Modulus (GPa) = 30.72589 45.45367 38.08978
#
# Velocity S-wave (km/s) = 3.38645 4.11885 3.77048
# Velocity P-wave (km/s) = 5.19351 6.72525 6.00839
#
# Compressibility (1/GPa) = 0.03195000
#
# Stress axis : x y z
#
# Youngs Moduli (GPa) = 138.27194 84.97946 66.13461
#
# Poissons Ratio (x) = 0.02032 -0.04730
# Poissons Ratio (y) = 0.03306 0.10325
# Poissons Ratio (z) = -0.09889 0.13268
#
# Static dielectric constant tensor:
#      x y z
#    x 2.147830 0.022060 0.000230 
#    y 0.022060 2.188990 0.025650 
#    z 0.000230 0.025650 2.057350 
# 
# From -- ./inp_files/505260.got.cif
#   From: 2010.05.17/outbox.cif.g08.bks.cpg/sg2_253_cif.got.tgz:505260.got - 2010.06.03 11:33:40.
