data_PCOD9091511
_publ_section_title
;
Structure prediction by ZEFSAII (Michael W. Deem and Ramdas Pophale) SiO2 
 PCOD9091511
Probable space group: P -1
;
_chemical_formula_sum "Si O2"
_cell_formula_units_Z 12
_cell_length_a 6.629932
_cell_length_b 12.090902
_cell_length_c 10.287218
_cell_angle_alpha 131.674217
_cell_angle_beta 64.569036
_cell_angle_gamma 134.769838
_cell_volume 436.118762
_symmetry_space_group_name_H-M "P -1"
_symmetry_group_IT_number 2
_symmetry_cell_setting 'triclinic'
loop_
_space_group_symop_operation_xyz
x,y,z
-x,-y,-z
loop_
_atom_site_type_symbol
_atom_site_label
_atom_site_fract_x
_atom_site_fract_y
_atom_site_fract_z
Si Si1 0.712835 0.784429 0.575990
Si Si2 0.128640 0.576642 0.674993
Si Si3 0.017908 0.193148 0.215871
Si Si4 0.426740 0.639699 0.167823
Si Si5 0.493490 0.772393 0.981500
Si Si6 0.268378 0.000449 0.488552
O O1 0.399358 0.598846 0.555947
O O2 0.680862 0.925355 0.615243
O O3 0.886593 0.847635 0.711331
O O4 0.952873 0.800819 0.435444
O O5 0.068767 0.673075 0.654824
O O6 0.292627 0.705278 0.860839
O O7 0.820724 0.428201 0.710779
O O8 0.302984 0.289500 0.129065
O O9 0.737245 0.997205 0.088641
O O10 0.699207 0.832505 0.307584
O O11 0.500000 0.500000 0.000000
O O12 0.347104 0.696010 0.101577
O O13 0.500000 0.000000 0.500000
#
# Coordination Sequence:
#
# PCOD9091511 Si02
#       6
#     2   2   2   2   2   2
#     4  10  23  44  72 102 130 193 239 279 336 422
#     4  11  23  40  69 104 141 180 228 295 347 404
#     4  10  19  39  66  99 137 181 234 281 334 417
#     4  12  25  46  70 107 147 175 228 296 352 401
#     4  10  21  38  63 100 139 184 224 278 347 415
#     4  11  25  50  73  99 139 189 236 281 340 428
#
# _framework density 27.515440000000002
#
# number of rings (size 3 to 8) (size 9 to 14) (size 15 to 20)
#    0.000    1.333    3.333    2.000    0.000    2.000 
#    9.000    1.667    0.000    0.000    0.000    0.000 
#    0.000    0.000    0.000    0.000    0.000    0.000 
#
# Total GULP energy -66928.293647 kJ/mol
# GULP energy per Si atom -5577.357804 kJ/mol
# Density = 2.745281 g / cm^3
# Si number density = 27.515440 Si / 1000 Ang^3
#
#
#
# Elastic Constant Matrix: (Units=GPa)
#
#
# Indices 1 2 3 4 5 6 
#
# 1 159.5828 70.6479 19.4901 -9.7526 -2.0792 3.1351
# 2 70.6479 158.5993 41.7743 -52.3685 -2.9403 24.4322
# 3 19.4901 41.7743 56.1615 -7.0607 -11.6327 1.8282
# 4 -9.7526 -52.3685 -7.0607 53.8806 2.8194 3.4012
# 5 -2.0792 -2.9403 -11.6327 2.8194 58.6234 -5.1128
# 6 3.1351 24.4322 1.8282 3.4012 -5.1128 55.6815
#
#
#
# Elastic Compliance Matrix: (Units=1/GPa)
#
#
# Indices 1 2 3 4 5 6 
#
# 1 0.008361 -0.005585 0.000795 -0.003982 0.000562 0.002248
# 2 -0.005585 0.017692 -0.009545 0.015601 -0.002682 -0.008334
# 3 0.000795 -0.009545 0.024749 -0.006423 0.005135 0.004195
# 4 -0.003982 0.015601 -0.006423 0.032864 -0.002972 -0.008691
# 5 0.000562 -0.002682 0.005135 -0.002972 0.018353 0.002843
# 6 0.002248 -0.008334 0.004195 -0.008691 0.002843 0.022144
#
#
# Mechanical properties :
#
#
# Convention : Reuss Voigt Hill
#
# Bulk Modulus (GPa) = 45.17968 70.90756 58.04362
# Shear Modulus (GPa) = 31.20880 49.79920 40.50400
#
# Velocity S-wave (km/s) = 3.37148 4.25886 3.84089
# Velocity P-wave (km/s) = 5.62239 7.07177 6.38832
#
# Compressibility (1/GPa) = 0.02213385
#
# Stress axis : x y z
#
# Youngs Moduli (GPa) = 119.59736 56.52170 40.40536
#
# Poissons Ratio (x) = 0.31565 -0.03211
# Poissons Ratio (y) = 0.66790 0.38566
# Poissons Ratio (z) = -0.09506 0.53949
#
# Static dielectric constant tensor:
#      x y z
#    x 2.072080 -0.031250 -0.066890 
#    y -0.031250 2.236500 -0.073380 
#    z -0.066890 -0.073380 2.357650 
# 
# From -- ./inp_files/131278.got.cif
#   From: 2010.05.17/outbox.cif.g08.bks.cpg/sg2_66_cif.got.tgz:131278.got - 2010.06.03 11:33:40.
