data_PCOD9091088
_publ_section_title
;
Structure prediction by ZEFSAII (Michael W. Deem and Ramdas Pophale) SiO2 
 PCOD9091088
Probable space group: P -1
;
_chemical_formula_sum "Si O2"
_cell_formula_units_Z 14
_cell_length_a 8.774555
_cell_length_b 14.173094
_cell_length_c 14.030216
_cell_angle_alpha 32.682096
_cell_angle_beta 119.311861
_cell_angle_gamma 97.347904
_cell_volume 655.057809
_symmetry_space_group_name_H-M "P -1"
_symmetry_group_IT_number 2
_symmetry_cell_setting 'triclinic'
loop_
_space_group_symop_operation_xyz
x,y,z
-x,-y,-z
loop_
_atom_site_type_symbol
_atom_site_label
_atom_site_fract_x
_atom_site_fract_y
_atom_site_fract_z
Si Si1 0.109117 0.590139 0.014623
Si Si2 0.465442 0.949954 0.870217
Si Si3 0.747328 0.176634 0.242302
Si Si4 0.373622 0.307630 0.676444
Si Si5 0.465885 0.772622 0.467796
Si Si6 0.220494 0.764088 0.240756
Si Si7 0.667554 0.058755 0.510875
O O1 0.272545 0.408009 0.295340
O O2 0.260610 0.621586 0.968280
O O3 0.000000 0.500000 0.000000
O O4 0.912346 0.831267 0.783458
O O5 0.336369 0.160496 0.723385
O O6 0.585217 0.012670 0.782065
O O7 0.327439 0.904852 0.797805
O O8 0.618316 0.754274 0.158113
O O9 0.630163 0.196640 0.287773
O O10 0.000000 0.000000 0.500000
O O11 0.210173 0.565409 0.383129
O O12 0.619932 0.231799 0.788758
O O13 0.363967 0.683400 0.449568
O O14 0.373585 0.827555 0.498115
O O15 0.000000 0.000000 0.000000
O O16 0.500000 0.000000 0.500000
#
# Coordination Sequence:
#
# PCOD9091088 Si02
#       7
#     2   2   2   2   2   2   2
#     4  11  22  39  61  89 127 171 211 259 321 381
#     4  10  19  39  63  89 123 167 216 261 320 381
#     4  10  21  36  62  91 126 168 211 258 319 389
#     4   9  21  40  66  86 121 166 210 273 323 372
#     4  11  22  38  62  90 128 166 208 266 317 383
#     4  10  22  41  63  94 123 162 218 268 323 383
#     4  11  21  40  60  90 128 168 209 261 316 381
#
# _framework density 21.372157000000001
#
# number of rings (size 3 to 8) (size 9 to 14) (size 15 to 20)
#    0.000    1.714    2.857    1.714    0.000    6.286 
#    0.000    7.857    0.000    0.000    0.000    0.000 
#    0.000    0.000    0.000    0.000    0.000    0.000 
#
# Total GULP energy -78082.294650 kJ/mol
# GULP energy per Si atom -5577.306761 kJ/mol
# Density = 2.132351 g / cm^3
# Si number density = 21.372157 Si / 1000 Ang^3
#
#
#
# Elastic Constant Matrix: (Units=GPa)
#
#
# Indices 1 2 3 4 5 6 
#
# 1 88.9469 28.3325 32.5273 -3.8077 -24.9894 -11.9942
# 2 28.3325 125.1171 20.7333 12.0444 -14.3509 -1.8067
# 3 32.5273 20.7333 99.8329 -11.0173 -2.2156 -16.0774
# 4 -3.8077 12.0444 -11.0173 34.6599 -0.6817 -6.4924
# 5 -24.9894 -14.3509 -2.2156 -0.6817 42.4336 -2.0785
# 6 -11.9942 -1.8067 -16.0774 -6.4924 -2.0785 33.1521
#
#
#
# Elastic Compliance Matrix: (Units=1/GPa)
#
#
# Indices 1 2 3 4 5 6 
#
# 1 0.016698 -0.002310 -0.003619 0.002651 0.009164 0.005254
# 2 -0.002310 0.009432 -0.002007 -0.004530 0.001550 -0.002085
# 3 -0.003619 -0.002007 0.013143 0.005555 -0.001744 0.005933
# 4 0.002651 -0.004530 0.005555 0.034427 0.001374 0.010235
# 5 0.009164 0.001550 -0.001744 0.001374 0.029647 0.004682
# 6 0.005254 -0.002085 0.005933 0.010235 0.004682 0.037127
#
#
# Mechanical properties :
#
#
# Convention : Reuss Voigt Hill
#
# Bulk Modulus (GPa) = 42.73417 53.00924 47.87170
# Shear Modulus (GPa) = 30.46065 37.53603 33.99834
#
# Velocity S-wave (km/s) = 3.77934 4.19538 3.99278
# Velocity P-wave (km/s) = 6.25166 6.95162 6.61091
#
# Compressibility (1/GPa) = 0.02340048
#
# Stress axis : x y z
#
# Youngs Moduli (GPa) = 59.88628 106.02262 76.08863
#
# Poissons Ratio (x) = 0.24491 0.27535
# Poissons Ratio (y) = 0.13833 0.15275
# Poissons Ratio (z) = 0.21671 0.21284
#
# Static dielectric constant tensor:
#      x y z
#    x 1.788130 0.013080 -0.034910 
#    y 0.013080 1.726840 0.013630 
#    z -0.034910 0.013630 1.807700 
# 
# From -- ./inp_files/503693.got.cif
#   From: 2010.05.17/outbox.cif.g08.bks.cpg/sg2_252_cif.got.tgz:503693.got - 2010.06.03 11:33:40.
