data_PCOD9091853
_publ_section_title
;
Structure prediction by ZEFSAII (Michael W. Deem and Ramdas Pophale) SiO2 
 PCOD9091853
Probable space group: P -1
;
_chemical_formula_sum "Si O2"
_cell_formula_units_Z 14
_cell_length_a 11.810680
_cell_length_b 11.487318
_cell_length_c 7.126670
_cell_angle_alpha 74.566307
_cell_angle_beta 95.459544
_cell_angle_gamma 132.261162
_cell_volume 685.004633
_symmetry_space_group_name_H-M "P -1"
_symmetry_group_IT_number 2
_symmetry_cell_setting 'triclinic'
loop_
_space_group_symop_operation_xyz
x,y,z
-x,-y,-z
loop_
_atom_site_type_symbol
_atom_site_label
_atom_site_fract_x
_atom_site_fract_y
_atom_site_fract_z
Si Si1 0.248766 0.031351 0.087265
Si Si2 0.803725 0.497955 0.956069
Si Si3 0.019991 0.621957 0.597997
Si Si4 0.318483 0.346241 0.032012
Si Si5 0.085185 0.294105 0.778435
Si Si6 0.343615 0.869764 0.423957
Si Si7 0.465689 0.836627 0.115554
O O1 0.277695 0.178580 0.132266
O O2 0.299457 0.954945 0.256753
O O3 0.369153 0.111204 0.897654
O O4 0.068072 0.879692 0.087258
O O5 0.927890 0.544097 0.807114
O O6 0.756454 0.604878 0.868231
O O7 0.650684 0.309379 0.986388
O O8 0.875376 0.561359 0.146945
O O9 0.954734 0.691109 0.441955
O O10 0.000000 0.500000 0.500000
O O11 0.202880 0.759771 0.592237
O O12 0.500000 0.500000 0.000000
O O13 0.234210 0.318135 0.831635
O O14 0.375229 0.781244 0.323167
O O15 0.500000 0.000000 0.500000
O O16 0.500000 0.000000 0.000000
#
# Coordination Sequence:
#
# PCOD9091853 Si02
#       7
#     2   2   2   2   2   2   2
#     4  10  19  40  62  86 118 160 203 240 303 358
#     4  10  22  40  61  90 119 158 203 244 306 350
#     4  11  22  40  58  89 125 151 203 245 295 368
#     4  10  20  39  63  85 119 158 202 245 296 361
#     4   9  23  38  63  87 120 159 196 251 300 346
#     4  10  23  37  57  90 124 156 194 253 300 350
#     4  10  20  37  59  86 119 155 203 241 293 367
#
# _framework density 20.437818
#
# number of rings (size 3 to 8) (size 9 to 14) (size 15 to 20)
#    0.857    1.143    2.857    0.429    2.000    4.000 
#    0.000    5.000    0.000    0.000    0.000    0.000 
#    0.000    0.000    0.000    0.000    0.000    0.000 
#
# Total GULP energy -77968.926871 kJ/mol
# GULP energy per Si atom -5569.209062 kJ/mol
# Density = 2.039130 g / cm^3
# Si number density = 20.437818 Si / 1000 Ang^3
#
#
#
# Elastic Constant Matrix: (Units=GPa)
#
#
# Indices 1 2 3 4 5 6 
#
# 1 94.5623 29.1680 7.5834 -4.8831 -4.5633 10.7572
# 2 29.1680 125.0199 -6.5842 1.5122 3.6785 14.1641
# 3 7.5834 -6.5842 22.5436 -0.0035 -3.9792 10.3468
# 4 -4.8831 1.5122 -0.0035 22.9320 1.6071 0.4386
# 5 -4.5633 3.6785 -3.9792 1.6071 17.0370 7.3321
# 6 10.7572 14.1641 10.3468 0.4386 7.3321 51.5131
#
#
#
# Elastic Compliance Matrix: (Units=1/GPa)
#
#
# Indices 1 2 3 4 5 6 
#
# 1 0.012278 -0.003023 -0.003708 0.002598 0.003478 -0.001505
# 2 -0.003023 0.009318 0.005009 -0.001181 -0.000299 -0.002884
# 3 -0.003708 0.005009 0.056844 -0.002070 0.017644 -0.014514
# 4 0.002598 -0.001181 -0.002070 0.044504 -0.003891 0.000373
# 5 0.003478 -0.000299 0.017644 -0.003891 0.070272 -0.014157
# 6 -0.001505 -0.002884 -0.014514 0.000373 -0.014157 0.025447
#
#
# Mechanical properties :
#
#
# Convention : Reuss Voigt Hill
#
# Bulk Modulus (GPa) = 13.33405 33.60670 23.47037
# Shear Modulus (GPa) = 20.23424 32.42700 26.33062
#
# Velocity S-wave (km/s) = 3.14990 3.98756 3.59322
# Velocity P-wave (km/s) = 4.44607 6.13840 5.35945
#
# Compressibility (1/GPa) = 0.07499599
#
# Stress axis : x y z
#
# Youngs Moduli (GPa) = 81.44578 107.32277 17.59192
#
# Poissons Ratio (x) = 0.32445 0.06523
# Poissons Ratio (y) = 0.24622 -0.08812
# Poissons Ratio (z) = 0.30201 -0.53759
#
# Static dielectric constant tensor:
#      x y z
#    x 1.775540 -0.000590 0.017160 
#    y -0.000590 1.756300 -0.036090 
#    z 0.017160 -0.036090 1.796890 
# 
# From -- ./inp_files/195112.got.cif
#   From: 2010.05.17/outbox.cif.g08.bks.cpg/sg2_98_cif.got.tgz:195112.got - 2010.06.03 11:33:40.
