data_PCOD9091526
_publ_section_title
;
Structure prediction by ZEFSAII (Michael W. Deem and Ramdas Pophale) SiO2 
 PCOD9091526
Probable space group: P -1
;
_chemical_formula_sum "Si O2"
_cell_formula_units_Z 16
_cell_length_a 11.082669
_cell_length_b 21.459574
_cell_length_c 8.841902
_cell_angle_alpha 132.201430
_cell_angle_beta 48.285935
_cell_angle_gamma 148.329688
_cell_volume 793.786863
_symmetry_space_group_name_H-M "P -1"
_symmetry_group_IT_number 2
_symmetry_cell_setting 'triclinic'
loop_
_space_group_symop_operation_xyz
x,y,z
-x,-y,-z
loop_
_atom_site_type_symbol
_atom_site_label
_atom_site_fract_x
_atom_site_fract_y
_atom_site_fract_z
Si Si1 0.542588 0.043380 0.865377
Si Si2 0.047247 0.537637 0.348232
Si Si3 0.635718 0.969516 0.399861
Si Si4 0.052874 0.887140 0.884122
Si Si5 0.974632 0.331951 0.995180
Si Si6 0.474067 0.260479 0.888729
Si Si7 0.126787 0.355517 0.256059
Si Si8 0.571878 0.476143 0.254121
O O1 0.618133 0.987448 0.619350
O O2 0.303342 0.999562 0.938312
O O3 0.754993 0.189712 0.915426
O O4 0.500000 0.000000 0.000000
O O5 0.928116 0.414399 0.162051
O O6 0.326923 0.647379 0.255604
O O7 0.000000 0.500000 0.500000
O O8 0.934599 0.585470 0.499459
O O9 0.513464 0.834265 0.242359
O O10 0.500000 0.000000 0.500000
O O11 0.891318 0.069518 0.266683
O O12 0.023428 0.777248 0.763777
O O13 0.808008 0.834052 0.060151
O O14 0.068030 0.346657 0.113030
O O15 0.174654 0.398016 0.810009
O O16 0.540420 0.362746 0.113694
O O17 0.394955 0.431838 0.191070
O O18 0.500000 0.500000 0.500000
#
# Coordination Sequence:
#
# PCOD9091526 Si02
#       8
#     2   2   2   2   2   2   2   2
#     4  11  22  39  61  92 125 160 208 250 301 363
#     4   9  19  36  61  88 113 159 206 251 298 367
#     4  10  22  39  65  86 120 169 203 245 306 365
#     4  10  21  39  63  89 121 167 200 251 304 367
#     4  10  21  38  62  89 126 157 201 253 305 365
#     4  10  21  40  64  88 124 159 209 248 309 364
#     4  10  19  39  67  83 123 161 205 243 317 357
#     4  10  23  41  64  93 122 156 203 263 304 359
#
# _framework density 20.156545000000001
#
# number of rings (size 3 to 8) (size 9 to 14) (size 15 to 20)
#    0.000    2.000    1.250    2.250    5.250    1.000 
#    4.500    1.875    0.000    0.000    0.000    0.000 
#    0.000    0.000    0.000    0.000    0.000    0.000 
#
# Total GULP energy -89092.672710 kJ/mol
# GULP energy per Si atom -5568.292044 kJ/mol
# Density = 2.011067 g / cm^3
# Si number density = 20.156545 Si / 1000 Ang^3
#
#
#
# Elastic Constant Matrix: (Units=GPa)
#
#
# Indices 1 2 3 4 5 6 
#
# 1 42.2344 28.6940 21.5101 9.3555 -9.7690 -6.6725
# 2 28.6940 170.7867 66.6528 5.6745 -15.7424 -5.0076
# 3 21.5101 66.6528 112.7583 -2.4854 -10.4442 -19.0849
# 4 9.3555 5.6745 -2.4854 36.9846 -7.5351 -4.6350
# 5 -9.7690 -15.7424 -10.4442 -7.5351 26.7557 -0.2047
# 6 -6.6725 -5.0076 -19.0849 -4.6350 -0.2047 29.9465
#
#
#
# Elastic Compliance Matrix: (Units=1/GPa)
#
#
# Indices 1 2 3 4 5 6 
#
# 1 0.030631 -0.003106 -0.002901 -0.005656 0.006659 0.003627
# 2 -0.003106 0.008264 -0.004537 -0.000722 0.001736 -0.002302
# 3 -0.002901 -0.004537 0.013812 0.003942 0.002834 0.008027
# 4 -0.005656 -0.000722 0.003942 0.031204 0.007883 0.006015
# 5 0.006659 0.001736 0.002834 0.007883 0.044193 0.005102
# 6 0.003627 -0.002302 0.008027 0.006015 0.005102 0.039897
#
#
# Mechanical properties :
#
#
# Convention : Reuss Voigt Hill
#
# Bulk Modulus (GPa) = 31.62713 62.16593 46.89653
# Shear Modulus (GPa) = 25.04613 32.66554 28.85583
#
# Velocity S-wave (km/s) = 3.52885 4.03003 3.78774
# Velocity P-wave (km/s) = 5.68582 7.25006 6.51505
#
# Compressibility (1/GPa) = 0.03161843
#
# Stress axis : x y z
#
# Youngs Moduli (GPa) = 32.64628 121.00031 72.40101
#
# Poissons Ratio (x) = 0.37583 0.21006
# Poissons Ratio (y) = 0.10140 0.32851
# Poissons Ratio (z) = 0.09472 0.54902
#
# Static dielectric constant tensor:
#      x y z
#    x 1.780040 -0.004460 0.017080 
#    y -0.004460 1.726900 -0.008930 
#    z 0.017080 -0.008930 1.794860 
# 
# From -- ./inp_files/218316.got.cif
#   From: 2010.05.17/outbox.cif.g08.bks.cpg/sg2_110_cif.got.tgz:218316.got - 2010.06.03 11:33:40.
