data_PCOD9091483
_publ_section_title
;
Structure prediction by ZEFSAII (Michael W. Deem and Ramdas Pophale) SiO2 
 PCOD9091483
Probable space group: P -1
;
_chemical_formula_sum "Si O2"
_cell_formula_units_Z 12
_cell_length_a 11.720490
_cell_length_b 8.756500
_cell_length_c 19.912471
_cell_angle_alpha 31.354787
_cell_angle_beta 33.518392
_cell_angle_gamma 39.960267
_cell_volume 576.525689
_symmetry_space_group_name_H-M "P -1"
_symmetry_group_IT_number 2
_symmetry_cell_setting 'triclinic'
loop_
_space_group_symop_operation_xyz
x,y,z
-x,-y,-z
loop_
_atom_site_type_symbol
_atom_site_label
_atom_site_fract_x
_atom_site_fract_y
_atom_site_fract_z
Si Si1 0.830097 0.180421 0.207388
Si Si2 0.174474 0.706707 0.616690
Si Si3 0.477955 0.256275 0.796373
Si Si4 0.630856 0.650444 0.458627
Si Si5 0.929833 0.173389 0.652822
Si Si6 0.893575 0.837384 0.054253
O O1 0.694648 0.500279 0.172391
O O2 0.678845 0.947384 0.355606
O O3 0.970453 0.026190 0.258145
O O4 0.955881 0.199314 0.070068
O O5 0.415654 0.751679 0.484548
O O6 0.176510 0.527884 0.613136
O O7 0.134235 0.470448 0.781369
O O8 0.025545 0.010722 0.597927
O O9 0.576144 0.430710 0.624213
O O10 0.681807 0.160970 0.778450
O O11 0.341464 0.038641 0.907889
O O12 0.000000 0.500000 0.500000
O O13 0.000000 0.000000 0.000000
#
# Coordination Sequence:
#
# PCOD9091483 Si02
#       6
#     2   2   2   2   2   2
#     4  12  22  42  68  93 132 165 215 265 320 381
#     4  10  22  40  66  94 131 165 218 262 315 380
#     4  11  24  41  66  96 129 170 213 262 320 376
#     4  10  19  39  66  94 124 168 212 264 315 372
#     4  12  24  41  66 101 129 165 215 264 321 379
#     4  11  23  44  66  93 128 174 213 261 322 378
#
# _framework density 20.814336000000001
#
# number of rings (size 3 to 8) (size 9 to 14) (size 15 to 20)
#    0.000    1.000    6.667    2.000    0.000    1.333 
#    0.000    0.833    0.000    0.000    0.000    0.000 
#    0.000    0.000    0.000    0.000    0.000    0.000 
#
# Total GULP energy -66885.981520 kJ/mol
# GULP energy per Si atom -5573.831793 kJ/mol
# Density = 2.076696 g / cm^3
# Si number density = 20.814336 Si / 1000 Ang^3
#
#
#
# Elastic Constant Matrix: (Units=GPa)
#
#
# Indices 1 2 3 4 5 6 
#
# 1 95.1395 45.5755 33.5552 2.7547 -38.3138 1.1098
# 2 45.5755 100.6259 27.6236 8.5803 -16.2039 6.9482
# 3 33.5552 27.6236 64.6752 14.9866 -8.5437 5.0188
# 4 2.7547 8.5803 14.9866 27.0064 12.5141 -0.7846
# 5 -38.3138 -16.2039 -8.5437 12.5141 48.6994 10.3658
# 6 1.1098 6.9482 5.0188 -0.7846 10.3658 32.5881
#
#
#
# Elastic Compliance Matrix: (Units=1/GPa)
#
#
# Indices 1 2 3 4 5 6 
#
# 1 0.021780 -0.004877 -0.005297 -0.005739 0.017001 -0.004432
# 2 -0.004877 0.013514 -0.001865 -0.003765 0.001969 -0.003145
# 3 -0.005297 -0.001865 0.022934 -0.013401 0.003622 -0.004429
# 4 -0.005739 -0.003765 -0.013401 0.058610 -0.025884 0.012706
# 5 0.017001 0.001969 0.003622 -0.025884 0.045389 -0.016617
# 6 -0.004432 -0.003145 -0.004429 0.012706 -0.016617 0.037781
#
#
# Mechanical properties :
#
#
# Convention : Reuss Voigt Hill
#
# Bulk Modulus (GPa) = 29.28318 52.66102 40.97210
# Shear Modulus (GPa) = 21.23416 31.90452 26.56934
#
# Velocity S-wave (km/s) = 3.19747 3.91937 3.57668
# Velocity P-wave (km/s) = 5.26603 6.77032 6.06499
#
# Compressibility (1/GPa) = 0.03414930
#
# Stress axis : x y z
#
# Youngs Moduli (GPa) = 45.91357 73.99677 43.60327
#
# Poissons Ratio (x) = 0.36091 0.23098
# Poissons Ratio (y) = 0.22394 0.08132
# Poissons Ratio (z) = 0.24321 0.13800
#
# Static dielectric constant tensor:
#      x y z
#    x 1.864040 -0.000560 -0.045810 
#    y -0.000560 1.776820 0.006220 
#    z -0.045810 0.006220 1.740050 
# 
# From -- ./inp_files/163455.got.cif
#   From: 2010.05.17/outbox.cif.g08.bks.cpg/sg2_82_cif.got.tgz:163455.got - 2010.06.03 11:33:40.
