data_PCOD9091570
_publ_section_title
;
Structure prediction by ZEFSAII (Michael W. Deem and Ramdas Pophale) SiO2 
 PCOD9091570
Probable space group: P -1
;
_chemical_formula_sum "Si O2"
_cell_formula_units_Z 16
_cell_length_a 7.929624
_cell_length_b 13.894552
_cell_length_c 11.716262
_cell_angle_alpha 55.307449
_cell_angle_beta 55.603631
_cell_angle_gamma 41.590942
_cell_volume 681.247008
_symmetry_space_group_name_H-M "P -1"
_symmetry_group_IT_number 2
_symmetry_cell_setting 'triclinic'
loop_
_space_group_symop_operation_xyz
x,y,z
-x,-y,-z
loop_
_atom_site_type_symbol
_atom_site_label
_atom_site_fract_x
_atom_site_fract_y
_atom_site_fract_z
Si Si1 0.292354 0.530360 0.151723
Si Si2 0.372344 0.927556 0.559749
Si Si3 0.928155 0.987660 0.804865
Si Si4 0.782123 0.859535 0.136535
Si Si5 0.759004 0.899799 0.711968
Si Si6 0.471736 0.298209 0.711217
Si Si7 0.001252 0.443638 0.163769
Si Si8 0.683123 0.612053 0.546769
O O1 0.412217 0.444438 0.283154
O O2 0.071066 0.704663 0.155586
O O3 0.148656 0.473761 0.179631
O O4 0.500000 0.500000 0.000000
O O5 0.585373 0.769665 0.526664
O O6 0.230484 0.912262 0.727028
O O7 0.500000 0.000000 0.500000
O O8 0.173075 0.041209 0.460092
O O9 0.875952 0.916727 0.768749
O O10 0.764353 0.166020 0.729002
O O11 0.834309 0.952002 0.974727
O O12 0.651214 0.790542 0.174712
O O13 0.557902 0.979186 0.230365
O O14 0.866980 0.730881 0.769931
O O15 0.299907 0.444915 0.754882
O O16 0.434775 0.353609 0.557894
O O17 0.000000 0.500000 0.000000
O O18 0.000000 0.500000 0.500000
#
# Coordination Sequence:
#
# PCOD9091570 Si02
#       8
#     2   2   2   2   2   2   2   2
#     4  11  23  41  65  96 131 180 227 265 329 407
#     4  12  26  42  64  97 132 172 215 273 329 391
#     4  11  22  43  68  97 129 169 223 265 332 403
#     4  10  19  39  67  95 125 170 218 267 325 388
#     4  11  21  40  66  92 128 166 218 270 322 387
#     4  10  21  40  70  98 130 179 221 271 336 395
#     4  11  22  40  65  98 132 169 221 279 336 377
#     4  12  21  43  68  91 135 182 220 265 335 402
#
# _framework density 23.486342
#
# number of rings (size 3 to 8) (size 9 to 14) (size 15 to 20)
#    0.000    1.000    5.000    5.625    0.000    0.000 
#    0.000    8.125    0.000    0.000    0.000    0.000 
#    0.000    0.000    0.000    0.000    0.000    0.000 
#
# Total GULP energy -89464.432914 kJ/mol
# GULP energy per Si atom -5591.527057 kJ/mol
# Density = 2.343289 g / cm^3
# Si number density = 23.486342 Si / 1000 Ang^3
#
#
#
# Elastic Constant Matrix: (Units=GPa)
#
#
# Indices 1 2 3 4 5 6 
#
# 1 43.9040 23.5185 17.6051 0.1134 2.2902 13.3425
# 2 23.5185 204.9728 41.6397 -5.7377 -3.7411 7.0878
# 3 17.6051 41.6397 147.2333 0.6748 0.9088 0.5424
# 4 0.1134 -5.7377 0.6748 38.0994 -8.7119 5.6804
# 5 2.2902 -3.7411 0.9088 -8.7119 21.5409 3.6815
# 6 13.3425 7.0878 0.5424 5.6804 3.6815 15.1483
#
#
#
# Elastic Compliance Matrix: (Units=1/GPa)
#
#
# Indices 1 2 3 4 5 6 
#
# 1 0.034983 -0.001933 -0.003565 0.005445 0.003898 -0.032770
# 2 -0.001933 0.005532 -0.001347 0.001676 0.002245 -0.002011
# 3 -0.003565 -0.001347 0.007598 -0.001304 -0.001444 0.004338
# 4 0.005445 0.001676 -0.001304 0.033794 0.017263 -0.022401
# 5 0.003898 0.002245 -0.001444 0.017263 0.057702 -0.024929
# 6 -0.032770 -0.002011 0.004338 -0.022401 -0.024929 0.110122
#
#
# Mechanical properties :
#
#
# Convention : Reuss Voigt Hill
#
# Bulk Modulus (GPa) = 29.05047 62.40406 45.72726
# Shear Modulus (GPa) = 18.18872 35.84751 27.01811
#
# Velocity S-wave (km/s) = 2.78589 3.91104 3.39540
# Velocity P-wave (km/s) = 4.76909 6.85734 5.90624
#
# Compressibility (1/GPa) = 0.03442285
#
# Stress axis : x y z
#
# Youngs Moduli (GPa) = 28.58507 180.77806 131.61100
#
# Poissons Ratio (x) = 0.34946 0.46914
# Poissons Ratio (y) = 0.05526 0.17733
# Poissons Ratio (z) = 0.10190 0.24358
#
# Static dielectric constant tensor:
#      x y z
#    x 1.944890 -0.060360 0.007010 
#    y -0.060360 1.886990 0.013310 
#    z 0.007010 0.013310 1.934080 
# 
# From -- ./inp_files/398537.got.cif
#   From: 2010.05.17/outbox.cif.g08.bks.cpg/sg2_200_cif.got.tgz:398537.got - 2010.06.03 11:33:40.
