data_PCOD9091498
_publ_section_title
;
Structure prediction by ZEFSAII (Michael W. Deem and Ramdas Pophale) SiO2 
 PCOD9091498
Probable space group: P -1
;
_chemical_formula_sum "Si O2"
_cell_formula_units_Z 16
_cell_length_a 17.992558
_cell_length_b 11.498047
_cell_length_c 12.652014
_cell_angle_alpha 38.741229
_cell_angle_beta 151.154277
_cell_angle_gamma 148.617370
_cell_volume 652.176817
_symmetry_space_group_name_H-M "P -1"
_symmetry_group_IT_number 2
_symmetry_cell_setting 'triclinic'
loop_
_space_group_symop_operation_xyz
x,y,z
-x,-y,-z
loop_
_atom_site_type_symbol
_atom_site_label
_atom_site_fract_x
_atom_site_fract_y
_atom_site_fract_z
Si Si1 0.449780 0.389039 0.833487
Si Si2 0.793147 0.835159 0.124202
Si Si3 0.183634 0.581885 0.606626
Si Si4 0.600535 0.953050 0.363025
Si Si5 0.665619 0.255669 0.536175
Si Si6 0.204368 0.162330 0.488910
Si Si7 0.783642 0.393591 0.816740
Si Si8 0.778543 0.850953 0.857382
O O1 0.386853 0.257336 0.960960
O O2 0.394221 0.567718 0.662242
O O3 0.307011 0.209354 0.696115
O O4 0.655281 0.573523 0.907839
O O5 0.801023 0.625526 0.246811
O O6 0.785536 0.927064 0.934797
O O7 0.980297 0.994093 0.313780
O O8 0.192134 0.669865 0.436229
O O9 0.000000 0.500000 0.500000
O O10 0.335754 0.794042 0.715687
O O11 0.705716 0.919603 0.423552
O O12 0.378671 0.800695 0.174970
O O13 0.670384 0.889701 0.601692
O O14 0.731111 0.278550 0.719223
O O15 0.500000 0.000000 0.500000
O O16 0.244139 0.405790 0.342197
O O17 0.000000 0.500000 0.000000
O O18 0.000000 0.000000 0.000000
#
# Coordination Sequence:
#
# PCOD9091498 Si02
#       8
#     2   2   2   2   2   2   2   2
#     4  10  23  40  65  98 143 178 230 289 350 414
#     4  11  24  41  70 107 138 186 237 290 352 427
#     4  11  21  41  68 102 138 180 232 285 354 407
#     4  12  23  45  74 106 143 185 235 299 354 412
#     4  10  19  39  66  95 132 179 225 284 340 401
#     4  11  22  44  72 102 143 187 233 287 362 427
#     4  11  25  44  69 106 136 185 237 292 347 418
#     4  12  22  41  67 105 139 182 237 287 344 417
#
# _framework density 24.533225000000002
#
# number of rings (size 3 to 8) (size 9 to 14) (size 15 to 20)
#    0.000    1.000    6.250    1.125    0.000    2.000 
#    4.500    0.000    0.000    1.500    0.000    0.000 
#    0.000    0.000    0.000    0.000    0.000    0.000 
#
# Total GULP energy -89284.012715 kJ/mol
# GULP energy per Si atom -5580.250795 kJ/mol
# Density = 2.447739 g / cm^3
# Si number density = 24.533225 Si / 1000 Ang^3
#
#
#
# Elastic Constant Matrix: (Units=GPa)
#
#
# Indices 1 2 3 4 5 6 
#
# 1 175.3014 66.0580 34.3306 11.6665 10.6219 9.5054
# 2 66.0580 140.3901 27.1329 28.0251 8.3905 -7.9786
# 3 34.3306 27.1329 66.0143 28.6370 -3.3371 9.9140
# 4 11.6665 28.0251 28.6370 49.6172 5.6825 4.7233
# 5 10.6219 8.3905 -3.3371 5.6825 43.5837 7.8929
# 6 9.5054 -7.9786 9.9140 4.7233 7.8929 57.3283
#
#
#
# Elastic Compliance Matrix: (Units=1/GPa)
#
#
# Indices 1 2 3 4 5 6 
#
# 1 0.007672 -0.003374 -0.003588 0.002463 -0.001617 -0.001102
# 2 -0.003374 0.009981 -0.000848 -0.004482 -0.001052 0.002609
# 3 -0.003588 -0.000848 0.023547 -0.012538 0.005066 -0.003260
# 4 0.002463 -0.004482 -0.012538 0.029923 -0.004469 -0.000714
# 5 -0.001617 -0.001052 0.005066 -0.004469 0.025210 -0.003857
# 6 -0.001102 0.002609 -0.003260 -0.000714 -0.003857 0.019143
#
#
# Mechanical properties :
#
#
# Convention : Reuss Voigt Hill
#
# Bulk Modulus (GPa) = 39.09290 70.74988 54.92139
# Shear Modulus (GPa) = 35.81093 47.05146 41.43120
#
# Velocity S-wave (km/s) = 3.82474 4.38410 4.11393
# Velocity P-wave (km/s) = 5.95601 7.38431 6.70828
#
# Compressibility (1/GPa) = 0.02558009
#
# Stress axis : x y z
#
# Youngs Moduli (GPa) = 130.33774 100.19468 42.46841
#
# Poissons Ratio (x) = 0.33809 0.15236
# Poissons Ratio (y) = 0.43980 0.03601
# Poissons Ratio (z) = 0.46760 0.08496
#
# Static dielectric constant tensor:
#      x y z
#    x 1.907590 0.025090 0.006390 
#    y 0.025090 1.972320 -0.096850 
#    z 0.006390 -0.096850 2.103550 
# 
# From -- ./inp_files/464395.got.cif
#   From: 2010.05.17/outbox.cif.g08.bks.cpg/sg2_233_cif.got.tgz:464395.got - 2010.06.03 11:33:40.
