data_PCOD9091538
_publ_section_title
;
Structure prediction by ZEFSAII (Michael W. Deem and Ramdas Pophale) SiO2 
 PCOD9091538
Probable space group: P -1
;
_chemical_formula_sum "Si O2"
_cell_formula_units_Z 16
_cell_length_a 18.634907
_cell_length_b 18.391610
_cell_length_c 11.739438
_cell_angle_alpha 42.945610
_cell_angle_beta 151.935577
_cell_angle_gamma 155.221211
_cell_volume 742.906951
_symmetry_space_group_name_H-M "P -1"
_symmetry_group_IT_number 2
_symmetry_cell_setting 'triclinic'
loop_
_space_group_symop_operation_xyz
x,y,z
-x,-y,-z
loop_
_atom_site_type_symbol
_atom_site_label
_atom_site_fract_x
_atom_site_fract_y
_atom_site_fract_z
Si Si1 0.451273 0.250060 0.864828
Si Si2 0.834926 0.818939 0.906040
Si Si3 0.272585 0.700142 0.508569
Si Si4 0.140018 0.415486 0.785127
Si Si5 0.129178 0.580369 0.915814
Si Si6 0.180716 0.972331 0.011099
Si Si7 0.221276 0.312331 0.381173
Si Si8 0.767710 0.513038 0.619285
O O1 0.241540 0.197302 0.560023
O O2 0.644956 0.446803 0.971032
O O3 0.636138 0.283962 0.003759
O O4 0.322418 0.115359 0.943308
O O5 0.519217 0.656331 0.647630
O O6 0.879941 0.720191 0.118252
O O7 0.000000 0.000000 0.000000
O O8 0.953449 0.895708 0.856637
O O9 0.232117 0.552705 0.660570
O O10 0.577530 0.909285 0.699450
O O11 0.124789 0.686631 0.412891
O O12 0.119207 0.616612 0.270781
O O13 0.006034 0.618691 0.748041
O O14 0.224474 0.566134 0.173530
O O15 0.013451 0.790010 0.915688
O O16 0.500000 0.500000 0.500000
O O17 0.191754 0.351959 0.415368
#
# Coordination Sequence:
#
# PCOD9091538 Si02
#       8
#     2   2   2   2   2   2   2   2
#     4  10  19  39  67  90 126 166 214 268 312 385
#     4  12  24  42  63  98 133 166 217 273 322 381
#     4   9  20  40  64  95 124 168 214 263 319 377
#     4   9  19  40  67  90 126 170 214 258 321 390
#     4  10  21  41  66  87 130 168 212 261 317 390
#     4  11  23  37  63  99 123 162 218 264 319 378
#     4  12  20  39  65  93 124 169 217 260 321 386
#     4  11  23  40  64  94 124 174 212 258 329 382
#
# _framework density 21.537016999999999
#
# number of rings (size 3 to 8) (size 9 to 14) (size 15 to 20)
#    0.000    1.500    3.750    1.875    1.750    0.500 
#    6.750    2.500    0.000    0.000    0.000    0.000 
#    0.000    0.000    0.000    0.000    0.000    0.000 
#
# Total GULP energy -89260.290255 kJ/mol
# GULP energy per Si atom -5578.768141 kJ/mol
# Density = 2.148800 g / cm^3
# Si number density = 21.537017 Si / 1000 Ang^3
#
#
#
# Elastic Constant Matrix: (Units=GPa)
#
#
# Indices 1 2 3 4 5 6 
#
# 1 98.7926 36.5351 23.5393 -14.0937 19.8175 -17.8569
# 2 36.5351 94.0734 38.5729 0.5520 5.9019 -10.7926
# 3 23.5393 38.5729 88.0308 0.0441 8.7404 -19.8862
# 4 -14.0937 0.5520 0.0441 31.3946 -3.2271 -7.7316
# 5 19.8175 5.9019 8.7404 -3.2271 38.4042 4.5772
# 6 -17.8569 -10.7926 -19.8862 -7.7316 4.5772 34.1223
#
#
#
# Elastic Compliance Matrix: (Units=1/GPa)
#
#
# Indices 1 2 3 4 5 6 
#
# 1 0.016938 -0.005284 0.001183 0.009561 -0.008731 0.011219
# 2 -0.005284 0.014661 -0.005731 -0.003026 0.001809 -0.002396
# 3 0.001183 -0.005731 0.016083 0.002461 -0.004293 0.009313
# 4 0.009561 -0.003026 0.002461 0.039505 -0.003485 0.014899
# 5 -0.008731 0.001809 -0.004293 -0.003485 0.032336 -0.011626
# 6 0.011219 -0.002396 0.009313 0.014899 -0.011626 0.044783
#
#
# Mechanical properties :
#
#
# Convention : Reuss Voigt Hill
#
# Bulk Modulus (GPa) = 35.69090 53.13239 44.41164
# Shear Modulus (GPa) = 25.86507 32.93417 29.39962
#
# Velocity S-wave (km/s) = 3.46924 3.91473 3.69870
# Velocity P-wave (km/s) = 5.71449 6.71992 6.23749
#
# Compressibility (1/GPa) = 0.02801835
#
# Stress axis : x y z
#
# Youngs Moduli (GPa) = 59.03925 68.20662 62.17625
#
# Poissons Ratio (x) = 0.36043 -0.07355
# Poissons Ratio (y) = 0.31198 0.35631
# Poissons Ratio (z) = -0.06984 0.39087
#
# Static dielectric constant tensor:
#      x y z
#    x 1.794200 -0.010880 -0.008760 
#    y -0.010880 1.810940 -0.010070 
#    z -0.008760 -0.010070 1.864150 
# 
# From -- ./inp_files/466599.got.cif
#   From: 2010.05.17/outbox.cif.g08.bks.cpg/sg2_234_cif.got.tgz:466599.got - 2010.06.03 11:33:40.
