data_PCOD9091099
_publ_section_title
;
Structure prediction by ZEFSAII (Michael W. Deem and Ramdas Pophale) SiO2 
 PCOD9091099
Probable space group: P -1
;
_chemical_formula_sum "Si O2"
_cell_formula_units_Z 14
_cell_length_a 19.804725
_cell_length_b 6.684954
_cell_length_c 10.540567
_cell_angle_alpha 79.540589
_cell_angle_beta 153.298714
_cell_angle_gamma 101.958283
_cell_volume 613.426564
_symmetry_space_group_name_H-M "P -1"
_symmetry_group_IT_number 2
_symmetry_cell_setting 'triclinic'
loop_
_space_group_symop_operation_xyz
x,y,z
-x,-y,-z
loop_
_atom_site_type_symbol
_atom_site_label
_atom_site_fract_x
_atom_site_fract_y
_atom_site_fract_z
Si Si1 0.413786 0.815708 0.961327
Si Si2 0.705027 0.684171 0.427579
Si Si3 0.334439 0.070936 0.201870
Si Si4 0.887591 0.390676 0.650125
Si Si5 0.852790 0.903064 0.874642
Si Si6 0.951376 0.195737 0.209108
Si Si7 0.736638 0.880276 0.183384
O O1 0.259819 0.718698 0.652377
O O2 0.362043 0.929745 0.985307
O O3 0.532872 0.648183 0.188674
O O4 0.500000 0.000000 0.000000
O O5 0.813359 0.502612 0.632035
O O6 0.702853 0.743975 0.268655
O O7 0.770884 0.870350 0.606945
O O8 0.500000 0.000000 0.500000
O O9 0.270476 0.162244 0.213826
O O10 0.311388 0.208486 0.023808
O O11 0.209543 0.873938 0.992035
O O12 0.979711 0.571999 0.702779
O O13 0.008528 0.231098 0.886101
O O14 0.921254 0.120300 0.021537
O O15 0.917447 0.928013 0.496869
#
# Coordination Sequence:
#
# PCOD9091099 Si02
#       7
#     2   2   2   2   2   2   2
#     4  10  20  38  61  91 125 168 206 258 316 364
#     4  10  22  38  61  98 127 163 212 259 312 374
#     4  10  21  41  66  92 125 167 212 262 316 374
#     4  11  21  41  62  95 127 168 214 260 306 386
#     4  10  22  42  63  91 132 165 209 260 317 373
#     4   9  22  39  66  91 126 168 214 250 318 373
#     4  10  19  39  63  90 125 170 210 250 317 375
#
# _framework density 22.822617999999999
#
# number of rings (size 3 to 8) (size 9 to 14) (size 15 to 20)
#    0.857    1.143    1.429    2.143    0.000    2.286 
#    5.143   10.000    0.000    0.000    0.000    0.000 
#    0.000    0.000    0.000    0.000    0.000    0.000 
#
# Total GULP energy -77968.209794 kJ/mol
# GULP energy per Si atom -5569.157842 kJ/mol
# Density = 2.277067 g / cm^3
# Si number density = 22.822618 Si / 1000 Ang^3
#
#
#
# Elastic Constant Matrix: (Units=GPa)
#
#
# Indices 1 2 3 4 5 6 
#
# 1 111.0823 32.4073 55.1842 -5.9777 5.1853 -16.9701
# 2 32.4073 53.0911 27.4938 -7.3924 3.6935 -5.7248
# 3 55.1842 27.4938 148.3837 -19.0457 22.6656 -3.9962
# 4 -5.9777 -7.3924 -19.0457 34.8524 -14.8071 11.7690
# 5 5.1853 3.6935 22.6656 -14.8071 49.1777 -0.4162
# 6 -16.9701 -5.7248 -3.9962 11.7690 -0.4162 25.4992
#
#
#
# Elastic Compliance Matrix: (Units=1/GPa)
#
#
# Indices 1 2 3 4 5 6 
#
# 1 0.014169 -0.005934 -0.004459 -0.004607 -0.000300 0.009520
# 2 -0.005934 0.023814 -0.001886 0.003490 0.000753 -0.000497
# 3 -0.004459 -0.001886 0.009584 0.004319 -0.002538 -0.003924
# 4 -0.004607 0.003490 0.004319 0.042805 0.010942 -0.021184
# 5 -0.000300 0.000753 -0.002538 0.010942 0.024731 -0.005075
# 6 0.009520 -0.000497 -0.003924 -0.021184 -0.005075 0.054521
#
#
# Mechanical properties :
#
#
# Convention : Reuss Voigt Hill
#
# Bulk Modulus (GPa) = 43.46189 60.30309 51.88249
# Shear Modulus (GPa) = 24.77065 35.07064 29.92064
#
# Velocity S-wave (km/s) = 3.29805 3.92428 3.62471
# Velocity P-wave (km/s) = 5.79547 6.85662 6.34825
#
# Compressibility (1/GPa) = 0.02300866
#
# Stress axis : x y z
#
# Youngs Moduli (GPa) = 70.57515 41.99133 104.34566
#
# Poissons Ratio (x) = 0.24917 0.46531
# Poissons Ratio (y) = 0.41878 0.19681
# Poissons Ratio (z) = 0.31472 0.07920
#
# Static dielectric constant tensor:
#      x y z
#    x 1.920290 0.033050 -0.009050 
#    y 0.033050 1.957580 -0.033760 
#    z -0.009050 -0.033760 1.879250 
# 
# From -- ./inp_files/474262.got.cif
#   From: 2010.05.17/outbox.cif.g08.bks.cpg/sg2_238_cif.got.tgz:474262.got - 2010.06.03 11:33:40.
