data_PCOD9091878
_publ_section_title
;
Structure prediction by ZEFSAII (Michael W. Deem and Ramdas Pophale) SiO2 
 PCOD9091878
Probable space group: P -1
;
_chemical_formula_sum "Si O2"
_cell_formula_units_Z 16
_cell_length_a 7.167594
_cell_length_b 11.824327
_cell_length_c 9.265330
_cell_angle_alpha 75.540499
_cell_angle_beta 69.962727
_cell_angle_gamma 54.370976
_cell_volume 598.333875
_symmetry_space_group_name_H-M "P -1"
_symmetry_group_IT_number 2
_symmetry_cell_setting 'triclinic'
loop_
_space_group_symop_operation_xyz
x,y,z
-x,-y,-z
loop_
_atom_site_type_symbol
_atom_site_label
_atom_site_fract_x
_atom_site_fract_y
_atom_site_fract_z
Si Si1 0.830834 0.251235 0.182780
Si Si2 0.427775 0.223360 0.800788
Si Si3 0.126557 0.338234 0.258055
Si Si4 0.847494 0.378449 0.579823
Si Si5 0.720238 0.014377 0.987777
Si Si6 0.110112 0.607167 0.107234
Si Si7 0.565770 0.324272 0.485676
Si Si8 0.479689 0.980122 0.682944
O O1 0.662021 0.234190 0.342266
O O2 0.924990 0.331410 0.227729
O O3 0.043831 0.103310 0.115831
O O4 0.732405 0.354277 0.039322
O O5 0.162699 0.292350 0.908687
O O6 0.399829 0.332945 0.655402
O O7 0.524394 0.092229 0.707657
O O8 0.615671 0.167406 0.899244
O O9 0.334004 0.177963 0.269144
O O10 0.039848 0.384170 0.431410
O O11 0.174445 0.449534 0.142396
O O12 0.799625 0.275649 0.535862
O O13 0.593015 0.522624 0.590476
O O14 0.909652 0.345467 0.737929
O O15 0.738785 0.992490 0.162788
O O16 0.500000 0.000000 0.000000
O O17 0.500000 0.000000 0.500000
#
# Coordination Sequence:
#
# PCOD9091878 Si02
#       8
#     2   2   2   2   2   2   2   2
#     4  11  22  41  63  95 136 173 209 270 323 392
#     4  11  21  42  71  93 126 180 211 267 319 387
#     4  11  21  37  63 102 123 164 220 264 315 383
#     4  10  23  42  61  95 134 168 213 275 313 389
#     4  10  19  40  62  94 129 167 217 263 319 379
#     4  12  22  38  73  94 127 166 226 273 317 365
#     4  10  24  43  64  91 138 176 213 252 342 387
#     4  11  22  37  64  99 131 156 211 279 317 367
#
# _framework density 26.740924
#
# number of rings (size 3 to 8) (size 9 to 14) (size 15 to 20)
#    0.000    1.250    6.250    1.500    1.750    1.000 
#    0.000    1.250    0.000    1.500    0.000    0.000 
#    0.000    0.000    0.000    0.000    0.000    0.000 
#
# Total GULP energy -89279.901487 kJ/mol
# GULP energy per Si atom -5579.993843 kJ/mol
# Density = 2.668006 g / cm^3
# Si number density = 26.740924 Si / 1000 Ang^3
#
#
#
# Elastic Constant Matrix: (Units=GPa)
#
#
# Indices 1 2 3 4 5 6 
#
# 1 57.5106 -1.2916 1.1645 -0.8731 2.7635 7.2015
# 2 -1.2916 107.4665 6.2370 -4.7130 5.4441 -4.8001
# 3 1.1645 6.2370 182.3707 3.2051 5.9312 -0.3910
# 4 -0.8731 -4.7130 3.2051 51.5842 -2.6203 3.1348
# 5 2.7635 5.4441 5.9312 -2.6203 31.1375 8.2527
# 6 7.2015 -4.8001 -0.3910 3.1348 8.2527 17.3132
#
#
#
# Elastic Compliance Matrix: (Units=1/GPa)
#
#
# Indices 1 2 3 4 5 6 
#
# 1 0.018391 -0.000130 -0.000166 0.000838 0.000654 -0.008153
# 2 -0.000130 0.009646 -0.000245 0.000526 -0.002610 0.003872
# 3 -0.000166 -0.000245 0.005544 -0.000483 -0.001254 0.000812
# 4 0.000838 0.000526 -0.000483 0.019950 0.002997 -0.005254
# 5 0.000654 -0.002610 -0.001254 0.002997 0.038253 -0.019801
# 6 -0.008153 0.003872 0.000812 -0.005254 -0.019801 0.072632
#
#
# Mechanical properties :
#
#
# Convention : Reuss Voigt Hill
#
# Bulk Modulus (GPa) = 30.77121 39.95196 35.36158
# Shear Modulus (GPa) = 28.35577 42.75617 35.55597
#
# Velocity S-wave (km/s) = 3.25989 4.00297 3.65039
# Velocity P-wave (km/s) = 5.06965 6.02809 5.56952
#
# Compressibility (1/GPa) = 0.03249791
#
# Stress axis : x y z
#
# Youngs Moduli (GPa) = 54.37509 103.66838 180.38182
#
# Poissons Ratio (x) = 0.01346 0.03003
# Poissons Ratio (y) = 0.00706 0.04422
# Poissons Ratio (z) = 0.00905 0.02541
#
# Static dielectric constant tensor:
#      x y z
#    x 2.297250 0.093570 -0.080520 
#    y 0.093570 2.175040 -0.064540 
#    z -0.080520 -0.064540 2.273800 
# 
# From -- ./inp_files/206261.got.cif
#   From: 2010.05.17/outbox.cif.g08.bks.cpg/sg2_104_cif.got.tgz:206261.got - 2010.06.03 11:33:40.
