data_PCOD9091249
_publ_section_title
;
Structure prediction by ZEFSAII (Michael W. Deem and Ramdas Pophale) SiO2 
 PCOD9091249
Probable space group: P -1
;
_chemical_formula_sum "Si O2"
_cell_formula_units_Z 16
_cell_length_a 10.725311
_cell_length_b 16.418920
_cell_length_c 7.540360
_cell_angle_alpha 49.373044
_cell_angle_beta 73.082114
_cell_angle_gamma 41.060054
_cell_volume 606.377369
_symmetry_space_group_name_H-M "P -1"
_symmetry_group_IT_number 2
_symmetry_cell_setting 'triclinic'
loop_
_space_group_symop_operation_xyz
x,y,z
-x,-y,-z
loop_
_atom_site_type_symbol
_atom_site_label
_atom_site_fract_x
_atom_site_fract_y
_atom_site_fract_z
Si Si1 0.830215 0.032272 0.107959
Si Si2 0.100612 0.314060 0.110306
Si Si3 0.635506 0.815237 0.274305
Si Si4 0.928939 0.899724 0.660749
Si Si5 0.339246 0.316248 0.211993
Si Si6 0.439606 0.366621 0.613775
Si Si7 0.011541 0.292984 0.579720
Si Si8 0.655592 0.262493 0.326440
O O1 0.871373 0.976462 0.375566
O O2 0.613530 0.228768 0.882137
O O3 0.865205 0.897011 0.186822
O O4 0.000000 0.000000 0.000000
O O5 0.048597 0.307603 0.341756
O O6 0.131416 0.184913 0.175629
O O7 0.281628 0.287028 0.098110
O O8 0.885539 0.505436 0.873755
O O9 0.573828 0.828625 0.484680
O O10 0.614182 0.716310 0.325320
O O11 0.873599 0.699757 0.347113
O O12 0.500000 0.000000 0.000000
O O13 0.176062 0.759463 0.778696
O O14 0.801610 0.065919 0.593719
O O15 0.486139 0.324752 0.170556
O O16 0.232177 0.555437 0.500287
O O17 0.541447 0.366352 0.407846
#
# Coordination Sequence:
#
# PCOD9091249 Si02
#       8
#     2   2   2   2   2   2   2   2
#     4  11  22  41  64  91 126 167 216 261 311 378
#     4   9  20  41  60  90 123 163 209 262 314 375
#     4  10  19  39  64  93 128 164 205 259 321 381
#     4  10  22  41  63  86 126 169 211 260 316 377
#     4   9  20  38  61  89 125 156 212 259 310 379
#     4  11  22  40  64  95 126 165 211 262 318 378
#     4  10  22  39  66  94 127 164 211 263 316 377
#     4  10  22  41  59  90 124 165 211 257 316 376
#
# _framework density 26.386209000000001
#
# number of rings (size 3 to 8) (size 9 to 14) (size 15 to 20)
#    0.000    2.000    2.500    0.375    1.750    1.500 
#    4.500    6.250    0.000    0.000    0.000    0.000 
#    0.000    0.000    0.000    0.000    0.000    0.000 
#
# Total GULP energy -89573.806428 kJ/mol
# GULP energy per Si atom -5598.362902 kJ/mol
# Density = 2.632615 g / cm^3
# Si number density = 26.386209 Si / 1000 Ang^3
#
#
#
# Elastic Constant Matrix: (Units=GPa)
#
#
# Indices 1 2 3 4 5 6 
#
# 1 96.1035 10.5102 24.8853 0.7679 35.3321 -5.8926
# 2 10.5102 84.0308 11.4844 -4.0390 6.5344 -22.6765
# 3 24.8853 11.4844 99.0677 -9.1406 12.6317 -11.6575
# 4 0.7679 -4.0390 -9.1406 28.7434 -1.6598 1.2995
# 5 35.3321 6.5344 12.6317 -1.6598 41.1766 -15.8828
# 6 -5.8926 -22.6765 -11.6575 1.2995 -15.8828 29.7040
#
#
#
# Elastic Compliance Matrix: (Units=1/GPa)
#
#
# Indices 1 2 3 4 5 6 
#
# 1 0.017226 -0.002962 -0.003110 -0.002436 -0.016931 -0.009011
# 2 -0.002962 0.015818 0.000074 0.001999 0.005666 0.014460
# 3 -0.003110 0.000074 0.011594 0.003638 0.000912 0.004318
# 4 -0.002436 0.001999 0.003638 0.036358 0.003101 0.002538
# 5 -0.016931 0.005666 0.000912 0.003101 0.048149 0.026935
# 6 -0.009011 0.014460 0.004318 0.002538 0.026935 0.058903
#
#
# Mechanical properties :
#
#
# Convention : Reuss Voigt Hill
#
# Bulk Modulus (GPa) = 30.63476 41.44021 36.03749
# Shear Modulus (GPa) = 23.70512 35.41293 29.55903
#
# Velocity S-wave (km/s) = 3.00057 3.66744 3.35064
# Velocity P-wave (km/s) = 4.86209 5.80283 5.35317
#
# Compressibility (1/GPa) = 0.03264266
#
# Stress axis : x y z
#
# Youngs Moduli (GPa) = 58.05090 63.21788 86.24965
#
# Poissons Ratio (x) = 0.18723 0.26824
# Poissons Ratio (y) = 0.17193 -0.00635
# Poissons Ratio (z) = 0.18054 -0.00465
#
# Static dielectric constant tensor:
#      x y z
#    x 2.119780 0.008930 0.019910 
#    y 0.008930 2.104540 0.012810 
#    z 0.019910 0.012810 2.039580 
# 
# From -- ./inp_files/279021.got.cif
#   From: 2010.05.17/outbox.cif.g08.bks.cpg/sg2_140_cif.got.tgz:279021.got - 2010.06.03 11:33:40.
