data_PCOD9091628
_publ_section_title
;
Structure prediction by ZEFSAII (Michael W. Deem and Ramdas Pophale) SiO2 
 PCOD9091628
Probable space group: P -1
;
_chemical_formula_sum "Si O2"
_cell_formula_units_Z 12
_cell_length_a 12.529177
_cell_length_b 8.955552
_cell_length_c 8.115051
_cell_angle_alpha 73.705782
_cell_angle_beta 62.197817
_cell_angle_gamma 32.591092
_cell_volume 421.597650
_symmetry_space_group_name_H-M "P -1"
_symmetry_group_IT_number 2
_symmetry_cell_setting 'triclinic'
loop_
_space_group_symop_operation_xyz
x,y,z
-x,-y,-z
loop_
_atom_site_type_symbol
_atom_site_label
_atom_site_fract_x
_atom_site_fract_y
_atom_site_fract_z
Si Si1 0.709232 0.410599 0.557657
Si Si2 0.469005 0.827328 0.851057
Si Si3 0.822504 0.689082 0.722404
Si Si4 0.966502 0.853873 0.039830
Si Si5 0.247535 0.943259 0.531734
Si Si6 0.176118 0.425071 0.768303
O O1 0.472424 0.669736 0.553933
O O2 0.824135 0.134220 0.489828
O O3 0.805089 0.475805 0.427586
O O4 0.637746 0.510316 0.764918
O O5 0.360825 0.090918 0.740942
O O6 0.246112 0.963254 0.977044
O O7 0.638645 0.754033 0.851136
O O8 0.000000 0.500000 0.500000
O O9 0.946188 0.586829 0.838105
O O10 0.703167 0.978664 0.662348
O O11 0.161129 0.565121 0.883980
O O12 0.919157 0.842161 0.263141
O O13 0.000000 0.000000 0.000000
#
# Coordination Sequence:
#
# PCOD9091628 Si02
#       6
#     2   2   2   2   2   2
#     4  10  19  39  68  94 127 180 216 269 327 383
#     4  11  24  43  69  98 139 171 222 281 327 392
#     4  12  24  41  71 105 128 173 230 276 327 393
#     4  11  24  43  67  97 137 182 215 267 345 399
#     4  10  22  41  70  95 134 172 223 273 329 389
#     4  12  23  43  69 101 135 173 223 271 337 396
#
# _framework density 28.463155
#
# number of rings (size 3 to 8) (size 9 to 14) (size 15 to 20)
#    0.000    1.000    5.000    3.000    0.000    1.333 
#    0.000    0.000    0.000   14.000    0.000    0.000 
#    0.000    0.000    0.000    0.000    0.000    0.000 
#
# Total GULP energy -66959.238652 kJ/mol
# GULP energy per Si atom -5579.936554 kJ/mol
# Density = 2.839837 g / cm^3
# Si number density = 28.463155 Si / 1000 Ang^3
#
#
#
# Elastic Constant Matrix: (Units=GPa)
#
#
# Indices 1 2 3 4 5 6 
#
# 1 243.6402 45.1336 29.5193 10.4955 10.4197 3.0878
# 2 45.1336 51.9061 33.7789 3.6246 18.0127 3.7976
# 3 29.5193 33.7789 77.4346 18.6016 16.4502 14.9651
# 4 10.4955 3.6246 18.6016 44.2772 13.1314 10.3316
# 5 10.4197 18.0127 16.4502 13.1314 53.2020 7.2633
# 6 3.0878 3.7976 14.9651 10.3316 7.2633 63.8878
#
#
#
# Elastic Compliance Matrix: (Units=1/GPa)
#
#
# Indices 1 2 3 4 5 6 
#
# 1 0.004954 -0.004669 0.000237 -0.001150 0.000811 0.000076
# 2 -0.004669 0.034171 -0.013038 0.005951 -0.008260 0.001225
# 3 0.000237 -0.013038 0.020757 -0.007044 0.000094 -0.002970
# 4 -0.001150 0.005951 -0.007044 0.027713 -0.006119 -0.002434
# 5 0.000811 -0.008260 0.000094 -0.006119 0.023080 -0.001205
# 6 0.000076 0.001225 -0.002970 -0.002434 -0.001205 0.016802
#
#
# Mechanical properties :
#
#
# Convention : Reuss Voigt Hill
#
# Bulk Modulus (GPa) = 40.09018 65.53828 52.81423
# Shear Modulus (GPa) = 29.28562 49.91000 39.59781
#
# Velocity S-wave (km/s) = 3.21112 4.19202 3.73392
# Velocity P-wave (km/s) = 5.27863 6.81956 6.09796
#
# Compressibility (1/GPa) = 0.02494376
#
# Stress axis : x y z
#
# Youngs Moduli (GPa) = 201.83672 29.26423 48.17537
#
# Poissons Ratio (x) = 0.13664 -0.01144
# Poissons Ratio (y) = 0.94239 0.62812
# Poissons Ratio (z) = -0.04791 0.38155
#
# Static dielectric constant tensor:
#      x y z
#    x 2.185710 0.015120 -0.000590 
#    y 0.015120 2.355870 0.055690 
#    z -0.000590 0.055690 2.405450 
# 
# From -- ./inp_files/234613.got.cif
#   From: 2010.05.17/outbox.cif.g08.bks.cpg/sg2_118_cif.got.tgz:234613.got - 2010.06.03 11:33:40.
