data_PCOD9091083
_publ_section_title
;
Structure prediction by ZEFSAII (Michael W. Deem and Ramdas Pophale) SiO2 
 PCOD9091083
Probable space group: P -1
;
_chemical_formula_sum "Si O2"
_cell_formula_units_Z 14
_cell_length_a 6.806324
_cell_length_b 9.066840
_cell_length_c 12.810351
_cell_angle_alpha 62.635251
_cell_angle_beta 76.430601
_cell_angle_gamma 46.277939
_cell_volume 503.130823
_symmetry_space_group_name_H-M "P -1"
_symmetry_group_IT_number 2
_symmetry_cell_setting 'triclinic'
loop_
_space_group_symop_operation_xyz
x,y,z
-x,-y,-z
loop_
_atom_site_type_symbol
_atom_site_label
_atom_site_fract_x
_atom_site_fract_y
_atom_site_fract_z
Si Si1 0.259104 0.634171 0.567585
Si Si2 0.306945 0.182398 0.260802
Si Si3 0.926220 0.161751 0.808700
Si Si4 0.646446 0.986124 0.884615
Si Si5 0.904385 0.547058 0.617021
Si Si6 0.095083 0.918910 0.665402
Si Si7 0.197428 0.604471 0.039967
O O1 0.500000 0.500000 0.500000
O O2 0.326860 0.704273 0.637607
O O3 0.156662 0.508964 0.649672
O O4 0.022736 0.862939 0.457731
O O5 0.503200 0.009154 0.198891
O O6 0.337392 0.215066 0.368454
O O7 0.210342 0.413450 0.149978
O O8 0.125379 0.111635 0.304566
O O9 0.889001 0.363698 0.701718
O O10 0.921041 0.205671 0.918090
O O11 0.138408 0.955427 0.766278
O O12 0.678810 0.166316 0.823294
O O13 0.961113 0.741387 0.937008
O O14 0.500000 0.000000 0.000000
O O15 0.000000 0.500000 0.500000
O O16 0.500000 0.500000 0.000000
#
# Coordination Sequence:
#
# PCOD9091083 Si02
#       7
#     2   2   2   2   2   2   2
#     4  10  20  38  62  89 123 179 215 261 327 389
#     4   9  21  39  62  94 119 177 221 261 335 405
#     4  10  21  40  63  95 124 172 215 272 338 389
#     4  11  23  44  66  94 132 173 221 279 335 401
#     4  10  19  39  63  88 136 165 211 273 322 390
#     4   9  19  40  61  85 134 160 219 271 314 402
#     4  11  23  43  66  95 134 169 220 284 339 388
#
# _framework density 27.825761
#
# number of rings (size 3 to 8) (size 9 to 14) (size 15 to 20)
#    0.000    2.000    1.429    1.714    0.000    0.000 
#   25.714    2.143    0.000    0.000    0.000    0.000 
#    0.000    0.000    0.000    0.000    0.000    0.000 
#
# Total GULP energy -78087.875622 kJ/mol
# GULP energy per Si atom -5577.705402 kJ/mol
# Density = 2.776243 g / cm^3
# Si number density = 27.825761 Si / 1000 Ang^3
#
#
#
# Elastic Constant Matrix: (Units=GPa)
#
#
# Indices 1 2 3 4 5 6 
#
# 1 147.7674 61.5546 50.2335 -6.5644 -5.7470 37.4224
# 2 61.5546 179.3680 72.2850 34.8504 1.9351 46.0415
# 3 50.2335 72.2850 144.7662 11.5938 -32.1980 17.6190
# 4 -6.5644 34.8504 11.5938 92.6062 25.2345 8.3484
# 5 -5.7470 1.9351 -32.1980 25.2345 49.0018 1.0705
# 6 37.4224 46.0415 17.6190 8.3484 1.0705 76.3867
#
#
#
# Elastic Compliance Matrix: (Units=1/GPa)
#
#
# Indices 1 2 3 4 5 6 
#
# 1 0.009176 -0.001813 -0.002451 0.002355 -0.001608 -0.003072
# 2 -0.001813 0.009011 -0.003652 -0.002286 -0.001716 -0.003427
# 3 -0.002451 -0.003652 0.011687 -0.002781 0.008949 0.000885
# 4 0.002355 -0.002286 -0.002781 0.014684 -0.009009 -0.000613
# 5 -0.001608 -0.001716 0.008949 -0.009009 0.030799 0.000311
# 6 -0.003072 -0.003427 0.000885 -0.000613 0.000311 0.016521
#
#
# Mechanical properties :
#
#
# Convention : Reuss Voigt Hill
#
# Bulk Modulus (GPa) = 71.21325 93.33865 82.27595
# Shear Modulus (GPa) = 44.48749 62.78751 53.63750
#
# Velocity S-wave (km/s) = 4.00282 4.75537 4.39523
# Velocity P-wave (km/s) = 6.85650 7.98550 7.44244
#
# Compressibility (1/GPa) = 0.01404233
#
# Stress axis : x y z
#
# Youngs Moduli (GPa) = 108.98128 110.97116 85.56356
#
# Poissons Ratio (x) = 0.20115 0.20975
# Poissons Ratio (y) = 0.19754 0.31249
# Poissons Ratio (z) = 0.26715 0.40528
#
# Static dielectric constant tensor:
#      x y z
#    x 2.287730 -0.132650 0.010910 
#    y -0.132650 2.302710 0.126820 
#    z 0.010910 0.126820 2.262400 
# 
# From -- ./inp_files/490556.got.cif
#   From: 2010.05.17/outbox.cif.g08.bks.cpg/sg2_246_cif.got.tgz:490556.got - 2010.06.03 11:33:40.
