data_PCOD9091141
_publ_section_title
;
Structure prediction by ZEFSAII (Michael W. Deem and Ramdas Pophale) SiO2 
 PCOD9091141
Probable space group: P -1
;
_chemical_formula_sum "Si O2"
_cell_formula_units_Z 16
_cell_length_a 9.118135
_cell_length_b 13.021598
_cell_length_c 12.623119
_cell_angle_alpha 123.806519
_cell_angle_beta 92.756096
_cell_angle_gamma 50.543262
_cell_volume 845.537527
_symmetry_space_group_name_H-M "P -1"
_symmetry_group_IT_number 2
_symmetry_cell_setting 'triclinic'
loop_
_space_group_symop_operation_xyz
x,y,z
-x,-y,-z
loop_
_atom_site_type_symbol
_atom_site_label
_atom_site_fract_x
_atom_site_fract_y
_atom_site_fract_z
Si Si1 0.290468 0.505679 0.281732
Si Si2 0.956381 0.513186 0.881740
Si Si3 0.618754 0.802698 0.424366
Si Si4 0.071263 0.331102 0.463383
Si Si5 0.336221 0.814501 0.738460
Si Si6 0.718477 0.904903 0.014669
Si Si7 0.505217 0.368178 0.591893
Si Si8 0.041191 0.785026 0.781594
O O1 0.205704 0.496971 0.165861
O O2 0.103396 0.597476 0.413551
O O3 0.497386 0.312845 0.232110
O O4 0.350056 0.612453 0.343347
O O5 0.182025 0.350270 0.734973
O O6 0.842841 0.706693 0.944040
O O7 0.000000 0.500000 0.000000
O O8 0.482590 0.762281 0.412363
O O9 0.713456 0.771615 0.525944
O O10 0.500000 0.000000 0.500000
O O11 0.079390 0.215635 0.315000
O O12 0.000000 0.500000 0.500000
O O13 0.424951 0.702941 0.567724
O O14 0.123740 0.866719 0.791345
O O15 0.319914 0.972201 0.823073
O O16 0.878694 0.880385 0.927974
O O17 0.500000 0.000000 0.000000
O O18 0.259057 0.571954 0.694006
#
# Coordination Sequence:
#
# PCOD9091141 Si02
#       8
#     2   2   2   2   2   2   2   2
#     4  10  19  39  63  95 122 165 208 263 314 375
#     4  11  25  46  62  87 132 177 212 257 317 378
#     4  11  25  41  64  93 126 165 216 267 310 377
#     4  11  18  35  64  94 123 157 207 262 320 364
#     4  11  21  36  65 101 129 159 207 263 328 383
#     4  12  25  39  62  97 132 167 214 262 316 378
#     4  11  20  39  69  95 127 161 214 265 328 371
#     4  11  20  38  61  97 129 163 203 269 325 368
#
# _framework density 18.922874
#
# number of rings (size 3 to 8) (size 9 to 14) (size 15 to 20)
#    0.000    1.000    6.250    1.875    3.500    0.000 
#    0.000    4.375    0.000    0.000    0.000    0.000 
#    0.000    0.000    0.000    0.000    0.000    0.000 
#
# Total GULP energy -89343.770447 kJ/mol
# GULP energy per Si atom -5583.985653 kJ/mol
# Density = 1.887980 g / cm^3
# Si number density = 18.922874 Si / 1000 Ang^3
#
#
#
# Elastic Constant Matrix: (Units=GPa)
#
#
# Indices 1 2 3 4 5 6 
#
# 1 140.3863 44.3319 51.7293 1.6719 20.6245 14.0762
# 2 44.3319 102.1978 37.9598 6.6773 14.1962 11.5894
# 3 51.7293 37.9598 90.8388 -3.2355 17.8339 -4.5063
# 4 1.6719 6.6773 -3.2355 33.6123 -0.7957 12.3851
# 5 20.6245 14.1962 17.8339 -0.7957 40.4553 -0.8903
# 6 14.0762 11.5894 -4.5063 12.3851 -0.8903 22.5351
#
#
#
# Elastic Compliance Matrix: (Units=1/GPa)
#
#
# Indices 1 2 3 4 5 6 
#
# 1 0.010770 -0.001525 -0.005287 0.002273 -0.002764 -0.008359
# 2 -0.001525 0.013211 -0.004608 -0.000650 -0.001983 -0.006485
# 3 -0.005287 -0.004608 0.016967 -0.000697 -0.002976 0.009330
# 4 0.002273 -0.000650 -0.000697 0.037803 -0.000364 -0.022016
# 5 -0.002764 -0.001983 -0.002976 -0.000364 0.028204 0.003466
# 6 -0.008359 -0.006485 0.009330 -0.022016 0.003466 0.067034
#
#
# Mechanical properties :
#
#
# Convention : Reuss Voigt Hill
#
# Bulk Modulus (GPa) = 55.22163 66.82945 61.02554
# Shear Modulus (GPa) = 24.64692 32.61399 28.63045
#
# Velocity S-wave (km/s) = 3.61292 4.15604 3.89396
# Velocity P-wave (km/s) = 6.83009 7.64353 7.24823
#
# Compressibility (1/GPa) = 0.01810885
#
# Stress axis : x y z
#
# Youngs Moduli (GPa) = 92.85099 75.69361 58.93781
#
# Poissons Ratio (x) = 0.11541 0.31160
# Poissons Ratio (y) = 0.14157 0.27158
# Poissons Ratio (z) = 0.49090 0.34879
#
# Static dielectric constant tensor:
#      x y z
#    x 1.658990 0.000070 0.015350 
#    y 0.000070 1.633080 0.005260 
#    z 0.015350 0.005260 1.656350 
# 
# From -- ./inp_files/190921.got.cif
#   From: 2010.05.17/outbox.cif.g08.bks.cpg/sg2_96_cif.got.tgz:190921.got - 2010.06.03 11:33:40.
