data_PCOD9091313
_publ_section_title
;
Structure prediction by ZEFSAII (Michael W. Deem and Ramdas Pophale) SiO2 
 PCOD9091313
Probable space group: P -1
;
_chemical_formula_sum "Si O2"
_cell_formula_units_Z 15
_cell_length_a 9.213082
_cell_length_b 19.663543
_cell_length_c 12.361388
_cell_angle_alpha 19.712551
_cell_angle_beta 51.908332
_cell_angle_gamma 48.114407
_cell_volume 561.747609
_symmetry_space_group_name_H-M "P -1"
_symmetry_group_IT_number 2
_symmetry_cell_setting 'triclinic'
loop_
_space_group_symop_operation_xyz
x,y,z
-x,-y,-z
loop_
_atom_site_type_symbol
_atom_site_label
_atom_site_fract_x
_atom_site_fract_y
_atom_site_fract_z
Si Si1 0.000843 0.256845 0.426375
Si Si2 0.399040 0.080328 0.812174
Si Si3 0.308038 0.677451 0.360365
Si Si4 0.095868 0.716440 0.963557
Si Si5 0.820855 0.834125 0.739104
Si Si6 0.434422 0.167648 0.439791
Si Si7 0.500000 0.500000 0.000000
Si Si8 0.015285 0.777910 0.145534
O O1 0.056961 0.305423 0.206697
O O2 0.210087 0.196345 0.482464
O O3 0.813386 0.380766 0.398856
O O4 0.962965 0.030517 0.769784
O O5 0.492137 0.189531 0.511089
O O6 0.187077 0.241661 0.692257
O O7 0.500000 0.000000 0.000000
O O8 0.370147 0.880123 0.063291
O O9 0.500000 0.500000 0.500000
O O10 0.164487 0.730353 0.245733
O O11 0.889984 0.732640 0.976249
O O12 0.120740 0.950382 0.606494
O O13 0.261285 0.583577 0.005230
O O14 0.091361 0.662833 0.171457
O O15 0.586934 0.943756 0.665003
O O16 0.475580 0.381503 0.067395
#
# Coordination Sequence:
#
# PCOD9091313 Si02
#       8
#     2   2   2   2   2   2   1   2
#     4  10  19  39  65  86 123 169 211 258 316 386
#     4  11  22  40  68  96 124 171 217 262 319 394
#     4  11  23  41  64  98 130 164 212 271 328 379
#     4   9  19  37  57  86 121 161 205 260 316 370
#     4   9  19  34  62  88 115 161 217 253 302 381
#     4  11  20  40  60  91 125 167 215 258 319 379
#     4  10  24  38  58  86 132 166 206 268 314 362
#     4  10  19  40  64  88 124 168 209 259 324 383
#
# _framework density 26.702380999999999
#
# number of rings (size 3 to 8) (size 9 to 14) (size 15 to 20)
#    0.000    1.867    2.667    2.000    0.000    5.333 
#    4.800    2.000    0.000    0.000    0.000    0.000 
#    0.000    0.000    0.000    0.000    0.000    0.000 
#
# Total GULP energy -83699.027016 kJ/mol
# GULP energy per Si atom -5579.935134 kJ/mol
# Density = 2.664161 g / cm^3
# Si number density = 26.702381 Si / 1000 Ang^3
#
#
#
# Elastic Constant Matrix: (Units=GPa)
#
#
# Indices 1 2 3 4 5 6 
#
# 1 119.7263 68.6141 10.0776 -1.0067 20.9375 3.3209
# 2 68.6141 196.3269 24.8796 -9.9706 7.9524 -2.7856
# 3 10.0776 24.8796 44.7269 11.8964 -15.9608 14.9808
# 4 -1.0067 -9.9706 11.8964 50.2713 6.3346 2.0424
# 5 20.9375 7.9524 -15.9608 6.3346 31.3410 6.6709
# 6 3.3209 -2.7856 14.9808 2.0424 6.6709 52.3928
#
#
#
# Elastic Compliance Matrix: (Units=1/GPa)
#
#
# Indices 1 2 3 4 5 6 
#
# 1 0.012819 -0.002778 -0.007734 0.003062 -0.013010 0.002788
# 2 -0.002778 0.007466 -0.007502 0.003737 -0.005306 0.003248
# 3 -0.007734 -0.007502 0.056221 -0.019659 0.044110 -0.020834
# 4 0.003062 0.003737 -0.019659 0.027590 -0.020095 0.007109
# 5 -0.013010 -0.005306 0.044110 -0.020095 0.072846 -0.020562
# 6 0.002788 0.003248 -0.020834 0.007109 -0.020562 0.027381
#
#
# Mechanical properties :
#
#
# Convention : Reuss Voigt Hill
#
# Bulk Modulus (GPa) = 24.70503 63.10251 43.90377
# Shear Modulus (GPa) = 19.69709 43.94827 31.82268
#
# Velocity S-wave (km/s) = 2.71892 4.06132 3.45592
# Velocity P-wave (km/s) = 4.37365 6.75836 5.69229
#
# Compressibility (1/GPa) = 0.04047759
#
# Stress axis : x y z
#
# Youngs Moduli (GPa) = 78.00967 133.94115 17.78683
#
# Poissons Ratio (x) = 0.37208 0.13756
# Poissons Ratio (y) = 0.21671 0.13345
# Poissons Ratio (z) = 0.60332 1.00489
#
# Static dielectric constant tensor:
#      x y z
#    x 2.087350 -0.047370 0.084010 
#    y -0.047370 2.102660 0.036880 
#    z 0.084010 0.036880 1.518370 
# 
# From -- ./inp_files/237318.got.cif
#   From: 2010.05.17/outbox.cif.g08.bks.cpg/sg2_119_cif.got.tgz:237318.got - 2010.06.03 11:33:40.
