data_PCOD9091652
_publ_section_title
;
Structure prediction by ZEFSAII (Michael W. Deem and Ramdas Pophale) SiO2 
 PCOD9091652
Probable space group: P -1
;
_chemical_formula_sum "Si O2"
_cell_formula_units_Z 14
_cell_length_a 10.133417
_cell_length_b 16.638910
_cell_length_c 10.422096
_cell_angle_alpha 53.028973
_cell_angle_beta 121.612093
_cell_angle_gamma 151.661255
_cell_volume 666.367261
_symmetry_space_group_name_H-M "P -1"
_symmetry_group_IT_number 2
_symmetry_cell_setting 'triclinic'
loop_
_space_group_symop_operation_xyz
x,y,z
-x,-y,-z
loop_
_atom_site_type_symbol
_atom_site_label
_atom_site_fract_x
_atom_site_fract_y
_atom_site_fract_z
Si Si1 0.120421 0.454204 0.628534
Si Si2 0.652725 0.648059 0.826816
Si Si3 0.197338 0.478904 0.104382
Si Si4 0.381924 0.545773 0.418820
Si Si5 0.581588 0.079368 0.820514
Si Si6 0.426310 0.796390 0.949912
Si Si7 0.241546 0.067324 0.752322
O O1 0.421620 0.600062 0.703018
O O2 0.161280 0.428649 0.533394
O O3 0.000000 0.500000 0.500000
O O4 0.900840 0.280215 0.775225
O O5 0.741586 0.602735 0.823404
O O6 0.500000 0.500000 0.000000
O O7 0.924958 0.860328 0.793358
O O8 0.236133 0.504857 0.253174
O O9 0.890254 0.347033 0.032844
O O10 0.399470 0.679124 0.967447
O O11 0.500000 0.500000 0.500000
O O12 0.644259 0.759452 0.382060
O O13 0.395760 0.078794 0.716240
O O14 0.524679 0.960738 0.802270
O O15 0.500000 0.000000 0.000000
O O16 0.630824 0.883466 0.088393
#
# Coordination Sequence:
#
# PCOD9091652 Si02
#       7
#     2   2   2   2   2   2   2
#     4  12  26  44  71 104 142 180 234 292 346 415
#     4  12  25  42  70 106 135 179 242 289 341 416
#     4  10  21  38  66  97 133 181 221 283 345 407
#     4  11  23  46  65  93 142 185 224 281 352 411
#     4  10  19  39  68  98 133 177 225 281 340 407
#     4   9  19  37  66  97 127 174 225 273 346 401
#     4  10  21  40  71  94 133 178 228 281 344 410
#
# _framework density 21.009435
#
# number of rings (size 3 to 8) (size 9 to 14) (size 15 to 20)
#    0.000    1.429    4.286    1.714    2.000    1.714 
#    5.143    2.857    0.000    0.000    0.000    0.000 
#    0.000    0.000    0.000    0.000    0.000    0.000 
#
# Total GULP energy -77947.798106 kJ/mol
# GULP energy per Si atom -5567.699865 kJ/mol
# Density = 2.096162 g / cm^3
# Si number density = 21.009435 Si / 1000 Ang^3
#
#
#
# Elastic Constant Matrix: (Units=GPa)
#
#
# Indices 1 2 3 4 5 6 
#
# 1 95.1735 53.6664 45.2924 -8.1368 22.5594 7.1341
# 2 53.6664 183.9713 47.7065 -6.6396 15.9668 8.7587
# 3 45.2924 47.7065 73.9819 -2.9853 11.1527 6.2607
# 4 -8.1368 -6.6396 -2.9853 34.5549 0.1135 10.0263
# 5 22.5594 15.9668 11.1527 0.1135 48.6028 -9.7496
# 6 7.1341 8.7587 6.2607 10.0263 -9.7496 33.5441
#
#
#
# Elastic Compliance Matrix: (Units=1/GPa)
#
#
# Indices 1 2 3 4 5 6 
#
# 1 0.017885 -0.002165 -0.007906 0.004622 -0.006815 -0.005125
# 2 -0.002165 0.006998 -0.002893 0.000991 -0.000911 -0.001388
# 3 -0.007906 -0.002893 0.020380 -0.000253 -0.000335 -0.001389
# 4 0.004622 0.000991 -0.000253 0.033929 -0.005061 -0.012807
# 5 -0.006815 -0.000911 -0.000335 -0.005061 0.026315 0.010911
# 6 -0.005125 -0.001388 -0.001389 -0.012807 0.010911 0.038522
#
#
# Mechanical properties :
#
#
# Convention : Reuss Voigt Hill
#
# Bulk Modulus (GPa) = 51.71544 71.82859 61.77201
# Shear Modulus (GPa) = 28.34458 37.10446 32.72452
#
# Velocity S-wave (km/s) = 3.67704 4.20704 3.95094
# Velocity P-wave (km/s) = 6.53424 7.60670 7.09078
#
# Compressibility (1/GPa) = 0.01933658
#
# Stress axis : x y z
#
# Youngs Moduli (GPa) = 55.91332 142.89516 49.06824
#
# Poissons Ratio (x) = 0.30935 0.38792
# Poissons Ratio (y) = 0.12104 0.14193
# Poissons Ratio (z) = 0.44203 0.41333
#
# Static dielectric constant tensor:
#      x y z
#    x 1.784580 -0.062820 0.023260 
#    y -0.062820 1.779760 -0.029520 
#    z 0.023260 -0.029520 1.838090 
# 
# From -- ./inp_files/397221.got.cif
#   From: 2010.05.17/outbox.cif.g08.bks.cpg/sg2_199_cif.got.tgz:397221.got - 2010.06.03 11:33:40.
