data_PCOD9091980
_publ_section_title
;
Structure prediction by ZEFSAII (Michael W. Deem and Ramdas Pophale) SiO2 
 PCOD9091980
Probable space group: P -1
;
_chemical_formula_sum "Si O2"
_cell_formula_units_Z 14
_cell_length_a 8.208540
_cell_length_b 9.327736
_cell_length_c 14.529808
_cell_angle_alpha 73.613228
_cell_angle_beta 128.757922
_cell_angle_gamma 70.953522
_cell_volume 616.137707
_symmetry_space_group_name_H-M "P -1"
_symmetry_group_IT_number 2
_symmetry_cell_setting 'triclinic'
loop_
_space_group_symop_operation_xyz
x,y,z
-x,-y,-z
loop_
_atom_site_type_symbol
_atom_site_label
_atom_site_fract_x
_atom_site_fract_y
_atom_site_fract_z
Si Si1 0.235692 0.329068 0.290931
Si Si2 0.454497 0.599188 0.184410
Si Si3 0.774949 0.085990 0.639613
Si Si4 0.803148 0.839842 0.858232
Si Si5 0.620159 0.030862 0.949923
Si Si6 0.764611 0.323338 0.188254
Si Si7 0.234334 0.665875 0.280852
O O1 0.550739 0.151833 0.470684
O O2 0.224983 0.300422 0.183403
O O3 0.156208 0.531679 0.261321
O O4 0.013197 0.321942 0.257093
O O5 0.661084 0.387968 0.243650
O O6 0.467681 0.587363 0.300898
O O7 0.509656 0.742035 0.145968
O O8 0.132746 0.709406 0.022852
O O9 0.713260 0.285794 0.610888
O O10 0.719962 0.007168 0.723613
O O11 0.091692 0.899908 0.751560
O O12 0.621392 0.944959 0.867593
O O13 0.953075 0.892479 0.111010
O O14 0.500000 0.000000 0.000000
O O15 0.500000 0.500000 0.000000
#
# Coordination Sequence:
#
# PCOD9091980 Si02
#       7
#     2   2   2   2   2   2   2
#     4  11  24  39  65  96 129 171 214 252 319 385
#     4  11  20  39  66  93 126 163 211 273 321 362
#     4  11  21  42  68  87 133 176 207 253 321 385
#     4  10  19  40  64  91 128 164 211 260 322 369
#     4  11  21  37  66  97 127 161 217 272 317 368
#     4  11  20  39  66  95 122 162 220 267 313 368
#     4  11  22  41  63  91 131 171 212 261 316 380
#
# _framework density 22.722192
#
# number of rings (size 3 to 8) (size 9 to 14) (size 15 to 20)
#    0.000    1.143    5.714    3.857    0.000    2.286 
#    5.143    1.429    6.286    0.000    0.000    0.000 
#    0.000    0.000    0.000    0.000    0.000    0.000 
#
# Total GULP energy -78226.494632 kJ/mol
# GULP energy per Si atom -5587.606759 kJ/mol
# Density = 2.267048 g / cm^3
# Si number density = 22.722192 Si / 1000 Ang^3
#
#
#
# Elastic Constant Matrix: (Units=GPa)
#
#
# Indices 1 2 3 4 5 6 
#
# 1 96.5617 59.6458 12.6442 8.2151 -15.8074 -28.4276
# 2 59.6458 195.5941 34.0181 14.9465 -0.4208 -21.9890
# 3 12.6442 34.0181 76.8106 11.9888 2.5775 -9.7374
# 4 8.2151 14.9465 11.9888 40.9170 -3.1569 -2.3674
# 5 -15.8074 -0.4208 2.5775 -3.1569 22.8030 0.9739
# 6 -28.4276 -21.9890 -9.7374 -2.3674 0.9739 49.8003
#
#
#
# Elastic Compliance Matrix: (Units=1/GPa)
#
#
# Indices 1 2 3 4 5 6 
#
# 1 0.017202 -0.004278 -0.000280 -0.000481 0.011485 0.007628
# 2 -0.004278 0.006882 -0.002028 -0.001265 -0.002793 0.000195
# 3 -0.000280 -0.002028 0.014833 -0.003641 -0.002486 0.001720
# 4 -0.000481 -0.001265 -0.003641 0.026331 0.003715 -0.000366
# 5 0.011485 -0.002793 -0.002486 0.003715 0.052389 0.003989
# 6 0.007628 0.000195 0.001720 -0.000366 0.003989 0.024762
#
#
# Mechanical properties :
#
#
# Convention : Reuss Voigt Hill
#
# Bulk Modulus (GPa) = 38.84203 64.62028 51.73115
# Shear Modulus (GPa) = 30.45929 40.21462 35.33696
#
# Velocity S-wave (km/s) = 3.66527 4.21151 3.94785
# Velocity P-wave (km/s) = 5.91977 7.22150 6.60279
#
# Compressibility (1/GPa) = 0.02574531
#
# Stress axis : x y z
#
# Youngs Moduli (GPa) = 58.13258 145.29716 67.41627
#
# Poissons Ratio (x) = 0.62156 0.01890
# Poissons Ratio (y) = 0.24868 0.13672
# Poissons Ratio (z) = 0.01630 0.29467
#
# Static dielectric constant tensor:
#      x y z
#    x 1.838080 0.019510 -0.044540 
#    y 0.019510 1.959090 0.016290 
#    z -0.044540 0.016290 1.883350 
# 
# From -- ./inp_files/494956.got.cif
#   From: 2010.05.17/outbox.cif.g08.bks.cpg/sg2_248_cif.got.tgz:494956.got - 2010.06.03 11:33:40.
