data_PCOD9091267
_publ_section_title
;
Structure prediction by ZEFSAII (Michael W. Deem and Ramdas Pophale) SiO2 
 PCOD9091267
Probable space group: P -1
;
_chemical_formula_sum "Si O2"
_cell_formula_units_Z 14
_cell_length_a 6.849926
_cell_length_b 15.183938
_cell_length_c 7.630540
_cell_angle_alpha 115.168654
_cell_angle_beta 70.485607
_cell_angle_gamma 128.699512
_cell_volume 557.968515
_symmetry_space_group_name_H-M "P -1"
_symmetry_group_IT_number 2
_symmetry_cell_setting 'triclinic'
loop_
_space_group_symop_operation_xyz
x,y,z
-x,-y,-z
loop_
_atom_site_type_symbol
_atom_site_label
_atom_site_fract_x
_atom_site_fract_y
_atom_site_fract_z
Si Si1 0.303349 0.412461 0.125096
Si Si2 0.614044 0.765705 0.200297
Si Si3 0.144287 0.936562 0.163570
Si Si4 0.153292 0.618245 0.672971
Si Si5 0.671610 0.126633 0.279785
Si Si6 0.414794 0.372747 0.555212
Si Si7 0.841469 0.214052 0.660107
O O1 0.416202 0.487921 0.332094
O O2 0.046968 0.400143 0.139467
O O3 0.500000 0.500000 0.000000
O O4 0.303740 0.297283 0.012871
O O5 0.572867 0.699217 0.341361
O O6 0.358235 0.752957 0.225554
O O7 0.861064 0.900165 0.236793
O O8 0.143435 0.842877 0.214270
O O9 0.377008 0.061186 0.269416
O O10 0.219965 0.921390 0.933171
O O11 0.198493 0.734398 0.667632
O O12 0.423971 0.644373 0.650244
O O13 0.000000 0.500000 0.500000
O O14 0.730006 0.118286 0.455391
O O15 0.120414 0.317826 0.598745
#
# Coordination Sequence:
#
# PCOD9091267 Si02
#       7
#     2   2   2   2   2   2   2
#     4   9  18  35  65  91 131 175 211 271 333 385
#     4  10  19  39  64  94 136 169 217 272 324 386
#     4  10  24  44  66  97 133 179 219 269 327 384
#     4  10  19  39  68  93 130 174 216 274 330 384
#     4  11  22  45  67  94 138 171 222 274 322 390
#     4   9  20  38  61  95 131 172 217 268 327 386
#     4  11  23  42  66 100 132 173 224 263 329 396
#
# _framework density 25.091023
#
# number of rings (size 3 to 8) (size 9 to 14) (size 15 to 20)
#    0.000    2.000    2.857    0.429    0.000    1.143 
#    5.143    5.714    0.000    0.000    0.000    0.000 
#    0.000    0.000    0.000    0.000    0.000    0.000 
#
# Total GULP energy -78183.159775 kJ/mol
# GULP energy per Si atom -5584.511413 kJ/mol
# Density = 2.503391 g / cm^3
# Si number density = 25.091023 Si / 1000 Ang^3
#
#
#
# Elastic Constant Matrix: (Units=GPa)
#
#
# Indices 1 2 3 4 5 6 
#
# 1 133.6940 24.1341 36.3820 -15.3824 -32.3226 39.4183
# 2 24.1341 105.0480 1.4825 2.0433 -16.7245 35.4485
# 3 36.3820 1.4825 100.7734 -1.5616 -12.2480 18.2727
# 4 -15.3824 2.0433 -1.5616 31.6632 16.3103 -8.3162
# 5 -32.3226 -16.7245 -12.2480 16.3103 39.8860 -15.3360
# 6 39.4183 35.4485 18.2727 -8.3162 -15.3360 45.4335
#
#
#
# Elastic Compliance Matrix: (Units=1/GPa)
#
#
# Indices 1 2 3 4 5 6 
#
# 1 0.011729 0.001009 -0.002048 0.000283 0.006096 -0.008030
# 2 0.001009 0.014405 0.002220 -0.006349 0.005387 -0.012352
# 3 -0.002048 0.002220 0.011667 -0.002934 0.002368 -0.004385
# 4 0.000283 -0.006349 -0.002934 0.043327 -0.018085 0.007714
# 5 0.006096 0.005387 0.002368 -0.018085 0.040340 -0.000138
# 6 -0.008030 -0.012352 -0.004385 0.007714 -0.000138 0.041744
#
#
# Mechanical properties :
#
#
# Convention : Reuss Voigt Hill
#
# Bulk Modulus (GPa) = 24.89822 51.50138 38.19980
# Shear Modulus (GPa) = 28.69640 41.89766 35.29703
#
# Velocity S-wave (km/s) = 3.38552 4.09078 3.75475
# Velocity P-wave (km/s) = 5.02265 6.54852 5.83567
#
# Compressibility (1/GPa) = 0.04016351
#
# Stress axis : x y z
#
# Youngs Moduli (GPa) = 85.26001 69.41822 85.70856
#
# Poissons Ratio (x) = -0.07005 0.17553
# Poissons Ratio (y) = -0.08603 -0.19025
# Poissons Ratio (z) = 0.17461 -0.15409
#
# Static dielectric constant tensor:
#      x y z
#    x 2.000680 0.020490 0.029170 
#    y 0.020490 2.031720 -0.010720 
#    z 0.029170 -0.010720 2.138000 
# 
# From -- ./inp_files/139350.got.cif
#   From: 2010.05.17/outbox.cif.g08.bks.cpg/sg2_70_cif.got.tgz:139350.got - 2010.06.03 11:33:40.
