data_PCOD9091574
_publ_section_title
;
Structure prediction by ZEFSAII (Michael W. Deem and Ramdas Pophale) SiO2 
 PCOD9091574
Probable space group: P -1
;
_chemical_formula_sum "Si O2"
_cell_formula_units_Z 14
_cell_length_a 16.038708
_cell_length_b 20.271991
_cell_length_c 7.184687
_cell_angle_alpha 130.528331
_cell_angle_beta 51.421811
_cell_angle_gamma 162.152558
_cell_volume 544.053480
_symmetry_space_group_name_H-M "P -1"
_symmetry_group_IT_number 2
_symmetry_cell_setting 'triclinic'
loop_
_space_group_symop_operation_xyz
x,y,z
-x,-y,-z
loop_
_atom_site_type_symbol
_atom_site_label
_atom_site_fract_x
_atom_site_fract_y
_atom_site_fract_z
Si Si1 0.301455 0.028363 0.712965
Si Si2 0.119379 0.263277 0.529295
Si Si3 0.565491 0.680148 0.413635
Si Si4 0.908271 0.962597 0.804517
Si Si5 0.865452 0.167186 0.023700
Si Si6 0.097620 0.512373 0.171158
Si Si7 0.313811 0.662331 0.739236
O O1 0.620700 0.250733 0.687575
O O2 0.245999 0.088656 0.939541
O O3 0.145319 0.895307 0.496495
O O4 0.154432 0.868794 0.795865
O O5 0.367299 0.477942 0.449014
O O6 0.122348 0.161719 0.341085
O O7 0.096321 0.284351 0.807335
O O8 0.772292 0.879135 0.640521
O O9 0.415038 0.649722 0.478981
O O10 0.767785 0.778681 0.181322
O O11 0.568436 0.914844 0.899079
O O12 0.935322 0.317737 0.151105
O O13 0.909813 0.453098 0.274805
O O14 0.188368 0.543315 0.897981
#
# Coordination Sequence:
#
# PCOD9091574 Si02
#       7
#     2   2   2   2   2   2   2
#     4  11  25  42  60  99 128 160 214 256 305 381
#     4  12  24  39  67  93 126 169 207 254 318 366
#     4  11  21  39  66  95 122 165 212 256 308 377
#     4  11  21  41  61  88 132 162 208 264 304 367
#     4  11  20  42  66  92 126 165 207 254 314 368
#     4  10  21  39  68  90 129 165 203 262 312 367
#     4  10  19  39  67  96 120 164 215 250 311 378
#
# _framework density 25.732764
#
# number of rings (size 3 to 8) (size 9 to 14) (size 15 to 20)
#    0.000    1.143    5.714    2.143    0.000    2.857 
#    0.000    1.429    0.000    0.000    0.000    0.000 
#    0.000    0.000    0.000    0.000    0.000    0.000 
#
# Total GULP energy -78484.068465 kJ/mol
# GULP energy per Si atom -5606.004890 kJ/mol
# Density = 2.567420 g / cm^3
# Si number density = 25.732764 Si / 1000 Ang^3
#
#
#
# Elastic Constant Matrix: (Units=GPa)
#
#
# Indices 1 2 3 4 5 6 
#
# 1 145.2905 67.6218 19.6277 -4.7606 -12.5719 -0.2495
# 2 67.6218 137.1984 16.7706 -1.4340 -14.2793 -18.0835
# 3 19.6277 16.7706 47.9587 -19.8127 7.4783 -3.7441
# 4 -4.7606 -1.4340 -19.8127 27.3180 1.8866 -0.8721
# 5 -12.5719 -14.2793 7.4783 1.8866 26.4916 -5.5298
# 6 -0.2495 -18.0835 -3.7441 -0.8721 -5.5298 52.9866
#
#
#
# Elastic Compliance Matrix: (Units=1/GPa)
#
#
# Indices 1 2 3 4 5 6 
#
# 1 0.009508 -0.004095 -0.003666 -0.001478 0.003172 -0.001305
# 2 -0.004095 0.010979 -0.004300 -0.003561 0.006281 0.004021
# 3 -0.003666 -0.004300 0.037956 0.027819 -0.016773 -0.000095
# 4 -0.001478 -0.003561 0.027819 0.057346 -0.014522 0.000172
# 5 0.003172 0.006281 -0.016773 -0.014522 0.049643 0.005915
# 6 -0.001305 0.004021 -0.000095 0.000172 0.005915 0.020852
#
#
# Mechanical properties :
#
#
# Convention : Reuss Voigt Hill
#
# Bulk Modulus (GPa) = 29.13781 59.83199 44.48490
# Shear Modulus (GPa) = 22.53803 36.45440 29.49622
#
# Velocity S-wave (km/s) = 2.96269 3.76793 3.38931
# Velocity P-wave (km/s) = 4.80116 6.49858 5.71326
#
# Compressibility (1/GPa) = 0.03431967
#
# Stress axis : x y z
#
# Youngs Moduli (GPa) = 105.17460 91.07989 26.34640
#
# Poissons Ratio (x) = 0.37301 0.09659
# Poissons Ratio (y) = 0.43074 0.11329
# Poissons Ratio (z) = 0.38559 0.39165
#
# Static dielectric constant tensor:
#      x y z
#    x 1.998610 0.012360 0.032700 
#    y 0.012360 2.054970 -0.026770 
#    z 0.032700 -0.026770 2.030770 
# 
# From -- ./inp_files/188907.got.cif
#   From: 2010.05.17/outbox.cif.g08.bks.cpg/sg2_95_cif.got.tgz:188907.got - 2010.06.03 11:33:40.
