data_PCOD9091374
_publ_section_title
;
Structure prediction by ZEFSAII (Michael W. Deem and Ramdas Pophale) SiO2 
 PCOD9091374
Probable space group: P -1
;
_chemical_formula_sum "Si O2"
_cell_formula_units_Z 16
_cell_length_a 13.024568
_cell_length_b 16.787733
_cell_length_c 9.845821
_cell_angle_alpha 145.443690
_cell_angle_beta 37.992073
_cell_angle_gamma 143.425097
_cell_volume 674.564752
_symmetry_space_group_name_H-M "P -1"
_symmetry_group_IT_number 2
_symmetry_cell_setting 'triclinic'
loop_
_space_group_symop_operation_xyz
x,y,z
-x,-y,-z
loop_
_atom_site_type_symbol
_atom_site_label
_atom_site_fract_x
_atom_site_fract_y
_atom_site_fract_z
Si Si1 0.599558 0.705056 0.815726
Si Si2 0.628067 0.407220 0.440301
Si Si3 0.449843 0.172337 0.676273
Si Si4 0.078090 0.985095 0.120463
Si Si5 0.741882 0.729158 0.226915
Si Si6 0.802895 0.369805 0.970880
Si Si7 0.850578 0.135982 0.402335
Si Si8 0.785697 0.450840 0.640918
O O1 0.671294 0.571948 0.552402
O O2 0.727345 0.869251 0.838055
O O3 0.614699 0.762536 0.035880
O O4 0.381538 0.626418 0.896321
O O5 0.404226 0.319598 0.566591
O O6 0.720457 0.448908 0.551108
O O7 0.707520 0.306497 0.129769
O O8 0.355959 0.209184 0.696514
O O9 0.666070 0.276462 0.577598
O O10 0.364175 0.988069 0.523572
O O11 0.969007 0.072630 0.283447
O O12 0.951978 0.867036 0.203062
O O13 0.096485 0.879451 0.829225
O O14 0.740273 0.571750 0.946607
O O15 0.865931 0.289847 0.673114
O O16 0.000000 0.500000 0.000000
O O17 0.000000 0.500000 0.500000
#
# Coordination Sequence:
#
# PCOD9091374 Si02
#       8
#     2   2   2   2   2   2   2   2
#     4  11  21  41  66  92 127 173 215 258 322 374
#     4  11  23  43  62  91 132 178 211 250 327 394
#     4   9  18  38  64  90 122 166 211 269 317 369
#     4   9  20  38  70  93 123 166 212 272 322 370
#     4  10  19  39  65  94 127 162 216 263 320 381
#     4  12  28  39  60  95 138 172 213 263 312 389
#     4   9  20  39  62  93 128 161 213 268 320 367
#     4  11  22  35  65  99 128 158 216 276 316 366
#
# _framework density 23.718997999999999
#
# number of rings (size 3 to 8) (size 9 to 14) (size 15 to 20)
#    0.000    1.750    2.500    2.625    3.500    3.000 
#    0.000    6.250    0.000    1.500    0.000    0.000 
#    0.000    0.000    0.000    0.000    0.000    0.000 
#
# Total GULP energy -89278.065972 kJ/mol
# GULP energy per Si atom -5579.879123 kJ/mol
# Density = 2.366501 g / cm^3
# Si number density = 23.718998 Si / 1000 Ang^3
#
#
#
# Elastic Constant Matrix: (Units=GPa)
#
#
# Indices 1 2 3 4 5 6 
#
# 1 39.4529 29.4047 26.8219 8.2555 -2.6085 23.6664
# 2 29.4047 156.6900 29.4711 -25.9980 5.4776 17.8025
# 3 26.8219 29.4711 83.1583 -18.2955 11.8716 11.8761
# 4 8.2555 -25.9980 -18.2955 33.6818 7.2058 2.2598
# 5 -2.6085 5.4776 11.8716 7.2058 33.6937 -6.8823
# 6 23.6664 17.8025 11.8761 2.2598 -6.8823 22.0561
#
#
#
# Elastic Compliance Matrix: (Units=1/GPa)
#
#
# Indices 1 2 3 4 5 6 
#
# 1 0.168432 -0.024440 -0.053413 -0.088310 0.031567 -0.113344
# 2 -0.024440 0.012859 0.009252 0.022984 -0.011129 0.005036
# 3 -0.053413 0.009252 0.036544 0.044056 -0.024242 0.018089
# 4 -0.088310 0.022984 0.044056 0.099914 -0.041478 0.029304
# 5 0.031567 -0.011129 -0.024242 -0.041478 0.053185 0.009010
# 6 -0.113344 0.005036 0.018089 0.029304 0.009010 0.152963
#
#
# Mechanical properties :
#
#
# Convention : Reuss Voigt Hill
#
# Bulk Modulus (GPa) = 12.40184 50.07742 31.23963
# Shear Modulus (GPa) = 7.26769 30.79320 19.03045
#
# Velocity S-wave (km/s) = 1.75235 3.60703 2.83561
# Velocity P-wave (km/s) = 3.05521 6.20534 4.89083
#
# Compressibility (1/GPa) = 0.08063318
#
# Stress axis : x y z
#
# Youngs Moduli (GPa) = 5.93712 77.76804 27.36398
#
# Poissons Ratio (x) = 1.90067 1.46159
# Poissons Ratio (y) = 0.14510 -0.25318
# Poissons Ratio (z) = 0.31712 -0.71952
#
# Static dielectric constant tensor:
#      x y z
#    x 1.942460 0.006370 0.006480 
#    y 0.006370 2.018760 -0.028470 
#    z 0.006480 -0.028470 1.922460 
# 
# From -- ./inp_files/457529.got.cif
#   From: 2010.05.17/outbox.cif.g08.bks.cpg/sg2_229_cif.got.tgz:457529.got - 2010.06.03 11:33:40.
