data_PCOD9091202
_publ_section_title
;
Structure prediction by ZEFSAII (Michael W. Deem and Ramdas Pophale) SiO2 
 PCOD9091202
Probable space group: P -1
;
_chemical_formula_sum "Si O2"
_cell_formula_units_Z 16
_cell_length_a 9.058640
_cell_length_b 9.580045
_cell_length_c 18.407696
_cell_angle_alpha 34.784279
_cell_angle_beta 102.092101
_cell_angle_gamma 110.559866
_cell_volume 843.914192
_symmetry_space_group_name_H-M "P -1"
_symmetry_group_IT_number 2
_symmetry_cell_setting 'triclinic'
loop_
_space_group_symop_operation_xyz
x,y,z
-x,-y,-z
loop_
_atom_site_type_symbol
_atom_site_label
_atom_site_fract_x
_atom_site_fract_y
_atom_site_fract_z
Si Si1 0.935494 0.465412 0.426520
Si Si2 0.399664 0.676637 0.705722
Si Si3 0.983251 0.768232 0.039475
Si Si4 0.880091 0.525734 0.709586
Si Si5 0.450435 0.928344 0.108980
Si Si6 0.378094 0.417421 0.956985
Si Si7 0.243412 0.180012 0.806623
Si Si8 0.263166 0.042907 0.449146
O O1 0.846186 0.677388 0.315394
O O2 0.000000 0.500000 0.500000
O O3 0.054017 0.497724 0.354684
O O4 0.817491 0.174077 0.526421
O O5 0.301315 0.392473 0.786636
O O6 0.570580 0.767241 0.645421
O O7 0.309560 0.877130 0.588506
O O8 0.419558 0.648731 0.804392
O O9 0.009532 0.540664 0.188478
O O10 0.815284 0.676560 0.018859
O O11 0.000000 0.000000 0.000000
O O12 0.126296 0.907956 0.939626
O O13 0.710067 0.307811 0.797353
O O14 0.848541 0.795043 0.605859
O O15 0.597601 0.862547 0.188490
O O16 0.417901 0.174825 0.032138
O O17 0.500000 0.000000 0.000000
O O18 0.500000 0.500000 0.000000
#
# Coordination Sequence:
#
# PCOD9091202 Si02
#       8
#     2   2   2   2   2   2   2   2
#     4  11  25  42  58  87 133 173 205 261 324 372
#     4  10  19  39  64  88 125 162 211 261 310 367
#     4  12  19  39  70  93 119 166 212 260 314 382
#     4  12  21  39  71  94 118 162 227 260 306 379
#     4  12  20  39  70  97 119 161 218 265 311 385
#     4  12  25  40  60  97 132 162 202 266 330 369
#     4  11  20  39  67  93 117 162 219 257 310 378
#     4  10  22  38  65  90 117 166 221 264 294 369
#
# _framework density 18.959273
#
# number of rings (size 3 to 8) (size 9 to 14) (size 15 to 20)
#    0.000    0.750    7.500    1.125    0.000    2.000 
#    4.500    1.250    0.000    0.000    0.000    0.000 
#    0.000    0.000    0.000    0.000    0.000    0.000 
#
# Total GULP energy -89291.207509 kJ/mol
# GULP energy per Si atom -5580.700469 kJ/mol
# Density = 1.891612 g / cm^3
# Si number density = 18.959273 Si / 1000 Ang^3
#
#
#
# Elastic Constant Matrix: (Units=GPa)
#
#
# Indices 1 2 3 4 5 6 
#
# 1 131.7024 45.0731 58.2451 0.1368 15.7446 17.2248
# 2 45.0731 77.5426 61.8157 11.7610 10.1197 21.8776
# 3 58.2451 61.8157 105.7103 8.6933 13.9597 16.4102
# 4 0.1368 11.7610 8.6933 30.3680 8.8062 12.8885
# 5 15.7446 10.1197 13.9597 8.8062 42.5357 -8.9641
# 6 17.2248 21.8776 16.4102 12.8885 -8.9641 27.2035
#
#
#
# Elastic Compliance Matrix: (Units=1/GPa)
#
#
# Indices 1 2 3 4 5 6 
#
# 1 0.011842 -0.001170 -0.004102 0.007575 -0.006387 -0.009776
# 2 -0.001170 0.029932 -0.013286 0.001952 -0.006614 -0.018421
# 3 -0.004102 -0.013286 0.019495 -0.000635 -0.001293 0.001396
# 4 0.007575 0.001952 -0.000635 0.056083 -0.023139 -0.040180
# 5 -0.006387 -0.006614 -0.001293 -0.023139 0.039880 0.034247
# 6 -0.009776 -0.018421 0.001396 -0.040180 0.034247 0.087243
#
#
# Mechanical properties :
#
#
# Convention : Reuss Voigt Hill
#
# Bulk Modulus (GPa) = 41.40403 71.69143 56.54773
# Shear Modulus (GPa) = 17.26266 30.00954 23.63610
#
# Velocity S-wave (km/s) = 3.02074 3.98281 3.53466
# Velocity P-wave (km/s) = 5.83544 7.68413 6.82269
#
# Compressibility (1/GPa) = 0.02415224
#
# Stress axis : x y z
#
# Youngs Moduli (GPa) = 84.44610 33.40935 51.29419
#
# Poissons Ratio (x) = 0.03910 0.21043
# Poissons Ratio (y) = 0.09882 0.68148
# Poissons Ratio (z) = 0.34642 0.44387
#
# Static dielectric constant tensor:
#      x y z
#    x 1.710470 0.027070 0.002580 
#    y 0.027070 1.672360 -0.019860 
#    z 0.002580 -0.019860 1.707130 
# 
# From -- ./inp_files/177563.got.cif
#   From: 2010.05.17/outbox.cif.g08.bks.cpg/sg2_89_cif.got.tgz:177563.got - 2010.06.03 11:33:40.
