data_PCOD9091360
_publ_section_title
;
Structure prediction by ZEFSAII (Michael W. Deem and Ramdas Pophale) SiO2 
 PCOD9091360
Probable space group: P -1
;
_chemical_formula_sum "Si O2"
_cell_formula_units_Z 16
_cell_length_a 21.451987
_cell_length_b 11.208590
_cell_length_c 14.785403
_cell_angle_alpha 42.877505
_cell_angle_beta 23.255914
_cell_angle_gamma 31.086198
_cell_volume 698.875880
_symmetry_space_group_name_H-M "P -1"
_symmetry_group_IT_number 2
_symmetry_cell_setting 'triclinic'
loop_
_space_group_symop_operation_xyz
x,y,z
-x,-y,-z
loop_
_atom_site_type_symbol
_atom_site_label
_atom_site_fract_x
_atom_site_fract_y
_atom_site_fract_z
Si Si1 0.923534 0.067502 0.702077
Si Si2 0.380549 0.317013 0.038041
Si Si3 0.616100 0.567666 0.364850
Si Si4 0.621414 0.169585 0.279236
Si Si5 0.983426 0.182349 0.748780
Si Si6 0.337370 0.621291 0.286920
Si Si7 0.453073 0.880033 0.261982
Si Si8 0.074357 0.253475 0.002578
O O1 0.984382 0.144710 0.661326
O O2 0.755475 0.296382 0.735542
O O3 0.136436 0.848585 0.486051
O O4 0.843566 0.943009 0.920217
O O5 0.129983 0.547012 0.230094
O O6 0.430349 0.091008 0.136781
O O7 0.472149 0.384105 0.950386
O O8 0.495723 0.265809 0.816635
O O9 0.500000 0.500000 0.500000
O O10 0.486948 0.734845 0.531479
O O11 0.638136 0.705808 0.184906
O O12 0.852482 0.338046 0.212410
O O13 0.440532 0.372655 0.335084
O O14 0.740336 0.903651 0.233418
O O15 0.819652 0.162170 0.019334
O O16 0.233407 0.996958 0.541920
O O17 0.000000 0.500000 0.000000
#
# Coordination Sequence:
#
# PCOD9091360 Si02
#       8
#     2   2   2   2   2   2   2   2
#     4  10  20  38  66  90 123 161 212 259 310 377
#     4  10  22  38  62  89 128 159 206 258 327 369
#     4  12  24  43  67  94 130 174 222 263 315 390
#     4  10  23  41  68  94 125 174 220 262 321 384
#     4  10  20  38  63  91 120 162 208 263 310 377
#     4  10  19  39  65  93 116 165 211 260 309 381
#     4  11  23  39  59  91 128 162 204 265 318 373
#     4  11  26  44  64  96 139 169 212 272 324 383
#
# _framework density 22.893906999999999
#
# number of rings (size 3 to 8) (size 9 to 14) (size 15 to 20)
#    0.000    1.500    2.500    3.375    1.750    8.000 
#    0.000    1.250    0.000    0.000    0.000    0.000 
#    0.000    0.000    0.000    0.000    0.000    0.000 
#
# Total GULP energy -89306.155373 kJ/mol
# GULP energy per Si atom -5581.634711 kJ/mol
# Density = 2.284180 g / cm^3
# Si number density = 22.893907 Si / 1000 Ang^3
#
#
#
# Elastic Constant Matrix: (Units=GPa)
#
#
# Indices 1 2 3 4 5 6 
#
# 1 87.3153 50.4604 18.1723 15.4548 13.9570 -10.9284
# 2 50.4604 108.7701 18.7681 15.8820 18.6688 -6.1537
# 3 18.1723 18.7681 78.5671 26.9509 17.5427 -5.8421
# 4 15.4548 15.8820 26.9509 33.4163 8.0103 6.7870
# 5 13.9570 18.6688 17.5427 8.0103 29.1977 1.4614
# 6 -10.9284 -6.1537 -5.8421 6.7870 1.4614 35.6391
#
#
#
# Elastic Compliance Matrix: (Units=1/GPa)
#
#
# Indices 1 2 3 4 5 6 
#
# 1 0.017254 -0.006400 0.000672 -0.005829 -0.003237 0.005539
# 2 -0.006400 0.013436 0.000462 -0.002816 -0.005095 0.001178
# 3 0.000672 0.000462 0.020633 -0.016509 -0.008844 0.007175
# 4 -0.005829 -0.002816 -0.016509 0.049855 0.001556 -0.014538
# 5 -0.003237 -0.005095 -0.008844 0.001556 0.044213 -0.005432
# 6 0.005539 0.001178 0.007175 -0.014538 -0.005432 0.034128
#
#
# Mechanical properties :
#
#
# Convention : Reuss Voigt Hill
#
# Bulk Modulus (GPa) = 24.51487 49.93935 37.22711
# Shear Modulus (GPa) = 24.55218 32.13405 28.34311
#
# Velocity S-wave (km/s) = 3.27835 3.75054 3.52237
# Velocity P-wave (km/s) = 5.00614 6.37308 5.73051
#
# Compressibility (1/GPa) = 0.04079157
#
# Stress axis : x y z
#
# Youngs Moduli (GPa) = 57.95711 74.42922 48.46515
#
# Poissons Ratio (x) = 0.47638 -0.03259
# Poissons Ratio (y) = 0.37095 -0.02240
# Poissons Ratio (z) = -0.03897 -0.03440
#
# Static dielectric constant tensor:
#      x y z
#    x 1.843400 0.011630 -0.009500 
#    y 0.011630 1.956600 0.014290 
#    z -0.009500 0.014290 1.918810 
# 
# From -- ./inp_files/540958.got.cif
#   From: 2010.05.17/outbox.cif.g08.bks.cpg/sg2_271_cif.got.tgz:540958.got - 2010.06.03 11:33:40.
