data_PCOD9091807
_publ_section_title
;
Structure prediction by ZEFSAII (Michael W. Deem and Ramdas Pophale) SiO2 
 PCOD9091807
Probable space group: P -1
;
_chemical_formula_sum "Si O2"
_cell_formula_units_Z 11
_cell_length_a 18.869912
_cell_length_b 5.003733
_cell_length_c 15.096325
_cell_angle_alpha 76.345499
_cell_angle_beta 18.903735
_cell_angle_gamma 81.483528
_cell_volume 435.742231
_symmetry_space_group_name_H-M "P -1"
_symmetry_group_IT_number 2
_symmetry_cell_setting 'triclinic'
loop_
_space_group_symop_operation_xyz
x,y,z
-x,-y,-z
loop_
_atom_site_type_symbol
_atom_site_label
_atom_site_fract_x
_atom_site_fract_y
_atom_site_fract_z
Si Si1 0.416268 0.758857 0.487079
Si Si2 0.337294 0.096654 0.383207
Si Si3 0.037292 0.757749 0.634589
Si Si4 0.278714 0.679670 0.843300
Si Si5 0.500000 0.000000 0.000000
Si Si6 0.374097 0.286653 0.004658
O O1 0.243119 0.687590 0.779054
O O2 0.525912 0.494640 0.360514
O O3 0.329699 0.892173 0.492775
O O4 0.619207 0.007430 0.265901
O O5 0.456894 0.416319 0.240471
O O6 0.110280 0.002579 0.603699
O O7 0.511918 0.989627 0.116944
O O8 0.258559 0.747453 0.319911
O O9 0.935667 0.485075 0.837025
O O10 0.837197 0.773582 0.803800
O O11 0.337784 0.236026 0.154422
#
# Coordination Sequence:
#
# PCOD9091807 Si02
#       6
#     2   2   2   2   1   2
#     4  10  19  40  61 100 125 169 211 262 308 403
#     4  11  23  40  69  97 132 165 223 254 327 390
#     4  11  23  43  68  97 129 177 211 273 321 382
#     4  10  21  36  69  89 132 170 210 256 331 363
#     4  10  26  44  68  96 130 166 232 258 328 386
#     4  11  24  45  65  95 130 174 208 280 315 383
#
# _framework density 25.244285000000001
#
# number of rings (size 3 to 8) (size 9 to 14) (size 15 to 20)
#    0.000    1.455    3.636    0.545    0.000    9.455 
#    0.000    5.455    0.000   12.000    0.000    0.000 
#    0.000    0.000    0.000    0.000    0.000    0.000 
#
# Total GULP energy -61296.434122 kJ/mol
# GULP energy per Si atom -5572.403102 kJ/mol
# Density = 2.518683 g / cm^3
# Si number density = 25.244285 Si / 1000 Ang^3
#
#
#
# Elastic Constant Matrix: (Units=GPa)
#
#
# Indices 1 2 3 4 5 6 
#
# 1 192.8413 58.4820 65.8547 -16.4040 -7.9920 -37.5405
# 2 58.4820 82.0248 37.4047 -6.9272 -2.2134 -0.1784
# 3 65.8547 37.4047 139.0465 -16.0440 -0.0117 -13.0245
# 4 -16.4040 -6.9272 -16.0440 19.8488 -3.1788 9.4805
# 5 -7.9920 -2.2134 -0.0117 -3.1788 59.3975 -8.0171
# 6 -37.5405 -0.1784 -13.0245 9.4805 -8.0171 37.4750
#
#
#
# Elastic Compliance Matrix: (Units=1/GPa)
#
#
# Indices 1 2 3 4 5 6 
#
# 1 0.009569 -0.005774 -0.002092 0.000136 0.002334 0.009296
# 2 -0.005774 0.017585 -0.002364 0.002858 -0.000975 -0.007454
# 3 -0.002092 -0.002364 0.009392 0.005093 -0.000116 -0.000156
# 4 0.000136 0.002858 0.005093 0.062315 0.001639 -0.013494
# 5 0.002334 -0.000975 -0.000116 0.001639 0.017974 0.005723
# 6 0.009296 -0.007454 -0.000156 -0.013494 0.005723 0.040545
#
#
# Mechanical properties :
#
#
# Convention : Reuss Voigt Hill
#
# Bulk Modulus (GPa) = 62.16948 81.93282 72.05115
# Shear Modulus (GPa) = 27.29220 40.15567 33.72394
#
# Velocity S-wave (km/s) = 3.29161 3.99266 3.65897
# Velocity P-wave (km/s) = 6.25515 7.33359 6.81574
#
# Compressibility (1/GPa) = 0.01608506
#
# Stress axis : x y z
#
# Youngs Moduli (GPa) = 104.50403 56.86645 106.47525
#
# Poissons Ratio (x) = 0.32833 0.22277
# Poissons Ratio (y) = 0.60338 0.25176
# Poissons Ratio (z) = 0.21865 0.13446
#
# Static dielectric constant tensor:
#      x y z
#    x 2.485000 0.049770 0.167730 
#    y 0.049770 2.052770 0.025080 
#    z 0.167730 0.025080 2.069430 
# 
# From -- ./inp_files/483230.got.cif
#   From: 2010.05.17/outbox.cif.g08.bks.cpg/sg2_242_cif.got.tgz:483230.got - 2010.06.03 11:33:40.
