data_PCOD9091569
_publ_section_title
;
Structure prediction by ZEFSAII (Michael W. Deem and Ramdas Pophale) SiO2 
 PCOD9091569
Probable space group: P -1
;
_chemical_formula_sum "Si O2"
_cell_formula_units_Z 16
_cell_length_a 13.857017
_cell_length_b 17.809449
_cell_length_c 25.818679
_cell_angle_alpha 20.449666
_cell_angle_beta 158.782817
_cell_angle_gamma 158.112301
_cell_volume 727.132598
_symmetry_space_group_name_H-M "P -1"
_symmetry_group_IT_number 2
_symmetry_cell_setting 'triclinic'
loop_
_space_group_symop_operation_xyz
x,y,z
-x,-y,-z
loop_
_atom_site_type_symbol
_atom_site_label
_atom_site_fract_x
_atom_site_fract_y
_atom_site_fract_z
Si Si1 0.365917 0.487924 0.801164
Si Si2 0.651152 0.204638 0.617700
Si Si3 0.392345 0.890753 0.864958
Si Si4 0.340232 0.566108 0.626795
Si Si5 0.231474 0.562360 0.311084
Si Si6 0.605889 0.326580 0.194401
Si Si7 0.398462 0.765786 0.066158
Si Si8 0.178325 0.365448 0.301318
O O1 0.467285 0.631946 0.704895
O O2 0.464560 0.655619 0.791969
O O3 0.004616 0.347086 0.709734
O O4 0.498830 0.294291 0.987121
O O5 0.536864 0.234780 0.483582
O O6 0.466515 0.316010 0.485490
O O7 0.548861 0.925314 0.749236
O O8 0.102762 0.871238 0.702744
O O9 0.647972 0.153510 0.816126
O O10 0.303910 0.823109 0.925233
O O11 0.365186 0.330141 0.772071
O O12 0.000000 0.500000 0.500000
O O13 0.500000 0.500000 0.500000
O O14 0.120611 0.465517 0.260873
O O15 0.958485 0.435137 0.294906
O O16 0.500000 0.500000 0.000000
O O17 0.209092 0.551764 0.149515
O O18 0.500000 0.000000 0.000000
#
# Coordination Sequence:
#
# PCOD9091569 Si02
#       8
#     2   2   2   2   2   2   2   2
#     4  10  22  42  65  88 125 162 203 258 314 364
#     4  10  22  42  65  89 126 160 205 259 311 371
#     4  11  23  41  65  94 125 160 205 261 315 366
#     4   8  18  38  63  94 120 158 202 248 323 374
#     4  12  26  41  61  90 125 169 213 250 309 366
#     4  12  26  41  61  92 121 167 221 248 298 370
#     4  10  19  39  67  95 125 160 202 260 320 381
#     4  11  23  41  65  95 126 159 206 261 314 371
#
# _framework density 22.004239999999999
#
# number of rings (size 3 to 8) (size 9 to 14) (size 15 to 20)
#    0.000    1.500    1.250    3.375    0.000    6.500 
#    4.500    0.000    0.000    0.000    0.000    0.000 
#    0.000    0.000    0.000    0.000    0.000    0.000 
#
# Total GULP energy -89297.379960 kJ/mol
# GULP energy per Si atom -5581.086247 kJ/mol
# Density = 2.195416 g / cm^3
# Si number density = 22.004240 Si / 1000 Ang^3
#
#
#
# Elastic Constant Matrix: (Units=GPa)
#
#
# Indices 1 2 3 4 5 6 
#
# 1 55.0281 -8.6163 -35.3691 10.2247 25.2773 1.4521
# 2 -8.6163 46.8396 -12.9894 -1.0402 4.2189 -6.4702
# 3 -35.3691 -12.9894 29.8641 13.6456 16.4791 19.7072
# 4 10.2247 -1.0402 13.6456 31.4668 2.1019 -9.1625
# 5 25.2773 4.2189 16.4791 2.1019 14.7816 -8.3431
# 6 1.4521 -6.4702 19.7072 -9.1625 -8.3431 3.6897
#
#
#
# Elastic Compliance Matrix: (Units=1/GPa)
#
#
# Indices 1 2 3 4 5 6 
#
# 1 0.016429 0.007925 -0.004092 0.008428 -0.004889 0.039163
# 2 0.007925 0.028757 0.002728 0.006814 -0.008179 0.031164
# 3 -0.004092 0.002728 0.004848 0.005200 0.013184 0.023225
# 4 0.008428 0.006814 0.005200 0.030941 -0.021754 0.008504
# 5 -0.004889 -0.008179 0.013184 -0.021754 0.038025 -0.050877
# 6 0.039163 0.031164 0.023225 0.008504 -0.050877 0.092287
#
#
# Mechanical properties :
#
#
# Convention : Reuss Voigt Hill
#
# Bulk Modulus (GPa) = 15.83442 1.97580 8.90511
# Shear Modulus (GPa) = 22.80843 22.56808 22.68826
#
# Velocity S-wave (km/s) = 3.22304 3.20601 3.21454
# Velocity P-wave (km/s) = 4.58937 3.82159 4.22297
#
# Compressibility (1/GPa) = 0.06315356
#
# Stress axis : x y z
#
# Youngs Moduli (GPa) = 60.86732 34.77474 206.27915
#
# Poissons Ratio (x) = -0.27557 0.84414
# Poissons Ratio (y) = -0.48235 -0.56267
# Poissons Ratio (z) = 0.24908 -0.09486
#
# Static dielectric constant tensor:
#      x y z
#    x 1.889470 -0.059590 -0.046740 
#    y -0.059590 1.946920 0.010770 
#    z -0.046740 0.010770 1.815630 
# 
# From -- ./inp_files/515590.got.cif
#   From: 2010.05.17/outbox.cif.g08.bks.cpg/sg2_258_cif.got.tgz:515590.got - 2010.06.03 11:33:40.
