data_PCOD9091832
_publ_section_title
;
Structure prediction by ZEFSAII (Michael W. Deem and Ramdas Pophale) SiO2 
 PCOD9091832
Probable space group: P -1
;
_chemical_formula_sum "Si O2"
_cell_formula_units_Z 16
_cell_length_a 7.232316
_cell_length_b 8.076197
_cell_length_c 14.150002
_cell_angle_alpha 96.067515
_cell_angle_beta 56.564044
_cell_angle_gamma 119.735182
_cell_volume 582.657991
_symmetry_space_group_name_H-M "P -1"
_symmetry_group_IT_number 2
_symmetry_cell_setting 'triclinic'
loop_
_space_group_symop_operation_xyz
x,y,z
-x,-y,-z
loop_
_atom_site_type_symbol
_atom_site_label
_atom_site_fract_x
_atom_site_fract_y
_atom_site_fract_z
Si Si1 0.925309 0.796954 0.461818
Si Si2 0.366298 0.300361 0.744040
Si Si3 0.788808 0.686673 0.691289
Si Si4 0.041618 0.429987 0.716235
Si Si5 0.442273 0.780671 0.497945
Si Si6 0.858193 0.910546 0.865428
Si Si7 0.861920 0.594522 0.941352
Si Si8 0.407295 0.772072 0.868219
O O1 0.905479 0.685711 0.557496
O O2 0.073414 0.754457 0.335287
O O3 0.656816 0.745596 0.484810
O O4 0.000000 0.000000 0.500000
O O5 0.589764 0.459649 0.758436
O O6 0.239435 0.400406 0.724160
O O7 0.518762 0.245525 0.624131
O O8 0.107700 0.107354 0.843534
O O9 0.942041 0.833147 0.743740
O O10 0.588166 0.764896 0.735692
O O11 0.184907 0.616531 0.615890
O O12 0.889273 0.477237 0.839441
O O13 0.500000 0.000000 0.500000
O O14 0.621350 0.926513 0.890910
O O15 0.741684 0.723159 0.954425
O O16 0.158847 0.765338 0.897510
O O17 0.726510 0.437367 0.052371
#
# Coordination Sequence:
#
# PCOD9091832 Si02
#       8
#     2   2   2   2   2   2   2   2
#     4  11  21  38  61  87 127 170 211 259 327 385
#     4  11  19  39  62  90 133 169 209 269 332 377
#     4  10  19  40  61  90 127 172 210 258 331 378
#     4  11  20  37  63  88 127 169 208 256 330 387
#     4  11  21  36  59  90 122 166 213 260 316 383
#     4  10  23  39  68  96 125 169 223 265 320 396
#     4  11  20  43  69  93 125 174 213 272 330 375
#     4   9  22  40  71  88 129 171 213 270 333 381
#
# _framework density 27.460364999999999
#
# number of rings (size 3 to 8) (size 9 to 14) (size 15 to 20)
#    0.750    0.750    3.750    3.375    0.000    0.000 
#    2.250    3.750    0.000    0.000    0.000    0.000 
#    0.000    0.000    0.000    0.000    0.000    0.000 
#
# Total GULP energy -89311.076289 kJ/mol
# GULP energy per Si atom -5581.942268 kJ/mol
# Density = 2.739786 g / cm^3
# Si number density = 27.460365 Si / 1000 Ang^3
#
#
#
# Elastic Constant Matrix: (Units=GPa)
#
#
# Indices 1 2 3 4 5 6 
#
# 1 82.8614 6.0938 9.1782 4.6438 14.7630 -2.9840
# 2 6.0938 138.4301 32.3062 -3.2127 1.1233 1.8521
# 3 9.1782 32.3062 127.6901 13.8193 -1.8996 -6.9324
# 4 4.6438 -3.2127 13.8193 48.7322 -6.0653 -1.5464
# 5 14.7630 1.1233 -1.8996 -6.0653 30.3286 -6.8694
# 6 -2.9840 1.8521 -6.9324 -1.5464 -6.8694 41.2100
#
#
#
# Elastic Compliance Matrix: (Units=1/GPa)
#
#
# Indices 1 2 3 4 5 6 
#
# 1 0.013550 -0.000396 -0.000785 -0.001993 -0.007118 -0.000394
# 2 -0.000396 0.007767 -0.002097 0.001101 -0.000168 -0.000717
# 3 -0.000785 -0.002097 0.008776 -0.002392 0.000887 0.001572
# 4 -0.001993 0.001101 -0.002392 0.022179 0.005475 0.001149
# 5 -0.007118 -0.000168 0.000887 0.005475 0.039033 0.006353
# 6 -0.000394 -0.000717 0.001572 0.001149 0.006353 0.025636
#
#
# Mechanical properties :
#
#
# Convention : Reuss Voigt Hill
#
# Bulk Modulus (GPa) = 42.48909 49.34865 45.91887
# Shear Modulus (GPa) = 38.06782 44.14773 41.10777
#
# Velocity S-wave (km/s) = 3.72732 4.01395 3.87329
# Velocity P-wave (km/s) = 5.83355 6.28429 6.06311
#
# Compressibility (1/GPa) = 0.02353546
#
# Stress axis : x y z
#
# Youngs Moduli (GPa) = 73.79962 128.74532 113.94841
#
# Poissons Ratio (x) = 0.05104 0.08948
# Poissons Ratio (y) = 0.02926 0.23898
# Poissons Ratio (z) = 0.05795 0.27001
#
# Static dielectric constant tensor:
#      x y z
#    x 2.213530 0.037800 -0.065020 
#    y 0.037800 2.141130 -0.003520 
#    z -0.065020 -0.003520 2.060410 
# 
# From -- ./inp_files/492928.got.cif
#   From: 2010.05.17/outbox.cif.g08.bks.cpg/sg2_247_cif.got.tgz:492928.got - 2010.06.03 11:33:40.
