data_PCOD9091754
_publ_section_title
;
Structure prediction by ZEFSAII (Michael W. Deem and Ramdas Pophale) SiO2 
 PCOD9091754
Probable space group: P -1
;
_chemical_formula_sum "Si O2"
_cell_formula_units_Z 12
_cell_length_a 13.561067
_cell_length_b 9.095544
_cell_length_c 10.179641
_cell_angle_alpha 44.040939
_cell_angle_beta 52.423871
_cell_angle_gamma 33.603112
_cell_volume 482.874962
_symmetry_space_group_name_H-M "P -1"
_symmetry_group_IT_number 2
_symmetry_cell_setting 'triclinic'
loop_
_space_group_symop_operation_xyz
x,y,z
-x,-y,-z
loop_
_atom_site_type_symbol
_atom_site_label
_atom_site_fract_x
_atom_site_fract_y
_atom_site_fract_z
Si Si1 0.849816 0.334149 0.855975
Si Si2 0.703074 0.703175 0.989245
Si Si3 0.259279 0.329063 0.734250
Si Si4 0.364154 0.714229 0.089238
Si Si5 0.090504 0.279757 0.386075
Si Si6 0.453741 0.682545 0.550450
O O1 0.775367 0.305319 0.809673
O O2 0.924453 0.477176 0.683712
O O3 0.718543 0.531147 0.961373
O O4 0.000000 0.000000 0.000000
O O5 0.784957 0.532486 0.171435
O O6 0.458751 0.552377 0.252469
O O7 0.806952 0.779009 0.796801
O O8 0.500000 0.000000 0.000000
O O9 0.442508 0.217796 0.608928
O O10 0.099840 0.565058 0.610351
O O11 0.285027 0.044688 0.917455
O O12 0.500000 0.500000 0.000000
O O13 0.240141 0.968201 0.543455
O O14 0.500000 0.500000 0.500000
#
# Coordination Sequence:
#
# PCOD9091754 Si02
#       6
#     2   2   2   2   2   2
#     4  10  22  43  71 110 147 195 257 305 380 465
#     4  10  19  39  75 106 149 201 249 312 378 453
#     4  12  24  48  78 108 150 204 258 317 384 465
#     4  12  26  47  78 109 153 209 251 315 398 465
#     4  10  23  44  74 110 155 195 257 317 384 454
#     4  12  29  48  74 115 155 193 266 325 382 456
#
# _framework density 24.851154999999999
#
# number of rings (size 3 to 8) (size 9 to 14) (size 15 to 20)
#    1.000    0.000    3.333    3.500    2.333    4.667 
#    3.000    1.667    0.000    0.000    0.000    0.000 
#    0.000    0.000    0.000    0.000    0.000    0.000 
#
# Total GULP energy -67100.611372 kJ/mol
# GULP energy per Si atom -5591.717614 kJ/mol
# Density = 2.479459 g / cm^3
# Si number density = 24.851155 Si / 1000 Ang^3
#
#
#
# Elastic Constant Matrix: (Units=GPa)
#
#
# Indices 1 2 3 4 5 6 
#
# 1 173.1052 55.7031 68.4846 -18.0330 10.7221 -27.1069
# 2 55.7031 112.2817 53.6003 -24.2408 7.8272 -8.6863
# 3 68.4846 53.6003 108.8052 -0.4744 14.5784 0.3837
# 4 -18.0330 -24.2408 -0.4744 43.0980 -1.9488 4.2023
# 5 10.7221 7.8272 14.5784 -1.9488 31.7829 -12.6716
# 6 -27.1069 -8.6863 0.3837 4.2023 -12.6716 45.8891
#
#
#
# Elastic Compliance Matrix: (Units=1/GPa)
#
#
# Indices 1 2 3 4 5 6 
#
# 1 0.009443 -0.001042 -0.005730 0.002838 0.002173 0.005769
# 2 -0.001042 0.014125 -0.006402 0.007314 0.000936 0.001700
# 3 -0.005730 -0.006402 0.016892 -0.005528 -0.007039 -0.006175
# 4 0.002838 0.007314 -0.005528 0.028430 0.001934 0.001038
# 5 0.002173 0.000936 -0.007039 0.001934 0.038636 0.012011
# 6 0.005769 0.001700 -0.006175 0.001038 0.012011 0.028795
#
#
# Mechanical properties :
#
#
# Convention : Reuss Voigt Hill
#
# Bulk Modulus (GPa) = 70.85852 83.30754 77.08303
# Shear Modulus (GPa) = 29.87368 38.58094 34.22731
#
# Velocity S-wave (km/s) = 3.47090 3.94443 3.71522
# Velocity P-wave (km/s) = 6.68116 7.37157 7.03484
#
# Compressibility (1/GPa) = 0.01411263
#
# Stress axis : x y z
#
# Youngs Moduli (GPa) = 105.89417 70.79828 59.20127
#
# Poissons Ratio (x) = 0.07379 0.33920
# Poissons Ratio (y) = 0.11037 0.37898
# Poissons Ratio (z) = 0.60673 0.45322
#
# Static dielectric constant tensor:
#      x y z
#    x 2.398460 -0.166540 -0.245070 
#    y -0.166540 2.016960 0.112530 
#    z -0.245070 0.112530 2.107180 
# 
# From -- ./inp_files/454159.got.cif
#   From: 2010.05.17/outbox.cif.g08.bks.cpg/sg2_228_cif.got.tgz:454159.got - 2010.06.03 11:33:40.
