data_PCOD9091653
_publ_section_title
;
Structure prediction by ZEFSAII (Michael W. Deem and Ramdas Pophale) SiO2 
 PCOD9091653
Probable space group: P -1
;
_chemical_formula_sum "Si O2"
_cell_formula_units_Z 14
_cell_length_a 15.481329
_cell_length_b 7.908842
_cell_length_c 14.323738
_cell_angle_alpha 124.450114
_cell_angle_beta 27.312230
_cell_angle_gamma 106.935159
_cell_volume 550.419456
_symmetry_space_group_name_H-M "P -1"
_symmetry_group_IT_number 2
_symmetry_cell_setting 'triclinic'
loop_
_space_group_symop_operation_xyz
x,y,z
-x,-y,-z
loop_
_atom_site_type_symbol
_atom_site_label
_atom_site_fract_x
_atom_site_fract_y
_atom_site_fract_z
Si Si1 0.925437 0.668355 0.275416
Si Si2 0.849311 0.885972 0.916107
Si Si3 0.823453 0.810755 0.207294
Si Si4 0.316153 0.722590 0.952971
Si Si5 0.403017 0.754294 0.568955
Si Si6 0.504310 0.826079 0.144505
Si Si7 0.657684 0.505660 0.722052
O O1 0.919899 0.758260 0.201763
O O2 0.993707 0.391958 0.104627
O O3 0.127157 0.661973 0.131986
O O4 0.681765 0.887916 0.614057
O O5 0.099189 0.645208 0.607586
O O6 0.663577 0.818907 0.070233
O O7 0.814078 0.012724 0.888314
O O8 0.775545 0.093935 0.130421
O O9 0.620501 0.765935 0.386494
O O10 0.714361 0.083801 0.360198
O O11 0.492955 0.526908 0.644346
O O12 0.455833 0.675916 0.897330
O O13 0.382219 0.696438 0.259189
O O14 0.645946 0.670814 0.870331
#
# Coordination Sequence:
#
# PCOD9091653 Si02
#       7
#     2   2   2   2   2   2   2
#     4  10  19  39  68  98 135 172 225 274 331 399
#     4  12  25  45  69 104 136 177 224 281 333 404
#     4   9  19  36  66 105 131 178 224 269 334 410
#     4  11  25  43  67 102 142 174 221 280 338 402
#     4  10  21  38  67  99 140 175 218 274 342 398
#     4  11  24  48  74  93 135 183 227 283 332 391
#     4  11  27  49  67 100 136 178 232 279 331 400
#
# _framework density 25.435146
#
# number of rings (size 3 to 8) (size 9 to 14) (size 15 to 20)
#    0.000    1.429    2.857    1.714    4.000    2.857 
#    0.000    0.000    0.000    0.000    0.000    0.000 
#    0.000    0.000    0.000    0.000    0.000    0.000 
#
# Total GULP energy -78482.085461 kJ/mol
# GULP energy per Si atom -5605.863247 kJ/mol
# Density = 2.537725 g / cm^3
# Si number density = 25.435146 Si / 1000 Ang^3
#
#
#
# Elastic Constant Matrix: (Units=GPa)
#
#
# Indices 1 2 3 4 5 6 
#
# 1 86.0035 7.7197 14.2107 4.4668 -6.7471 -1.8496
# 2 7.7197 43.7439 7.4949 16.6191 -2.4628 6.2639
# 3 14.2107 7.4949 102.9951 -5.7647 -1.0141 2.4532
# 4 4.4668 16.6191 -5.7647 30.6979 0.3581 -9.7113
# 5 -6.7471 -2.4628 -1.0141 0.3581 50.6729 7.3062
# 6 -1.8496 6.2639 2.4532 -9.7113 7.3062 36.3954
#
#
#
# Elastic Compliance Matrix: (Units=1/GPa)
#
#
# Indices 1 2 3 4 5 6 
#
# 1 0.012211 -0.001354 -0.001650 -0.001268 0.001489 0.000328
# 2 -0.001354 0.034433 -0.003277 -0.023092 0.003411 -0.012620
# 3 -0.001650 -0.003277 0.010388 0.004283 -0.000344 0.000992
# 4 -0.001268 -0.023092 0.004283 0.051910 -0.004213 0.018318
# 5 0.001489 0.003411 -0.000344 -0.004213 0.020960 -0.005820
# 6 0.000328 -0.012620 0.000992 0.018318 -0.005820 0.035654
#
#
# Mechanical properties :
#
#
# Convention : Reuss Voigt Hill
#
# Bulk Modulus (GPa) = 22.48724 32.39924 27.44324
# Shear Modulus (GPa) = 25.91449 37.10773 31.51111
#
# Velocity S-wave (km/s) = 3.19540 3.82372 3.52359
# Velocity P-wave (km/s) = 4.74071 5.67979 5.23137
#
# Compressibility (1/GPa) = 0.04446967
#
# Stress axis : x y z
#
# Youngs Moduli (GPa) = 81.89109 29.04197 96.26406
#
# Poissons Ratio (x) = 0.03932 0.15888
# Poissons Ratio (y) = 0.11086 0.31547
# Poissons Ratio (z) = 0.13516 0.09517
#
# Static dielectric constant tensor:
#      x y z
#    x 1.944290 0.016860 0.002250 
#    y 0.016860 2.034100 -0.038790 
#    z 0.002250 -0.038790 1.997620 
# 
# From -- ./inp_files/530089.got.cif
#   From: 2010.05.17/outbox.cif.g08.bks.cpg/sg2_266_cif.got.tgz:530089.got - 2010.06.03 11:33:40.
