data_PCOD9091222
_publ_section_title
;
Structure prediction by ZEFSAII (Michael W. Deem and Ramdas Pophale) SiO2 
 PCOD9091222
Probable space group: P -1
;
_chemical_formula_sum "Si O2"
_cell_formula_units_Z 16
_cell_length_a 8.757344
_cell_length_b 17.025657
_cell_length_c 8.987311
_cell_angle_alpha 93.994175
_cell_angle_beta 55.966452
_cell_angle_gamma 58.051773
_cell_volume 804.726063
_symmetry_space_group_name_H-M "P -1"
_symmetry_group_IT_number 2
_symmetry_cell_setting 'triclinic'
loop_
_space_group_symop_operation_xyz
x,y,z
-x,-y,-z
loop_
_atom_site_type_symbol
_atom_site_label
_atom_site_fract_x
_atom_site_fract_y
_atom_site_fract_z
Si Si1 0.327959 0.839668 0.061367
Si Si2 0.214079 0.053500 0.150908
Si Si3 0.800783 0.244061 0.626524
Si Si4 0.191949 0.652761 0.090981
Si Si5 0.106601 0.792682 0.923692
Si Si6 0.098643 0.355111 0.308838
Si Si7 0.656368 0.378602 0.454949
Si Si8 0.790941 0.504931 0.784025
O O1 0.309746 0.794389 0.218038
O O2 0.214440 0.959349 0.155680
O O3 0.187720 0.832158 0.007187
O O4 0.619189 0.759517 0.841266
O O5 0.027308 0.145410 0.388091
O O6 0.101477 0.112182 0.060539
O O7 0.500000 0.000000 0.000000
O O8 0.895262 0.279331 0.701044
O O9 0.611761 0.347792 0.632974
O O10 0.174674 0.565263 0.108986
O O11 0.041900 0.734226 0.047566
O O12 0.493331 0.586956 0.909078
O O13 0.333945 0.693132 0.682120
O O14 0.129625 0.429492 0.217399
O O15 0.933131 0.336910 0.318996
O O16 0.956799 0.422885 0.546162
O O17 0.500000 0.500000 0.500000
#
# Coordination Sequence:
#
# PCOD9091222 Si02
#       8
#     2   2   2   2   2   2   2   2
#     4  11  22  41  69  85 117 157 218 254 298 363
#     4  11  24  43  65  89 121 159 198 261 317 364
#     4  10  21  40  62  89 117 164 204 247 309 360
#     4  10  19  39  64  91 123 163 202 248 302 366
#     4  10  22  39  62  90 118 159 205 249 307 364
#     4  11  21  36  61  94 120 164 209 243 299 368
#     4  11  23  37  58  90 134 165 195 249 309 364
#     4  10  20  33  64  90 125 160 202 239 304 358
#
# _framework density 19.882542999999998
#
# number of rings (size 3 to 8) (size 9 to 14) (size 15 to 20)
#    0.000    1.500    3.750    3.000    3.500    0.000 
#    0.000    6.250    2.750    0.000    0.000    0.000 
#    0.000    0.000    0.000    0.000    0.000    0.000 
#
# Total GULP energy -89271.065452 kJ/mol
# GULP energy per Si atom -5579.441591 kJ/mol
# Density = 1.983729 g / cm^3
# Si number density = 19.882543 Si / 1000 Ang^3
#
#
#
# Elastic Constant Matrix: (Units=GPa)
#
#
# Indices 1 2 3 4 5 6 
#
# 1 42.5588 42.1427 36.3060 -9.5822 -2.4930 0.5472
# 2 42.1427 183.2607 50.7418 -15.7933 4.3426 4.8373
# 3 36.3060 50.7418 97.7650 7.4353 10.4248 -6.4752
# 4 -9.5822 -15.7933 7.4353 38.2096 -0.3586 1.4320
# 5 -2.4930 4.3426 10.4248 -0.3586 29.9927 -2.4147
# 6 0.5472 4.8373 -6.4752 1.4320 -2.4147 37.2129
#
#
#
# Elastic Compliance Matrix: (Units=1/GPa)
#
#
# Indices 1 2 3 4 5 6 
#
# 1 0.046571 -0.005057 -0.016963 0.013093 0.010430 -0.002806
# 2 -0.005057 0.007479 -0.002184 0.002293 -0.000831 -0.001420
# 3 -0.016963 -0.002184 0.019423 -0.009149 -0.007651 0.003769
# 4 0.013093 0.002293 -0.009149 0.032336 0.004076 -0.003062
# 5 0.010430 -0.000831 -0.007651 0.004076 0.037107 0.000874
# 6 -0.002806 -0.001420 0.003769 -0.003062 0.000874 0.027929
#
#
# Mechanical properties :
#
#
# Convention : Reuss Voigt Hill
#
# Bulk Modulus (GPa) = 39.89786 64.66283 52.28035
# Shear Modulus (GPa) = 21.96761 34.04264 28.00513
#
# Velocity S-wave (km/s) = 3.32756 4.14235 3.75711
# Velocity P-wave (km/s) = 5.90541 7.44794 6.72107
#
# Compressibility (1/GPa) = 0.02506400
#
# Stress axis : x y z
#
# Youngs Moduli (GPa) = 21.47264 133.70594 51.48618
#
# Poissons Ratio (x) = 0.67619 0.87338
# Poissons Ratio (y) = 0.10859 0.11242
# Poissons Ratio (z) = 0.36425 0.29195
#
# Static dielectric constant tensor:
#      x y z
#    x 1.683520 0.010640 0.005310 
#    y 0.010640 1.743850 -0.017560 
#    z 0.005310 -0.017560 1.736290 
# 
# From -- ./inp_files/215102.got.cif
#   From: 2010.05.17/outbox.cif.g08.bks.cpg/sg2_108_cif.got.tgz:215102.got - 2010.06.03 11:33:40.
