data_PCOD9091615
_publ_section_title
;
Structure prediction by ZEFSAII (Michael W. Deem and Ramdas Pophale) SiO2 
 PCOD9091615
Probable space group: P -1
;
_chemical_formula_sum "Si O2"
_cell_formula_units_Z 14
_cell_length_a 12.708335
_cell_length_b 18.301986
_cell_length_c 8.126981
_cell_angle_alpha 40.810809
_cell_angle_beta 127.326361
_cell_angle_gamma 148.082926
_cell_volume 649.567360
_symmetry_space_group_name_H-M "P -1"
_symmetry_group_IT_number 2
_symmetry_cell_setting 'triclinic'
loop_
_space_group_symop_operation_xyz
x,y,z
-x,-y,-z
loop_
_atom_site_type_symbol
_atom_site_label
_atom_site_fract_x
_atom_site_fract_y
_atom_site_fract_z
Si Si1 0.479906 0.037245 0.097078
Si Si2 0.773623 0.388438 0.936161
Si Si3 0.285003 0.406914 0.404527
Si Si4 0.938325 0.125396 0.097598
Si Si5 0.337395 0.488908 0.925742
Si Si6 0.071696 0.967477 0.378398
Si Si7 0.507381 0.194271 0.338621
O O1 0.662998 0.236967 0.963492
O O2 0.488134 0.932870 0.395534
O O3 0.500000 0.000000 0.000000
O O4 0.266220 0.963503 0.027122
O O5 0.642010 0.292155 0.139687
O O6 0.764468 0.513682 0.674765
O O7 0.000000 0.500000 0.000000
O O8 0.500000 0.500000 0.500000
O O9 0.108032 0.205819 0.591925
O O10 0.302465 0.444541 0.162339
O O11 0.900511 0.074790 0.343157
O O12 0.014675 0.058225 0.207362
O O13 0.122168 0.328851 0.913435
O O14 0.413609 0.665380 0.689659
O O15 0.500000 0.500000 0.000000
O O16 0.279250 0.086313 0.278362
#
# Coordination Sequence:
#
# PCOD9091615 Si02
#       7
#     2   2   2   2   2   2   2
#     4  12  25  42  67  98 126 166 229 268 313 388
#     4  11  26  47  63  89 138 177 207 265 338 387
#     4  10  22  40  65  90 124 168 219 260 316 383
#     4  10  21  38  64  96 130 162 211 271 315 370
#     4  10  21  40  62  93 129 165 209 264 325 373
#     4  10  19  39  68  91 126 172 209 263 327 374
#     4  11  23  42  66  92 129 175 214 261 333 390
#
# _framework density 21.552807000000001
#
# number of rings (size 3 to 8) (size 9 to 14) (size 15 to 20)
#    0.000    1.429    2.857    2.143    4.000    1.714 
#    5.143    2.143    0.000    0.000    0.000    0.000 
#    0.000    0.000    0.000    0.000    0.000    0.000 
#
# Total GULP energy -78285.634890 kJ/mol
# GULP energy per Si atom -5591.831064 kJ/mol
# Density = 2.150375 g / cm^3
# Si number density = 21.552807 Si / 1000 Ang^3
#
#
#
# Elastic Constant Matrix: (Units=GPa)
#
#
# Indices 1 2 3 4 5 6 
#
# 1 104.5429 65.9164 17.1647 -5.8246 13.1322 13.9586
# 2 65.9164 214.7085 38.5938 -29.6548 33.5458 13.0598
# 3 17.1647 38.5938 23.3180 -8.0372 20.4278 -0.9622
# 4 -5.8246 -29.6548 -8.0372 28.8275 4.0727 10.6376
# 5 13.1322 33.5458 20.4278 4.0727 37.1366 -3.7782
# 6 13.9586 13.0598 -0.9622 10.6376 -3.7782 51.9226
#
#
#
# Elastic Compliance Matrix: (Units=1/GPa)
#
#
# Indices 1 2 3 4 5 6 
#
# 1 0.012543 -0.003128 -0.006637 -0.002031 0.002045 -0.002143
# 2 -0.003128 0.008855 -0.003392 0.009911 -0.006516 -0.003954
# 3 -0.006637 -0.003392 0.134793 0.047002 -0.074901 -0.009944
# 4 -0.002031 0.009911 0.047002 0.070673 -0.043745 -0.018738
# 5 0.002045 -0.006516 -0.074901 -0.043745 0.079559 0.014452
# 6 -0.002143 -0.003954 -0.009944 -0.018738 0.014452 0.025536
#
#
# Mechanical properties :
#
#
# Convention : Reuss Voigt Hill
#
# Bulk Modulus (GPa) = 7.69962 65.10212 36.40087
# Shear Modulus (GPa) = 12.45126 38.30363 25.37745
#
# Velocity S-wave (km/s) = 2.40617 4.22026 3.43513
# Velocity P-wave (km/s) = 3.36150 7.34975 5.71483
#
# Compressibility (1/GPa) = 0.12987662
#
# Stress axis : x y z
#
# Youngs Moduli (GPa) = 79.72394 112.93351 7.41878
#
# Poissons Ratio (x) = 0.35321 0.04924
# Poissons Ratio (y) = 0.24934 0.02517
# Poissons Ratio (z) = 0.52915 0.38311
#
# Static dielectric constant tensor:
#      x y z
#    x 1.771790 -0.039020 -0.015480 
#    y -0.039020 1.766400 -0.028590 
#    z -0.015480 -0.028590 1.837210 
# 
# From -- ./inp_files/176759.got.cif
#   From: 2010.05.17/outbox.cif.g08.bks.cpg/sg2_89_cif.got.tgz:176759.got - 2010.06.03 11:33:40.
