data_PCOD9091532
_publ_section_title
;
Structure prediction by ZEFSAII (Michael W. Deem and Ramdas Pophale) SiO2 
 PCOD9091532
Probable space group: P -1
;
_chemical_formula_sum "Si O2"
_cell_formula_units_Z 16
_cell_length_a 9.088034
_cell_length_b 15.245841
_cell_length_c 21.623180
_cell_angle_alpha 159.392504
_cell_angle_beta 125.513128
_cell_angle_gamma 51.161009
_cell_volume 821.143766
_symmetry_space_group_name_H-M "P -1"
_symmetry_group_IT_number 2
_symmetry_cell_setting 'triclinic'
loop_
_space_group_symop_operation_xyz
x,y,z
-x,-y,-z
loop_
_atom_site_type_symbol
_atom_site_label
_atom_site_fract_x
_atom_site_fract_y
_atom_site_fract_z
Si Si1 0.853777 0.973336 0.719446
Si Si2 0.501373 0.092184 0.247046
Si Si3 0.102551 0.716290 0.188276
Si Si4 0.318242 0.515518 0.922370
Si Si5 0.468720 0.554802 0.853338
Si Si6 0.272899 0.630127 0.601938
Si Si7 0.438077 0.355873 0.581365
Si Si8 0.763736 0.953825 0.340414
O O1 0.680422 0.851502 0.593253
O O2 0.049246 0.750989 0.629833
O O3 0.869042 0.124044 0.759425
O O4 0.815174 0.192425 0.907602
O O5 0.340742 0.350999 0.399613
O O6 0.635779 0.180796 0.289850
O O7 0.626107 0.978414 0.263172
O O8 0.426162 0.865456 0.052129
O O9 0.305678 0.567473 0.166554
O O10 0.968951 0.911018 0.333167
O O11 0.000000 0.500000 0.000000
O O12 0.379734 0.465633 0.833726
O O13 0.230685 0.300445 0.786523
O O14 0.500000 0.500000 0.000000
O O15 0.407377 0.463133 0.713459
O O16 0.361636 0.574326 0.654876
O O17 0.656898 0.205495 0.520378
#
# Coordination Sequence:
#
# PCOD9091532 Si02
#       8
#     2   2   2   2   2   2   2   2
#     4  12  21  39  66  92 120 157 209 250 293 363
#     4  10  19  39  67  89 115 155 211 253 295 350
#     4  12  20  36  68  95 115 151 210 254 299 360
#     4  12  19  37  64  91 119 158 200 246 301 363
#     4  12  24  40  61  91 127 163 193 251 313 360
#     4  10  22  40  66  90 113 162 213 253 286 352
#     4  11  26  40  57  89 133 163 196 245 311 358
#     4  11  20  38  62  94 118 154 204 250 299 360
#
# _framework density 19.485016000000002
#
# number of rings (size 3 to 8) (size 9 to 14) (size 15 to 20)
#    0.000    0.750    7.500    1.125    0.000    3.000 
#    0.000    2.500    0.000    0.000    0.000    0.000 
#    0.000    0.000    0.000    0.000    0.000    0.000 
#
# Total GULP energy -89448.115004 kJ/mol
# GULP energy per Si atom -5590.507188 kJ/mol
# Density = 1.944067 g / cm^3
# Si number density = 19.485016 Si / 1000 Ang^3
#
#
#
# Elastic Constant Matrix: (Units=GPa)
#
#
# Indices 1 2 3 4 5 6 
#
# 1 118.0460 40.6742 24.1139 3.0956 -17.8074 17.5341
# 2 40.6742 66.8098 37.7244 4.5126 -9.6276 12.8859
# 3 24.1139 37.7244 46.4680 6.2756 -10.2602 20.9704
# 4 3.0956 4.5126 6.2756 21.3806 4.8086 -12.3974
# 5 -17.8074 -9.6276 -10.2602 4.8086 31.3247 5.4452
# 6 17.5341 12.8859 20.9704 -12.3974 5.4452 43.8561
#
#
#
# Elastic Compliance Matrix: (Units=1/GPa)
#
#
# Indices 1 2 3 4 5 6 
#
# 1 0.013922 -0.009538 0.012237 -0.015198 0.013868 -0.014633
# 2 -0.009538 0.035037 -0.036479 0.017598 -0.012340 0.017469
# 3 0.012237 -0.036479 0.094967 -0.071179 0.049218 -0.065816
# 4 -0.015198 0.017598 -0.071179 0.124334 -0.059090 0.077425
# 5 0.013868 -0.012340 0.049218 -0.059090 0.070046 -0.050854
# 6 -0.014633 0.017469 -0.065816 0.077425 -0.050854 0.083191
#
#
# Mechanical properties :
#
#
# Convention : Reuss Voigt Hill
#
# Bulk Modulus (GPa) = 13.09493 48.48322 30.78908
# Shear Modulus (GPa) = 9.71792 27.89970 18.80881
#
# Velocity S-wave (km/s) = 2.23567 3.78809 3.11029
# Velocity P-wave (km/s) = 3.66052 6.63846 5.36044
#
# Compressibility (1/GPa) = 0.07636541
#
# Stress axis : x y z
#
# Youngs Moduli (GPa) = 71.82804 28.54145 10.52994
#
# Poissons Ratio (x) = 0.27224 -0.12886
# Poissons Ratio (y) = 0.68512 0.38412
# Poissons Ratio (z) = -0.87897 1.04117
#
# Static dielectric constant tensor:
#      x y z
#    x 1.701840 0.000180 -0.023400 
#    y 0.000180 1.662710 0.017470 
#    z -0.023400 0.017470 1.688330 
# 
# From -- ./inp_files/176123.got.cif
#   From: 2010.05.17/outbox.cif.g08.bks.cpg/sg2_89_cif.got.tgz:176123.got - 2010.06.03 11:33:40.
