data_PCOD9091358
_publ_section_title
;
Structure prediction by ZEFSAII (Michael W. Deem and Ramdas Pophale) SiO2 
 PCOD9091358
Probable space group: P -1
;
_chemical_formula_sum "Si O2"
_cell_formula_units_Z 16
_cell_length_a 10.000197
_cell_length_b 16.158127
_cell_length_c 15.201033
_cell_angle_alpha 35.144374
_cell_angle_beta 143.172568
_cell_angle_gamma 146.085148
_cell_volume 729.921565
_symmetry_space_group_name_H-M "P -1"
_symmetry_group_IT_number 2
_symmetry_cell_setting 'triclinic'
loop_
_space_group_symop_operation_xyz
x,y,z
-x,-y,-z
loop_
_atom_site_type_symbol
_atom_site_label
_atom_site_fract_x
_atom_site_fract_y
_atom_site_fract_z
Si Si1 0.135415 0.722750 0.731011
Si Si2 0.614109 0.390910 0.765144
Si Si3 0.510075 0.675878 0.835995
Si Si4 0.342154 0.577051 0.447054
Si Si5 0.023620 0.136810 0.963419
Si Si6 0.439150 0.922149 0.891471
Si Si7 0.152102 0.488739 0.673436
Si Si8 0.176176 0.108254 0.577821
O O1 0.310852 0.696050 0.776885
O O2 0.314819 0.835895 0.806921
O O3 0.902798 0.546964 0.799121
O O4 0.978335 0.808572 0.533401
O O5 0.399485 0.439075 0.636828
O O6 0.591166 0.385335 0.652868
O O7 0.570688 0.222718 0.929074
O O8 0.415612 0.649244 0.707278
O O9 0.500000 0.500000 0.000000
O O10 0.788131 0.822972 0.888175
O O11 0.562698 0.747820 0.456466
O O12 0.054871 0.536518 0.339100
O O13 0.149511 0.315334 0.824195
O O14 0.733115 0.068424 0.903799
O O15 0.000000 0.000000 0.000000
O O16 0.267301 0.996887 0.774386
O O17 0.000000 0.500000 0.500000
O O18 0.000000 0.000000 0.500000
#
# Coordination Sequence:
#
# PCOD9091358 Si02
#       8
#     2   2   2   2   2   2   2   2
#     4  10  19  39  65  92 132 170 214 270 327 393
#     4  10  22  35  64  96 124 163 212 267 327 393
#     4  10  22  41  68  95 132 176 221 273 326 388
#     4  10  20  40  59  88 125 161 211 269 324 386
#     4  11  23  42  66  97 137 172 215 279 330 386
#     4  11  21  38  65  97 131 170 216 262 339 398
#     4  11  24  43  69  90 127 180 231 266 325 400
#     4   9  20  37  59  91 127 165 202 272 331 378
#
# _framework density 21.920164
#
# number of rings (size 3 to 8) (size 9 to 14) (size 15 to 20)
#    0.000    1.750    3.750    0.375    1.750    0.500 
#    0.000    1.875    2.750    0.000    0.000    0.000 
#    0.000    0.000    0.000    0.000    0.000    0.000 
#
# Total GULP energy -89196.680735 kJ/mol
# GULP energy per Si atom -5574.792546 kJ/mol
# Density = 2.187027 g / cm^3
# Si number density = 21.920164 Si / 1000 Ang^3
#
#
#
# Elastic Constant Matrix: (Units=GPa)
#
#
# Indices 1 2 3 4 5 6 
#
# 1 38.8685 23.3767 30.5196 0.7076 17.5297 -12.0447
# 2 23.3767 142.0195 46.2292 30.7884 -3.0372 -14.0935
# 3 30.5196 46.2292 136.8064 -11.5610 15.9654 -18.7925
# 4 0.7076 30.7884 -11.5610 44.8273 -8.1472 1.8016
# 5 17.5297 -3.0372 15.9654 -8.1472 38.8229 5.0242
# 6 -12.0447 -14.0935 -18.7925 1.8016 5.0242 18.2869
#
#
#
# Elastic Compliance Matrix: (Units=1/GPa)
#
#
# Indices 1 2 3 4 5 6 
#
# 1 0.057480 -0.003732 -0.002667 -0.006504 -0.031904 0.041648
# 2 -0.003732 0.010774 -0.003331 -0.007967 0.001878 0.002691
# 3 -0.002667 -0.003331 0.010811 0.004172 -0.003579 0.007359
# 4 -0.006504 -0.007967 0.004172 0.030985 0.008595 -0.011551
# 5 -0.031904 0.001878 -0.003579 0.008595 0.048426 -0.037396
# 6 0.041648 0.002691 0.007359 -0.011551 -0.037396 0.103165
#
#
# Mechanical properties :
#
#
# Convention : Reuss Voigt Hill
#
# Bulk Modulus (GPa) = 16.77714 57.54948 37.16331
# Shear Modulus (GPa) = 16.61295 34.89199 25.75247
#
# Velocity S-wave (km/s) = 2.75596 3.99404 3.43130
# Velocity P-wave (km/s) = 4.21870 6.89789 5.71744
#
# Compressibility (1/GPa) = 0.05960490
#
# Stress axis : x y z
#
# Youngs Moduli (GPa) = 17.39732 92.81337 92.49657
#
# Poissons Ratio (x) = 0.34641 0.24670
# Poissons Ratio (y) = 0.06493 0.30809
# Poissons Ratio (z) = 0.04640 0.30915
#
# Static dielectric constant tensor:
#      x y z
#    x 1.911970 -0.039460 0.016110 
#    y -0.039460 1.892720 0.016050 
#    z 0.016110 0.016050 1.847240 
# 
# From -- ./inp_files/202035.got.cif
#   From: 2010.05.17/outbox.cif.g08.bks.cpg/sg2_102_cif.got.tgz:202035.got - 2010.06.03 11:33:40.
