data_PCOD9091765
_publ_section_title
;
Structure prediction by ZEFSAII (Michael W. Deem and Ramdas Pophale) SiO2 
 PCOD9091765
Probable space group: P -1
;
_chemical_formula_sum "Si O2"
_cell_formula_units_Z 16
_cell_length_a 14.731008
_cell_length_b 9.243926
_cell_length_c 8.858427
_cell_angle_alpha 135.201166
_cell_angle_beta 60.794458
_cell_angle_gamma 118.141589
_cell_volume 726.323994
_symmetry_space_group_name_H-M "P -1"
_symmetry_group_IT_number 2
_symmetry_cell_setting 'triclinic'
loop_
_space_group_symop_operation_xyz
x,y,z
-x,-y,-z
loop_
_atom_site_type_symbol
_atom_site_label
_atom_site_fract_x
_atom_site_fract_y
_atom_site_fract_z
Si Si1 0.022679 0.778896 0.373715
Si Si2 0.240416 0.764296 0.009889
Si Si3 0.167666 0.317902 0.734186
Si Si4 0.673463 0.988194 0.633289
Si Si5 0.343841 0.601465 0.230248
Si Si6 0.923020 0.008813 0.206581
Si Si7 0.413010 0.221815 0.748808
Si Si8 0.737242 0.165310 0.302196
O O1 0.129280 0.746450 0.179911
O O2 0.034812 0.814281 0.569261
O O3 0.915685 0.633449 0.287776
O O4 0.000000 0.000000 0.500000
O O5 0.336318 0.935512 0.131165
O O6 0.255915 0.527114 0.833945
O O7 0.229335 0.818915 0.885693
O O8 0.228293 0.129358 0.514056
O O9 0.101512 0.219873 0.862159
O O10 0.599706 0.838686 0.463147
O O11 0.689891 0.217081 0.709767
O O12 0.466938 0.680404 0.233590
O O13 0.277827 0.616036 0.448176
O O14 0.340797 0.384773 0.984931
O O15 0.818732 0.067213 0.263396
O O16 0.000000 0.000000 0.000000
O O17 0.371826 0.006010 0.713207
#
# Coordination Sequence:
#
# PCOD9091765 Si02
#       8
#     2   2   2   2   2   2   2   2
#     4  10  19  40  58  83 126 171 211 258 313 358
#     4  12  24  38  63  90 131 172 208 255 317 376
#     4  11  22  39  61  87 126 174 208 254 316 372
#     4  11  20  38  64  89 124 163 205 246 321 373
#     4  10  21  42  69  96 122 160 213 258 325 376
#     4  11  22  40  64  89 126 168 217 263 301 360
#     4  10  21  42  70  93 124 164 204 267 318 378
#     4  11  22  40  62  99 128 160 214 265 305 370
#
# _framework density 22.028735999999999
#
# number of rings (size 3 to 8) (size 9 to 14) (size 15 to 20)
#    0.000    1.250    5.000    4.125    0.000    1.000 
#    0.000    3.750    0.000    6.000    0.000    0.000 
#    0.000    0.000    0.000    0.000    0.000    0.000 
#
# Total GULP energy -89123.165584 kJ/mol
# GULP energy per Si atom -5570.197849 kJ/mol
# Density = 2.197860 g / cm^3
# Si number density = 22.028736 Si / 1000 Ang^3
#
#
#
# Elastic Constant Matrix: (Units=GPa)
#
#
# Indices 1 2 3 4 5 6 
#
# 1 86.9196 24.2832 44.9601 -8.7077 20.1604 -7.8493
# 2 24.2832 42.2321 32.7077 -2.2065 20.2013 -13.6114
# 3 44.9601 32.7077 134.4974 2.8630 21.1351 -16.2540
# 4 -8.7077 -2.2065 2.8630 39.0204 -8.6099 4.8110
# 5 20.1604 20.2013 21.1351 -8.6099 41.9456 -1.5027
# 6 -7.8493 -13.6114 -16.2540 4.8110 -1.5027 22.1290
#
#
#
# Elastic Compliance Matrix: (Units=1/GPa)
#
#
# Indices 1 2 3 4 5 6 
#
# 1 0.015693 -0.005042 -0.003819 0.003069 -0.002602 -0.001184
# 2 -0.005042 0.044992 -0.003574 -0.005070 -0.017655 0.023164
# 3 -0.003819 -0.003574 0.010551 -0.002887 -0.002184 0.004676
# 4 0.003069 -0.005070 -0.002887 0.029246 0.008068 -0.009961
# 5 -0.002602 -0.017655 -0.002184 0.008068 0.035896 -0.012703
# 6 -0.001184 0.023164 0.004676 -0.009961 -0.012703 0.063755
#
#
# Mechanical properties :
#
#
# Convention : Reuss Voigt Hill
#
# Bulk Modulus (GPa) = 21.56807 51.95012 36.75909
# Shear Modulus (GPa) = 20.79364 31.39888 26.09626
#
# Velocity S-wave (km/s) = 3.07568 3.77949 3.44560
# Velocity P-wave (km/s) = 4.73553 6.53300 5.70550
#
# Compressibility (1/GPa) = 0.04636483
#
# Stress axis : x y z
#
# Youngs Moduli (GPa) = 63.72191 22.22626 94.77977
#
# Poissons Ratio (x) = 0.11206 0.36199
# Poissons Ratio (y) = 0.32128 0.33877
# Poissons Ratio (z) = 0.24337 0.07944
#
# Static dielectric constant tensor:
#      x y z
#    x 1.937860 0.065520 0.078410 
#    y 0.065520 1.839800 0.002450 
#    z 0.078410 0.002450 1.919260 
# 
# From -- ./inp_files/299651.got.cif
#   From: 2010.05.17/outbox.cif.g08.bks.cpg/sg2_150_cif.got.tgz:299651.got - 2010.06.03 11:33:40.
