data_PCOD9091312
_publ_section_title
;
Structure prediction by ZEFSAII (Michael W. Deem and Ramdas Pophale) SiO2 
 PCOD9091312
Probable space group: P -1
;
_chemical_formula_sum "Si O2"
_cell_formula_units_Z 16
_cell_length_a 7.899024
_cell_length_b 7.420724
_cell_length_c 22.355787
_cell_angle_alpha 105.542412
_cell_angle_beta 140.115669
_cell_angle_gamma 51.704171
_cell_volume 600.762312
_symmetry_space_group_name_H-M "P -1"
_symmetry_group_IT_number 2
_symmetry_cell_setting 'triclinic'
loop_
_space_group_symop_operation_xyz
x,y,z
-x,-y,-z
loop_
_atom_site_type_symbol
_atom_site_label
_atom_site_fract_x
_atom_site_fract_y
_atom_site_fract_z
Si Si1 0.608114 0.063664 0.279374
Si Si2 0.209925 0.855613 0.973375
Si Si3 0.462746 0.351500 0.774522
Si Si4 0.375369 0.927686 0.587336
Si Si5 0.419555 0.728405 0.465195
Si Si6 0.701335 0.254695 0.144623
Si Si7 0.744936 0.822311 0.926075
Si Si8 0.530014 0.270264 0.658185
O O1 0.641818 0.818869 0.265125
O O2 0.436305 0.201477 0.308856
O O3 0.998721 0.961165 0.370773
O O4 0.406025 0.204314 0.176926
O O5 0.286610 0.713870 0.919981
O O6 0.070254 0.778927 0.978614
O O7 0.882350 0.143686 0.886255
O O8 0.453483 0.898143 0.074064
O O9 0.296307 0.565449 0.797020
O O10 0.407102 0.441841 0.698677
O O11 0.321961 0.173445 0.596779
O O12 0.554660 0.807148 0.560386
O O13 0.000000 0.000000 0.500000
O O14 0.500000 0.500000 0.500000
O O15 0.522270 0.649953 0.417342
O O16 0.349403 0.294368 0.062556
O O17 0.054568 0.973638 0.236679
#
# Coordination Sequence:
#
# PCOD9091312 Si02
#       8
#     2   2   2   2   2   2   2   2
#     4   9  19  40  55  81 119 155 195 244 302 349
#     4   9  21  40  61  91 125 161 197 246 300 357
#     4   9  21  39  60  89 124 152 201 250 289 369
#     4   9  20  39  61  80 116 160 197 252 306 361
#     4  11  22  36  58  87 114 151 203 251 300 360
#     4  11  21  38  65  89 122 162 198 247 305 357
#     4  10  19  39  65  86 123 162 202 244 299 366
#     4  10  21  41  59  88 121 160 201 248 311 359
#
# _framework density 26.632829999999998
#
# number of rings (size 3 to 8) (size 9 to 14) (size 15 to 20)
#    0.000    2.250    1.250    1.500    1.750    1.500 
#    4.500    8.750    0.000    0.000    0.000    0.000 
#    0.000    0.000    0.000    0.000    0.000    0.000 
#
# Total GULP energy -89271.263915 kJ/mol
# GULP energy per Si atom -5579.453995 kJ/mol
# Density = 2.657221 g / cm^3
# Si number density = 26.632830 Si / 1000 Ang^3
#
#
#
# Elastic Constant Matrix: (Units=GPa)
#
#
# Indices 1 2 3 4 5 6 
#
# 1 141.4940 16.4325 60.4961 15.7961 -46.3091 2.4752
# 2 16.4325 54.9139 27.0483 25.0969 -13.7269 -17.8450
# 3 60.4961 27.0483 138.6596 34.7455 -46.4225 -13.9149
# 4 15.7961 25.0969 34.7455 50.5071 -15.8340 -9.8999
# 5 -46.3091 -13.7269 -46.4225 -15.8340 82.9620 8.7824
# 6 2.4752 -17.8450 -13.9149 -9.8999 8.7824 38.0553
#
#
#
# Elastic Compliance Matrix: (Units=1/GPa)
#
#
# Indices 1 2 3 4 5 6 
#
# 1 0.009901 -0.001773 -0.003120 0.000501 0.003943 -0.003396
# 2 -0.001773 0.027117 -0.000954 -0.010359 -0.000051 0.009799
# 3 -0.003120 -0.000954 0.011273 -0.004917 0.003275 0.001843
# 4 0.000501 -0.010359 -0.004917 0.028653 0.001232 0.000482
# 5 0.003943 -0.000051 0.003275 0.001232 0.016588 -0.002591
# 6 -0.003396 0.009799 0.001843 0.000482 -0.002591 0.032490
#
#
# Mechanical properties :
#
#
# Convention : Reuss Voigt Hill
#
# Bulk Modulus (GPa) = 27.32590 60.33571 43.83080
# Shear Modulus (GPa) = 33.35212 49.71091 41.53152
#
# Velocity S-wave (km/s) = 3.54262 4.32502 3.95322
# Velocity P-wave (km/s) = 5.19769 6.90253 6.10986
#
# Compressibility (1/GPa) = 0.03659532
#
# Stress axis : x y z
#
# Youngs Moduli (GPa) = 100.99687 36.87786 88.70863
#
# Poissons Ratio (x) = 0.06538 0.27681
# Poissons Ratio (y) = 0.17907 0.08465
# Poissons Ratio (z) = 0.31516 0.03519
#
# Static dielectric constant tensor:
#      x y z
#    x 2.178500 -0.150210 -0.035380 
#    y -0.150210 2.380840 0.087760 
#    z -0.035380 0.087760 2.285140 
# 
# From -- ./inp_files/213400.got.cif
#   From: 2010.05.17/outbox.cif.g08.bks.cpg/sg2_107_cif.got.tgz:213400.got - 2010.06.03 11:33:40.
