data_PCOD9091123
_publ_section_title
;
Structure prediction by ZEFSAII (Michael W. Deem and Ramdas Pophale) SiO2 
 PCOD9091123
Probable space group: P -1
;
_chemical_formula_sum "Si O2"
_cell_formula_units_Z 16
_cell_length_a 8.413598
_cell_length_b 11.309178
_cell_length_c 15.093454
_cell_angle_alpha 99.076786
_cell_angle_beta 33.313768
_cell_angle_gamma 106.913712
_cell_volume 744.626278
_symmetry_space_group_name_H-M "P -1"
_symmetry_group_IT_number 2
_symmetry_cell_setting 'triclinic'
loop_
_space_group_symop_operation_xyz
x,y,z
-x,-y,-z
loop_
_atom_site_type_symbol
_atom_site_label
_atom_site_fract_x
_atom_site_fract_y
_atom_site_fract_z
Si Si1 0.036012 0.893508 0.718368
Si Si2 0.195705 0.486358 0.823175
Si Si3 0.358078 0.146611 0.939868
Si Si4 0.729895 0.415454 0.866969
Si Si5 0.805425 0.775500 0.165345
Si Si6 0.485492 0.922452 0.904696
Si Si7 0.395491 0.166846 0.549727
Si Si8 0.708042 0.606447 0.479259
O O1 0.246646 0.805336 0.625926
O O2 0.927766 0.915690 0.870619
O O3 0.225972 0.020913 0.595553
O O4 0.739741 0.853230 0.790222
O O5 0.491608 0.594629 0.664580
O O6 0.954268 0.444677 0.850290
O O7 0.000000 0.500000 0.000000
O O8 0.315406 0.371967 0.782225
O O9 0.259382 0.184875 0.896673
O O10 0.536233 0.270745 0.925861
O O11 0.529349 0.041010 0.833325
O O12 0.972566 0.426744 0.673368
O O13 0.500000 0.500000 0.000000
O O14 0.164619 0.824975 0.022970
O O15 0.650665 0.824563 0.323451
O O16 0.500000 0.000000 0.000000
O O17 0.260763 0.261092 0.568544
O O18 0.500000 0.500000 0.500000
#
# Coordination Sequence:
#
# PCOD9091123 Si02
#       8
#     2   2   2   2   2   2   2   2
#     4  10  23  37  68  92 127 171 213 260 325 392
#     4  11  24  43  66  96 124 174 223 273 324 386
#     4  11  23  38  66  94 129 174 214 266 314 391
#     4  11  23  41  65  96 128 175 221 259 330 389
#     4  12  22  39  64  94 129 165 222 261 323 384
#     4  10  19  39  63  93 122 167 212 260 318 377
#     4  11  21  40  63  96 128 168 212 260 333 391
#     4  10  22  41  65  91 130 173 209 270 328 382
#
# _framework density 21.487287999999999
#
# number of rings (size 3 to 8) (size 9 to 14) (size 15 to 20)
#    0.000    1.250    5.000    3.375    5.250    0.000 
#    0.000    5.625    0.000    0.000    0.000    0.000 
#    0.000    0.000    0.000    0.000    0.000    0.000 
#
# Total GULP energy -89084.947942 kJ/mol
# GULP energy per Si atom -5567.809246 kJ/mol
# Density = 2.143838 g / cm^3
# Si number density = 21.487288 Si / 1000 Ang^3
#
#
#
# Elastic Constant Matrix: (Units=GPa)
#
#
# Indices 1 2 3 4 5 6 
#
# 1 86.5242 2.1202 42.4002 -2.7886 4.4594 -24.3586
# 2 2.1202 49.8787 24.9987 -8.1253 -2.1685 -14.1867
# 3 42.4002 24.9987 123.1439 7.7202 -3.0519 -11.5644
# 4 -2.7886 -8.1253 7.7202 32.6900 -8.0919 -2.9861
# 5 4.4594 -2.1685 -3.0519 -8.0919 23.3414 2.8389
# 6 -24.3586 -14.1867 -11.5644 -2.9861 2.8389 32.2170
#
#
#
# Elastic Compliance Matrix: (Units=1/GPa)
#
#
# Indices 1 2 3 4 5 6 
#
# 1 0.020461 0.008837 -0.007690 0.006365 -0.004021 0.017546
# 2 0.008837 0.031314 -0.008413 0.012779 0.002309 0.018432
# 3 -0.007690 -0.008413 0.012335 -0.005952 0.000933 -0.005725
# 4 0.006365 0.012779 -0.005952 0.039583 0.011583 0.010952
# 5 -0.004021 0.002309 0.000933 0.011583 0.048558 -0.004893
# 6 0.017546 0.018432 -0.005725 0.010952 -0.004893 0.051813
#
#
# Mechanical properties :
#
#
# Convention : Reuss Voigt Hill
#
# Bulk Modulus (GPa) = 20.17001 44.28724 32.22863
# Shear Modulus (GPa) = 21.26561 30.31819 25.79190
#
# Velocity S-wave (km/s) = 3.14934 3.76038 3.46834
# Velocity P-wave (km/s) = 4.75728 6.28567 5.57411
#
# Compressibility (1/GPa) = 0.04957856
#
# Stress axis : x y z
#
# Youngs Moduli (GPa) = 48.87290 31.93477 81.07143
#
# Poissons Ratio (x) = -0.28221 0.62344
# Poissons Ratio (y) = -0.43189 0.68202
# Poissons Ratio (z) = 0.37584 0.26865
#
# Static dielectric constant tensor:
#      x y z
#    x 1.787130 -0.056620 -0.042340 
#    y -0.056620 1.783200 -0.023940 
#    z -0.042340 -0.023940 1.871870 
# 
# From -- ./inp_files/500386.got.cif
#   From: 2010.05.17/outbox.cif.g08.bks.cpg/sg2_251_cif.got.tgz:500386.got - 2010.06.03 11:33:40.
