data_PCOD9091814
_publ_section_title
;
Structure prediction by ZEFSAII (Michael W. Deem and Ramdas Pophale) SiO2 
 PCOD9091814
Probable space group: P -1
;
_chemical_formula_sum "Si O2"
_cell_formula_units_Z 12
_cell_length_a 12.263757
_cell_length_b 10.029597
_cell_length_c 7.720379
_cell_angle_alpha 126.304751
_cell_angle_beta 127.548439
_cell_angle_gamma 45.392483
_cell_volume 512.851841
_symmetry_space_group_name_H-M "P -1"
_symmetry_group_IT_number 2
_symmetry_cell_setting 'triclinic'
loop_
_space_group_symop_operation_xyz
x,y,z
-x,-y,-z
loop_
_atom_site_type_symbol
_atom_site_label
_atom_site_fract_x
_atom_site_fract_y
_atom_site_fract_z
Si Si1 0.814175 0.633317 0.992892
Si Si2 0.844427 0.120198 0.235215
Si Si3 0.005766 0.640096 0.474656
Si Si4 0.664943 0.118565 0.741561
Si Si5 0.176544 0.751650 0.294877
Si Si6 0.688983 0.754221 0.622871
O O1 0.766535 0.472882 0.856923
O O2 0.691848 0.794062 0.861072
O O3 0.000000 0.500000 0.000000
O O4 0.847895 0.719633 0.262558
O O5 0.953197 0.198986 0.319478
O O6 0.794219 0.200973 0.444176
O O7 0.700149 0.178508 0.007883
O O8 0.978700 0.887349 0.193070
O O9 0.176972 0.474776 0.425483
O O10 0.000000 0.500000 0.500000
O O11 0.742822 0.180753 0.716157
O O12 0.477964 0.208519 0.582672
O O13 0.734719 0.887449 0.659529
#
# Coordination Sequence:
#
# PCOD9091814 Si02
#       6
#     2   2   2   2   2   2
#     4  10  19  40  61  84 122 154 197 244 296 350
#     4  11  22  37  64  92 117 149 206 256 285 354
#     4  11  21  38  64  92 117 155 202 249 301 348
#     4  11  24  42  60  85 127 162 199 237 308 358
#     4  11  22  39  63  92 115 161 200 248 301 347
#     4  10  23  43  58  84 124 164 192 247 299 359
#
# _framework density 23.398571
#
# number of rings (size 3 to 8) (size 9 to 14) (size 15 to 20)
#    0.000    1.333    3.333    4.500    2.333    1.333 
#    3.000    1.667    0.000    0.000    0.000    0.000 
#    0.000    0.000    0.000    0.000    0.000    0.000 
#
# Total GULP energy -66992.118196 kJ/mol
# GULP energy per Si atom -5582.676516 kJ/mol
# Density = 2.334531 g / cm^3
# Si number density = 23.398571 Si / 1000 Ang^3
#
#
#
# Elastic Constant Matrix: (Units=GPa)
#
#
# Indices 1 2 3 4 5 6 
#
# 1 83.8881 22.7040 49.4580 -2.6036 1.1143 43.7188
# 2 22.7040 59.7492 30.1410 0.7247 7.7178 30.4280
# 3 49.4580 30.1410 194.2236 -35.2662 -5.7595 20.3003
# 4 -2.6036 0.7247 -35.2662 32.0435 16.4923 0.4997
# 5 1.1143 7.7178 -5.7595 16.4923 22.2169 3.2914
# 6 43.7188 30.4280 20.3003 0.4997 3.2914 34.6185
#
#
#
# Elastic Compliance Matrix: (Units=1/GPa)
#
#
# Indices 1 2 3 4 5 6 
#
# 1 0.063104 0.034093 -0.012262 -0.009726 0.004252 -0.102732
# 2 0.034093 0.050906 -0.008784 -0.003016 -0.007297 -0.081911
# 3 -0.012262 -0.008784 0.009958 0.012983 -0.006020 0.017752
# 4 -0.009726 -0.003016 0.012983 0.069447 -0.048267 0.010906
# 5 0.004252 -0.007297 -0.006020 -0.048267 0.081976 -0.002523
# 6 -0.102732 -0.081911 0.017752 0.010906 -0.002523 0.220292
#
#
# Mechanical properties :
#
#
# Convention : Reuss Voigt Hill
#
# Bulk Modulus (GPa) = 6.66394 60.27411 33.46902
# Shear Modulus (GPa) = 9.62259 33.47963 21.55111
#
# Velocity S-wave (km/s) = 2.03012 3.78675 3.03816
# Velocity P-wave (km/s) = 2.88953 6.70335 5.16161
#
# Compressibility (1/GPa) = 0.15006145
#
# Stress axis : x y z
#
# Youngs Moduli (GPa) = 15.84689 19.64396 100.42327
#
# Poissons Ratio (x) = -0.66972 1.23140
# Poissons Ratio (y) = -0.54027 0.88214
# Poissons Ratio (z) = 0.19432 0.17256
#
# Static dielectric constant tensor:
#      x y z
#    x 1.974110 -0.051280 -0.112840 
#    y -0.051280 1.900330 0.081490 
#    z -0.112840 0.081490 1.963170 
# 
# From -- ./inp_files/263233.got.cif
#   From: 2010.05.17/outbox.cif.g08.bks.cpg/sg2_132_cif.got.tgz:263233.got - 2010.06.03 11:33:40.
