data_PCOD9091712
_publ_section_title
;
Structure prediction by ZEFSAII (Michael W. Deem and Ramdas Pophale) SiO2 
 PCOD9091712
Probable space group: P -1
;
_chemical_formula_sum "Si O2"
_cell_formula_units_Z 14
_cell_length_a 17.552863
_cell_length_b 9.430253
_cell_length_c 11.542843
_cell_angle_alpha 130.156474
_cell_angle_beta 137.447087
_cell_angle_gamma 30.100419
_cell_volume 647.861883
_symmetry_space_group_name_H-M "P -1"
_symmetry_group_IT_number 2
_symmetry_cell_setting 'triclinic'
loop_
_space_group_symop_operation_xyz
x,y,z
-x,-y,-z
loop_
_atom_site_type_symbol
_atom_site_label
_atom_site_fract_x
_atom_site_fract_y
_atom_site_fract_z
Si Si1 0.462791 0.333676 0.834663
Si Si2 0.805156 0.307516 0.472981
Si Si3 0.186365 0.045813 0.033433
Si Si4 0.568651 0.320469 0.364718
Si Si5 0.993574 0.619805 0.212501
Si Si6 0.139300 0.328131 0.666699
Si Si7 0.302065 0.511272 0.976143
O O1 0.295615 0.527089 0.671197
O O2 0.629239 0.084231 0.813584
O O3 0.500000 0.500000 0.000000
O O4 0.431208 0.284577 0.898162
O O5 0.686302 0.318942 0.421722
O O6 0.840764 0.456002 0.656296
O O7 0.000000 0.000000 0.500000
O O8 0.040384 0.352910 0.088358
O O9 0.199704 0.819974 0.976226
O O10 0.148253 0.114338 0.890119
O O11 0.500000 0.500000 0.500000
O O12 0.412959 0.441870 0.172775
O O13 0.692475 0.992020 0.354747
O O14 0.934157 0.688149 0.313329
O O15 0.000000 0.500000 0.500000
O O16 0.182728 0.481421 0.839843
#
# Coordination Sequence:
#
# PCOD9091712 Si02
#       7
#     2   2   2   2   2   2   2
#     4  10  19  39  70  96 127 183 241 281 354 422
#     4  12  22  42  73  98 138 185 241 298 350 427
#     4  10  23  43  70 106 135 185 244 303 355 428
#     4  12  28  47  72 110 149 193 242 302 368 433
#     4  11  25  42  71 106 144 183 247 296 362 430
#     4  12  28  46  72 107 149 193 239 294 375 440
#     4  11  24  47  74  99 147 192 241 299 364 435
#
# _framework density 21.609544
#
# number of rings (size 3 to 8) (size 9 to 14) (size 15 to 20)
#    0.000    0.857    4.286    3.857    4.000    4.571 
#    0.000    0.000    0.000    0.000    0.000    0.000 
#    0.000    0.000    0.000    0.000    0.000    0.000 
#
# Total GULP energy -78157.035093 kJ/mol
# GULP energy per Si atom -5582.645364 kJ/mol
# Density = 2.156036 g / cm^3
# Si number density = 21.609544 Si / 1000 Ang^3
#
#
#
# Elastic Constant Matrix: (Units=GPa)
#
#
# Indices 1 2 3 4 5 6 
#
# 1 90.4129 31.4617 65.8517 1.8223 -2.2066 9.0226
# 2 31.4617 138.1095 65.0430 -3.8069 -10.0659 17.4438
# 3 65.8517 65.0430 144.1288 -25.9614 5.1025 18.9292
# 4 1.8223 -3.8069 -25.9614 37.2423 7.9968 0.9301
# 5 -2.2066 -10.0659 5.1025 7.9968 43.5893 6.1395
# 6 9.0226 17.4438 18.9292 0.9301 6.1395 24.6886
#
#
#
# Elastic Compliance Matrix: (Units=1/GPa)
#
#
# Indices 1 2 3 4 5 6 
#
# 1 0.018976 0.000829 -0.010889 -0.009322 0.004115 0.000157
# 2 0.000829 0.010289 -0.005195 -0.003418 0.004291 -0.004528
# 3 -0.010889 -0.005195 0.017544 0.013557 -0.005599 -0.004920
# 4 -0.009322 -0.003418 0.013557 0.038518 -0.009395 -0.003687
# 5 0.004115 0.004291 -0.005599 -0.009395 0.027466 -0.006719
# 6 0.000157 -0.004528 -0.004920 -0.003687 -0.006719 0.049228
#
#
# Mechanical properties :
#
#
# Convention : Reuss Voigt Hill
#
# Bulk Modulus (GPa) = 61.35735 77.48487 69.42111
# Shear Modulus (GPa) = 25.25705 35.12369 30.19037
#
# Velocity S-wave (km/s) = 3.42247 4.03597 3.74181
# Velocity P-wave (km/s) = 6.63875 7.59298 7.13184
#
# Compressibility (1/GPa) = 0.01629797
#
# Stress axis : x y z
#
# Youngs Moduli (GPa) = 52.69833 97.19397 56.99881
#
# Poissons Ratio (x) = -0.08056 0.62069
# Poissons Ratio (y) = -0.04368 0.29610
# Poissons Ratio (z) = 0.57386 0.50490
#
# Static dielectric constant tensor:
#      x y z
#    x 1.863140 -0.033220 0.032050 
#    y -0.033220 1.878130 0.032580 
#    z 0.032050 0.032580 1.800560 
# 
# From -- ./inp_files/462472.got.cif
#   From: 2010.05.17/outbox.cif.g08.bks.cpg/sg2_232_cif.got.tgz:462472.got - 2010.06.03 11:33:40.
