data_PCOD9091562
_publ_section_title
;
Structure prediction by ZEFSAII (Michael W. Deem and Ramdas Pophale) SiO2 
 PCOD9091562
Probable space group: P -1
;
_chemical_formula_sum "Si O2"
_cell_formula_units_Z 16
_cell_length_a 16.054207
_cell_length_b 8.924445
_cell_length_c 10.420870
_cell_angle_alpha 117.932192
_cell_angle_beta 34.680928
_cell_angle_gamma 120.602592
_cell_volume 727.437934
_symmetry_space_group_name_H-M "P -1"
_symmetry_group_IT_number 2
_symmetry_cell_setting 'triclinic'
loop_
_space_group_symop_operation_xyz
x,y,z
-x,-y,-z
loop_
_atom_site_type_symbol
_atom_site_label
_atom_site_fract_x
_atom_site_fract_y
_atom_site_fract_z
Si Si1 0.812483 0.311404 0.275244
Si Si2 0.085387 0.783020 0.640502
Si Si3 0.616374 0.777387 0.953528
Si Si4 0.297113 0.555300 0.200518
Si Si5 0.747834 0.620718 0.083223
Si Si6 0.527597 0.812240 0.362546
Si Si7 0.902228 0.373541 0.914304
Si Si8 0.133889 0.928623 0.362757
O O1 0.832826 0.179251 0.309893
O O2 0.638490 0.315726 0.495149
O O3 0.931737 0.496190 0.229107
O O4 0.859948 0.263954 0.054303
O O5 0.147229 0.617447 0.446343
O O6 0.118280 0.908725 0.527416
O O7 0.909305 0.737055 0.877613
O O8 0.442506 0.712094 0.107201
O O9 0.616050 0.829929 0.123496
O O10 0.687790 0.608897 0.797725
O O11 0.711050 0.934739 0.814236
O O12 0.308955 0.500993 0.016946
O O13 0.627514 0.733958 0.304378
O O14 0.789034 0.501937 0.095648
O O15 0.500000 0.000000 0.500000
O O16 0.880856 0.253400 0.767627
O O17 0.000000 0.000000 0.500000
#
# Coordination Sequence:
#
# PCOD9091562 Si02
#       8
#     2   2   2   2   2   2   2   2
#     4  10  23  42  68  89 129 180 217 263 325 387
#     4  11  22  41  69  95 126 172 221 262 322 389
#     4  10  23  37  63 100 132 165 212 271 332 377
#     4  10  19  39  67  94 125 171 211 265 321 397
#     4  10  22  38  69  96 121 175 223 263 321 387
#     4  11  22  41  64  92 133 174 215 266 328 386
#     4  10  23  44  65  95 130 168 226 270 315 399
#     4  12  25  39  64 102 134 167 215 281 325 373
#
# _framework density 21.995003000000001
#
# number of rings (size 3 to 8) (size 9 to 14) (size 15 to 20)
#    0.000    1.500    2.500    2.625    5.250    1.000 
#    0.000    6.875    0.000    0.000    0.000    0.000 
#    0.000    0.000    0.000    0.000    0.000    0.000 
#
# Total GULP energy -89385.996208 kJ/mol
# GULP energy per Si atom -5586.624763 kJ/mol
# Density = 2.194494 g / cm^3
# Si number density = 21.995003 Si / 1000 Ang^3
#
#
#
# Elastic Constant Matrix: (Units=GPa)
#
#
# Indices 1 2 3 4 5 6 
#
# 1 98.4805 36.5573 50.2440 -10.8436 -1.5951 -24.1780
# 2 36.5573 70.7132 33.4763 -1.5983 -17.8525 -9.2783
# 3 50.2440 33.4763 72.1620 -5.1059 -15.1566 -18.6846
# 4 -10.8436 -1.5983 -5.1059 36.8247 -12.7559 -3.0219
# 5 -1.5951 -17.8525 -15.1566 -12.7559 49.5041 -4.5553
# 6 -24.1780 -9.2783 -18.6846 -3.0219 -4.5553 28.8105
#
#
#
# Elastic Compliance Matrix: (Units=1/GPa)
#
#
# Indices 1 2 3 4 5 6 
#
# 1 0.019095 -0.004931 -0.008831 0.004230 -0.001963 0.008843
# 2 -0.004931 0.020502 -0.004570 0.000978 0.006140 0.000574
# 3 -0.008831 -0.004570 0.026949 0.004738 0.008499 0.010435
# 4 0.004230 0.000978 0.004738 0.034243 0.011906 0.012412
# 5 -0.001963 0.006140 0.008499 0.011906 0.029097 0.011692
# 6 0.008843 0.000574 0.010435 0.012412 0.011692 0.052233
#
#
# Mechanical properties :
#
#
# Convention : Reuss Voigt Hill
#
# Bulk Modulus (GPa) = 33.46532 53.54566 43.50549
# Shear Modulus (GPa) = 21.85829 31.09975 26.47902
#
# Velocity S-wave (km/s) = 3.15585 3.76433 3.47344
# Velocity P-wave (km/s) = 5.34109 6.57958 5.99242
#
# Compressibility (1/GPa) = 0.02988168
#
# Stress axis : x y z
#
# Youngs Moduli (GPa) = 52.36876 48.77571 37.10674
#
# Poissons Ratio (x) = 0.24050 0.32771
# Poissons Ratio (y) = 0.25822 0.16959
# Poissons Ratio (z) = 0.46249 0.22292
#
# Static dielectric constant tensor:
#      x y z
#    x 1.848090 -0.014590 -0.002520 
#    y -0.014590 1.838020 0.013870 
#    z -0.002520 0.013870 1.800540 
# 
# From -- ./inp_files/461455.got.cif
#   From: 2010.05.17/outbox.cif.g08.bks.cpg/sg2_231_cif.got.tgz:461455.got - 2010.06.03 11:33:40.
