data_PCOD9091993
_publ_section_title
;
Structure prediction by ZEFSAII (Michael W. Deem and Ramdas Pophale) SiO2 
 PCOD9091993
Probable space group: P -1
;
_chemical_formula_sum "Si O2"
_cell_formula_units_Z 16
_cell_length_a 5.091884
_cell_length_b 12.010582
_cell_length_c 16.340863
_cell_angle_alpha 49.031863
_cell_angle_beta 59.014673
_cell_angle_gamma 81.736850
_cell_volume 617.226698
_symmetry_space_group_name_H-M "P -1"
_symmetry_group_IT_number 2
_symmetry_cell_setting 'triclinic'
loop_
_space_group_symop_operation_xyz
x,y,z
-x,-y,-z
loop_
_atom_site_type_symbol
_atom_site_label
_atom_site_fract_x
_atom_site_fract_y
_atom_site_fract_z
Si Si1 0.828743 0.819170 0.421691
Si Si2 0.002166 0.445885 0.117229
Si Si3 0.352532 0.800691 0.214640
Si Si4 0.063649 0.112130 0.355777
Si Si5 0.275606 0.415247 0.776738
Si Si6 0.419653 0.259108 0.101547
Si Si7 0.262576 0.879968 0.004064
Si Si8 0.100501 0.670104 0.593015
O O1 0.081405 0.810968 0.315782
O O2 0.884323 0.703649 0.539369
O O3 0.471494 0.761440 0.471465
O O4 0.882860 0.983608 0.378571
O O5 0.084202 0.287710 0.164756
O O6 0.707400 0.473422 0.201248
O O7 0.322065 0.575671 0.037228
O O8 0.000000 0.500000 0.000000
O O9 0.433592 0.638978 0.278690
O O10 0.268325 0.843409 0.116271
O O11 0.676085 0.942234 0.113977
O O12 0.982118 0.256600 0.344674
O O13 0.427197 0.172407 0.228864
O O14 0.000000 0.000000 0.500000
O O15 0.111167 0.497778 0.695930
O O16 0.037508 0.249372 0.923466
O O17 0.436593 0.157919 0.070157
#
# Coordination Sequence:
#
# PCOD9091993 Si02
#       8
#     2   2   2   2   2   2   2   2
#     4  11  26  47  72 102 136 189 231 285 345 408
#     4  10  21  36  61  98 130 172 218 280 352 408
#     4  11  24  43  68  94 137 180 237 282 343 412
#     4  10  21  44  67 100 136 178 227 286 344 410
#     4  11  24  41  66  98 137 179 229 291 341 413
#     4  10  19  40  64  93 133 166 225 279 346 412
#     4  10  23  43  66  98 132 179 231 287 347 406
#     4  11  26  46  73 103 139 180 233 288 347 411
#
# _framework density 25.922404
#
# number of rings (size 3 to 8) (size 9 to 14) (size 15 to 20)
#    0.000    1.500    2.500    1.500    3.500    3.000 
#    4.500    0.000    0.000    0.000    0.000    0.000 
#    0.000    0.000    0.000    0.000    0.000    0.000 
#
# Total GULP energy -89247.432660 kJ/mol
# GULP energy per Si atom -5577.964541 kJ/mol
# Density = 2.586340 g / cm^3
# Si number density = 25.922404 Si / 1000 Ang^3
#
#
#
# Elastic Constant Matrix: (Units=GPa)
#
#
# Indices 1 2 3 4 5 6 
#
# 1 42.0093 17.1844 0.8501 -1.9286 1.1350 -1.9310
# 2 17.1844 180.4079 56.3053 3.3217 9.4916 -9.8023
# 3 0.8501 56.3053 116.8185 21.5969 -13.0127 0.4668
# 4 -1.9286 3.3217 21.5969 64.1254 7.7202 5.3788
# 5 1.1350 9.4916 -13.0127 7.7202 32.4637 -6.9788
# 6 -1.9310 -9.8023 0.4668 5.3788 -6.9788 10.3044
#
#
#
# Elastic Compliance Matrix: (Units=1/GPa)
#
#
# Indices 1 2 3 4 5 6 
#
# 1 0.024967 -0.002644 0.001148 0.000176 0.000881 0.002617
# 2 -0.002644 0.007446 -0.004096 0.000924 -0.003036 0.004235
# 3 0.001148 -0.004096 0.012405 -0.005271 0.008266 0.004107
# 4 0.000176 0.000924 -0.005271 0.020002 -0.010701 -0.016537
# 5 0.000881 -0.003036 0.008266 -0.010701 0.044538 0.032652
# 6 0.002617 0.004235 0.004107 -0.016537 0.032652 0.132124
#
#
# Mechanical properties :
#
#
# Convention : Reuss Voigt Hill
#
# Bulk Modulus (GPa) = 29.73141 54.21281 41.97211
# Shear Modulus (GPa) = 18.94825 39.03843 28.99334
#
# Velocity S-wave (km/s) = 2.70656 3.88490 3.34798
# Velocity P-wave (km/s) = 4.61103 6.40953 5.58318
#
# Compressibility (1/GPa) = 0.03363446
#
# Stress axis : x y z
#
# Youngs Moduli (GPa) = 40.05275 134.30348 80.61442
#
# Poissons Ratio (x) = 0.35508 -0.09253
# Poissons Ratio (y) = 0.10589 0.33016
# Poissons Ratio (z) = -0.04597 0.55005
#
# Static dielectric constant tensor:
#      x y z
#    x 2.000510 -0.018580 -0.133460 
#    y -0.018580 2.168180 -0.144260 
#    z -0.133460 -0.144260 2.224310 
# 
# From -- ./inp_files/109650.got.cif
#   From: 2010.05.17/outbox.cif.g08.bks.cpg/sg2_55_cif.got.tgz:109650.got - 2010.06.03 11:33:40.
