data_PCOD9091500
_publ_section_title
;
Structure prediction by ZEFSAII (Michael W. Deem and Ramdas Pophale) SiO2 
 PCOD9091500
Probable space group: P -1
;
_chemical_formula_sum "Si O2"
_cell_formula_units_Z 16
_cell_length_a 16.422539
_cell_length_b 9.583501
_cell_length_c 13.508401
_cell_angle_alpha 151.579099
_cell_angle_beta 139.396835
_cell_angle_gamma 48.955711
_cell_volume 658.120249
_symmetry_space_group_name_H-M "P -1"
_symmetry_group_IT_number 2
_symmetry_cell_setting 'triclinic'
loop_
_space_group_symop_operation_xyz
x,y,z
-x,-y,-z
loop_
_atom_site_type_symbol
_atom_site_label
_atom_site_fract_x
_atom_site_fract_y
_atom_site_fract_z
Si Si1 0.813552 0.673417 0.981356
Si Si2 0.822636 0.571608 0.393020
Si Si3 0.814521 0.003556 0.889539
Si Si4 0.378430 0.261486 0.323028
Si Si5 0.562044 0.686581 0.868190
Si Si6 0.996646 0.775859 0.528027
Si Si7 0.063212 0.672197 0.968177
Si Si8 0.442219 0.607897 0.912462
O O1 0.896028 0.419054 0.942459
O O2 0.904711 0.956125 0.225242
O O3 0.730227 0.611990 0.768087
O O4 0.707082 0.721245 0.996155
O O5 0.807586 0.292674 0.131305
O O6 0.924592 0.486143 0.514409
O O7 0.690183 0.572341 0.325192
O O8 0.884200 0.811175 0.525118
O O9 0.839939 0.117274 0.873063
O O10 0.690039 0.821329 0.688669
O O11 0.932249 0.828177 0.929937
O O12 0.506651 0.523963 0.407647
O O13 0.417964 0.956860 0.118852
O O14 0.530969 0.567407 0.874934
O O15 0.500000 0.000000 0.000000
O O16 0.948276 0.638746 0.295488
O O17 0.500000 0.500000 0.000000
#
# Coordination Sequence:
#
# PCOD9091500 Si02
#       8
#     2   2   2   2   2   2   2   2
#     4  12  24  44  66 103 144 181 235 292 349 423
#     4   9  19  40  67  95 136 181 226 283 343 416
#     4   9  20  42  64  92 138 176 230 285 350 410
#     4  11  25  48  71  98 145 185 239 296 342 427
#     4  12  27  47  74 101 140 193 234 289 364 413
#     4  10  19  39  66  95 137 178 220 287 342 410
#     4  10  23  38  67 103 133 180 233 284 354 418
#     4  11  25  47  74 106 138 185 243 288 351 418
#
# _framework density 24.311668999999998
#
# number of rings (size 3 to 8) (size 9 to 14) (size 15 to 20)
#    0.000    1.500    3.750    0.750    8.750    1.000 
#    0.000    0.000    0.000    0.000    0.000    0.000 
#    0.000    0.000    0.000    0.000    0.000    0.000 
#
# Total GULP energy -89546.401646 kJ/mol
# GULP energy per Si atom -5596.650103 kJ/mol
# Density = 2.425633 g / cm^3
# Si number density = 24.311669 Si / 1000 Ang^3
#
#
#
# Elastic Constant Matrix: (Units=GPa)
#
#
# Indices 1 2 3 4 5 6 
#
# 1 166.1208 17.5231 50.9825 8.6542 23.6827 27.8517
# 2 17.5231 88.6430 44.6361 2.6391 -4.8295 28.4547
# 3 50.9825 44.6361 132.0155 14.9638 19.6282 8.6308
# 4 8.6542 2.6391 14.9638 24.8240 13.6774 -4.2563
# 5 23.6827 -4.8295 19.6282 13.6774 39.6504 -2.4050
# 6 27.8517 28.4547 8.6308 -4.2563 -2.4050 28.7288
#
#
#
# Elastic Compliance Matrix: (Units=1/GPa)
#
#
# Indices 1 2 3 4 5 6 
#
# 1 0.009278 0.003532 -0.003252 -0.001713 -0.003643 -0.012075
# 2 0.003532 0.022445 -0.007449 -0.005926 0.004907 -0.023884
# 3 -0.003252 -0.007449 0.011705 -0.002004 -0.003679 0.006410
# 4 -0.001713 -0.005926 -0.002004 0.054386 -0.016569 0.014802
# 5 -0.003643 0.004907 -0.003679 -0.016569 0.035549 0.000298
# 6 -0.012075 -0.023884 0.006410 0.014802 0.000298 0.070464
#
#
# Mechanical properties :
#
#
# Convention : Reuss Voigt Hill
#
# Bulk Modulus (GPa) = 34.37717 68.11809 51.24763
# Shear Modulus (GPa) = 21.94314 36.88313 29.41314
#
# Velocity S-wave (km/s) = 3.00755 3.89922 3.48204
# Velocity P-wave (km/s) = 5.12166 6.95351 6.10667
#
# Compressibility (1/GPa) = 0.02908908
#
# Stress axis : x y z
#
# Youngs Moduli (GPa) = 107.77720 44.55371 85.43650
#
# Poissons Ratio (x) = -0.15737 0.27786
# Poissons Ratio (y) = -0.38069 0.63645
# Poissons Ratio (z) = 0.35051 0.33190
#
# Static dielectric constant tensor:
#      x y z
#    x 2.005870 0.010910 -0.018140 
#    y 0.010910 1.916550 0.007180 
#    z -0.018140 0.007180 2.003280 
# 
# From -- ./inp_files/537228.got.cif
#   From: 2010.05.17/outbox.cif.g08.bks.cpg/sg2_269_cif.got.tgz:537228.got - 2010.06.03 11:33:40.
