data_PCOD9091696
_publ_section_title
;
Structure prediction by ZEFSAII (Michael W. Deem and Ramdas Pophale) SiO2 
 PCOD9091696
Probable space group: P -1
;
_chemical_formula_sum "Si O2"
_cell_formula_units_Z 16
_cell_length_a 12.427466
_cell_length_b 13.895447
_cell_length_c 17.533082
_cell_angle_alpha 130.074068
_cell_angle_beta 160.888573
_cell_angle_gamma 52.071092
_cell_volume 758.300749
_symmetry_space_group_name_H-M "P -1"
_symmetry_group_IT_number 2
_symmetry_cell_setting 'triclinic'
loop_
_space_group_symop_operation_xyz
x,y,z
-x,-y,-z
loop_
_atom_site_type_symbol
_atom_site_label
_atom_site_fract_x
_atom_site_fract_y
_atom_site_fract_z
Si Si1 0.586764 0.785904 0.477699
Si Si2 0.859699 0.909411 0.422132
Si Si3 0.152491 0.678560 0.589770
Si Si4 0.468633 0.550523 0.116752
Si Si5 0.652656 0.471952 0.792102
Si Si6 0.573619 0.953420 0.695368
Si Si7 0.657154 0.270852 0.089813
Si Si8 0.130879 0.797365 0.029130
O O1 0.450357 0.666841 0.371030
O O2 0.566735 0.904328 0.579955
O O3 0.355614 0.802631 0.257489
O O4 0.961309 0.751625 0.688632
O O5 0.069201 0.795263 0.539947
O O6 0.770846 0.004322 0.479966
O O7 0.556904 0.838127 0.143720
O O8 0.000000 0.000000 0.500000
O O9 0.375390 0.577055 0.642053
O O10 0.339547 0.725987 0.814432
O O11 0.823794 0.612367 0.369535
O O12 0.376292 0.532968 0.136148
O O13 0.505674 0.409771 0.036132
O O14 0.206613 0.660824 0.973572
O O15 0.000000 0.500000 0.000000
O O16 0.751600 0.087722 0.885500
O O17 0.755272 0.843781 0.810768
#
# Coordination Sequence:
#
# PCOD9091696 Si02
#       8
#     2   2   2   2   2   2   2   2
#     4  11  21  37  67  93 124 168 213 262 328 385
#     4  12  29  44  60  93 134 177 224 266 319 389
#     4  11  21  45  70  96 133 167 219 275 318 392
#     4  10  19  39  69  99 127 162 219 270 318 392
#     4  10  21  38  66 104 133 162 209 273 337 386
#     4  11  23  38  56  88 132 168 212 260 314 377
#     4  11  21  41  72  97 122 169 222 268 331 382
#     4  10  20  37  61  97 125 156 210 273 308 375
#
# _framework density 21.099809
#
# number of rings (size 3 to 8) (size 9 to 14) (size 15 to 20)
#    0.000    1.250    5.000    2.625    0.000    7.000 
#    0.000    0.000    0.000    7.500    0.000    0.000 
#    0.000    0.000    0.000    0.000    0.000    0.000 
#
# Total GULP energy -89228.115916 kJ/mol
# GULP energy per Si atom -5576.757245 kJ/mol
# Density = 2.105179 g / cm^3
# Si number density = 21.099809 Si / 1000 Ang^3
#
#
#
# Elastic Constant Matrix: (Units=GPa)
#
#
# Indices 1 2 3 4 5 6 
#
# 1 66.3137 56.1325 19.9956 2.0172 6.1762 8.8660
# 2 56.1325 143.3291 53.4954 -9.6346 16.7430 12.2993
# 3 19.9956 53.4954 57.0305 -3.1706 -5.6250 17.5921
# 4 2.0172 -9.6346 -3.1706 37.9059 -2.9080 -9.1394
# 5 6.1762 16.7430 -5.6250 -2.9080 36.4248 -0.0339
# 6 8.8660 12.2993 17.5921 -9.1394 -0.0339 25.3843
#
#
#
# Elastic Compliance Matrix: (Units=1/GPa)
#
#
# Indices 1 2 3 4 5 6 
#
# 1 0.024076 -0.010625 0.003723 -0.005483 0.000932 -0.007814
# 2 -0.010625 0.017693 -0.015863 0.005003 -0.008374 0.007922
# 3 0.003723 -0.015863 0.038975 -0.005477 0.012221 -0.022581
# 4 -0.005483 0.005003 -0.005477 0.030990 0.000272 0.014444
# 5 0.000932 -0.008374 0.012221 0.000272 0.033050 -0.004595
# 6 -0.007814 0.007922 -0.022581 0.014444 -0.004595 0.059129
#
#
# Mechanical properties :
#
#
# Convention : Reuss Voigt Hill
#
# Bulk Modulus (GPa) = 28.39798 58.43556 43.41677
# Shear Modulus (GPa) = 19.14371 29.07965 24.11168
#
# Velocity S-wave (km/s) = 3.01540 3.71643 3.38412
# Velocity P-wave (km/s) = 5.06079 6.79491 5.99093
#
# Compressibility (1/GPa) = 0.03521377
#
# Stress axis : x y z
#
# Youngs Moduli (GPa) = 41.53513 56.51797 25.65730
#
# Poissons Ratio (x) = 0.60052 -0.09551
# Poissons Ratio (y) = 0.44132 0.40700
# Poissons Ratio (z) = -0.15462 0.89654
#
# Static dielectric constant tensor:
#      x y z
#    x 1.897300 -0.023940 0.071680 
#    y -0.023940 1.790600 -0.051080 
#    z 0.071680 -0.051080 1.866530 
# 
# From -- ./inp_files/569953.got.cif
#   From: 2010.05.17/outbox.cif.g08.bks.cpg/sg2_285_cif.got.tgz:569953.got - 2010.06.03 11:33:40.
