data_PCOD9091955
_publ_section_title
;
Structure prediction by ZEFSAII (Michael W. Deem and Ramdas Pophale) SiO2 
 PCOD9091955
Probable space group: P -1
;
_chemical_formula_sum "Si O2"
_cell_formula_units_Z 14
_cell_length_a 9.256759
_cell_length_b 7.115113
_cell_length_c 18.446119
_cell_angle_alpha 67.616795
_cell_angle_beta 27.714657
_cell_angle_gamma 75.837482
_cell_volume 510.235449
_symmetry_space_group_name_H-M "P -1"
_symmetry_group_IT_number 2
_symmetry_cell_setting 'triclinic'
loop_
_space_group_symop_operation_xyz
x,y,z
-x,-y,-z
loop_
_atom_site_type_symbol
_atom_site_label
_atom_site_fract_x
_atom_site_fract_y
_atom_site_fract_z
Si Si1 0.866841 0.229117 0.811421
Si Si2 0.986389 0.091809 0.311014
Si Si3 0.587649 0.626658 0.115259
Si Si4 0.493189 0.314995 0.435169
Si Si5 0.058704 0.004201 0.887447
Si Si6 0.788965 0.781514 0.655046
Si Si7 0.390743 0.697786 0.347935
O O1 0.614204 0.346365 0.871204
O O2 0.229376 0.339126 0.609784
O O3 0.890035 0.161502 0.893906
O O4 0.826513 0.012758 0.815836
O O5 0.811839 0.265485 0.332782
O O6 0.195714 0.175320 0.273335
O O7 0.696097 0.896488 0.488940
O O8 0.546666 0.379955 0.184004
O O9 0.437711 0.726998 0.236973
O O10 0.933690 0.779620 0.939669
O O11 0.544713 0.507947 0.331102
O O12 0.432472 0.108839 0.709259
O O13 0.000000 0.000000 0.000000
O O14 0.026355 0.639725 0.541080
O O15 0.000000 0.000000 0.500000
#
# Coordination Sequence:
#
# PCOD9091955 Si02
#       7
#     2   2   2   2   2   2   2
#     4  10  19  40  64  87 128 157 204 255 303 356
#     4   9  20  34  57  95 125 152 199 255 309 354
#     4  11  23  40  61  93 125 163 204 251 304 362
#     4   9  19  36  62  93 123 155 204 253 306 354
#     4  10  24  41  63  90 121 167 209 244 303 378
#     4  12  22  36  64  95 124 156 207 257 309 354
#     4  11  22  39  65  89 125 162 207 248 305 363
#
# _framework density 27.438312
#
# number of rings (size 3 to 8) (size 9 to 14) (size 15 to 20)
#    0.857    0.857    1.429    3.429    2.000    1.143 
#    0.000    1.429    6.286    0.000    0.000    0.000 
#    0.000    0.000    0.000    0.000    0.000    0.000 
#
# Total GULP energy -78222.698252 kJ/mol
# GULP energy per Si atom -5587.335589 kJ/mol
# Density = 2.737586 g / cm^3
# Si number density = 27.438312 Si / 1000 Ang^3
#
#
#
# Elastic Constant Matrix: (Units=GPa)
#
#
# Indices 1 2 3 4 5 6 
#
# 1 147.1855 38.4726 59.3814 -19.9570 4.9099 6.0879
# 2 38.4726 85.0826 21.1195 -25.3271 0.1591 -4.3937
# 3 59.3814 21.1195 60.9212 -25.4485 4.5279 -6.3961
# 4 -19.9570 -25.3271 -25.4485 50.3881 7.4801 -2.1352
# 5 4.9099 0.1591 4.5279 7.4801 45.8225 -1.7114
# 6 6.0879 -4.3937 -6.3961 -2.1352 -1.7114 46.3555
#
#
#
# Elastic Compliance Matrix: (Units=1/GPa)
#
#
# Indices 1 2 3 4 5 6 
#
# 1 0.012712 -0.003816 -0.013066 -0.003711 0.000399 -0.003990
# 2 -0.003816 0.015354 0.001805 0.007362 -0.000931 0.002510
# 3 -0.013066 0.001805 0.035773 0.014745 -0.004274 0.007344
# 4 -0.003711 0.007362 0.014745 0.030588 -0.005913 0.004410
# 5 0.000399 -0.000931 -0.004274 -0.005913 0.023166 -0.000147
# 6 -0.003990 0.002510 0.007344 0.004410 -0.000147 0.023545
#
#
# Mechanical properties :
#
#
# Convention : Reuss Voigt Hill
#
# Bulk Modulus (GPa) = 29.68772 59.01515 44.35144
# Shear Modulus (GPa) = 27.39415 40.12760 33.76088
#
# Velocity S-wave (km/s) = 3.16316 3.82837 3.51155
# Velocity P-wave (km/s) = 4.91773 6.41068 5.71318
#
# Compressibility (1/GPa) = 0.03368396
#
# Stress axis : x y z
#
# Youngs Moduli (GPa) = 78.66752 65.13103 27.95402
#
# Poissons Ratio (x) = 0.24854 0.36525
# Poissons Ratio (y) = 0.30020 -0.05046
# Poissons Ratio (z) = 1.02789 -0.11757
#
# Static dielectric constant tensor:
#      x y z
#    x 2.102780 -0.058820 -0.018140 
#    y -0.058820 2.264610 -0.037520 
#    z -0.018140 -0.037520 2.186460 
# 
# From -- ./inp_files/556941.got.cif
#   From: 2010.05.17/outbox.cif.g08.bks.cpg/sg2_279_cif.got.tgz:556941.got - 2010.06.03 11:33:40.
