data_PCOD9091242
_publ_section_title
;
Structure prediction by ZEFSAII (Michael W. Deem and Ramdas Pophale) SiO2 
 PCOD9091242
Probable space group: P -1
;
_chemical_formula_sum "Si O2"
_cell_formula_units_Z 14
_cell_length_a 17.787244
_cell_length_b 12.163762
_cell_length_c 5.299215
_cell_angle_alpha 75.082315
_cell_angle_beta 98.195250
_cell_angle_gamma 151.738668
_cell_volume 515.622535
_symmetry_space_group_name_H-M "P -1"
_symmetry_group_IT_number 2
_symmetry_cell_setting 'triclinic'
loop_
_space_group_symop_operation_xyz
x,y,z
-x,-y,-z
loop_
_atom_site_type_symbol
_atom_site_label
_atom_site_fract_x
_atom_site_fract_y
_atom_site_fract_z
Si Si1 0.748580 0.149001 0.012237
Si Si2 0.972589 0.358762 0.388646
Si Si3 0.879688 0.879801 0.294558
Si Si4 0.607685 0.546129 0.738001
Si Si5 0.180037 0.440684 0.647899
Si Si6 0.257492 0.100155 0.003818
Si Si7 0.621251 0.306599 0.934029
O O1 0.804252 0.154408 0.285971
O O2 0.761374 0.059661 0.873476
O O3 0.571020 0.968769 0.027122
O O4 0.883230 0.422990 0.872801
O O5 0.025521 0.312905 0.575503
O O6 0.000000 0.500000 0.500000
O O7 0.701264 0.646336 0.467898
O O8 0.878940 0.765853 0.192492
O O9 0.886951 0.020338 0.126891
O O10 0.000000 0.000000 0.500000
O O11 0.418151 0.316324 0.776561
O O12 0.620427 0.439241 0.935380
O O13 0.692542 0.756789 0.816934
O O14 0.288509 0.584558 0.357138
O O15 0.285761 0.626137 0.823584
#
# Coordination Sequence:
#
# PCOD9091242 Si02
#       7
#     2   2   2   2   2   2   2
#     4  10  25  44  68  99 132 184 229 281 338 409
#     4  11  27  48  67  95 136 179 231 285 348 409
#     4  11  22  37  60  99 133 175 217 268 343 396
#     4   9  20  38  62  95 132 172 212 269 321 410
#     4  11  25  45  71 100 140 178 228 290 335 403
#     4  10  19  39  64  92 128 170 222 263 331 392
#     4  10  23  45  72 104 137 176 231 280 343 396
#
# _framework density 27.151643
#
# number of rings (size 3 to 8) (size 9 to 14) (size 15 to 20)
#    0.000    1.714    1.429    1.286    6.000    4.000 
#    0.000    0.000    0.000    0.000    0.000    0.000 
#    0.000    0.000    0.000    0.000    0.000    0.000 
#
# Total GULP energy -78268.742253 kJ/mol
# GULP energy per Si atom -5590.624447 kJ/mol
# Density = 2.708984 g / cm^3
# Si number density = 27.151643 Si / 1000 Ang^3
#
#
#
# Elastic Constant Matrix: (Units=GPa)
#
#
# Indices 1 2 3 4 5 6 
#
# 1 144.6209 12.2239 37.6990 5.8278 5.9397 20.8904
# 2 12.2239 93.4214 27.4539 17.5863 12.8574 6.5148
# 3 37.6990 27.4539 85.5636 18.2950 15.8111 15.4736
# 4 5.8278 17.5863 18.2950 49.8349 -1.1384 8.7473
# 5 5.9397 12.8574 15.8111 -1.1384 58.9384 2.4130
# 6 20.8904 6.5148 15.4736 8.7473 2.4130 43.4062
#
#
#
# Elastic Compliance Matrix: (Units=1/GPa)
#
#
# Indices 1 2 3 4 5 6 
#
# 1 0.008149 -0.000086 -0.003239 0.000784 0.000201 -0.002923
# 2 -0.000086 0.012472 -0.002867 -0.003382 -0.002008 -0.000015
# 3 -0.003239 -0.002867 0.016010 -0.004087 -0.003311 -0.002711
# 4 0.000784 -0.003382 -0.004087 0.023290 0.002337 -0.003236
# 5 0.000201 -0.002008 -0.003311 0.002337 0.018322 -0.000105
# 6 -0.002923 -0.000015 -0.002711 -0.003236 -0.000105 0.026072
#
#
# Mechanical properties :
#
#
# Convention : Reuss Voigt Hill
#
# Bulk Modulus (GPa) = 41.24206 53.15103 47.19655
# Shear Modulus (GPa) = 40.07045 46.85116 43.46081
#
# Velocity S-wave (km/s) = 3.84578 4.15846 4.00518
# Velocity P-wave (km/s) = 5.91123 6.53263 6.22968
#
# Compressibility (1/GPa) = 0.02424709
#
# Stress axis : x y z
#
# Youngs Moduli (GPa) = 122.72048 80.17980 62.46087
#
# Poissons Ratio (x) = 0.00688 0.20230
# Poissons Ratio (y) = 0.01054 0.17908
# Poissons Ratio (z) = 0.39747 0.22988
#
# Static dielectric constant tensor:
#      x y z
#    x 2.131750 -0.029880 0.037350 
#    y -0.029880 2.185230 -0.082760 
#    z 0.037350 -0.082760 2.320170 
# 
# From -- ./inp_files/36909.got.cif
#   From: 2010.05.17/outbox.cif.g08.bks.cpg/sg2_19_cif.got.tgz:36909.got - 2010.06.03 11:33:40.
