data_PCOD9091698
_publ_section_title
;
Structure prediction by ZEFSAII (Michael W. Deem and Ramdas Pophale) SiO2 
 PCOD9091698
Probable space group: P -1
;
_chemical_formula_sum "Si O2"
_cell_formula_units_Z 13
_cell_length_a 7.420289
_cell_length_b 9.868126
_cell_length_c 12.724615
_cell_angle_alpha 54.723953
_cell_angle_beta 37.976968
_cell_angle_gamma 62.629776
_cell_volume 468.050802
_symmetry_space_group_name_H-M "P -1"
_symmetry_group_IT_number 2
_symmetry_cell_setting 'triclinic'
loop_
_space_group_symop_operation_xyz
x,y,z
-x,-y,-z
loop_
_atom_site_type_symbol
_atom_site_label
_atom_site_fract_x
_atom_site_fract_y
_atom_site_fract_z
Si Si1 0.000000 0.500000 0.000000
Si Si2 0.431258 0.730517 0.671003
Si Si3 0.644935 0.378704 0.663046
Si Si4 0.972678 0.519079 0.753515
Si Si5 0.333095 0.050185 0.947274
Si Si6 0.064399 0.220468 0.713281
Si Si7 0.715749 0.879585 0.671429
O O1 0.909225 0.293283 0.147594
O O2 0.007038 0.508229 0.120933
O O3 0.500756 0.524952 0.737003
O O4 0.584382 0.852516 0.627294
O O5 0.588176 0.767223 0.471836
O O6 0.914117 0.296724 0.641187
O O7 0.765616 0.440333 0.468708
O O8 0.412012 0.239551 0.809799
O O9 0.907295 0.338262 0.817552
O O10 0.783424 0.686535 0.754093
O O11 0.488682 0.956283 0.822019
O O12 0.021909 0.965599 0.140969
O O13 0.500000 0.000000 0.000000
O O14 0.000000 0.000000 0.500000
#
# Coordination Sequence:
#
# PCOD9091698 Si02
#       7
#     1   2   2   2   2   2   2
#     4  12  30  40  62 100 138 194 216 262 330 418
#     4  11  23  44  67  96 134 174 229 270 335 396
#     4  10  19  41  69 103 130 166 221 291 338 378
#     4  11  22  42  64  98 134 177 224 268 333 396
#     4  10  21  33  61 109 132 157 208 287 353 374
#     4  10  19  39  69  99 128 169 225 290 333 377
#     4  12  21  40  75 103 130 166 230 298 322 375
#
# _framework density 27.774761000000002
#
# number of rings (size 3 to 8) (size 9 to 14) (size 15 to 20)
#    0.000    1.231    4.615    2.769    4.308    3.692 
#    0.000    0.769    0.000    2.769    0.000    0.000 
#    0.000    0.000    0.000    0.000    0.000    0.000 
#
# Total GULP energy -72490.820287 kJ/mol
# GULP energy per Si atom -5576.216945 kJ/mol
# Density = 2.771154 g / cm^3
# Si number density = 27.774761 Si / 1000 Ang^3
#
#
#
# Elastic Constant Matrix: (Units=GPa)
#
#
# Indices 1 2 3 4 5 6 
#
# 1 58.8559 33.6776 16.7911 20.1796 11.0969 13.7736
# 2 33.6776 206.6733 67.0652 -5.4665 -9.6817 27.2495
# 3 16.7911 67.0652 150.7817 -2.2873 8.8800 34.2149
# 4 20.1796 -5.4665 -2.2873 64.5680 27.4328 2.9365
# 5 11.0969 -9.6817 8.8800 27.4328 27.9701 -5.9677
# 6 13.7736 27.2495 34.2149 2.9365 -5.9677 49.8815
#
#
#
# Elastic Compliance Matrix: (Units=1/GPa)
#
#
# Indices 1 2 3 4 5 6 
#
# 1 0.023070 -0.003766 0.000815 -0.003737 -0.008253 -0.005639
# 2 -0.003766 0.006602 -0.002854 -0.000625 0.005311 0.000063
# 3 0.000815 -0.002854 0.010144 0.004743 -0.010717 -0.007186
# 4 -0.003737 -0.000625 0.004743 0.030678 -0.031930 -0.007506
# 5 -0.008253 0.005311 -0.010717 -0.031930 0.079448 0.018113
# 6 -0.005639 0.000063 -0.007186 -0.007506 0.018113 0.029108
#
#
# Mechanical properties :
#
#
# Convention : Reuss Voigt Hill
#
# Bulk Modulus (GPa) = 35.45173 72.37540 53.91357
# Shear Modulus (GPa) = 24.99221 48.40238 36.69730
#
# Velocity S-wave (km/s) = 3.00295 4.17906 3.63884
# Velocity P-wave (km/s) = 4.98150 7.02856 6.09163
#
# Compressibility (1/GPa) = 0.02820737
#
# Stress axis : x y z
#
# Youngs Moduli (GPa) = 43.34634 151.46443 98.57750
#
# Poissons Ratio (x) = 0.57035 -0.08032
# Poissons Ratio (y) = 0.16322 0.28131
# Poissons Ratio (z) = -0.03532 0.43224
#
# Static dielectric constant tensor:
#      x y z
#    x 1.714870 0.159080 0.692400 
#    y 0.159080 2.114410 -0.323300 
#    z 0.692400 -0.323300 1.181770 
# 
# From -- ./inp_files/375773.got.cif
#   From: 2010.05.17/outbox.cif.g08.bks.cpg/sg2_188_cif.got.tgz:375773.got - 2010.06.03 11:33:40.
