data_PCOD9091911
_publ_section_title
;
Structure prediction by ZEFSAII (Michael W. Deem and Ramdas Pophale) SiO2 
 PCOD9091911
Probable space group: P -1
;
_chemical_formula_sum "Si O2"
_cell_formula_units_Z 12
_cell_length_a 9.023899
_cell_length_b 6.873430
_cell_length_c 13.119016
_cell_angle_alpha 97.246316
_cell_angle_beta 140.934794
_cell_angle_gamma 72.977882
_cell_volume 483.379659
_symmetry_space_group_name_H-M "P -1"
_symmetry_group_IT_number 2
_symmetry_cell_setting 'triclinic'
loop_
_space_group_symop_operation_xyz
x,y,z
-x,-y,-z
loop_
_atom_site_type_symbol
_atom_site_label
_atom_site_fract_x
_atom_site_fract_y
_atom_site_fract_z
Si Si1 0.661589 0.543399 0.176436
Si Si2 0.735506 0.032114 0.981650
Si Si3 0.253381 0.126464 0.235071
Si Si4 0.985965 0.772554 0.278396
Si Si5 0.178274 0.628863 0.559245
Si Si6 0.508635 0.709773 0.448150
O O1 0.896355 0.578187 0.247877
O O2 0.698374 0.361571 0.266446
O O3 0.500000 0.500000 0.000000
O O4 0.504638 0.770220 0.148526
O O5 0.977502 0.110758 0.103769
O O6 0.779218 0.928529 0.109537
O O7 0.732959 0.867845 0.880106
O O8 0.325925 0.277179 0.363650
O O9 0.457133 0.913400 0.365210
O O10 0.051358 0.823522 0.432486
O O11 0.236449 0.724501 0.344263
O O12 0.376502 0.477794 0.579445
O O13 0.000000 0.500000 0.500000
#
# Coordination Sequence:
#
# PCOD9091911 Si02
#       6
#     2   2   2   2   2   2
#     4  11  24  42  63  88 125 165 198 250 313 358
#     4  10  20  41  62  93 125 151 210 249 297 365
#     4   9  20  35  67  91 117 165 196 254 305 349
#     4  10  23  40  62  93 121 160 205 256 295 356
#     4  10  22  40  60  87 125 161 199 246 303 363
#     4  10  19  40  63  91 121 158 210 245 299 362
#
# _framework density 24.825206999999999
#
# number of rings (size 3 to 8) (size 9 to 14) (size 15 to 20)
#    0.000    2.000    1.667    1.000    4.667    1.333 
#    0.000    3.333    0.000    0.000    0.000    0.000 
#    0.000    0.000    0.000    0.000    0.000    0.000 
#
# Total GULP energy -66885.312988 kJ/mol
# GULP energy per Si atom -5573.776082 kJ/mol
# Density = 2.476870 g / cm^3
# Si number density = 24.825207 Si / 1000 Ang^3
#
#
#
# Elastic Constant Matrix: (Units=GPa)
#
#
# Indices 1 2 3 4 5 6 
#
# 1 114.7705 17.2871 61.1899 -4.2767 -17.3682 1.2032
# 2 17.2871 35.8348 15.6175 -8.1844 -15.3811 -5.8001
# 3 61.1899 15.6175 145.3070 -6.9183 -37.8760 -2.7776
# 4 -4.2767 -8.1844 -6.9183 41.9586 12.4849 -10.0693
# 5 -17.3682 -15.3811 -37.8760 12.4849 64.0401 -15.9985
# 6 1.2032 -5.8001 -2.7776 -10.0693 -15.9985 25.2567
#
#
#
# Elastic Compliance Matrix: (Units=1/GPa)
#
#
# Indices 1 2 3 4 5 6 
#
# 1 0.011913 -0.005147 -0.005038 -0.001017 -0.001738 -0.003810
# 2 -0.005147 0.040833 0.002117 0.009076 0.013377 0.021947
# 3 -0.005038 0.002117 0.010787 0.001239 0.006987 0.006832
# 4 -0.001017 0.009076 0.001239 0.028941 0.000527 0.014141
# 5 -0.001738 0.013377 0.006987 0.000527 0.027822 0.021757
# 6 -0.003810 0.021947 0.006832 0.014141 0.021757 0.064985
#
#
# Mechanical properties :
#
#
# Convention : Reuss Voigt Hill
#
# Bulk Modulus (GPa) = 21.09809 53.78903 37.44356
# Shear Modulus (GPa) = 23.01873 39.70562 31.36217
#
# Velocity S-wave (km/s) = 3.04835 4.00360 3.55818
# Velocity P-wave (km/s) = 4.57242 6.56398 5.65654
#
# Compressibility (1/GPa) = 0.04739765
#
# Stress axis : x y z
#
# Youngs Moduli (GPa) = 83.94041 24.49021 92.70526
#
# Poissons Ratio (x) = 0.12604 0.46705
# Poissons Ratio (y) = 0.43201 -0.19626
# Poissons Ratio (z) = 0.42289 -0.05185
#
# Static dielectric constant tensor:
#      x y z
#    x 1.991090 -0.043480 0.049580 
#    y -0.043480 2.171360 -0.037480 
#    z 0.049580 -0.037480 2.358340 
# 
# From -- ./inp_files/149547.got.cif
#   From: 2010.05.17/outbox.cif.g08.bks.cpg/sg2_75_cif.got.tgz:149547.got - 2010.06.03 11:33:40.
