data_PCOD9091506
_publ_section_title
;
Structure prediction by ZEFSAII (Michael W. Deem and Ramdas Pophale) SiO2 
 PCOD9091506
Probable space group: P -1
;
_chemical_formula_sum "Si O2"
_cell_formula_units_Z 16
_cell_length_a 7.855389
_cell_length_b 16.052217
_cell_length_c 10.497685
_cell_angle_alpha 132.468834
_cell_angle_beta 86.455770
_cell_angle_gamma 59.301281
_cell_volume 644.484151
_symmetry_space_group_name_H-M "P -1"
_symmetry_group_IT_number 2
_symmetry_cell_setting 'triclinic'
loop_
_space_group_symop_operation_xyz
x,y,z
-x,-y,-z
loop_
_atom_site_type_symbol
_atom_site_label
_atom_site_fract_x
_atom_site_fract_y
_atom_site_fract_z
Si Si1 0.502165 0.378772 0.207896
Si Si2 0.325560 0.110472 0.240455
Si Si3 0.218607 0.553436 0.642394
Si Si4 0.508698 0.758939 0.549197
Si Si5 0.191343 0.303530 0.759661
Si Si6 0.872053 0.285454 0.585635
Si Si7 0.008063 0.026858 0.752864
Si Si8 0.770757 0.840523 0.134952
O O1 0.277171 0.469397 0.416029
O O2 0.697762 0.357246 0.262913
O O3 0.372314 0.515198 0.239466
O O4 0.699649 0.183323 0.949911
O O5 0.299091 0.258185 0.397400
O O6 0.053391 0.187809 0.349694
O O7 0.505943 0.995721 0.235134
O O8 0.500000 0.000000 0.000000
O O9 0.417868 0.399752 0.574628
O O10 0.946099 0.687523 0.865101
O O11 0.588123 0.749437 0.391912
O O12 0.209006 0.932409 0.765797
O O13 0.282884 0.205190 0.785381
O O14 0.029850 0.287407 0.676323
O O15 0.000000 0.500000 0.000000
O O16 0.887494 0.146031 0.487181
O O17 0.080613 0.116324 0.786435
#
# Coordination Sequence:
#
# PCOD9091506 Si02
#       8
#     2   2   2   2   2   2   2   2
#     4  10  22  39  65 100 135 169 212 275 338 393
#     4  10  23  40  62  99 135 171 218 272 330 400
#     4  10  19  39  66  97 131 172 222 263 330 407
#     4  10  21  41  67  94 131 177 222 269 330 391
#     4  11  24  45  71  93 131 181 224 276 328 395
#     4  11  24  43  65  99 135 167 225 278 329 392
#     4  10  23  42  67  99 133 171 221 275 333 392
#     4  10  22  44  70  94 130 182 224 266 337 391
#
# _framework density 24.826055
#
# number of rings (size 3 to 8) (size 9 to 14) (size 15 to 20)
#    0.000    1.750    2.500    0.750    1.750    7.500 
#    0.000    7.500    0.000    0.000    0.000    0.000 
#    0.000    0.000    0.000    0.000    0.000    0.000 
#
# Total GULP energy -89109.785183 kJ/mol
# GULP energy per Si atom -5569.361574 kJ/mol
# Density = 2.476955 g / cm^3
# Si number density = 24.826055 Si / 1000 Ang^3
#
#
#
# Elastic Constant Matrix: (Units=GPa)
#
#
# Indices 1 2 3 4 5 6 
#
# 1 81.7762 28.1915 23.9647 -2.7922 7.9683 9.4677
# 2 28.1915 122.8809 49.3365 21.8997 1.8774 4.5736
# 3 23.9647 49.3365 128.3847 28.7609 -2.2211 4.1353
# 4 -2.7922 21.8997 28.7609 37.5785 -2.3388 -5.5645
# 5 7.9683 1.8774 -2.2211 -2.3388 25.7366 10.3980
# 6 9.4677 4.5736 4.1353 -5.5645 10.3980 28.1011
#
#
#
# Elastic Compliance Matrix: (Units=1/GPa)
#
#
# Indices 1 2 3 4 5 6 
#
# 1 0.014711 -0.002988 -0.002550 0.004280 -0.003358 -0.002005
# 2 -0.002988 0.010706 -0.002439 -0.004790 0.000040 -0.001340
# 3 -0.002550 -0.002439 0.010996 -0.007438 0.002330 -0.002697
# 4 0.004280 -0.004790 -0.007438 0.036536 -0.001640 0.008274
# 5 -0.003358 0.000040 0.002330 -0.001640 0.046748 -0.016841
# 6 -0.002005 -0.001340 -0.002697 0.008274 -0.016841 0.044746
#
#
# Mechanical properties :
#
#
# Convention : Reuss Voigt Hill
#
# Bulk Modulus (GPa) = 48.88130 59.55860 54.21995
# Shear Modulus (GPa) = 26.70681 33.71985 30.21333
#
# Velocity S-wave (km/s) = 3.28343 3.68944 3.49234
# Velocity P-wave (km/s) = 5.84011 6.49551 6.17651
#
# Compressibility (1/GPa) = 0.02045772
#
# Stress axis : x y z
#
# Youngs Moduli (GPa) = 67.97427 93.40665 90.94196
#
# Poissons Ratio (x) = 0.27911 0.23192
# Poissons Ratio (y) = 0.20312 0.22185
# Poissons Ratio (z) = 0.17335 0.22786
#
# Static dielectric constant tensor:
#      x y z
#    x 1.876510 -0.000560 0.091930 
#    y -0.000560 1.981520 -0.010830 
#    z 0.091930 -0.010830 2.093190 
# 
# From -- ./inp_files/402206.got.cif
#   From: 2010.05.17/outbox.cif.g08.bks.cpg/sg2_202_cif.got.tgz:402206.got - 2010.06.03 11:33:40.
