data_PCOD9091742
_publ_section_title
;
Structure prediction by ZEFSAII (Michael W. Deem and Ramdas Pophale) SiO2 
 PCOD9091742
Probable space group: P -1
;
_chemical_formula_sum "Si O2"
_cell_formula_units_Z 16
_cell_length_a 14.517225
_cell_length_b 8.768019
_cell_length_c 8.657930
_cell_angle_alpha 51.023695
_cell_angle_beta 119.516337
_cell_angle_gamma 92.009892
_cell_volume 681.257728
_symmetry_space_group_name_H-M "P -1"
_symmetry_group_IT_number 2
_symmetry_cell_setting 'triclinic'
loop_
_space_group_symop_operation_xyz
x,y,z
-x,-y,-z
loop_
_atom_site_type_symbol
_atom_site_label
_atom_site_fract_x
_atom_site_fract_y
_atom_site_fract_z
Si Si1 0.661573 0.960245 0.643630
Si Si2 0.608970 0.139522 0.012503
Si Si3 0.277133 0.730327 0.699565
Si Si4 0.008771 0.762556 0.710119
Si Si5 0.009854 0.996050 0.193184
Si Si6 0.181684 0.423717 0.835851
Si Si7 0.525181 0.880832 0.342135
Si Si8 0.843644 0.785273 0.330288
O O1 0.639321 0.811140 0.588142
O O2 0.657295 0.174908 0.423045
O O3 0.570785 0.024438 0.665976
O O4 0.781623 0.812790 0.915623
O O5 0.541713 0.057132 0.133650
O O6 0.709283 0.939673 0.135609
O O7 0.681786 0.237844 0.114573
O O8 0.516415 0.254640 0.726685
O O9 0.290282 0.487255 0.857760
O O10 0.142431 0.862464 0.448968
O O11 0.104520 0.583900 0.800402
O O12 0.000000 0.000000 0.500000
O O13 0.025947 0.772997 0.899365
O O14 0.920145 0.898427 0.242090
O O15 0.108639 0.253972 0.430607
O O16 0.000000 0.000000 0.000000
O O17 0.133915 0.419337 0.627905
#
# Coordination Sequence:
#
# PCOD9091742 Si02
#       8
#     2   2   2   2   2   2   2   2
#     4  10  22  41  67  99 127 167 219 277 320 383
#     4  10  19  39  72  91 122 185 210 263 336 383
#     4  11  22  41  65  93 135 171 212 263 327 382
#     4  10  20  39  62  90 130 177 211 255 317 390
#     4  11  22  38  61  94 136 172 211 261 321 387
#     4  12  22  40  70  97 132 175 219 262 321 390
#     4   9  20  41  68  91 128 168 221 270 332 378
#     4  11  20  37  64  98 129 172 223 253 316 396
#
# _framework density 23.485973000000001
#
# number of rings (size 3 to 8) (size 9 to 14) (size 15 to 20)
#    0.000    1.500    5.000    1.875    0.000    0.000 
#    0.000   11.250    0.000    0.000    0.000    0.000 
#    0.000    0.000    0.000    0.000    0.000    0.000 
#
# Total GULP energy -89081.566028 kJ/mol
# GULP energy per Si atom -5567.597877 kJ/mol
# Density = 2.343252 g / cm^3
# Si number density = 23.485973 Si / 1000 Ang^3
#
#
#
# Elastic Constant Matrix: (Units=GPa)
#
#
# Indices 1 2 3 4 5 6 
#
# 1 89.0257 26.6518 6.8689 18.5495 -15.2114 4.5291
# 2 26.6518 144.6512 32.8268 56.9426 -13.9589 11.2077
# 3 6.8689 32.8268 50.4912 38.9151 -15.6317 14.7062
# 4 18.5495 56.9426 38.9151 51.2298 5.2263 1.8831
# 5 -15.2114 -13.9589 -15.6317 5.2263 20.1899 15.5729
# 6 4.5291 11.2077 14.7062 1.8831 15.5729 28.3253
#
#
#
# Elastic Compliance Matrix: (Units=1/GPa)
#
#
# Indices 1 2 3 4 5 6 
#
# 1 0.010503 -0.003487 -0.006476 0.005316 -0.005170 0.005551
# 2 -0.003487 0.008605 -0.009000 -0.000841 -0.008474 0.006541
# 3 -0.006476 -0.009000 0.000318 0.014433 -0.029985 0.019958
# 4 0.005316 -0.000841 0.014433 0.005071 0.034247 -0.027176
# 5 -0.005170 -0.008474 -0.029985 0.034247 -0.010036 0.022988
# 6 0.005551 0.006541 0.019958 -0.027176 0.022988 0.010635
#
#
# Mechanical properties :
#
#
# Convention : Reuss Voigt Hill
#
# Bulk Modulus (GPa) = -54.05083 46.31811 -3.86636
# Shear Modulus (GPa) = 87.94164 34.47036 61.20600
#
# Velocity S-wave (km/s) = 6.12582 3.83521 5.11050
# Velocity P-wave (km/s) = 5.19327 6.27505 5.75962
#
# Compressibility (1/GPa) = -0.01850110
#
# Stress axis : x y z
#
# Youngs Moduli (GPa) = 95.21092 116.21677 3142.28280
#
# Poissons Ratio (x) = 0.40525 20.34955
# Poissons Ratio (y) = 0.33200 28.28190
# Poissons Ratio (z) = 0.61659 1.04600
#
# Static dielectric constant tensor:
#      x y z
#    x 1.943460 0.027930 0.028560 
#    y 0.027930 1.963680 0.042510 
#    z 0.028560 0.042510 1.979450 
# 
# From -- ./inp_files/291906.got.cif
#   From: 2010.05.17/outbox.cif.g08.bks.cpg/sg2_146_cif.got.tgz:291906.got - 2010.06.03 11:33:40.
