data_PCOD9091950
_publ_section_title
;
Structure prediction by ZEFSAII (Michael W. Deem and Ramdas Pophale) SiO2 
 PCOD9091950
Probable space group: P -1
;
_chemical_formula_sum "Si O2"
_cell_formula_units_Z 16
_cell_length_a 11.265434
_cell_length_b 11.696357
_cell_length_c 8.692891
_cell_angle_alpha 56.108815
_cell_angle_beta 138.995252
_cell_angle_gamma 101.542960
_cell_volume 570.328228
_symmetry_space_group_name_H-M "P -1"
_symmetry_group_IT_number 2
_symmetry_cell_setting 'triclinic'
loop_
_space_group_symop_operation_xyz
x,y,z
-x,-y,-z
loop_
_atom_site_type_symbol
_atom_site_label
_atom_site_fract_x
_atom_site_fract_y
_atom_site_fract_z
Si Si1 0.251602 0.015695 0.402491
Si Si2 0.677798 0.107413 0.108485
Si Si3 0.001997 0.229944 0.359172
Si Si4 0.008832 0.310036 0.640215
Si Si5 0.664546 0.612160 0.155518
Si Si6 0.479369 0.446464 0.271912
Si Si7 0.293191 0.282783 0.395971
Si Si8 0.830448 0.150148 0.813019
O O1 0.285183 0.168383 0.339662
O O2 0.357240 0.909276 0.730031
O O3 0.284417 0.933502 0.331324
O O4 0.015884 0.061718 0.169367
O O5 0.815401 0.197340 0.154446
O O6 0.479874 0.182423 0.759953
O O7 0.814191 0.935162 0.318628
O O8 0.936670 0.315371 0.392228
O O9 0.095567 0.314841 0.275226
O O10 0.874230 0.463604 0.481492
O O11 0.948855 0.194249 0.761230
O O12 0.240291 0.268864 0.872261
O O13 0.539421 0.586577 0.193297
O O14 0.564513 0.596918 0.910270
O O15 0.323951 0.426357 0.251731
O O16 0.677254 0.302718 0.619454
#
# Coordination Sequence:
#
# PCOD9091950 Si02
#       8
#     2   2   2   2   2   2   2   2
#     4  10  20  37  56  96 128 156 207 237 299 380
#     4  10  22  39  59  91 130 168 198 239 288 377
#     4  10  21  38  62  88 123 168 193 243 298 363
#     4  10  19  40  64  87 113 163 206 251 316 356
#     4   9  21  41  64  84 117 154 209 270 309 343
#     4  10  22  39  58  89 119 155 205 262 303 354
#     4  11  24  38  60  92 125 167 200 240 302 368
#     4  10  21  34  63  92 123 163 195 255 307 357
#
# _framework density 28.054020999999999
#
# number of rings (size 3 to 8) (size 9 to 14) (size 15 to 20)
#    0.000    2.000    1.250    2.250    5.250    2.500 
#    2.250    1.250    0.000    0.000    0.000    0.000 
#    0.000    0.000    0.000    0.000    0.000    0.000 
#
# Total GULP energy -89508.663586 kJ/mol
# GULP energy per Si atom -5594.291474 kJ/mol
# Density = 2.799017 g / cm^3
# Si number density = 28.054021 Si / 1000 Ang^3
#
#
#
# Elastic Constant Matrix: (Units=GPa)
#
#
# Indices 1 2 3 4 5 6 
#
# 1 204.3323 46.5180 24.6970 -4.9979 4.8261 42.3060
# 2 46.5180 81.4449 21.1830 16.9657 5.1595 19.1868
# 3 24.6970 21.1830 104.0614 9.2224 5.0900 4.5747
# 4 -4.9979 16.9657 9.2224 40.1202 2.0703 4.1325
# 5 4.8261 5.1595 5.0900 2.0703 45.5629 0.7694
# 6 42.3060 19.1868 4.5747 4.1325 0.7694 41.8964
#
#
#
# Elastic Compliance Matrix: (Units=1/GPa)
#
#
# Indices 1 2 3 4 5 6 
#
# 1 0.006987 -0.002930 -0.001051 0.002974 -0.000327 -0.005886
# 2 -0.002930 0.016793 -0.001921 -0.006575 -0.001013 -0.003855
# 3 -0.001051 -0.001921 0.010401 -0.001772 -0.000769 0.000994
# 4 0.002974 -0.006575 -0.001772 0.028787 -0.000636 -0.002626
# 5 -0.000327 -0.001013 -0.000769 -0.000636 0.022203 0.000533
# 6 -0.005886 -0.003855 0.000994 -0.002626 0.000533 0.031719
#
#
# Mechanical properties :
#
#
# Convention : Reuss Voigt Hill
#
# Bulk Modulus (GPa) = 44.68630 63.84827 54.26728
# Shear Modulus (GPa) = 36.72344 45.34529 41.03436
#
# Velocity S-wave (km/s) = 3.62197 4.02475 3.82866
# Velocity P-wave (km/s) = 5.78401 6.66383 6.23945
#
# Compressibility (1/GPa) = 0.02237822
#
# Stress axis : x y z
#
# Youngs Moduli (GPa) = 143.12003 59.54729 96.14291
#
# Poissons Ratio (x) = 0.17445 0.10102
# Poissons Ratio (y) = 0.41928 0.18473
# Poissons Ratio (z) = 0.15038 0.11442
#
# Static dielectric constant tensor:
#      x y z
#    x 2.197220 0.009520 0.014080 
#    y 0.009520 2.259050 -0.022790 
#    z 0.014080 -0.022790 2.225180 
# 
# From -- ./inp_files/269898.got.cif
#   From: 2010.05.17/outbox.cif.g08.bks.cpg/sg2_135_cif.got.tgz:269898.got - 2010.06.03 11:33:40.
