data_PCOD9091533
_publ_section_title
;
Structure prediction by ZEFSAII (Michael W. Deem and Ramdas Pophale) SiO2 
 PCOD9091533
Probable space group: P -1
;
_chemical_formula_sum "Si O2"
_cell_formula_units_Z 14
_cell_length_a 7.815452
_cell_length_b 25.538478
_cell_length_c 14.071895
_cell_angle_alpha 20.783693
_cell_angle_beta 138.725568
_cell_angle_gamma 130.474766
_cell_volume 640.017269
_symmetry_space_group_name_H-M "P -1"
_symmetry_group_IT_number 2
_symmetry_cell_setting 'triclinic'
loop_
_space_group_symop_operation_xyz
x,y,z
-x,-y,-z
loop_
_atom_site_type_symbol
_atom_site_label
_atom_site_fract_x
_atom_site_fract_y
_atom_site_fract_z
Si Si1 0.667883 0.355676 0.203317
Si Si2 0.955606 0.237835 0.143149
Si Si3 0.700983 0.678747 0.715587
Si Si4 0.875573 0.920387 0.166545
Si Si5 0.778402 0.180132 0.839744
Si Si6 0.110157 0.503967 0.643955
Si Si7 0.675998 0.083152 0.159945
O O1 0.519865 0.296535 0.332191
O O2 0.908393 0.235120 0.464530
O O3 0.775925 0.499154 0.039853
O O4 0.424069 0.423760 0.916060
O O5 0.047516 0.258115 0.254574
O O6 0.694167 0.189125 0.078274
O O7 0.185882 0.089360 0.461211
O O8 0.974854 0.396171 0.834950
O O9 0.535991 0.756233 0.425262
O O10 0.602256 0.906950 0.024575
O O11 0.850587 0.030745 0.059284
O O12 0.000000 0.000000 0.000000
O O13 0.909206 0.321792 0.628505
O O14 0.833993 0.139267 0.042633
O O15 0.000000 0.500000 0.500000
#
# Coordination Sequence:
#
# PCOD9091533 Si02
#       7
#     2   2   2   2   2   2   2
#     4   9  19  34  61  89 120 156 205 248 300 359
#     4  10  20  37  64  89 125 163 205 245 310 371
#     4   9  17  36  62  87 113 164 207 241 295 373
#     4  12  22  38  61  95 126 160 203 259 307 364
#     4  11  21  38  68  94 118 164 214 249 296 369
#     4  10  19  39  67  89 118 167 212 247 297 379
#     4  11  23  38  63  95 126 161 200 259 309 364
#
# _framework density 21.874410999999998
#
# number of rings (size 3 to 8) (size 9 to 14) (size 15 to 20)
#    0.000    1.714    4.286    2.143    0.000    0.000 
#    0.000    4.286    0.000    0.000    0.000    0.000 
#    0.000    0.000    0.000    0.000    0.000    0.000 
#
# Total GULP energy -78066.349127 kJ/mol
# GULP energy per Si atom -5576.167795 kJ/mol
# Density = 2.182462 g / cm^3
# Si number density = 21.874411 Si / 1000 Ang^3
#
#
#
# Elastic Constant Matrix: (Units=GPa)
#
#
# Indices 1 2 3 4 5 6 
#
# 1 26.3881 9.1366 27.4388 -1.8962 -8.0539 -0.2332
# 2 9.1366 156.6605 41.9152 -7.0062 -8.1653 1.8773
# 3 27.4388 41.9152 100.4995 -10.4727 -1.1205 -0.4684
# 4 -1.8962 -7.0062 -10.4727 43.5557 -8.8869 -11.3657
# 5 -8.0539 -8.1653 -1.1205 -8.8869 30.7992 1.3482
# 6 -0.2332 1.8773 -0.4684 -11.3657 1.3482 18.1461
#
#
#
# Elastic Compliance Matrix: (Units=1/GPa)
#
#
# Indices 1 2 3 4 5 6 
#
# 1 0.059660 0.001920 -0.016669 0.002290 0.016148 0.000373
# 2 0.001920 0.007384 -0.003491 0.000830 0.002594 -0.000502
# 3 -0.016669 -0.003491 0.016170 0.002377 -0.004113 0.002359
# 4 0.002290 0.000830 0.002377 0.030365 0.008863 0.018365
# 5 0.016148 0.002594 -0.004113 0.008863 0.039680 0.002436
# 6 0.000373 -0.000502 0.002359 0.018365 0.002436 0.066548
#
#
# Mechanical properties :
#
#
# Convention : Reuss Voigt Hill
#
# Bulk Modulus (GPa) = 21.39741 48.94769 35.17255
# Shear Modulus (GPa) = 18.39162 32.17071 25.28117
#
# Velocity S-wave (km/s) = 2.90277 3.83913 3.40331
# Velocity P-wave (km/s) = 4.58671 6.48669 5.61761
#
# Compressibility (1/GPa) = 0.04673462
#
# Stress axis : x y z
#
# Youngs Moduli (GPa) = 16.76161 135.43672 61.84306
#
# Poissons Ratio (x) = -0.26004 1.03086
# Poissons Ratio (y) = -0.03218 0.21587
# Poissons Ratio (z) = 0.27940 0.47275
#
# Static dielectric constant tensor:
#      x y z
#    x 1.877280 0.059060 -0.064290 
#    y 0.059060 1.873850 -0.036290 
#    z -0.064290 -0.036290 1.849020 
# 
# From -- ./inp_files/508992.got.cif
#   From: 2010.05.17/outbox.cif.g08.bks.cpg/sg2_255_cif.got.tgz:508992.got - 2010.06.03 11:33:40.
