data_PCOD9091390
_publ_section_title
;
Structure prediction by ZEFSAII (Michael W. Deem and Ramdas Pophale) SiO2 
 PCOD9091390
Probable space group: P -1
;
_chemical_formula_sum "Si O2"
_cell_formula_units_Z 16
_cell_length_a 12.650762
_cell_length_b 7.794930
_cell_length_c 12.568629
_cell_angle_alpha 145.729033
_cell_angle_beta 98.566042
_cell_angle_gamma 81.235010
_cell_volume 689.182751
_symmetry_space_group_name_H-M "P -1"
_symmetry_group_IT_number 2
_symmetry_cell_setting 'triclinic'
loop_
_space_group_symop_operation_xyz
x,y,z
-x,-y,-z
loop_
_atom_site_type_symbol
_atom_site_label
_atom_site_fract_x
_atom_site_fract_y
_atom_site_fract_z
Si Si1 0.409254 0.265631 0.363847
Si Si2 0.023484 0.073655 0.167079
Si Si3 0.874421 0.921301 0.448987
Si Si4 0.816631 0.468202 0.021690
Si Si5 0.790048 0.981356 0.108729
Si Si6 0.684444 0.616444 0.379265
Si Si7 0.588717 0.367393 0.027379
Si Si8 0.198258 0.432279 0.302425
O O1 0.500000 0.500000 0.500000
O O2 0.379238 0.184980 0.439720
O O3 0.301875 0.428603 0.386531
O O4 0.440578 0.983100 0.146466
O O5 0.093428 0.366177 0.321392
O O6 0.906597 0.104309 0.213632
O O7 0.092510 0.806791 0.102933
O O8 0.000000 0.000000 0.000000
O O9 0.857516 0.703818 0.235033
O O10 0.800768 0.752052 0.438810
O O11 0.816643 0.252394 0.598481
O O12 0.000000 0.000000 0.500000
O O13 0.786107 0.680221 0.025494
O O14 0.706460 0.338877 0.977680
O O15 0.707744 0.270491 0.248984
O O16 0.787742 0.849537 0.921445
O O17 0.611942 0.567289 0.237784
O O18 0.500000 0.500000 0.000000
#
# Coordination Sequence:
#
# PCOD9091390 Si02
#       8
#     2   2   2   2   2   2   2   2
#     4  12  28  47  72 101 136 181 239 293 351 407
#     4  10  19  39  65  96 139 186 223 279 348 415
#     4  11  23  41  66 104 142 182 231 282 339 419
#     4  11  23  41  65 100 139 179 234 279 347 418
#     4  11  22  40  69  99 136 188 223 276 352 421
#     4  11  26  48  71 103 143 183 231 286 352 416
#     4  11  26  49  72  98 138 180 234 298 348 408
#     4  11  22  41  66  98 141 179 228 292 339 411
#
# _framework density 23.215900999999999
#
# number of rings (size 3 to 8) (size 9 to 14) (size 15 to 20)
#    0.000    1.000    2.500    5.625    7.000    3.000 
#    0.000    2.500    0.000    0.000    0.000    0.000 
#    0.000    0.000    0.000    0.000    0.000    0.000 
#
# Total GULP energy -89330.690892 kJ/mol
# GULP energy per Si atom -5583.168181 kJ/mol
# Density = 2.316306 g / cm^3
# Si number density = 23.215901 Si / 1000 Ang^3
#
#
#
# Elastic Constant Matrix: (Units=GPa)
#
#
# Indices 1 2 3 4 5 6 
#
# 1 65.4716 17.8461 27.9337 -19.1963 39.2319 -7.1946
# 2 17.8461 94.4265 10.9521 11.0127 8.5656 -10.9400
# 3 27.9337 10.9521 102.0092 -3.0750 21.1269 -2.2186
# 4 -19.1963 11.0127 -3.0750 37.6219 0.2112 2.6671
# 5 39.2319 8.5656 21.1269 0.2112 38.5068 -1.2921
# 6 -7.1946 -10.9400 -2.2186 2.6671 -1.2921 40.4662
#
#
#
# Elastic Compliance Matrix: (Units=1/GPa)
#
#
# Indices 1 2 3 4 5 6 
#
# 1 0.078589 -0.012078 -0.003115 0.043433 -0.075735 0.005256
# 2 -0.012078 0.013544 -0.000406 -0.010391 0.009656 0.002485
# 3 -0.003115 -0.000406 0.011288 -0.000524 -0.002930 -0.000104
# 4 0.043433 -0.010391 -0.000524 0.051967 -0.041933 0.000120
# 5 -0.075735 0.009656 -0.002930 -0.041933 0.102653 -0.004974
# 6 0.005256 0.002485 -0.000104 0.000120 -0.004974 0.026146
#
#
# Mechanical properties :
#
#
# Convention : Reuss Voigt Hill
#
# Bulk Modulus (GPa) = 13.84583 41.70788 27.77686
# Shear Modulus (GPa) = 14.72933 36.99733 25.86333
#
# Velocity S-wave (km/s) = 2.52156 3.99635 3.34134
# Velocity P-wave (km/s) = 3.80192 6.26886 5.18427
#
# Compressibility (1/GPa) = 0.07222390
#
# Stress axis : x y z
#
# Youngs Moduli (GPa) = 12.72449 73.83404 88.58674
#
# Poissons Ratio (x) = 0.89177 0.27592
# Poissons Ratio (y) = 0.15369 0.03594
# Poissons Ratio (z) = 0.03963 0.02995
#
# Static dielectric constant tensor:
#      x y z
#    x 1.871180 0.032830 -0.013990 
#    y 0.032830 1.947410 0.024700 
#    z -0.013990 0.024700 1.910230 
# 
# From -- ./inp_files/516488.got.cif
#   From: 2010.05.17/outbox.cif.g08.bks.cpg/sg2_259_cif.got.tgz:516488.got - 2010.06.03 11:33:40.
