data_PCOD9091290
_publ_section_title
;
Structure prediction by ZEFSAII (Michael W. Deem and Ramdas Pophale) SiO2 
 PCOD9091290
Probable space group: P -1
;
_chemical_formula_sum "Si O2"
_cell_formula_units_Z 16
_cell_length_a 14.783503
_cell_length_b 22.290696
_cell_length_c 8.119745
_cell_angle_alpha 148.338590
_cell_angle_beta 54.544093
_cell_angle_gamma 147.263040
_cell_volume 666.832492
_symmetry_space_group_name_H-M "P -1"
_symmetry_group_IT_number 2
_symmetry_cell_setting 'triclinic'
loop_
_space_group_symop_operation_xyz
x,y,z
-x,-y,-z
loop_
_atom_site_type_symbol
_atom_site_label
_atom_site_fract_x
_atom_site_fract_y
_atom_site_fract_z
Si Si1 0.495168 0.768848 0.110560
Si Si2 0.959045 0.037522 0.795207
Si Si3 0.215990 0.795010 0.106900
Si Si4 0.459151 0.342925 0.525746
Si Si5 0.832431 0.180753 0.162661
Si Si6 0.369166 0.331948 0.109487
Si Si7 0.602849 0.260591 0.368251
Si Si8 0.856616 0.447887 0.863730
O O1 0.271205 0.603034 0.980142
O O2 0.606136 0.979790 0.502453
O O3 0.537276 0.738351 0.826716
O O4 0.581569 0.759801 0.143020
O O5 0.761958 0.831245 0.600796
O O6 0.935139 0.150667 0.038643
O O7 0.000000 0.000000 0.500000
O O8 0.150674 0.175130 0.016152
O O9 0.141575 0.770678 0.946420
O O10 0.282938 0.720612 0.839918
O O11 0.051494 0.668828 0.119926
O O12 0.566241 0.548758 0.844935
O O13 0.574857 0.366949 0.593149
O O14 0.886227 0.336085 0.578007
O O15 0.606500 0.969368 0.930146
O O16 0.500000 0.500000 0.500000
O O17 0.716972 0.343366 0.608966
#
# Coordination Sequence:
#
# PCOD9091290 Si02
#       8
#     2   2   2   2   2   2   2   2
#     4  11  23  44  62  94 133 171 218 261 331 395
#     4  11  25  43  70 102 129 170 229 279 324 388
#     4  11  21  36  66  96 129 176 210 264 326 394
#     4  10  26  44  67  94 132 176 213 277 331 386
#     4  10  19  39  64  99 135 167 210 279 324 384
#     4  10  25  45  68  90 135 179 219 267 333 394
#     4  10  19  40  64  93 135 167 215 266 325 386
#     4  11  22  37  67  99 129 174 212 265 331 398
#
# _framework density 23.994031
#
# number of rings (size 3 to 8) (size 9 to 14) (size 15 to 20)
#    0.000    1.500    2.500    3.000    5.250    7.000 
#    0.000    0.625    0.000    0.000    0.000    0.000 
#    0.000    0.000    0.000    0.000    0.000    0.000 
#
# Total GULP energy -89639.040534 kJ/mol
# GULP energy per Si atom -5602.440033 kJ/mol
# Density = 2.393942 g / cm^3
# Si number density = 23.994031 Si / 1000 Ang^3
#
#
#
# Elastic Constant Matrix: (Units=GPa)
#
#
# Indices 1 2 3 4 5 6 
#
# 1 99.7902 32.1948 13.2174 11.2472 -12.7156 22.7522
# 2 32.1948 185.2555 31.3257 2.5554 -6.4332 23.4696
# 3 13.2174 31.3257 38.9721 -1.9143 -4.6773 10.8382
# 4 11.2472 2.5554 -1.9143 35.8241 0.4716 2.2839
# 5 -12.7156 -6.4332 -4.6773 0.4716 28.6530 4.1232
# 6 22.7522 23.4696 10.8382 2.2839 4.1232 37.7441
#
#
#
# Elastic Compliance Matrix: (Units=1/GPa)
#
#
# Indices 1 2 3 4 5 6 
#
# 1 0.013531 -0.000892 -0.001071 -0.003834 0.006816 -0.007807
# 2 -0.000892 0.006609 -0.004263 -0.000275 0.000744 -0.002412
# 3 -0.001071 -0.004263 0.031969 0.002705 0.004685 -0.006559
# 4 -0.003834 -0.000275 0.002705 0.029298 -0.001823 0.000132
# 5 0.006816 0.000744 0.004685 -0.001823 0.040357 -0.010215
# 6 -0.007807 -0.002412 -0.006559 0.000132 -0.010215 0.035692
#
#
# Mechanical properties :
#
#
# Convention : Reuss Voigt Hill
#
# Bulk Modulus (GPa) = 25.21669 53.05484 39.13577
# Shear Modulus (GPa) = 27.30343 36.92957 32.11650
#
# Velocity S-wave (km/s) = 3.37698 3.92741 3.66255
# Velocity P-wave (km/s) = 5.07323 6.53650 5.85079
#
# Compressibility (1/GPa) = 0.03965627
#
# Stress axis : x y z
#
# Youngs Moduli (GPa) = 73.90242 151.30716 31.28061
#
# Poissons Ratio (x) = 0.13492 0.03352
# Poissons Ratio (y) = 0.06590 0.13336
# Poissons Ratio (z) = 0.07918 0.64506
#
# Static dielectric constant tensor:
#      x y z
#    x 2.015690 -0.019890 0.043630 
#    y -0.019890 1.950000 -0.004620 
#    z 0.043630 -0.004620 1.909550 
# 
# From -- ./inp_files/320352.got.cif
#   From: 2010.05.17/outbox.cif.g08.bks.cpg/sg2_161_cif.got.tgz:320352.got - 2010.06.03 11:33:40.
