data_PCOD9091625
_publ_section_title
;
Structure prediction by ZEFSAII (Michael W. Deem and Ramdas Pophale) SiO2 
 PCOD9091625
Probable space group: P -1
;
_chemical_formula_sum "Si O2"
_cell_formula_units_Z 16
_cell_length_a 9.164015
_cell_length_b 16.459717
_cell_length_c 13.496324
_cell_angle_alpha 155.869109
_cell_angle_beta 113.798160
_cell_angle_gamma 67.443879
_cell_volume 760.854111
_symmetry_space_group_name_H-M "P -1"
_symmetry_group_IT_number 2
_symmetry_cell_setting 'triclinic'
loop_
_space_group_symop_operation_xyz
x,y,z
-x,-y,-z
loop_
_atom_site_type_symbol
_atom_site_label
_atom_site_fract_x
_atom_site_fract_y
_atom_site_fract_z
Si Si1 0.597546 0.112187 0.236746
Si Si2 0.021104 0.277625 0.299982
Si Si3 0.759286 0.987677 0.614833
Si Si4 0.639459 0.401607 0.994529
Si Si5 0.919218 0.845815 0.033318
Si Si6 0.080538 0.400409 0.816195
Si Si7 0.835389 0.396982 0.565889
Si Si8 0.343936 0.237234 0.464756
O O1 0.657791 0.329384 0.463439
O O2 0.492017 0.143189 0.340283
O O3 0.500000 0.000000 0.000000
O O4 0.762448 0.986753 0.159981
O O5 0.017622 0.149369 0.057438
O O6 0.192257 0.240985 0.355756
O O7 0.000000 0.500000 0.500000
O O8 0.893750 0.270881 0.345431
O O9 0.811218 0.798370 0.350746
O O10 0.696044 0.887124 0.586250
O O11 0.638301 0.165522 0.745631
O O12 0.926746 0.092959 0.795999
O O13 0.801693 0.449507 0.035759
O O14 0.636467 0.534072 0.240939
O O15 0.500000 0.500000 0.000000
O O16 0.863744 0.625757 0.801481
O O17 0.950147 0.352643 0.642823
O O18 0.000000 0.500000 0.000000
#
# Coordination Sequence:
#
# PCOD9091625 Si02
#       8
#     2   2   2   2   2   2   2   2
#     4  12  26  41  61 100 143 178 218 275 337 398
#     4  10  19  39  68  93 128 180 222 269 328 396
#     4  11  23  46  74  96 129 182 232 275 340 416
#     4  11  25  46  70  98 131 170 230 293 343 396
#     4  11  22  41  70  97 132 182 227 267 338 405
#     4  11  24  44  70 102 134 173 225 283 341 408
#     4  11  23  44  65  96 138 175 229 278 323 410
#     4  11  24  43  63  99 138 171 228 282 335 401
#
# _framework density 21.028998999999999
#
# number of rings (size 3 to 8) (size 9 to 14) (size 15 to 20)
#    0.000    1.000    6.250    0.750    3.500    5.000 
#    2.250    0.000    0.000    0.000    0.000    0.000 
#    0.000    0.000    0.000    0.000    0.000    0.000 
#
# Total GULP energy -89374.311691 kJ/mol
# GULP energy per Si atom -5585.894481 kJ/mol
# Density = 2.098114 g / cm^3
# Si number density = 21.028999 Si / 1000 Ang^3
#
#
#
# Elastic Constant Matrix: (Units=GPa)
#
#
# Indices 1 2 3 4 5 6 
#
# 1 122.1979 24.1902 40.9930 -0.9810 -20.7200 11.6775
# 2 24.1902 85.0793 41.3610 21.6306 -12.8424 -8.7261
# 3 40.9930 41.3610 88.9135 34.6827 -15.0903 17.1698
# 4 -0.9810 21.6306 34.6827 32.7468 -1.3486 0.9824
# 5 -20.7200 -12.8424 -15.0903 -1.3486 49.6289 1.0349
# 6 11.6775 -8.7261 17.1698 0.9824 1.0349 21.9098
#
#
#
# Elastic Compliance Matrix: (Units=1/GPa)
#
#
# Indices 1 2 3 4 5 6 
#
# 1 0.011782 -0.001935 -0.007695 0.009927 0.002381 -0.001577
# 2 -0.001935 0.020049 -0.010775 -0.002388 0.000673 0.017536
# 3 -0.007695 -0.010775 0.040095 -0.034425 0.005887 -0.030345
# 4 0.009927 -0.002388 -0.034425 0.068109 -0.005464 0.017940
# 5 0.002381 0.000673 0.005887 -0.005464 0.023094 -0.006461
# 6 -0.001577 0.017536 -0.030345 0.017940 -0.006461 0.076747
#
#
# Mechanical properties :
#
#
# Convention : Reuss Voigt Hill
#
# Bulk Modulus (GPa) = 32.13896 56.58657 44.36276
# Shear Modulus (GPa) = 17.17862 33.50020 25.33941
#
# Velocity S-wave (km/s) = 2.86125 3.99563 3.47504
# Velocity P-wave (km/s) = 5.12172 6.94651 6.10270
#
# Compressibility (1/GPa) = 0.03111488
#
# Stress axis : x y z
#
# Youngs Moduli (GPa) = 84.87361 49.87665 24.94104
#
# Poissons Ratio (x) = 0.09651 0.19193
# Poissons Ratio (y) = 0.16423 0.26874
# Poissons Ratio (z) = 0.65314 0.53743
#
# Static dielectric constant tensor:
#      x y z
#    x 1.735900 -0.004550 0.013450 
#    y -0.004550 1.774260 0.029410 
#    z 0.013450 0.029410 1.813990 
# 
# From -- ./inp_files/400131.got.cif
#   From: 2010.05.17/outbox.cif.g08.bks.cpg/sg2_201_cif.got.tgz:400131.got - 2010.06.03 11:33:40.
