data_PCOD9091272
_publ_section_title
;
Structure prediction by ZEFSAII (Michael W. Deem and Ramdas Pophale) SiO2 
 PCOD9091272
Probable space group: P -1
;
_chemical_formula_sum "Si O2"
_cell_formula_units_Z 14
_cell_length_a 13.908267
_cell_length_b 10.999713
_cell_length_c 23.340717
_cell_angle_alpha 150.287640
_cell_angle_beta 19.624667
_cell_angle_gamma 149.460544
_cell_volume 574.052196
_symmetry_space_group_name_H-M "P -1"
_symmetry_group_IT_number 2
_symmetry_cell_setting 'triclinic'
loop_
_space_group_symop_operation_xyz
x,y,z
-x,-y,-z
loop_
_atom_site_type_symbol
_atom_site_label
_atom_site_fract_x
_atom_site_fract_y
_atom_site_fract_z
Si Si1 0.808608 0.408755 0.218862
Si Si2 0.080922 0.770175 0.035255
Si Si3 0.699967 0.800111 0.103344
Si Si4 0.791550 0.808735 0.468266
Si Si5 0.917366 0.745014 0.714823
Si Si6 0.094719 0.640136 0.333699
Si Si7 0.442500 0.765736 0.348638
O O1 0.794218 0.693741 0.356647
O O2 0.541642 0.248964 0.343028
O O3 0.751881 0.276978 0.135181
O O4 0.147397 0.410529 0.043626
O O5 0.760135 0.811456 0.217444
O O6 0.222839 0.026177 0.095027
O O7 0.000000 0.500000 0.000000
O O8 0.452950 0.699069 0.153189
O O9 0.525147 0.888492 0.290015
O O10 0.000000 0.000000 0.000000
O O11 0.941731 0.636990 0.356768
O O12 0.960792 0.102016 0.501872
O O13 0.210119 0.843222 0.552089
O O14 0.987185 0.593637 0.670976
O O15 0.703974 0.528563 0.706924
#
# Coordination Sequence:
#
# PCOD9091272 Si02
#       7
#     2   2   2   2   2   2   2
#     4  10  23  42  62  94 137 171 217 278 335 388
#     4  11  25  43  66 101 131 173 221 278 333 394
#     4  10  19  39  64  95 134 171 219 273 330 393
#     4  10  22  43  63  98 133 175 221 270 334 395
#     4  10  22  45  67  96 133 174 226 270 331 397
#     4  10  22  41  67  99 127 179 224 275 326 399
#     4   9  22  42  66  97 130 177 219 274 330 393
#
# _framework density 24.388027000000001
#
# number of rings (size 3 to 8) (size 9 to 14) (size 15 to 20)
#    0.000    2.000    1.429    0.429    2.000    6.857 
#   18.000    0.000    0.000    0.000    0.000    0.000 
#    0.000    0.000    0.000    0.000    0.000    0.000 
#
# Total GULP energy -78100.632149 kJ/mol
# GULP energy per Si atom -5578.616582 kJ/mol
# Density = 2.433252 g / cm^3
# Si number density = 24.388027 Si / 1000 Ang^3
#
#
#
# Elastic Constant Matrix: (Units=GPa)
#
#
# Indices 1 2 3 4 5 6 
#
# 1 51.7191 23.1404 28.9342 1.1330 4.0045 7.7217
# 2 23.1404 97.0289 46.7286 16.2048 28.8975 -9.5797
# 3 28.9342 46.7286 130.5753 3.3474 36.7688 4.9486
# 4 1.1330 16.2048 3.3474 56.2775 21.0677 3.3832
# 5 4.0045 28.8975 36.7688 21.0677 50.9895 2.7112
# 6 7.7217 -9.5797 4.9486 3.3832 2.7112 32.4317
#
#
#
# Elastic Compliance Matrix: (Units=1/GPa)
#
#
# Indices 1 2 3 4 5 6 
#
# 1 0.025390 -0.006142 -0.004603 0.000044 0.005192 -0.007595
# 2 -0.006142 0.016108 -0.002981 -0.002607 -0.005815 0.007433
# 3 -0.004603 -0.002981 0.011910 0.003243 -0.007809 -0.001287
# 4 0.000044 -0.002607 0.003243 0.022194 -0.009888 -0.002764
# 5 0.005192 -0.005815 -0.007809 -0.009888 0.032399 -0.003439
# 6 -0.007595 0.007433 -0.001287 -0.002764 -0.003439 0.035610
#
#
# Mechanical properties :
#
#
# Convention : Reuss Voigt Hill
#
# Bulk Modulus (GPa) = 38.52833 52.99219 45.76026
# Shear Modulus (GPa) = 27.82203 39.97442 33.89822
#
# Velocity S-wave (km/s) = 3.38125 4.05297 3.73225
# Velocity P-wave (km/s) = 5.57460 6.60894 6.11368
#
# Compressibility (1/GPa) = 0.02595493
#
# Stress axis : x y z
#
# Youngs Moduli (GPa) = 39.38615 62.08237 83.96431
#
# Poissons Ratio (x) = 0.38129 0.38653
# Poissons Ratio (y) = 0.24190 0.25029
# Poissons Ratio (z) = 0.18131 0.18506
#
# Static dielectric constant tensor:
#      x y z
#    x 2.130760 -0.098840 -0.076900 
#    y -0.098840 2.042970 0.095340 
#    z -0.076900 0.095340 1.981450 
# 
# From -- ./inp_files/611976.got.cif
#   From: 2010.05.17/outbox.cif.g08.bks.cpg/sg2_306_cif.got.tgz:611976.got - 2010.06.03 11:33:40.
