data_PCOD9091226
_publ_section_title
;
Structure prediction by ZEFSAII (Michael W. Deem and Ramdas Pophale) SiO2 
 PCOD9091226
Probable space group: P -1
;
_chemical_formula_sum "Si O2"
_cell_formula_units_Z 16
_cell_length_a 26.617851
_cell_length_b 19.687523
_cell_length_c 5.685404
_cell_angle_alpha 105.391727
_cell_angle_beta 66.207843
_cell_angle_gamma 162.620616
_cell_volume 732.217324
_symmetry_space_group_name_H-M "P -1"
_symmetry_group_IT_number 2
_symmetry_cell_setting 'triclinic'
loop_
_space_group_symop_operation_xyz
x,y,z
-x,-y,-z
loop_
_atom_site_type_symbol
_atom_site_label
_atom_site_fract_x
_atom_site_fract_y
_atom_site_fract_z
Si Si1 0.590624 0.690095 0.506091
Si Si2 0.104367 0.246018 0.531439
Si Si3 0.256363 0.582913 0.599952
Si Si4 0.193476 0.288670 0.901164
Si Si5 0.298775 0.208237 0.110961
Si Si6 0.937895 0.517843 0.360360
Si Si7 0.715963 0.272063 0.959509
Si Si8 0.706597 0.125312 0.179126
O O1 0.500000 0.500000 0.500000
O O2 0.400989 0.505238 0.705147
O O3 0.707245 0.840114 0.671530
O O4 0.703744 0.835971 0.175711
O O5 0.115642 0.344472 0.608946
O O6 0.189518 0.324842 0.691765
O O7 0.184122 0.318285 0.196124
O O8 0.872431 0.944422 0.701017
O O9 0.175234 0.552773 0.593593
O O10 0.475927 0.825746 0.349324
O O11 0.276815 0.640534 0.872418
O O12 0.000000 0.000000 0.000000
O O13 0.500000 0.500000 0.000000
O O14 0.921725 0.515166 0.659727
O O15 0.803852 0.281613 0.368608
O O16 0.148226 0.757073 0.075662
O O17 0.717289 0.207487 0.070804
O O18 0.500000 0.000000 0.000000
#
# Coordination Sequence:
#
# PCOD9091226 Si02
#       8
#     2   2   2   2   2   2   2   2
#     4  10  20  38  66  95 121 156 212 280 326 389
#     4  12  27  43  69 101 137 178 220 287 357 407
#     4  11  24  41  59  93 142 170 214 280 345 398
#     4  12  24  45  71  98 126 174 234 280 339 421
#     4  10  19  39  64  91 124 166 215 269 327 402
#     4  10  20  38  64  92 124 175 224 263 320 391
#     4  11  18  36  68  93 125 182 222 269 322 390
#     4  10  20  37  63  94 126 169 226 268 309 398
#
# _framework density 21.851437000000001
#
# number of rings (size 3 to 8) (size 9 to 14) (size 15 to 20)
#    0.000    1.250    2.500    6.000    1.750    0.000 
#    4.500    0.000    0.000    0.000    0.000    0.000 
#    0.000    0.000    0.000    0.000    0.000    0.000 
#
# Total GULP energy -89115.238293 kJ/mol
# GULP energy per Si atom -5569.702393 kJ/mol
# Density = 2.180170 g / cm^3
# Si number density = 21.851437 Si / 1000 Ang^3
#
#
#
# Elastic Constant Matrix: (Units=GPa)
#
#
# Indices 1 2 3 4 5 6 
#
# 1 69.1318 26.9604 42.6048 10.8245 -9.1812 24.7991
# 2 26.9604 42.1220 30.1256 12.1546 -4.2231 10.3650
# 3 42.6048 30.1256 162.5119 21.9976 -15.5072 20.6010
# 4 10.8245 12.1546 21.9976 35.1793 13.7001 -4.6040
# 5 -9.1812 -4.2231 -15.5072 13.7001 33.1749 -1.6831
# 6 24.7991 10.3650 20.6010 -4.6040 -1.6831 38.3886
#
#
#
# Elastic Compliance Matrix: (Units=1/GPa)
#
#
# Indices 1 2 3 4 5 6 
#
# 1 0.026844 -0.008784 -0.001298 -0.009901 0.009029 -0.015065
# 2 -0.008784 0.035379 -0.001671 -0.011240 0.005727 -0.004078
# 3 -0.001298 -0.001671 0.009029 -0.007814 0.006663 -0.004201
# 4 -0.009901 -0.011240 -0.007814 0.054078 -0.029201 0.018830
# 5 0.009029 0.005727 0.006663 -0.029201 0.047917 -0.012355
# 6 -0.015065 -0.004078 -0.004201 0.018830 -0.012355 0.040853
#
#
# Mechanical properties :
#
#
# Convention : Reuss Voigt Hill
#
# Bulk Modulus (GPa) = 20.94372 52.57194 36.75783
# Shear Modulus (GPa) = 19.72217 32.95354 26.33785
#
# Velocity S-wave (km/s) = 3.00752 3.88760 3.47553
# Velocity P-wave (km/s) = 4.65463 6.65299 5.74143
#
# Compressibility (1/GPa) = 0.04774701
#
# Stress axis : x y z
#
# Youngs Moduli (GPa) = 37.25227 28.26550 110.75008
#
# Poissons Ratio (x) = 0.24829 0.14372
# Poissons Ratio (y) = 0.32723 0.18502
# Poissons Ratio (z) = 0.04834 0.04722
#
# Static dielectric constant tensor:
#      x y z
#    x 1.736410 -0.004610 -0.034310 
#    y -0.004610 1.949400 -0.247390 
#    z -0.034310 -0.247390 2.114800 
# 
# From -- ./inp_files/54607.got.cif
#   From: 2010.05.17/outbox.cif.g08.bks.cpg/sg2_28_cif.got.tgz:54607.got - 2010.06.03 11:33:40.
