data_PCOD9091087
_publ_section_title
;
Structure prediction by ZEFSAII (Michael W. Deem and Ramdas Pophale) SiO2 
 PCOD9091087
Probable space group: P -1
;
_chemical_formula_sum "Si O2"
_cell_formula_units_Z 12
_cell_length_a 7.066365
_cell_length_b 18.094708
_cell_length_c 5.134451
_cell_angle_alpha 99.594389
_cell_angle_beta 116.485600
_cell_angle_gamma 50.388411
_cell_volume 446.043083
_symmetry_space_group_name_H-M "P -1"
_symmetry_group_IT_number 2
_symmetry_cell_setting 'triclinic'
loop_
_space_group_symop_operation_xyz
x,y,z
-x,-y,-z
loop_
_atom_site_type_symbol
_atom_site_label
_atom_site_fract_x
_atom_site_fract_y
_atom_site_fract_z
Si Si1 0.700848 0.599815 0.537204
Si Si2 0.262888 0.246275 0.160383
Si Si3 0.094919 0.897205 0.414248
Si Si4 0.569409 0.560884 0.938430
Si Si5 0.103816 0.735455 0.454553
Si Si6 0.309432 0.063993 0.177416
O O1 0.823586 0.652629 0.723114
O O2 0.715870 0.532588 0.731218
O O3 0.361794 0.683296 0.378249
O O4 0.756208 0.563924 0.256760
O O5 0.588236 0.176911 0.356484
O O6 0.225658 0.170666 0.205491
O O7 0.127226 0.266921 0.804152
O O8 0.993145 0.844512 0.464009
O O9 0.000000 0.000000 0.500000
O O10 0.975607 0.913854 0.057732
O O11 0.275212 0.665470 0.759244
O O12 0.500000 0.500000 0.000000
O O13 0.500000 0.000000 0.500000
O O14 0.500000 0.000000 0.000000
#
# Coordination Sequence:
#
# PCOD9091087 Si02
#       6
#     2   2   2   2   2   2
#     4   9  21  39  62  91 120 163 200 246 313 362
#     4  10  20  43  58  91 127 165 206 256 301 367
#     4  10  19  39  63  89 122 167 209 252 302 359
#     4  10  20  42  68  91 124 158 201 255 310 369
#     4   8  21  37  59  91 124 163 201 255 304 358
#     4  11  24  40  59  88 119 161 210 256 297 349
#
# _framework density 26.903227999999999
#
# number of rings (size 3 to 8) (size 9 to 14) (size 15 to 20)
#    1.000    1.333    1.667    0.500    0.000    3.333 
#   21.000    1.667    0.000    0.000    0.000    0.000 
#    0.000    0.000    0.000    0.000    0.000    0.000 
#
# Total GULP energy -66972.138165 kJ/mol
# GULP energy per Si atom -5581.011514 kJ/mol
# Density = 2.684199 g / cm^3
# Si number density = 26.903228 Si / 1000 Ang^3
#
#
#
# Elastic Constant Matrix: (Units=GPa)
#
#
# Indices 1 2 3 4 5 6 
#
# 1 91.0839 24.4750 45.8309 0.1063 0.7133 6.2706
# 2 24.4750 150.2276 83.9160 -2.8268 -13.7805 37.1126
# 3 45.8309 83.9160 268.9472 -12.0957 23.4676 30.3935
# 4 0.1063 -2.8268 -12.0957 57.2900 6.6461 12.7729
# 5 0.7133 -13.7805 23.4676 6.6461 56.9994 -4.6801
# 6 6.2706 37.1126 30.3935 12.7729 -4.6801 38.4950
#
#
#
# Elastic Compliance Matrix: (Units=1/GPa)
#
#
# Indices 1 2 3 4 5 6 
#
# 1 0.012172 -0.001103 -0.001911 -0.000743 0.000528 0.000901
# 2 -0.001103 0.010427 -0.002288 0.001574 0.002614 -0.008271
# 3 -0.001911 -0.002288 0.005459 0.002061 -0.003253 -0.002872
# 4 -0.000743 0.001574 0.002061 0.020708 -0.003723 -0.010348
# 5 0.000528 0.002614 -0.003253 -0.003723 0.020243 0.003658
# 6 0.000901 -0.008271 -0.002872 -0.010348 0.003658 0.039950
#
#
# Mechanical properties :
#
#
# Convention : Reuss Voigt Hill
#
# Bulk Modulus (GPa) = 57.29850 90.96695 74.13272
# Shear Modulus (GPa) = 39.87807 54.29267 47.08537
#
# Velocity S-wave (km/s) = 3.85421 4.49717 4.18805
# Velocity P-wave (km/s) = 6.41489 7.80078 7.14153
#
# Compressibility (1/GPa) = 0.01745246
#
# Stress axis : x y z
#
# Youngs Moduli (GPa) = 82.15734 95.90415 183.18785
#
# Poissons Ratio (x) = 0.10583 0.35010
# Poissons Ratio (y) = 0.09066 0.41913
# Poissons Ratio (z) = 0.15702 0.21943
#
# Static dielectric constant tensor:
#      x y z
#    x 2.346050 -0.121310 -0.072190 
#    y -0.121310 2.156190 0.035830 
#    z -0.072190 0.035830 2.143840 
# 
# From -- ./inp_files/45208.got.cif
#   From: 2010.05.17/outbox.cif.g08.bks.cpg/sg2_23_cif.got.tgz:45208.got - 2010.06.03 11:33:40.
