data_PCOD9091524
_publ_section_title
;
Structure prediction by ZEFSAII (Michael W. Deem and Ramdas Pophale) SiO2 
 PCOD9091524
Probable space group: P -1
;
_chemical_formula_sum "Si O2"
_cell_formula_units_Z 10
_cell_length_a 11.060925
_cell_length_b 5.973596
_cell_length_c 11.572257
_cell_angle_alpha 86.802223
_cell_angle_beta 35.952594
_cell_angle_gamma 73.715391
_cell_volume 410.543304
_symmetry_space_group_name_H-M "P -1"
_symmetry_group_IT_number 2
_symmetry_cell_setting 'triclinic'
loop_
_space_group_symop_operation_xyz
x,y,z
-x,-y,-z
loop_
_atom_site_type_symbol
_atom_site_label
_atom_site_fract_x
_atom_site_fract_y
_atom_site_fract_z
Si Si1 0.810276 0.673471 0.056357
Si Si2 0.520506 0.558280 0.714070
Si Si3 0.945880 0.120256 0.323951
Si Si4 0.754267 0.056333 0.249947
Si Si5 0.419788 0.789893 0.018497
O O1 0.660096 0.555047 0.115238
O O2 0.670861 0.874992 0.252477
O O3 0.000000 0.500000 0.000000
O O4 0.929037 0.761176 0.861945
O O5 0.763297 0.340457 0.528875
O O6 0.427349 0.682693 0.658516
O O7 0.490860 0.758441 0.828825
O O8 0.814743 0.017955 0.337908
O O9 0.148689 0.911473 0.238012
O O10 0.000000 0.000000 0.000000
O O11 0.500000 0.500000 0.000000
O O12 0.500000 0.000000 0.000000
#
# Coordination Sequence:
#
# PCOD9091524 Si02
#       5
#     2   2   2   2   2
#     4  11  20  39  67 103 151 186 219 286 364 442
#     4  12  24  45  72 103 145 184 238 298 368 431
#     4  11  24  46  71 109 141 185 240 297 363 440
#     4  10  19  39  67 105 143 175 224 287 366 439
#     4  12  28  52  75 100 145 198 254 310 354 421
#
# _framework density 24.357966000000001
#
# number of rings (size 3 to 8) (size 9 to 14) (size 15 to 20)
#    0.000    0.800    8.000    1.800    0.000    2.400 
#    7.200    0.000    0.000    0.000    0.000    0.000 
#    0.000    0.000    0.000    0.000    0.000    0.000 
#
# Total GULP energy -55811.998388 kJ/mol
# GULP energy per Si atom -5581.199839 kJ/mol
# Density = 2.430253 g / cm^3
# Si number density = 24.357966 Si / 1000 Ang^3
#
#
#
# Elastic Constant Matrix: (Units=GPa)
#
#
# Indices 1 2 3 4 5 6 
#
# 1 144.8262 58.1155 59.7598 27.9837 -0.5970 23.0138
# 2 58.1155 109.6296 32.0288 23.1893 -15.9007 -8.4041
# 3 59.7598 32.0288 115.7339 42.1776 -20.6881 5.3730
# 4 27.9837 23.1893 42.1776 47.2560 -2.2509 -6.3277
# 5 -0.5970 -15.9007 -20.6881 -2.2509 41.6375 24.4390
# 6 23.0138 -8.4041 5.3730 -6.3277 24.4390 54.5202
#
#
#
# Elastic Compliance Matrix: (Units=1/GPa)
#
#
# Indices 1 2 3 4 5 6 
#
# 1 0.011785 -0.005275 -0.003949 -0.001603 -0.000836 -0.005210
# 2 -0.005275 0.013165 0.001232 -0.003998 0.004334 0.001728
# 3 -0.003949 0.001232 0.018706 -0.015366 0.013457 -0.007802
# 4 -0.001603 -0.003998 -0.015366 0.038780 -0.014458 0.012557
# 5 -0.000836 0.004334 0.013457 -0.014458 0.044414 -0.021892
# 6 -0.005210 0.001728 -0.007802 0.012557 -0.021892 0.032847
#
#
# Mechanical properties :
#
#
# Convention : Reuss Voigt Hill
#
# Bulk Modulus (GPa) = 36.13710 74.44420 55.29065
# Shear Modulus (GPa) = 27.04079 43.36843 35.20461
#
# Velocity S-wave (km/s) = 3.33549 4.22413 3.80584
# Velocity P-wave (km/s) = 5.44996 7.37699 6.48545
#
# Compressibility (1/GPa) = 0.02767239
#
# Stress axis : x y z
#
# Youngs Moduli (GPa) = 84.85080 75.95942 53.45811
#
# Poissons Ratio (x) = 0.40072 0.21110
# Poissons Ratio (y) = 0.44762 -0.06587
# Poissons Ratio (z) = 0.33506 -0.09360
#
# Static dielectric constant tensor:
#      x y z
#    x 2.037120 -0.013070 0.036540 
#    y -0.013070 2.169110 0.000300 
#    z 0.036540 0.000300 1.941320 
# 
# From -- ./inp_files/91884.got.cif
#   From: 2010.05.17/outbox.cif.g08.bks.cpg/sg2_46_cif.got.tgz:91884.got - 2010.06.03 11:33:40.
