data_PCOD9091355
_publ_section_title
;
Structure prediction by ZEFSAII (Michael W. Deem and Ramdas Pophale) SiO2 
 PCOD9091355
Probable space group: P -1
;
_chemical_formula_sum "Si O2"
_cell_formula_units_Z 16
_cell_length_a 5.570055
_cell_length_b 14.860102
_cell_length_c 11.587687
_cell_angle_alpha 123.768489
_cell_angle_beta 117.766632
_cell_angle_gamma 59.136867
_cell_volume 662.096496
_symmetry_space_group_name_H-M "P -1"
_symmetry_group_IT_number 2
_symmetry_cell_setting 'triclinic'
loop_
_space_group_symop_operation_xyz
x,y,z
-x,-y,-z
loop_
_atom_site_type_symbol
_atom_site_label
_atom_site_fract_x
_atom_site_fract_y
_atom_site_fract_z
Si Si1 0.635166 0.847305 0.500758
Si Si2 0.047702 0.863806 0.008782
Si Si3 0.190036 0.079105 0.617062
Si Si4 0.613565 0.630425 0.751915
Si Si5 0.050101 0.579618 0.166868
Si Si6 0.389961 0.713384 0.192526
Si Si7 0.060404 0.295971 0.320843
Si Si8 0.387348 0.140359 0.938673
O O1 0.874564 0.841908 0.454635
O O2 0.398164 0.817273 0.350116
O O3 0.750538 0.758084 0.564469
O O4 0.508553 0.978325 0.609397
O O5 0.228824 0.763026 0.070732
O O6 0.276990 0.919046 0.057037
O O7 0.767088 0.928134 0.066317
O O8 0.951825 0.806508 0.838640
O O9 0.218891 0.148826 0.786070
O O10 0.000000 0.000000 0.500000
O O11 0.769921 0.507616 0.757630
O O12 0.781554 0.637241 0.676451
O O13 0.275475 0.645769 0.676983
O O14 0.634003 0.737806 0.915969
O O15 0.246109 0.641143 0.187684
O O16 0.726849 0.646659 0.190178
O O17 0.000000 0.500000 0.000000
#
# Coordination Sequence:
#
# PCOD9091355 Si02
#       8
#     2   2   2   2   2   2   2   2
#     4  11  27  44  66 102 130 180 219 269 338 398
#     4  10  19  39  65  92 128 173 213 272 328 373
#     4  11  25  43  71  94 135 170 226 278 326 401
#     4  10  22  43  67  95 136 173 217 276 330 383
#     4  12  24  39  68 106 128 174 228 276 320 386
#     4  12  24  41  68  99 136 171 227 274 324 385
#     4  10  22  42  68  92 137 179 212 266 335 399
#     4  10  20  39  66  92 125 173 210 274 328 377
#
# _framework density 24.165659999999999
#
# number of rings (size 3 to 8) (size 9 to 14) (size 15 to 20)
#    0.000    1.250    1.250    5.625    5.250    0.000 
#    0.000    8.750    0.000    0.000    0.000    0.000 
#    0.000    0.000    0.000    0.000    0.000    0.000 
#
# Total GULP energy -89368.635174 kJ/mol
# GULP energy per Si atom -5585.539698 kJ/mol
# Density = 2.411066 g / cm^3
# Si number density = 24.165660 Si / 1000 Ang^3
#
#
#
# Elastic Constant Matrix: (Units=GPa)
#
#
# Indices 1 2 3 4 5 6 
#
# 1 218.2842 50.5435 21.7603 -2.9989 -0.1735 26.4284
# 2 50.5435 92.5654 10.5920 -11.2634 -2.8761 8.1732
# 3 21.7603 10.5920 37.8562 -2.7384 2.5678 3.6941
# 4 -2.9989 -11.2634 -2.7384 36.4396 3.3892 -1.0061
# 5 -0.1735 -2.8761 2.5678 3.3892 24.1626 0.4979
# 6 26.4284 8.1732 3.6941 -1.0061 0.4979 51.6830
#
#
#
# Elastic Compliance Matrix: (Units=1/GPa)
#
#
# Indices 1 2 3 4 5 6 
#
# 1 0.005720 -0.002720 -0.002350 -0.000621 0.000102 -0.002340
# 2 -0.002720 0.013011 -0.001859 0.003530 0.001242 -0.000477
# 3 -0.002350 -0.001859 0.028696 0.001702 -0.003516 -0.000488
# 4 -0.000621 0.003530 0.001702 0.028974 -0.003834 0.000239
# 5 0.000102 0.001242 -0.003516 -0.003834 0.042456 -0.000481
# 6 -0.002340 -0.000477 -0.000488 0.000239 -0.000481 0.020665
#
#
# Mechanical properties :
#
#
# Convention : Reuss Voigt Hill
#
# Bulk Modulus (GPa) = 29.79023 57.16639 43.47831
# Shear Modulus (GPa) = 30.38184 40.17770 35.27977
#
# Velocity S-wave (km/s) = 3.54959 4.08192 3.82503
# Velocity P-wave (km/s) = 5.39942 6.77668 6.12688
#
# Compressibility (1/GPa) = 0.03356805
#
# Stress axis : x y z
#
# Youngs Moduli (GPa) = 174.81856 76.85560 34.84767
#
# Poissons Ratio (x) = 0.20906 0.08191
# Poissons Ratio (y) = 0.47554 0.06479
# Poissons Ratio (z) = 0.41091 0.14290
#
# Static dielectric constant tensor:
#      x y z
#    x 2.180340 -0.061100 -0.030990 
#    y -0.061100 1.554670 -0.126420 
#    z -0.030990 -0.126420 1.848670 
# 
# From -- ./inp_files/367992.got.cif
#   From: 2010.05.17/outbox.cif.g08.bks.cpg/sg2_184_cif.got.tgz:367992.got - 2010.06.03 11:33:40.
