data_PCOD9091822
_publ_section_title
;
Structure prediction by ZEFSAII (Michael W. Deem and Ramdas Pophale) SiO2 
 PCOD9091822
Probable space group: P -1
;
_chemical_formula_sum "Si O2"
_cell_formula_units_Z 16
_cell_length_a 11.534886
_cell_length_b 11.099947
_cell_length_c 11.313071
_cell_angle_alpha 46.464912
_cell_angle_beta 39.767598
_cell_angle_gamma 50.236434
_cell_volume 652.478816
_symmetry_space_group_name_H-M "P -1"
_symmetry_group_IT_number 2
_symmetry_cell_setting 'triclinic'
loop_
_space_group_symop_operation_xyz
x,y,z
-x,-y,-z
loop_
_atom_site_type_symbol
_atom_site_label
_atom_site_fract_x
_atom_site_fract_y
_atom_site_fract_z
Si Si1 0.883976 0.919202 0.737452
Si Si2 0.787786 0.352344 0.313098
Si Si3 0.804720 0.046272 0.966793
Si Si4 0.119856 0.729315 0.041727
Si Si5 0.485392 0.479038 0.164543
Si Si6 0.191059 0.460185 0.593799
Si Si7 0.484582 0.148297 0.692445
Si Si8 0.382198 0.286586 0.929399
O O1 0.821772 0.041250 0.815091
O O2 0.005598 0.743225 0.819801
O O3 0.739049 0.835305 0.838405
O O4 0.000000 0.000000 0.500000
O O5 0.795918 0.391255 0.422036
O O6 0.669795 0.211009 0.475348
O O7 0.712852 0.531394 0.184258
O O8 0.840093 0.206462 0.902415
O O9 0.600378 0.008464 0.177445
O O10 0.973199 0.889185 0.988827
O O11 0.014203 0.574540 0.231028
O O12 0.322742 0.667888 0.862997
O O13 0.296235 0.453106 0.390286
O O14 0.505840 0.649228 0.100003
O O15 0.500000 0.500000 0.000000
O O16 0.322675 0.300831 0.664877
O O17 0.477112 0.171002 0.824334
#
# Coordination Sequence:
#
# PCOD9091822 Si02
#       8
#     2   2   2   2   2   2   2   2
#     4  11  24  37  59  94 126 162 198 250 330 374
#     4  11  18  37  70  93 112 156 210 267 307 353
#     4   9  21  42  60  86 123 168 203 247 311 380
#     4  10  22  42  62  85 125 167 209 259 300 367
#     4  12  24  37  59  93 122 164 211 255 315 369
#     4  10  20  38  64  93 117 152 213 266 305 359
#     4   9  17  36  66  90 112 146 210 267 301 348
#     4  10  19  40  61  87 121 151 210 262 293 368
#
# _framework density 24.521868000000001
#
# number of rings (size 3 to 8) (size 9 to 14) (size 15 to 20)
#    0.000    1.750    2.500    3.375    0.000    2.500 
#    4.500    3.125    0.000    0.000    0.000    0.000 
#    0.000    0.000    0.000    0.000    0.000    0.000 
#
# Total GULP energy -89275.709902 kJ/mol
# GULP energy per Si atom -5579.731869 kJ/mol
# Density = 2.446606 g / cm^3
# Si number density = 24.521868 Si / 1000 Ang^3
#
#
#
# Elastic Constant Matrix: (Units=GPa)
#
#
# Indices 1 2 3 4 5 6 
#
# 1 110.3882 30.0613 25.0372 -8.7242 8.9935 30.9854
# 2 30.0613 81.3081 11.8267 3.3866 4.9216 -6.9323
# 3 25.0372 11.8267 107.9661 -8.9521 10.5998 22.1872
# 4 -8.7242 3.3866 -8.9521 30.0371 10.1079 6.2496
# 5 8.9935 4.9216 10.5998 10.1079 36.3526 1.4221
# 6 30.9854 -6.9323 22.1872 6.2496 1.4221 46.5498
#
#
#
# Elastic Compliance Matrix: (Units=1/GPa)
#
#
# Indices 1 2 3 4 5 6 
#
# 1 0.015834 -0.007294 0.001341 0.010559 -0.005728 -0.013507
# 2 -0.007294 0.016430 -0.002933 -0.007582 0.002166 0.009652
# 3 0.001341 -0.002933 0.012073 0.007759 -0.005301 -0.007963
# 4 0.010559 -0.007582 0.007759 0.048885 -0.016740 -0.017907
# 5 -0.005728 0.002166 -0.005301 -0.016740 0.034525 0.007855
# 6 -0.013507 0.009652 -0.007963 -0.017907 0.007855 0.037871
#
#
# Mechanical properties :
#
#
# Convention : Reuss Voigt Hill
#
# Bulk Modulus (GPa) = 37.64464 48.16810 42.90637
# Shear Modulus (GPa) = 26.00859 38.10373 32.05616
#
# Velocity S-wave (km/s) = 3.26026 3.94619 3.61951
# Velocity P-wave (km/s) = 5.43665 6.35993 5.91633
#
# Compressibility (1/GPa) = 0.02656421
#
# Stress axis : x y z
#
# Youngs Moduli (GPa) = 63.15624 60.86510 82.83132
#
# Poissons Ratio (x) = 0.44394 -0.11106
# Poissons Ratio (y) = 0.46065 0.24295
# Poissons Ratio (z) = -0.08468 0.17852
#
# Static dielectric constant tensor:
#      x y z
#    x 2.068400 -0.090800 -0.044030 
#    y -0.090800 1.984280 -0.001000 
#    z -0.044030 -0.001000 2.019640 
# 
# From -- ./inp_files/427499.got.cif
#   From: 2010.05.17/outbox.cif.g08.bks.cpg/sg2_214_cif.got.tgz:427499.got - 2010.06.03 11:33:40.
