data_PCOD9091744
_publ_section_title
;
Structure prediction by ZEFSAII (Michael W. Deem and Ramdas Pophale) SiO2 
 PCOD9091744
Probable space group: P -1
;
_chemical_formula_sum "Si O2"
_cell_formula_units_Z 12
_cell_length_a 9.708909
_cell_length_b 7.358507
_cell_length_c 9.351117
_cell_angle_alpha 115.054439
_cell_angle_beta 98.681758
_cell_angle_gamma 52.814069
_cell_volume 477.027686
_symmetry_space_group_name_H-M "P -1"
_symmetry_group_IT_number 2
_symmetry_cell_setting 'triclinic'
loop_
_space_group_symop_operation_xyz
x,y,z
-x,-y,-z
loop_
_atom_site_type_symbol
_atom_site_label
_atom_site_fract_x
_atom_site_fract_y
_atom_site_fract_z
Si Si1 0.521011 0.322764 0.315206
Si Si2 0.935361 0.759629 0.499419
Si Si3 0.201310 0.672994 0.728340
Si Si4 0.402224 0.028392 0.138004
Si Si5 0.997809 0.553919 0.851474
Si Si6 0.420410 0.740927 0.282819
O O1 0.500000 0.500000 0.500000
O O2 0.707758 0.187297 0.219731
O O3 0.389802 0.533914 0.247709
O O4 0.474532 0.141133 0.290752
O O5 0.000000 0.500000 0.500000
O O6 0.080634 0.774793 0.601382
O O7 0.939294 0.693183 0.313376
O O8 0.743231 0.997515 0.592144
O O9 0.384690 0.387727 0.666714
O O10 0.099244 0.664532 0.843347
O O11 0.432906 0.789631 0.136124
O O12 0.199638 0.236286 0.155603
O O13 0.500000 0.000000 0.000000
O O14 0.000000 0.500000 0.000000
#
# Coordination Sequence:
#
# PCOD9091744 Si02
#       6
#     2   2   2   2   2   2
#     4  10  25  43  71 111 141 179 250 295 355 435
#     4  10  19  39  72  99 138 182 239 288 354 426
#     4   9  21  43  71 101 141 176 241 296 350 425
#     4  12  25  46  72 104 148 196 238 292 374 430
#     4  11  23  41  65 103 144 188 237 295 348 433
#     4  10  23  43  75 100 143 187 230 300 367 404
#
# _framework density 25.155773
#
# number of rings (size 3 to 8) (size 9 to 14) (size 15 to 20)
#    1.000    0.667    3.333    2.000    2.333    8.000 
#    0.000    7.500    0.000    0.000    0.000    0.000 
#    0.000    0.000    0.000    0.000    0.000    0.000 
#
# Total GULP energy -66907.044274 kJ/mol
# GULP energy per Si atom -5575.587023 kJ/mol
# Density = 2.509852 g / cm^3
# Si number density = 25.155773 Si / 1000 Ang^3
#
#
#
# Elastic Constant Matrix: (Units=GPa)
#
#
# Indices 1 2 3 4 5 6 
#
# 1 83.8732 41.0929 8.9273 -2.8146 -21.7729 -22.7327
# 2 41.0929 103.8771 26.7636 6.6097 -13.0969 -21.6732
# 3 8.9273 26.7636 146.0181 -7.6844 -17.5532 -10.5422
# 4 -2.8146 6.6097 -7.6844 37.9239 -0.1419 -12.6303
# 5 -21.7729 -13.0969 -17.5532 -0.1419 35.1566 4.9676
# 6 -22.7327 -21.6732 -10.5422 -12.6303 4.9676 44.1466
#
#
#
# Elastic Compliance Matrix: (Units=1/GPa)
#
#
# Indices 1 2 3 4 5 6 
#
# 1 0.019387 -0.005573 0.001891 0.005558 0.009740 0.008193
# 2 -0.005573 0.012990 -0.001983 -0.002289 0.000053 0.002373
# 3 0.001891 -0.001983 0.007897 0.002848 0.004070 0.002243
# 4 0.005558 -0.002289 0.002848 0.031475 0.002566 0.011135
# 5 0.009740 0.000053 0.004070 0.002566 0.036160 0.002678
# 6 0.008193 0.002373 0.002243 0.011135 0.002678 0.031456
#
#
# Mechanical properties :
#
#
# Convention : Reuss Voigt Hill
#
# Bulk Modulus (GPa) = 34.54837 54.14844 44.34840
# Shear Modulus (GPa) = 31.18306 40.57773 35.88040
#
# Velocity S-wave (km/s) = 3.52461 4.02065 3.78077
# Velocity P-wave (km/s) = 5.50704 6.56705 6.06026
#
# Compressibility (1/GPa) = 0.02894493
#
# Stress axis : x y z
#
# Youngs Moduli (GPa) = 51.57979 76.98392 126.62358
#
# Poissons Ratio (x) = 0.42903 -0.23945
# Poissons Ratio (y) = 0.28745 0.25108
# Poissons Ratio (z) = -0.09754 0.15265
#
# Static dielectric constant tensor:
#      x y z
#    x 2.178470 0.041310 0.037850 
#    y 0.041310 1.959170 -0.006040 
#    z 0.037850 -0.006040 2.183050 
# 
# From -- ./inp_files/300528.got.cif
#   From: 2010.05.17/outbox.cif.g08.bks.cpg/sg2_151_cif.got.tgz:300528.got - 2010.06.03 11:33:40.
