data_PCOD9091591
_publ_section_title
;
Structure prediction by ZEFSAII (Michael W. Deem and Ramdas Pophale) SiO2 
 PCOD9091591
Probable space group: P -1
;
_chemical_formula_sum "Si O2"
_cell_formula_units_Z 14
_cell_length_a 7.736539
_cell_length_b 12.662599
_cell_length_c 12.780696
_cell_angle_alpha 146.844823
_cell_angle_beta 122.836008
_cell_angle_gamma 51.547301
_cell_volume 535.567687
_symmetry_space_group_name_H-M "P -1"
_symmetry_group_IT_number 2
_symmetry_cell_setting 'triclinic'
loop_
_space_group_symop_operation_xyz
x,y,z
-x,-y,-z
loop_
_atom_site_type_symbol
_atom_site_label
_atom_site_fract_x
_atom_site_fract_y
_atom_site_fract_z
Si Si1 0.512710 0.838208 0.960845
Si Si2 0.778043 0.416314 0.789420
Si Si3 0.027366 0.435051 0.587641
Si Si4 0.159896 0.999696 0.146396
Si Si5 0.795242 0.793250 0.341769
Si Si6 0.314267 0.787445 0.220524
Si Si7 0.371748 0.477665 0.590186
O O1 0.722427 0.649856 0.921487
O O2 0.386940 0.697563 0.751456
O O3 0.388746 0.950403 0.118362
O O4 0.500000 0.000000 0.000000
O O5 0.617642 0.342071 0.597241
O O6 0.775206 0.570385 0.587730
O O7 0.034168 0.272858 0.751920
O O8 0.064525 0.377924 0.670676
O O9 0.211976 0.514326 0.669103
O O10 0.092211 0.216887 0.365080
O O11 0.174682 0.836591 0.108583
O O12 0.000000 0.000000 0.000000
O O13 0.552924 0.784629 0.259562
O O14 0.771604 0.015595 0.565708
O O15 0.311312 0.599922 0.136703
#
# Coordination Sequence:
#
# PCOD9091591 Si02
#       7
#     2   2   2   2   2   2   2
#     4  10  23  44  62  97 143 177 230 278 344 415
#     4  10  21  42  66 102 138 175 230 287 342 407
#     4  10  19  39  67  99 131 178 235 282 341 407
#     4  11  22  44  67  94 136 187 222 283 349 413
#     4  10  20  39  67 100 137 179 223 293 348 398
#     4  10  22  41  67 100 136 179 234 277 352 416
#     4   9  20  38  64  98 134 175 234 281 340 399
#
# _framework density 26.140488999999999
#
# number of rings (size 3 to 8) (size 9 to 14) (size 15 to 20)
#    0.857    1.143    2.857    0.429    0.000    3.429 
#    7.714    0.714    0.000    0.000    0.000    0.000 
#    0.000    0.000    0.000    0.000    0.000    0.000 
#
# Total GULP energy -78173.372697 kJ/mol
# GULP energy per Si atom -5583.812336 kJ/mol
# Density = 2.608099 g / cm^3
# Si number density = 26.140489 Si / 1000 Ang^3
#
#
#
# Elastic Constant Matrix: (Units=GPa)
#
#
# Indices 1 2 3 4 5 6 
#
# 1 120.5723 50.6969 34.2519 10.1990 -1.4784 9.1553
# 2 50.6969 143.4776 34.6253 -6.6181 1.2293 15.2258
# 3 34.2519 34.6253 70.2826 19.9532 -14.5200 0.2632
# 4 10.1990 -6.6181 19.9532 36.0187 -2.2708 1.1268
# 5 -1.4784 1.2293 -14.5200 -2.2708 28.8281 11.4617
# 6 9.1553 15.2258 0.2632 1.1268 11.4617 59.8090
#
#
#
# Elastic Compliance Matrix: (Units=1/GPa)
#
#
# Indices 1 2 3 4 5 6 
#
# 1 0.010700 -0.002939 -0.003484 -0.001679 -0.000950 -0.000661
# 2 -0.002939 0.009763 -0.005388 0.005527 -0.002170 -0.001700
# 3 -0.003484 -0.005388 0.024624 -0.012914 0.011502 -0.000164
# 4 -0.001679 0.005527 -0.012914 0.036220 -0.003537 -0.001098
# 5 -0.000950 -0.002170 0.011502 -0.003537 0.043259 -0.007576
# 6 -0.000661 -0.001700 -0.000164 -0.001098 -0.007576 0.018727
#
#
# Mechanical properties :
#
#
# Convention : Reuss Voigt Hill
#
# Bulk Modulus (GPa) = 46.58995 63.72007 55.15501
# Shear Modulus (GPa) = 28.72430 39.24839 33.98634
#
# Velocity S-wave (km/s) = 3.31848 3.87905 3.60966
# Velocity P-wave (km/s) = 5.70479 6.67020 6.20630
#
# Compressibility (1/GPa) = 0.02146386
#
# Stress axis : x y z
#
# Youngs Moduli (GPa) = 93.45992 102.43167 40.61135
#
# Poissons Ratio (x) = 0.30107 0.14147
# Poissons Ratio (y) = 0.27470 0.21883
# Poissons Ratio (z) = 0.32557 0.55194
#
# Static dielectric constant tensor:
#      x y z
#    x 2.151930 -0.047030 0.010560 
#    y -0.047030 2.084620 0.020450 
#    z 0.010560 0.020450 2.109260 
# 
# From -- ./inp_files/503255.got.cif
#   From: 2010.05.17/outbox.cif.g08.bks.cpg/sg2_252_cif.got.tgz:503255.got - 2010.06.03 11:33:40.
