data_PCOD9091058
_publ_section_title
;
Structure prediction by ZEFSAII (Michael W. Deem and Ramdas Pophale) SiO2 
 PCOD9091058
Probable space group: P -1
;
_chemical_formula_sum "Si O2"
_cell_formula_units_Z 16
_cell_length_a 11.770899
_cell_length_b 15.815729
_cell_length_c 7.917271
_cell_angle_alpha 67.204954
_cell_angle_beta 37.715402
_cell_angle_gamma 50.772104
_cell_volume 678.367034
_symmetry_space_group_name_H-M "P -1"
_symmetry_group_IT_number 2
_symmetry_cell_setting 'triclinic'
loop_
_space_group_symop_operation_xyz
x,y,z
-x,-y,-z
loop_
_atom_site_type_symbol
_atom_site_label
_atom_site_fract_x
_atom_site_fract_y
_atom_site_fract_z
Si Si1 0.258288 0.606150 0.135459
Si Si2 0.593599 0.063452 0.750237
Si Si3 0.123472 0.694892 0.561239
Si Si4 0.694212 0.018538 0.287614
Si Si5 0.375970 0.462702 0.802243
Si Si6 0.407713 0.749336 0.698801
Si Si7 0.223036 0.328661 0.892271
Si Si8 0.089630 0.876238 0.659658
O O1 0.078271 0.664797 0.453213
O O2 0.500000 0.500000 0.000000
O O3 0.219196 0.559365 0.048491
O O4 0.301468 0.698031 0.963481
O O5 0.381944 0.194044 0.859092
O O6 0.781500 0.073446 0.612841
O O7 0.725587 0.001326 0.467449
O O8 0.500000 0.000000 0.000000
O O9 0.392153 0.636842 0.299876
O O10 0.022376 0.819817 0.645505
O O11 0.026126 0.643491 0.837836
O O12 0.500000 0.000000 0.500000
O O13 0.627386 0.143722 0.254905
O O14 0.890184 0.948554 0.974261
O O15 0.500000 0.500000 0.500000
O O16 0.255666 0.407314 0.911518
O O17 0.673880 0.665680 0.409666
O O18 0.283200 0.781782 0.636152
#
# Coordination Sequence:
#
# PCOD9091058 Si02
#       8
#     2   2   2   2   2   2   2   2
#     4  10  23  38  61  88 119 156 199 255 303 345
#     4  10  21  38  60  90 125 157 197 251 300 355
#     4  11  22  38  63  92 120 152 203 250 303 351
#     4  10  21  37  59  91 121 159 206 239 294 374
#     4  11  20  43  64  83 120 160 200 249 304 354
#     4  10  19  40  61  85 121 162 198 244 295 363
#     4  10  21  38  65  87 119 157 204 240 297 367
#     4  10  19  39  63  86 123 167 195 240 307 365
#
# _framework density 23.586054000000001
#
# number of rings (size 3 to 8) (size 9 to 14) (size 15 to 20)
#    0.000    2.000    3.750    3.000    0.000    4.000 
#    0.000    1.875    5.500    0.000    0.000    0.000 
#    0.000    0.000    0.000    0.000    0.000    0.000 
#
# Total GULP energy -89234.710170 kJ/mol
# GULP energy per Si atom -5577.169386 kJ/mol
# Density = 2.353237 g / cm^3
# Si number density = 23.586054 Si / 1000 Ang^3
#
#
#
# Elastic Constant Matrix: (Units=GPa)
#
#
# Indices 1 2 3 4 5 6 
#
# 1 48.4038 25.9705 17.2647 16.2176 -6.4174 24.6872
# 2 25.9705 103.1448 39.8923 5.7960 10.9999 35.4252
# 3 17.2647 39.8923 112.1045 15.5638 2.1027 28.3032
# 4 16.2176 5.7960 15.5638 35.8232 14.9843 15.0901
# 5 -6.4174 10.9999 2.1027 14.9843 42.7567 2.2851
# 6 24.6872 35.4252 28.3032 15.0901 2.2851 40.5459
#
#
#
# Elastic Compliance Matrix: (Units=1/GPa)
#
#
# Indices 1 2 3 4 5 6 
#
# 1 0.037586 -0.006142 0.001846 -0.017015 0.013802 -0.013254
# 2 -0.006142 0.016901 -0.003264 0.009807 -0.007907 -0.011953
# 3 0.001846 -0.003264 0.011582 -0.004229 0.002292 -0.004913
# 4 -0.017015 0.009807 -0.004229 0.050388 -0.021845 -0.012778
# 5 0.013802 -0.007907 0.002292 -0.021845 0.034873 0.003070
# 6 -0.013254 -0.011953 -0.004913 -0.012778 0.003070 0.051189
#
#
# Mechanical properties :
#
#
# Convention : Reuss Voigt Hill
#
# Bulk Modulus (GPa) = 19.62657 47.76756 33.69707
# Shear Modulus (GPa) = 21.31097 35.86022 28.58559
#
# Velocity S-wave (km/s) = 3.00916 3.90346 3.48511
# Velocity P-wave (km/s) = 4.51804 6.37279 5.52382
#
# Compressibility (1/GPa) = 0.05095134
#
# Stress axis : x y z
#
# Youngs Moduli (GPa) = 26.60536 59.16683 86.34297
#
# Poissons Ratio (x) = 0.36339 -0.15943
# Poissons Ratio (y) = 0.16340 0.28181
# Poissons Ratio (z) = -0.04913 0.19311
#
# Static dielectric constant tensor:
#      x y z
#    x 1.982460 -0.044390 0.006150 
#    y -0.044390 1.939160 0.057790 
#    z 0.006150 0.057790 1.939580 
# 
# From -- ./inp_files/312921.got.cif
#   From: 2010.05.17/outbox.cif.g08.bks.cpg/sg2_157_cif.got.tgz:312921.got - 2010.06.03 11:33:40.
