data_PCOD9091487
_publ_section_title
;
Structure prediction by ZEFSAII (Michael W. Deem and Ramdas Pophale) SiO2 
 PCOD9091487
Probable space group: P -1
;
_chemical_formula_sum "Si O2"
_cell_formula_units_Z 12
_cell_length_a 11.111801
_cell_length_b 6.985861
_cell_length_c 6.735797
_cell_angle_alpha 83.207656
_cell_angle_beta 87.338832
_cell_angle_gamma 64.257920
_cell_volume 467.666337
_symmetry_space_group_name_H-M "P -1"
_symmetry_group_IT_number 2
_symmetry_cell_setting 'triclinic'
loop_
_space_group_symop_operation_xyz
x,y,z
-x,-y,-z
loop_
_atom_site_type_symbol
_atom_site_label
_atom_site_fract_x
_atom_site_fract_y
_atom_site_fract_z
Si Si1 0.711313 0.415673 0.470920
Si Si2 0.594432 0.277767 0.125012
Si Si3 0.156384 0.040886 0.397978
Si Si4 0.597364 0.842069 0.670976
Si Si5 0.054500 0.520222 0.713562
Si Si6 0.893569 0.935976 0.124358
O O1 0.623546 0.346184 0.336715
O O2 0.802821 0.205941 0.615293
O O3 0.648954 0.604663 0.607882
O O4 0.798626 0.493357 0.314277
O O5 0.500993 0.153460 0.148054
O O6 0.500000 0.500000 0.000000
O O7 0.741834 0.110358 0.057821
O O8 0.281091 0.094236 0.334787
O O9 0.118276 0.048906 0.633855
O O10 0.500000 0.000000 0.500000
O O11 0.064647 0.319549 0.865099
O O12 0.000000 0.500000 0.500000
O O13 0.961275 0.768806 0.728250
O O14 0.000000 0.000000 0.000000
#
# Coordination Sequence:
#
# PCOD9091487 Si02
#       6
#     2   2   2   2   2   2
#     4  11  21  41  72  99 133 175 227 280 333 395
#     4  11  26  42  65 101 140 179 221 275 339 400
#     4  10  22  38  68 104 126 172 229 277 332 398
#     4  12  21  43  71  95 137 173 232 280 329 398
#     4  10  19  39  66  94 129 168 226 276 323 395
#     4  10  21  40  64  92 137 178 213 276 333 386
#
# _framework density 25.659322
#
# number of rings (size 3 to 8) (size 9 to 14) (size 15 to 20)
#    0.000    1.333    6.667    1.000    2.333    0.000 
#    0.000    6.667    7.333    0.000    0.000    0.000 
#    0.000    0.000    0.000    0.000    0.000    0.000 
#
# Total GULP energy -67036.353733 kJ/mol
# GULP energy per Si atom -5586.362811 kJ/mol
# Density = 2.560092 g / cm^3
# Si number density = 25.659322 Si / 1000 Ang^3
#
#
#
# Elastic Constant Matrix: (Units=GPa)
#
#
# Indices 1 2 3 4 5 6 
#
# 1 166.8749 59.7876 42.5285 -21.6992 -54.9925 8.4333
# 2 59.7876 221.4776 57.3958 -22.2062 -20.0665 -20.3966
# 3 42.5285 57.3958 110.0929 -35.5242 -4.6521 6.6936
# 4 -21.6992 -22.2062 -35.5242 52.8768 22.3443 0.8830
# 5 -54.9925 -20.0665 -4.6521 22.3443 36.9635 -16.7742
# 6 8.4333 -20.3966 6.6936 0.8830 -16.7742 65.2999
#
#
#
# Elastic Compliance Matrix: (Units=1/GPa)
#
#
# Indices 1 2 3 4 5 6 
#
# 1 0.023864 0.001593 -0.016255 -0.023876 0.054883 0.013503
# 2 0.001593 0.006393 -0.005327 -0.004668 0.010279 0.005041
# 3 -0.016255 -0.005327 0.026613 0.029766 -0.048608 -0.015182
# 4 -0.023876 -0.004668 0.029766 0.062529 -0.082790 -0.023538
# 5 0.054883 0.010279 -0.048608 -0.082790 0.180235 0.048524
# 6 0.013503 0.005041 -0.015182 -0.023538 0.048524 0.029484
#
#
# Mechanical properties :
#
#
# Convention : Reuss Voigt Hill
#
# Bulk Modulus (GPa) = 59.19798 90.87436 75.03617
# Shear Modulus (GPa) = 13.34306 53.61025 33.47666
#
# Velocity S-wave (km/s) = 2.28284 4.57585 3.61592
# Velocity P-wave (km/s) = 5.48355 7.96307 6.83666
#
# Compressibility (1/GPa) = 0.01689247
#
# Stress axis : x y z
#
# Youngs Moduli (GPa) = 41.90461 156.41926 37.57534
#
# Poissons Ratio (x) = -0.24912 0.61078
# Poissons Ratio (y) = -0.06674 0.20015
# Poissons Ratio (z) = 0.68115 0.83317
#
# Static dielectric constant tensor:
#      x y z
#    x 2.046680 -0.006310 -0.077470 
#    y -0.006310 1.268250 0.451120 
#    z -0.077470 0.451120 1.980540 
# 
# From -- ./inp_files/85975.got.cif
#   From: 2010.05.17/outbox.cif.g08.bks.cpg/sg2_43_cif.got.tgz:85975.got - 2010.06.03 11:33:40.
