data_PCOD9091596
_publ_section_title
;
Structure prediction by ZEFSAII (Michael W. Deem and Ramdas Pophale) SiO2 
 PCOD9091596
Probable space group: P -1
;
_chemical_formula_sum "Si O2"
_cell_formula_units_Z 14
_cell_length_a 9.114360
_cell_length_b 10.260660
_cell_length_c 7.237934
_cell_angle_alpha 84.242142
_cell_angle_beta 122.073080
_cell_angle_gamma 80.653975
_cell_volume 551.693258
_symmetry_space_group_name_H-M "P -1"
_symmetry_group_IT_number 2
_symmetry_cell_setting 'triclinic'
loop_
_space_group_symop_operation_xyz
x,y,z
-x,-y,-z
loop_
_atom_site_type_symbol
_atom_site_label
_atom_site_fract_x
_atom_site_fract_y
_atom_site_fract_z
Si Si1 0.600545 0.317154 0.625820
Si Si2 0.566658 0.366158 0.190026
Si Si3 0.719310 0.787299 0.925151
Si Si4 0.068607 0.575776 0.201318
Si Si5 0.760195 0.703173 0.528100
Si Si6 0.930712 0.157972 0.368238
Si Si7 0.200217 0.937580 0.077078
O O1 0.531623 0.398608 0.380788
O O2 0.769557 0.372394 0.781764
O O3 0.441694 0.301832 0.656068
O O4 0.694150 0.157708 0.677650
O O5 0.439657 0.265170 0.086722
O O6 0.774263 0.278806 0.337605
O O7 0.500000 0.500000 0.000000
O O8 0.732298 0.753301 0.718366
O O9 0.908910 0.698859 0.141371
O O10 0.706157 0.943948 0.921937
O O11 0.136114 0.453951 0.404684
O O12 0.000000 0.500000 0.000000
O O13 0.887517 0.791808 0.525939
O O14 0.830271 0.146290 0.109329
O O15 0.000000 0.000000 0.500000
O O16 0.000000 0.000000 0.000000
#
# Coordination Sequence:
#
# PCOD9091596 Si02
#       7
#     2   2   2   2   2   2   2
#     4  11  24  42  75  99 136 187 236 285 349 423
#     4  11  27  49  69 104 150 184 231 296 358 414
#     4  10  22  41  73  96 137 185 234 283 345 418
#     4  10  19  39  68 103 130 171 234 295 334 402
#     4  10  22  40  67 100 134 182 238 284 339 420
#     4  12  27  46  69 103 149 184 234 298 356 411
#     4  12  22  44  72 102 135 187 244 285 344 423
#
# _framework density 25.37642
#
# number of rings (size 3 to 8) (size 9 to 14) (size 15 to 20)
#    0.000    1.143    2.857    3.000    2.000    6.286 
#    2.571    1.429    0.000    0.000    0.000    0.000 
#    0.000    0.000    0.000    0.000    0.000    0.000 
#
# Total GULP energy -78216.335455 kJ/mol
# GULP energy per Si atom -5586.881104 kJ/mol
# Density = 2.531866 g / cm^3
# Si number density = 25.376420 Si / 1000 Ang^3
#
#
#
# Elastic Constant Matrix: (Units=GPa)
#
#
# Indices 1 2 3 4 5 6 
#
# 1 158.6864 68.3733 47.0250 -5.2492 34.5475 48.9971
# 2 68.3733 156.0807 41.5982 -19.1264 12.6739 65.0091
# 3 47.0250 41.5982 89.2817 -17.5856 5.1343 21.3552
# 4 -5.2492 -19.1264 -17.5856 57.4322 -4.8175 1.6467
# 5 34.5475 12.6739 5.1343 -4.8175 51.4292 15.0808
# 6 48.9971 65.0091 21.3552 1.6467 15.0808 66.3223
#
#
#
# Elastic Compliance Matrix: (Units=1/GPa)
#
#
# Indices 1 2 3 4 5 6 
#
# 1 0.010350 -0.001827 -0.003698 -0.001135 -0.005229 -0.003448
# 2 -0.001827 0.012522 -0.001576 0.003992 0.001882 -0.010944
# 3 -0.003698 -0.001576 0.014775 0.003865 0.002067 -0.001046
# 4 -0.001135 0.003992 0.003865 0.020221 0.002893 -0.005479
# 5 -0.005229 0.001882 0.002067 0.002893 0.023767 -0.004123
# 6 -0.003448 -0.010944 -0.001046 -0.005479 -0.004123 0.029763
#
#
# Mechanical properties :
#
#
# Convention : Reuss Voigt Hill
#
# Bulk Modulus (GPa) = 42.65370 79.78242 61.21806
# Shear Modulus (GPa) = 37.47694 51.50690 44.49192
#
# Velocity S-wave (km/s) = 3.84714 4.51012 4.19176
# Velocity P-wave (km/s) = 6.04805 7.65699 6.89958
#
# Compressibility (1/GPa) = 0.02344462
#
# Stress axis : x y z
#
# Youngs Moduli (GPa) = 96.61636 79.86016 67.67965
#
# Poissons Ratio (x) = 0.14588 0.25031
# Poissons Ratio (y) = 0.17649 0.10668
# Poissons Ratio (z) = 0.35733 0.12588
#
# Static dielectric constant tensor:
#      x y z
#    x 2.059700 -0.111330 -0.012470 
#    y -0.111330 2.091070 0.006810 
#    z -0.012470 0.006810 2.257610 
# 
# From -- ./inp_files/158267.got.cif
#   From: 2010.05.17/outbox.cif.g08.bks.cpg/sg2_80_cif.got.tgz:158267.got - 2010.06.03 11:33:40.
