data_PCOD9091195
_publ_section_title
;
Structure prediction by ZEFSAII (Michael W. Deem and Ramdas Pophale) SiO2 
 PCOD9091195
Probable space group: P -1
;
_chemical_formula_sum "Si O2"
_cell_formula_units_Z 16
_cell_length_a 13.978536
_cell_length_b 8.137449
_cell_length_c 23.173539
_cell_angle_alpha 137.365632
_cell_angle_beta 26.077389
_cell_angle_gamma 137.626169
_cell_volume 757.447463
_symmetry_space_group_name_H-M "P -1"
_symmetry_group_IT_number 2
_symmetry_cell_setting 'triclinic'
loop_
_space_group_symop_operation_xyz
x,y,z
-x,-y,-z
loop_
_atom_site_type_symbol
_atom_site_label
_atom_site_fract_x
_atom_site_fract_y
_atom_site_fract_z
Si Si1 0.718958 0.868865 0.437544
Si Si2 0.793220 0.622194 0.005480
Si Si3 0.847973 0.441816 0.510665
Si Si4 0.459237 0.665078 0.826241
Si Si5 0.741537 0.136661 0.119974
Si Si6 0.784186 0.165576 0.807860
Si Si7 0.534194 0.640319 0.593882
Si Si8 0.026312 0.741288 0.390327
O O1 0.545125 0.772029 0.559589
O O2 0.638462 0.633490 0.377630
O O3 0.974107 0.887490 0.323786
O O4 0.728168 0.150714 0.488328
O O5 0.764816 0.387028 0.917516
O O6 0.642421 0.544055 0.124608
O O7 0.749772 0.849965 0.049739
O O8 0.044298 0.709685 0.919146
O O9 0.648696 0.579931 0.663687
O O10 0.030202 0.556174 0.392353
O O11 0.000000 0.500000 0.500000
O O12 0.281809 0.746491 0.900206
O O13 0.587197 0.914335 0.855856
O O14 0.524269 0.170834 0.280420
O O15 0.794681 0.227222 0.749432
O O16 0.783364 0.613622 0.460905
O O17 0.000000 0.000000 0.500000
#
# Coordination Sequence:
#
# PCOD9091195 Si02
#       8
#     2   2   2   2   2   2   2   2
#     4  10  21  36  63  97 128 166 212 270 340 393
#     4  11  26  44  68  95 131 182 227 264 330 387
#     4  12  22  39  64  99 128 169 216 269 343 397
#     4  12  24  44  68  96 133 175 222 276 324 395
#     4  11  23  46  67  95 132 179 225 272 323 396
#     4  11  22  44  64  94 134 170 217 275 323 391
#     4  10  19  39  64  87 130 169 208 276 334 382
#     4  11  21  40  65  94 132 168 212 274 339 395
#
# _framework density 21.123578999999999
#
# number of rings (size 3 to 8) (size 9 to 14) (size 15 to 20)
#    0.000    1.000    5.000    2.250    0.000    2.000 
#    2.250    0.000    0.000    0.000    0.000    0.000 
#    0.000    0.000    0.000    0.000    0.000    0.000 
#
# Total GULP energy -89282.292322 kJ/mol
# GULP energy per Si atom -5580.143270 kJ/mol
# Density = 2.107550 g / cm^3
# Si number density = 21.123579 Si / 1000 Ang^3
#
#
#
# Elastic Constant Matrix: (Units=GPa)
#
#
# Indices 1 2 3 4 5 6 
#
# 1 71.0885 13.7808 5.5088 6.9749 -8.4524 -7.8407
# 2 13.7808 92.5456 0.7284 21.8114 -2.3786 -2.8166
# 3 5.5088 0.7284 47.7169 11.7306 4.7638 -5.7140
# 4 6.9749 21.8114 11.7306 35.8079 -0.6487 5.8641
# 5 -8.4524 -2.3786 4.7638 -0.6487 27.1264 -4.3144
# 6 -7.8407 -2.8166 -5.7140 5.8641 -4.3144 30.2892
#
#
#
# Elastic Compliance Matrix: (Units=1/GPa)
#
#
# Indices 1 2 3 4 5 6 
#
# 1 0.015941 -0.001455 -0.001154 -0.002570 0.005791 0.005096
# 2 -0.001455 0.013268 0.002539 -0.009142 0.000552 0.003185
# 3 -0.001154 0.002539 0.024737 -0.010492 -0.003762 0.006099
# 4 -0.002570 -0.009142 -0.010492 0.039253 -0.000599 -0.011180
# 5 0.005791 0.000552 -0.003762 -0.000599 0.040432 0.006716
# 6 0.005096 0.003185 0.006099 -0.011180 0.006716 0.038902
#
#
# Mechanical properties :
#
#
# Convention : Reuss Voigt Hill
#
# Bulk Modulus (GPa) = 18.58538 27.93187 23.25862
# Shear Modulus (GPa) = 26.23178 31.40023 28.81600
#
# Velocity S-wave (km/s) = 3.52778 3.85970 3.69746
# Velocity P-wave (km/s) = 5.04094 5.75455 5.40953
#
# Compressibility (1/GPa) = 0.05380574
#
# Stress axis : x y z
#
# Youngs Moduli (GPa) = 62.73000 75.37052 40.42555
#
# Poissons Ratio (x) = 0.10966 0.04666
# Poissons Ratio (y) = 0.09127 -0.10264
# Poissons Ratio (z) = 0.07240 -0.19137
#
# Static dielectric constant tensor:
#      x y z
#    x 1.841000 -0.012260 0.019720 
#    y -0.012260 1.794500 -0.023570 
#    z 0.019720 -0.023570 1.754980 
# 
# From -- ./inp_files/435068.got.cif
#   From: 2010.05.17/outbox.cif.g08.bks.cpg/sg2_218_cif.got.tgz:435068.got - 2010.06.03 11:33:40.
