data_PCOD9091531
_publ_section_title
;
Structure prediction by ZEFSAII (Michael W. Deem and Ramdas Pophale) SiO2 
 PCOD9091531
Probable space group: P -1
;
_chemical_formula_sum "Si O2"
_cell_formula_units_Z 14
_cell_length_a 7.992797
_cell_length_b 14.060321
_cell_length_c 8.004447
_cell_angle_alpha 109.323372
_cell_angle_beta 58.617729
_cell_angle_gamma 74.535102
_cell_volume 607.668605
_symmetry_space_group_name_H-M "P -1"
_symmetry_group_IT_number 2
_symmetry_cell_setting 'triclinic'
loop_
_space_group_symop_operation_xyz
x,y,z
-x,-y,-z
loop_
_atom_site_type_symbol
_atom_site_label
_atom_site_fract_x
_atom_site_fract_y
_atom_site_fract_z
Si Si1 0.716766 0.821065 0.109972
Si Si2 0.841412 0.317174 0.749822
Si Si3 0.699644 0.731040 0.418707
Si Si4 0.806375 0.617650 0.760134
Si Si5 0.329402 0.834758 0.126966
Si Si6 0.244636 0.966260 0.922433
Si Si7 0.607522 0.563981 0.161713
O O1 0.768242 0.779670 0.248799
O O2 0.455019 0.851321 0.229038
O O3 0.720500 0.931083 0.101574
O O4 0.882404 0.705280 0.840835
O O5 0.850305 0.199785 0.741886
O O6 0.664464 0.365984 0.711425
O O7 0.091749 0.298641 0.580748
O O8 0.715150 0.422268 0.018551
O O9 0.452700 0.841036 0.668814
O O10 0.673207 0.621991 0.310248
O O11 0.000000 0.500000 0.500000
O O12 0.554947 0.711071 0.859298
O O13 0.730223 0.579469 0.944706
O O14 0.246896 0.942639 0.105231
O O15 0.000000 0.000000 0.000000
#
# Coordination Sequence:
#
# PCOD9091531 Si02
#       7
#     2   2   2   2   2   2   2
#     4   9  21  43  62  89 126 166 212 257 310 378
#     4  10  19  39  67  88 132 161 209 254 317 375
#     4  11  22  41  66  93 122 170 213 260 310 372
#     4   8  17  35  64  90 127 157 203 256 316 371
#     4   9  21  41  61  92 126 161 210 255 318 367
#     4  12  25  43  59  91 130 164 217 267 309 370
#     4   9  20  39  60  99 127 165 208 257 307 389
#
# _framework density 23.038872999999999
#
# number of rings (size 3 to 8) (size 9 to 14) (size 15 to 20)
#    0.857    1.429    1.429    2.143    2.000    0.000 
#   12.857    2.143    0.000    0.000    0.000    0.000 
#    0.000    0.000    0.000    0.000    0.000    0.000 
#
# Total GULP energy -78113.180184 kJ/mol
# GULP energy per Si atom -5579.512870 kJ/mol
# Density = 2.298644 g / cm^3
# Si number density = 23.038873 Si / 1000 Ang^3
#
#
#
# Elastic Constant Matrix: (Units=GPa)
#
#
# Indices 1 2 3 4 5 6 
#
# 1 128.9416 8.6322 21.8391 1.3893 -22.2368 17.5100
# 2 8.6322 81.1822 -10.3357 2.7898 10.3502 14.4975
# 3 21.8391 -10.3357 62.5135 7.1067 -13.6046 0.4049
# 4 1.3893 2.7898 7.1067 12.8871 -3.6939 5.2505
# 5 -22.2368 10.3502 -13.6046 -3.6939 25.4846 5.6570
# 6 17.5100 14.4975 0.4049 5.2505 5.6570 42.9778
#
#
#
# Elastic Compliance Matrix: (Units=1/GPa)
#
#
# Indices 1 2 3 4 5 6 
#
# 1 0.011026 -0.002072 -0.002382 0.006320 0.011449 -0.006050
# 2 -0.002072 0.014282 0.002234 -0.004957 -0.006574 -0.002524
# 3 -0.002382 0.002234 0.019578 -0.009464 0.006006 0.000398
# 4 0.006320 -0.004957 -0.009464 0.094919 0.019560 -0.014984
# 5 0.011449 -0.006574 0.006006 0.019560 0.060804 -0.012897
# 6 -0.006050 -0.002524 0.000398 -0.014984 -0.012897 0.030108
#
#
# Mechanical properties :
#
#
# Convention : Reuss Voigt Hill
#
# Bulk Modulus (GPa) = 24.72412 34.76761 29.74587
# Shear Modulus (GPa) = 20.10951 33.10334 26.60643
#
# Velocity S-wave (km/s) = 2.95761 3.79469 3.40199
# Velocity P-wave (km/s) = 4.73477 5.85860 5.32641
#
# Compressibility (1/GPa) = 0.04044633
#
# Stress axis : x y z
#
# Youngs Moduli (GPa) = 90.69806 70.01865 51.07663
#
# Poissons Ratio (x) = 0.14509 0.12166
# Poissons Ratio (y) = 0.18794 -0.11412
# Poissons Ratio (z) = 0.21604 -0.15645
#
# Static dielectric constant tensor:
#      x y z
#    x 1.888550 0.001120 0.011870 
#    y 0.001120 1.992750 -0.013890 
#    z 0.011870 -0.013890 1.891200 
# 
# From -- ./inp_files/193564.got.cif
#   From: 2010.05.17/outbox.cif.g08.bks.cpg/sg2_97_cif.got.tgz:193564.got - 2010.06.03 11:33:40.
