data_PCOD9091513
_publ_section_title
;
Structure prediction by ZEFSAII (Michael W. Deem and Ramdas Pophale) SiO2 
 PCOD9091513
Probable space group: P -1
;
_chemical_formula_sum "Si O2"
_cell_formula_units_Z 16
_cell_length_a 22.194473
_cell_length_b 7.203511
_cell_length_c 15.548722
_cell_angle_alpha 55.559877
_cell_angle_beta 19.389065
_cell_angle_gamma 61.812103
_cell_volume 663.448729
_symmetry_space_group_name_H-M "P -1"
_symmetry_group_IT_number 2
_symmetry_cell_setting 'triclinic'
loop_
_space_group_symop_operation_xyz
x,y,z
-x,-y,-z
loop_
_atom_site_type_symbol
_atom_site_label
_atom_site_fract_x
_atom_site_fract_y
_atom_site_fract_z
Si Si1 0.300651 0.542962 0.282117
Si Si2 0.053364 0.856319 0.137832
Si Si3 0.900296 0.173335 0.637502
Si Si4 0.650411 0.771082 0.172771
Si Si5 0.830389 0.632472 0.138434
Si Si6 0.234389 0.849369 0.710321
Si Si7 0.265224 0.534153 0.024146
Si Si8 0.647120 0.628780 0.572844
O O1 0.247397 0.750725 0.247558
O O2 0.301754 0.554510 0.381706
O O3 0.134122 0.326610 0.540479
O O4 0.500000 0.500000 0.000000
O O5 0.218836 0.764342 0.986409
O O6 0.118092 0.843044 0.955713
O O7 0.032999 0.114944 0.115584
O O8 0.075545 0.385983 0.359970
O O9 0.000000 0.000000 0.500000
O O10 0.791050 0.016883 0.900582
O O11 0.704963 0.660631 0.215956
O O12 0.444048 0.813531 0.446066
O O13 0.676731 0.610302 0.097308
O O14 0.725897 0.627236 0.371225
O O15 0.127180 0.620715 0.863690
O O16 0.273081 0.117477 0.560033
O O17 0.426794 0.581414 0.864810
#
# Coordination Sequence:
#
# PCOD9091513 Si02
#       8
#     2   2   2   2   2   2   2   2
#     4  11  25  49  72 101 146 189 231 296 358 422
#     4  10  23  41  68  99 136 188 236 283 348 418
#     4   9  22  42  73  99 138 190 240 295 341 411
#     4  11  19  36  67 104 140 176 238 293 351 404
#     4  11  22  38  67 105 139 182 230 289 353 424
#     4  11  21  38  65  99 143 179 226 292 343 418
#     4  10  19  39  67 100 139 185 237 291 340 420
#     4  11  24  41  69 103 141 184 229 287 364 419
#
# _framework density 24.116406000000001
#
# number of rings (size 3 to 8) (size 9 to 14) (size 15 to 20)
#    0.000    1.500    2.500    2.625    0.000    5.000 
#    0.000    8.125    0.000    0.000    0.000    0.000 
#    0.000    0.000    0.000    0.000    0.000    0.000 
#
# Total GULP energy -89455.011856 kJ/mol
# GULP energy per Si atom -5590.938241 kJ/mol
# Density = 2.406152 g / cm^3
# Si number density = 24.116406 Si / 1000 Ang^3
#
#
#
# Elastic Constant Matrix: (Units=GPa)
#
#
# Indices 1 2 3 4 5 6 
#
# 1 96.8194 54.2672 25.9852 4.0084 2.8548 -5.0071
# 2 54.2672 130.4927 25.5152 5.1695 0.7929 -0.6358
# 3 25.9852 25.5152 121.6049 9.0977 -2.0181 -6.7014
# 4 4.0084 5.1695 9.0977 37.2834 -6.4464 -1.5631
# 5 2.8548 0.7929 -2.0181 -6.4464 33.4867 -0.1562
# 6 -5.0071 -0.6358 -6.7014 -1.5631 -0.1562 49.2901
#
#
#
# Elastic Compliance Matrix: (Units=1/GPa)
#
#
# Indices 1 2 3 4 5 6 
#
# 1 0.013958 -0.005427 -0.001768 -0.000488 -0.001257 0.001088
# 2 -0.005427 0.010127 -0.000951 -0.000605 0.000047 -0.000569
# 3 -0.001768 -0.000951 0.008993 -0.001766 0.000380 0.000976
# 4 -0.000488 -0.000605 -0.001766 0.028350 0.005410 0.000619
# 5 -0.001257 0.000047 0.000380 0.005410 0.031034 0.000194
# 6 0.001088 -0.000569 0.000976 0.000619 0.000194 0.020544
#
#
# Mechanical properties :
#
#
# Convention : Reuss Voigt Hill
#
# Bulk Modulus (GPa) = 59.57106 62.27245 60.92175
# Shear Modulus (GPa) = 37.06636 40.22199 38.64418
#
# Velocity S-wave (km/s) = 3.92468 4.08833 4.00734
# Velocity P-wave (km/s) = 6.72998 6.94000 6.83580
#
# Compressibility (1/GPa) = 0.01678668
#
# Stress axis : x y z
#
# Youngs Moduli (GPa) = 71.64169 98.74800 111.19905
#
# Poissons Ratio (x) = 0.53588 0.19665
# Poissons Ratio (y) = 0.38878 0.10570
# Poissons Ratio (z) = 0.12669 0.09387
#
# Static dielectric constant tensor:
#      x y z
#    x 1.954720 0.022970 -0.035380 
#    y 0.022970 1.914730 -0.038090 
#    z -0.035380 -0.038090 1.937020 
# 
# From -- ./inp_files/540441.got.cif
#   From: 2010.05.17/outbox.cif.g08.bks.cpg/sg2_271_cif.got.tgz:540441.got - 2010.06.03 11:33:40.
