data_PCOD9091543
_publ_section_title
;
Structure prediction by ZEFSAII (Michael W. Deem and Ramdas Pophale) SiO2 
 PCOD9091543
Probable space group: P -1
;
_chemical_formula_sum "Si O2"
_cell_formula_units_Z 12
_cell_length_a 7.759813
_cell_length_b 8.160309
_cell_length_c 20.129464
_cell_angle_alpha 48.675656
_cell_angle_beta 144.411638
_cell_angle_gamma 108.126899
_cell_volume 476.913477
_symmetry_space_group_name_H-M "P -1"
_symmetry_group_IT_number 2
_symmetry_cell_setting 'triclinic'
loop_
_space_group_symop_operation_xyz
x,y,z
-x,-y,-z
loop_
_atom_site_type_symbol
_atom_site_label
_atom_site_fract_x
_atom_site_fract_y
_atom_site_fract_z
Si Si1 0.208669 0.077821 0.216712
Si Si2 0.125188 0.696831 0.466844
Si Si3 0.659966 0.277527 0.334403
Si Si4 0.832949 0.873716 0.088574
Si Si5 0.132439 0.466378 0.394812
Si Si6 0.651420 0.202446 0.123861
O O1 0.335787 0.277929 0.200973
O O2 0.927876 0.137867 0.168986
O O3 0.554532 0.817174 0.418009
O O4 0.042071 0.020146 0.116375
O O5 0.000000 0.500000 0.500000
O O6 0.383983 0.670330 0.613731
O O7 0.175129 0.630293 0.422115
O O8 0.855182 0.002250 0.300133
O O9 0.775469 0.467916 0.291948
O O10 0.000000 0.000000 0.500000
O O11 0.092099 0.599068 0.276400
O O12 0.660494 0.845054 0.977110
O O13 0.500000 0.000000 0.000000
O O14 0.500000 0.500000 0.000000
#
# Coordination Sequence:
#
# PCOD9091543 Si02
#       6
#     2   2   2   2   2   2
#     4  10  21  39  64  98 118 174 214 258 311 384
#     4  10  21  40  66  89 125 170 216 252 316 377
#     4   9  21  37  63  92 125 160 212 262 307 363
#     4  10  20  38  60  88 130 165 202 261 322 370
#     4  10  19  39  67  91 125 169 216 255 313 378
#     4  11  25  40  63  97 133 165 206 271 325 369
#
# _framework density 25.161795999999999
#
# number of rings (size 3 to 8) (size 9 to 14) (size 15 to 20)
#    0.000    2.000    3.333    0.500    4.667    2.000 
#    0.000    3.333    0.000   11.000    0.000    0.000 
#    0.000    0.000    0.000    0.000    0.000    0.000 
#
# Total GULP energy -66944.293208 kJ/mol
# GULP energy per Si atom -5578.691101 kJ/mol
# Density = 2.510453 g / cm^3
# Si number density = 25.161796 Si / 1000 Ang^3
#
#
#
# Elastic Constant Matrix: (Units=GPa)
#
#
# Indices 1 2 3 4 5 6 
#
# 1 54.5638 35.1785 12.0956 11.5936 3.2590 8.8970
# 2 35.1785 162.3627 47.8728 37.0946 16.2613 32.9046
# 3 12.0956 47.8728 92.3447 12.4078 12.1081 15.1317
# 4 11.5936 37.0946 12.4078 62.3535 7.9309 17.7547
# 5 3.2590 16.2613 12.1081 7.9309 19.7742 4.5626
# 6 8.8970 32.9046 15.1317 17.7547 4.5626 37.8900
#
#
#
# Elastic Compliance Matrix: (Units=1/GPa)
#
#
# Indices 1 2 3 4 5 6 
#
# 1 0.021454 -0.004142 -0.000478 -0.001332 0.000865 -0.000730
# 2 -0.004142 0.009854 -0.002981 -0.002724 -0.003417 -0.004706
# 3 -0.000478 -0.002981 0.013444 0.000516 -0.005388 -0.002262
# 4 -0.001332 -0.002724 0.000516 0.020211 -0.004472 -0.006460
# 5 0.000865 -0.003417 -0.005388 -0.004472 0.058334 -0.000013
# 6 -0.000730 -0.004706 -0.002262 -0.006460 -0.000013 0.034582
#
#
# Mechanical properties :
#
#
# Convention : Reuss Voigt Hill
#
# Bulk Modulus (GPa) = 33.83918 55.50722 44.67320
# Shear Modulus (GPa) = 27.33283 38.27851 32.80567
#
# Velocity S-wave (km/s) = 3.29946 3.90461 3.61472
# Velocity P-wave (km/s) = 5.29085 6.51429 5.93418
#
# Compressibility (1/GPa) = 0.02955155
#
# Stress axis : x y z
#
# Youngs Moduli (GPa) = 46.61183 101.48535 74.38043
#
# Poissons Ratio (x) = 0.42034 0.03554
# Poissons Ratio (y) = 0.19306 0.22169
# Poissons Ratio (z) = 0.02227 0.30248
#
# Static dielectric constant tensor:
#      x y z
#    x 2.058980 -0.017000 0.034130 
#    y -0.017000 2.110090 -0.102980 
#    z 0.034130 -0.102980 2.181320 
# 
# From -- ./inp_files/260782.got.cif
#   From: 2010.05.17/outbox.cif.g08.bks.cpg/sg2_131_cif.got.tgz:260782.got - 2010.06.03 11:33:40.
