data_PCOD9091143
_publ_section_title
;
Structure prediction by ZEFSAII (Michael W. Deem and Ramdas Pophale) SiO2 
 PCOD9091143
Probable space group: P -1
;
_chemical_formula_sum "Si O2"
_cell_formula_units_Z 16
_cell_length_a 11.545318
_cell_length_b 7.746876
_cell_length_c 13.109105
_cell_angle_alpha 92.797011
_cell_angle_beta 45.363815
_cell_angle_gamma 69.757435
_cell_volume 704.006292
_symmetry_space_group_name_H-M "P -1"
_symmetry_group_IT_number 2
_symmetry_cell_setting 'triclinic'
loop_
_space_group_symop_operation_xyz
x,y,z
-x,-y,-z
loop_
_atom_site_type_symbol
_atom_site_label
_atom_site_fract_x
_atom_site_fract_y
_atom_site_fract_z
Si Si1 0.314438 0.100643 0.222675
Si Si2 0.690286 0.280398 0.888121
Si Si3 0.243834 0.821104 0.765814
Si Si4 0.207323 0.472182 0.888992
Si Si5 0.927694 0.888511 0.460957
Si Si6 0.177136 0.977850 0.012476
Si Si7 0.564352 0.127863 0.533683
Si Si8 0.275169 0.251453 0.036711
O O1 0.161049 0.202155 0.409756
O O2 0.308997 0.906789 0.175427
O O3 0.534350 0.968116 0.118522
O O4 0.284534 0.250668 0.152965
O O5 0.882490 0.261306 0.725608
O O6 0.500000 0.500000 0.000000
O O7 0.704987 0.210878 0.992196
O O8 0.224228 0.650641 0.832344
O O9 0.279596 0.933275 0.839111
O O10 0.383147 0.759536 0.582317
O O11 0.030845 0.993360 0.866696
O O12 0.380521 0.274918 0.720129
O O13 0.249162 0.426857 0.983633
O O14 0.000000 0.500000 0.000000
O O15 0.751287 0.018924 0.492455
O O16 0.000000 0.000000 0.500000
O O17 0.119530 0.195008 0.102928
O O18 0.500000 0.000000 0.500000
#
# Coordination Sequence:
#
# PCOD9091143 Si02
#       8
#     2   2   2   2   2   2   2   2
#     4   9  20  37  65  89 127 176 223 275 346 415
#     4  10  21  37  62  98 129 171 226 287 341 410
#     4  11  24  40  65  99 138 183 231 286 340 416
#     4  12  25  41  69 104 136 182 239 288 337 414
#     4  10  21  40  67  98 130 179 225 276 343 416
#     4  10  21  39  64  93 136 177 226 279 355 408
#     4  12  26  46  69 103 146 187 228 285 357 416
#     4  10  19  39  63  95 127 173 228 281 342 409
#
# _framework density 22.727070000000001
#
# number of rings (size 3 to 8) (size 9 to 14) (size 15 to 20)
#    0.000    1.500    3.750    1.125    3.500    0.000 
#    0.000    1.250    0.000    6.750    0.000    0.000 
#    0.000    0.000    0.000    0.000    0.000    0.000 
#
# Total GULP energy -89137.106055 kJ/mol
# GULP energy per Si atom -5571.069128 kJ/mol
# Density = 2.267534 g / cm^3
# Si number density = 22.727070 Si / 1000 Ang^3
#
#
#
# Elastic Constant Matrix: (Units=GPa)
#
#
# Indices 1 2 3 4 5 6 
#
# 1 105.5885 42.6088 21.0924 -3.4974 -2.3624 -18.0379
# 2 42.6088 145.1926 46.6849 -27.4544 -4.9334 -20.3573
# 3 21.0924 46.6849 147.1330 -25.8801 -21.6615 -17.0011
# 4 -3.4974 -27.4544 -25.8801 46.8008 -5.3001 3.6039
# 5 -2.3624 -4.9334 -21.6615 -5.3001 25.9989 -1.6678
# 6 -18.0379 -20.3573 -17.0011 3.6039 -1.6678 35.3689
#
#
#
# Elastic Compliance Matrix: (Units=1/GPa)
#
#
# Indices 1 2 3 4 5 6 
#
# 1 0.011378 -0.002878 -0.000491 -0.001416 0.000050 0.004057
# 2 -0.002878 0.009471 -0.001175 0.004651 0.001699 0.003025
# 3 -0.000491 -0.001175 0.010067 0.005626 0.009510 0.003788
# 4 -0.001416 0.004651 0.005626 0.028207 0.011341 0.002320
# 5 0.000050 0.001699 0.009510 0.011341 0.049459 0.006752
# 6 0.004057 0.003025 0.003788 0.002320 0.006752 0.033986
#
#
# Mechanical properties :
#
#
# Convention : Reuss Voigt Hill
#
# Bulk Modulus (GPa) = 45.81326 68.74292 57.27809
# Shear Modulus (GPa) = 31.46022 40.80225 36.13123
#
# Velocity S-wave (km/s) = 3.72460 4.24171 3.99154
# Velocity P-wave (km/s) = 6.22083 7.36901 6.81913
#
# Compressibility (1/GPa) = 0.02182774
#
# Stress axis : x y z
#
# Youngs Moduli (GPa) = 87.89269 105.58432 99.33287
#
# Poissons Ratio (x) = 0.30392 0.04874
# Poissons Ratio (y) = 0.25300 0.11670
# Poissons Ratio (z) = 0.04313 0.12404
#
# Static dielectric constant tensor:
#      x y z
#    x 2.313720 0.125420 -0.010450 
#    y 0.125420 1.876690 -0.014580 
#    z -0.010450 -0.014580 1.826570 
# 
# From -- ./inp_files/419400.got.cif
#   From: 2010.05.17/outbox.cif.g08.bks.cpg/sg2_210_cif.got.tgz:419400.got - 2010.06.03 11:33:40.
