data_PCOD9091333
_publ_section_title
;
Structure prediction by ZEFSAII (Michael W. Deem and Ramdas Pophale) SiO2 
 PCOD9091333
Probable space group: P -1
;
_chemical_formula_sum "Si O2"
_cell_formula_units_Z 16
_cell_length_a 9.458628
_cell_length_b 12.793361
_cell_length_c 8.827316
_cell_angle_alpha 61.045893
_cell_angle_beta 78.214204
_cell_angle_gamma 117.035062
_cell_volume 698.348633
_symmetry_space_group_name_H-M "P -1"
_symmetry_group_IT_number 2
_symmetry_cell_setting 'triclinic'
loop_
_space_group_symop_operation_xyz
x,y,z
-x,-y,-z
loop_
_atom_site_type_symbol
_atom_site_label
_atom_site_fract_x
_atom_site_fract_y
_atom_site_fract_z
Si Si1 0.855807 0.013673 0.101066
Si Si2 0.785495 0.155499 0.249976
Si Si3 0.235146 0.426336 0.378862
Si Si4 0.449356 0.130855 0.282114
Si Si5 0.963000 0.554025 0.819352
Si Si6 0.206748 0.878975 0.255191
Si Si7 0.249820 0.630098 0.488698
Si Si8 0.434794 0.292253 0.418564
O O1 0.916998 0.149567 0.112533
O O2 0.719546 0.855284 0.337544
O O3 0.762812 0.042834 0.968405
O O4 0.000000 0.000000 0.000000
O O5 0.663206 0.195596 0.169595
O O6 0.895568 0.262183 0.296649
O O7 0.631349 0.983807 0.473287
O O8 0.273706 0.547332 0.410604
O O9 0.391169 0.407818 0.363279
O O10 0.222066 0.481761 0.178207
O O11 0.022903 0.257320 0.575401
O O12 0.429176 0.251140 0.272473
O O13 0.316579 0.022802 0.248739
O O14 0.039095 0.521625 0.680840
O O15 0.000000 0.500000 0.000000
O O16 0.286226 0.785959 0.319009
O O17 0.372444 0.653267 0.588930
#
# Coordination Sequence:
#
# PCOD9091333 Si02
#       8
#     2   2   2   2   2   2   2   2
#     4  11  24  37  61  99 131 159 201 270 322 367
#     4  10  20  37  62  88 123 160 207 258 313 372
#     4  11  24  41  63  92 128 170 210 258 313 374
#     4  10  19  39  65  90 120 165 208 256 315 381
#     4  11  23  40  64  90 118 166 220 259 299 367
#     4  11  21  40  64  96 126 163 215 256 316 376
#     4  11  23  43  65  90 126 174 215 251 309 381
#     4  11  23  43  66  92 133 166 208 257 323 374
#
# _framework density 22.911193999999998
#
# number of rings (size 3 to 8) (size 9 to 14) (size 15 to 20)
#    0.000    1.250    5.000    3.375    3.500    3.500 
#    0.000    0.625    0.000    0.000    0.000    0.000 
#    0.000    0.000    0.000    0.000    0.000    0.000 
#
# Total GULP energy -89248.554808 kJ/mol
# GULP energy per Si atom -5578.034676 kJ/mol
# Density = 2.285905 g / cm^3
# Si number density = 22.911194 Si / 1000 Ang^3
#
#
#
# Elastic Constant Matrix: (Units=GPa)
#
#
# Indices 1 2 3 4 5 6 
#
# 1 98.4418 40.1710 17.7236 8.8161 15.4695 -32.1296
# 2 40.1710 123.0623 17.2096 34.6678 1.3629 -19.9043
# 3 17.7236 17.2096 61.4431 5.0772 8.3368 -19.2138
# 4 8.8161 34.6678 5.0772 22.8251 -2.4234 -7.9513
# 5 15.4695 1.3629 8.3368 -2.4234 39.6799 1.2347
# 6 -32.1296 -19.9043 -19.2138 -7.9513 1.2347 38.6886
#
#
#
# Elastic Compliance Matrix: (Units=1/GPa)
#
#
# Indices 1 2 3 4 5 6 
#
# 1 0.016866 -0.004607 0.001163 0.004126 -0.006822 0.013279
# 2 -0.004607 0.016046 -0.001660 -0.022559 0.000248 -0.001039
# 3 0.001163 -0.001660 0.020300 0.000687 -0.004946 0.010492
# 4 0.004126 -0.022559 0.000687 0.079644 0.003624 0.008414
# 5 -0.006822 0.000248 -0.004946 0.003624 0.029368 -0.008187
# 6 0.013279 -0.001039 0.010492 0.008414 -0.008187 0.043542
#
#
# Mechanical properties :
#
#
# Convention : Reuss Voigt Hill
#
# Bulk Modulus (GPa) = 23.25406 48.12839 35.69123
# Shear Modulus (GPa) = 21.70992 34.09489 27.90241
#
# Velocity S-wave (km/s) = 3.08160 3.86182 3.49356
# Velocity P-wave (km/s) = 4.77843 6.39820 5.64669
#
# Compressibility (1/GPa) = 0.04300324
#
# Stress axis : x y z
#
# Youngs Moduli (GPa) = 59.29219 62.32045 49.26080
#
# Poissons Ratio (x) = 0.28711 -0.05727
# Poissons Ratio (y) = 0.27316 0.08177
# Poissons Ratio (z) = -0.06894 0.10345
#
# Static dielectric constant tensor:
#      x y z
#    x 1.879320 -0.020570 -0.024110 
#    y -0.020570 1.932830 -0.076630 
#    z -0.024110 -0.076630 1.920420 
# 
# From -- ./inp_files/185794.got.cif
#   From: 2010.05.17/outbox.cif.g08.bks.cpg/sg2_93_cif.got.tgz:185794.got - 2010.06.03 11:33:40.
