data_PCOD9091940
_publ_section_title
;
Structure prediction by ZEFSAII (Michael W. Deem and Ramdas Pophale) SiO2 
 PCOD9091940
Probable space group: P -1
;
_chemical_formula_sum "Si O2"
_cell_formula_units_Z 16
_cell_length_a 13.053457
_cell_length_b 9.551230
_cell_length_c 14.493294
_cell_angle_alpha 43.228418
_cell_angle_beta 125.029525
_cell_angle_gamma 91.310994
_cell_volume 718.802550
_symmetry_space_group_name_H-M "P -1"
_symmetry_group_IT_number 2
_symmetry_cell_setting 'triclinic'
loop_
_space_group_symop_operation_xyz
x,y,z
-x,-y,-z
loop_
_atom_site_type_symbol
_atom_site_label
_atom_site_fract_x
_atom_site_fract_y
_atom_site_fract_z
Si Si1 0.829769 0.882314 0.141955
Si Si2 0.698446 0.280170 0.591182
Si Si3 0.034275 0.677993 0.977202
Si Si4 0.027837 0.059301 0.651196
Si Si5 0.476069 0.346010 0.845558
Si Si6 0.266310 0.403987 0.862610
Si Si7 0.310714 0.553200 0.296143
Si Si8 0.380336 0.543250 0.997676
O O1 0.835583 0.686092 0.169981
O O2 0.969520 0.771190 0.348019
O O3 0.648577 0.071556 0.014712
O O4 0.798410 0.122219 0.951169
O O5 0.672447 0.446832 0.406561
O O6 0.516635 0.359561 0.472925
O O7 0.710029 0.416716 0.619244
O O8 0.868774 0.943530 0.826259
O O9 0.046500 0.827186 0.828062
O O10 0.000000 0.500000 0.000000
O O11 0.212926 0.486362 0.222639
O O12 0.201071 0.873314 0.766520
O O13 0.862890 0.269296 0.398314
O O14 0.428190 0.250079 0.949783
O O15 0.514556 0.528344 0.820380
O O16 0.325934 0.384619 0.006306
O O17 0.500000 0.500000 0.000000
#
# Coordination Sequence:
#
# PCOD9091940 Si02
#       8
#     2   2   2   2   2   2   2   2
#     4   9  19  33  55  85 111 146 186 234 290 347
#     4  10  19  40  64  83 119 157 201 245 299 350
#     4  11  23  39  62  89 121 159 200 248 299 354
#     4  10  20  37  55  82 117 150 191 236 295 346
#     4   9  18  35  55  80 112 152 185 230 291 344
#     4  11  18  32  58  82 113 147 187 235 287 353
#     4   9  21  39  63  87 119 156 197 252 298 346
#     4   9  20  35  56  79 114 155 187 236 291 348
#
# _framework density 22.259242
#
# number of rings (size 3 to 8) (size 9 to 14) (size 15 to 20)
#    0.000    2.250    1.250    2.250    0.000    1.500 
#    0.000    3.750    5.500    0.000    0.000    0.000 
#    0.000    0.000    0.000    0.000    0.000    0.000 
#
# Total GULP energy -89226.849302 kJ/mol
# GULP energy per Si atom -5576.678081 kJ/mol
# Density = 2.220858 g / cm^3
# Si number density = 22.259242 Si / 1000 Ang^3
#
#
#
# Elastic Constant Matrix: (Units=GPa)
#
#
# Indices 1 2 3 4 5 6 
#
# 1 37.6532 43.5527 17.5629 5.4990 16.1474 1.3812
# 2 43.5527 150.2334 13.6920 26.9577 5.2437 20.9965
# 3 17.5629 13.6920 37.6644 16.9153 19.6203 -0.0645
# 4 5.4990 26.9577 16.9153 24.8150 -0.0635 6.0040
# 5 16.1474 5.2437 19.6203 -0.0635 24.8608 0.8802
# 6 1.3812 20.9965 -0.0645 6.0040 0.8802 36.7390
#
#
#
# Elastic Compliance Matrix: (Units=1/GPa)
#
#
# Indices 1 2 3 4 5 6 
#
# 1 0.068474 -0.021952 -0.021938 0.021901 -0.022719 0.006898
# 2 -0.021952 0.016195 0.013423 -0.020659 0.000374 -0.005040
# 3 -0.021938 0.013423 0.112399 -0.088895 -0.077860 0.009743
# 4 0.021901 -0.020659 -0.088895 0.121163 0.060967 -0.010434
# 5 -0.022719 0.000374 -0.077860 0.060967 0.116939 -0.012262
# 6 0.006898 -0.005040 0.009743 -0.010434 -0.012262 0.031856
#
#
# Mechanical properties :
#
#
# Convention : Reuss Voigt Hill
#
# Bulk Modulus (GPa) = 7.34574 41.68514 24.51544
# Shear Modulus (GPa) = 8.72083 27.33252 18.02667
#
# Velocity S-wave (km/s) = 1.98150 3.50797 2.84888
# Velocity P-wave (km/s) = 2.92274 5.93090 4.67536
#
# Compressibility (1/GPa) = 0.13613332
#
# Stress axis : x y z
#
# Youngs Moduli (GPa) = 14.60404 61.74698 8.89685
#
# Poissons Ratio (x) = 1.35549 0.19518
# Poissons Ratio (y) = 0.32059 -0.11942
# Poissons Ratio (z) = 0.32039 -0.82884
#
# Static dielectric constant tensor:
#      x y z
#    x 1.881580 0.040430 0.035340 
#    y 0.040430 1.886630 0.037050 
#    z 0.035340 0.037050 1.851180 
# 
# From -- ./inp_files/214741.got.cif
#   From: 2010.05.17/outbox.cif.g08.bks.cpg/sg2_108_cif.got.tgz:214741.got - 2010.06.03 11:33:40.
