data_PCOD9091894
_publ_section_title
;
Structure prediction by ZEFSAII (Michael W. Deem and Ramdas Pophale) SiO2 
 PCOD9091894
Probable space group: P -1
;
_chemical_formula_sum "Si O2"
_cell_formula_units_Z 16
_cell_length_a 10.089044
_cell_length_b 10.366900
_cell_length_c 10.725079
_cell_angle_alpha 136.353588
_cell_angle_beta 66.573567
_cell_angle_gamma 86.983175
_cell_volume 599.138780
_symmetry_space_group_name_H-M "P -1"
_symmetry_group_IT_number 2
_symmetry_cell_setting 'triclinic'
loop_
_space_group_symop_operation_xyz
x,y,z
-x,-y,-z
loop_
_atom_site_type_symbol
_atom_site_label
_atom_site_fract_x
_atom_site_fract_y
_atom_site_fract_z
Si Si1 0.522311 0.395247 0.622191
Si Si2 0.640913 0.858655 0.453301
Si Si3 0.042970 0.720706 0.401297
Si Si4 0.084301 0.316033 0.983099
Si Si5 0.170065 0.159434 0.103120
Si Si6 0.784250 0.505989 0.565879
Si Si7 0.657527 0.255622 0.742455
Si Si8 0.180069 0.838856 0.057146
O O1 0.424016 0.273072 0.534176
O O2 0.641340 0.457103 0.544583
O O3 0.640518 0.250938 0.594169
O O4 0.500000 0.500000 0.000000
O O5 0.803884 0.710493 0.197982
O O6 0.500000 0.000000 0.500000
O O7 0.654046 0.048244 0.649416
O O8 0.166922 0.566945 0.359092
O O9 0.166867 0.763532 0.303353
O O10 0.903758 0.941579 0.675036
O O11 0.992874 0.568630 0.242751
O O12 0.206764 0.165829 0.948130
O O13 0.954699 0.237010 0.952640
O O14 0.256538 0.245860 0.228920
O O15 0.200458 0.930150 0.980173
O O16 0.964482 0.344526 0.317619
O O17 0.637748 0.363756 0.109177
#
# Coordination Sequence:
#
# PCOD9091894 Si02
#       8
#     2   2   2   2   2   2   2   2
#     4  10  22  38  62  95 132 161 198 266 322 363
#     4  10  21  38  63  89 125 160 205 261 303 369
#     4   9  18  36  61  85 120 162 212 251 300 365
#     4  11  21  39  65  93 123 168 218 250 303 377
#     4   9  19  37  67  91 117 169 215 257 301 365
#     4   8  17  37  64  88 121 162 215 259 297 369
#     4  10  19  40  63  87 114 166 217 252 298 373
#     4  11  22  39  60  97 132 164 203 262 318 363
#
# _framework density 26.704998
#
# number of rings (size 3 to 8) (size 9 to 14) (size 15 to 20)
#    0.000    2.250    1.250    2.625    1.750    1.000 
#    2.250    1.875    0.000    0.000    0.000    0.000 
#    0.000    0.000    0.000    0.000    0.000    0.000 
#
# Total GULP energy -89489.313636 kJ/mol
# GULP energy per Si atom -5593.082102 kJ/mol
# Density = 2.664422 g / cm^3
# Si number density = 26.704998 Si / 1000 Ang^3
#
#
#
# Elastic Constant Matrix: (Units=GPa)
#
#
# Indices 1 2 3 4 5 6 
#
# 1 82.1227 62.8989 43.4648 13.5925 13.9494 27.7828
# 2 62.8989 147.5120 47.7608 24.6268 14.4539 46.0287
# 3 43.4648 47.7608 133.8740 33.1033 8.6160 27.4288
# 4 13.5925 24.6268 33.1033 41.1966 7.2104 11.4622
# 5 13.9494 14.4539 8.6160 7.2104 30.9659 6.6093
# 6 27.7828 46.0287 27.4288 11.4622 6.6093 57.2546
#
#
#
# Elastic Compliance Matrix: (Units=1/GPa)
#
#
# Indices 1 2 3 4 5 6 
#
# 1 0.020756 -0.006536 -0.004001 0.001910 -0.005055 -0.002699
# 2 -0.006536 0.011984 -0.000162 -0.003185 -0.000652 -0.005672
# 3 -0.004001 -0.000162 0.010868 -0.006955 0.000867 -0.001843
# 4 0.001910 -0.003185 -0.006955 0.032228 -0.004742 -0.000938
# 5 -0.005055 -0.000652 0.000867 -0.004742 0.035872 -0.000630
# 6 -0.002699 -0.005672 -0.001843 -0.000938 -0.000630 0.024479
#
#
# Mechanical properties :
#
#
# Convention : Reuss Voigt Hill
#
# Bulk Modulus (GPa) = 45.02290 74.63973 59.83132
# Shear Modulus (GPa) = 30.30503 39.84236 35.07370
#
# Velocity S-wave (km/s) = 3.37234 3.86676 3.62798
# Velocity P-wave (km/s) = 5.66212 6.92432 6.32478
#
# Compressibility (1/GPa) = 0.02221092
#
# Stress axis : x y z
#
# Youngs Moduli (GPa) = 48.17771 83.44385 92.01400
#
# Poissons Ratio (x) = 0.54542 0.36814
# Poissons Ratio (y) = 0.31491 0.01486
# Poissons Ratio (z) = 0.19275 0.01348
#
# Static dielectric constant tensor:
#      x y z
#    x 2.147870 0.056620 0.062850 
#    y 0.056620 2.259940 -0.006670 
#    z 0.062850 -0.006670 2.111990 
# 
# From -- ./inp_files/424439.got.cif
#   From: 2010.05.17/outbox.cif.g08.bks.cpg/sg2_213_cif.got.tgz:424439.got - 2010.06.03 11:33:40.
