data_PCOD9091116
_publ_section_title
;
Structure prediction by ZEFSAII (Michael W. Deem and Ramdas Pophale) SiO2 
 PCOD9091116
Probable space group: P -1
;
_chemical_formula_sum "Si O2"
_cell_formula_units_Z 16
_cell_length_a 8.892925
_cell_length_b 13.273956
_cell_length_c 9.299173
_cell_angle_alpha 118.582195
_cell_angle_beta 96.913797
_cell_angle_gamma 61.811932
_cell_volume 841.669535
_symmetry_space_group_name_H-M "P -1"
_symmetry_group_IT_number 2
_symmetry_cell_setting 'triclinic'
loop_
_space_group_symop_operation_xyz
x,y,z
-x,-y,-z
loop_
_atom_site_type_symbol
_atom_site_label
_atom_site_fract_x
_atom_site_fract_y
_atom_site_fract_z
Si Si1 0.946359 0.274521 0.653378
Si Si2 0.513010 0.620694 0.652399
Si Si3 0.106191 0.474376 0.349156
Si Si4 0.401902 0.285947 0.785076
Si Si5 0.682994 0.930395 0.390504
Si Si6 0.594569 0.377818 0.038707
Si Si7 0.896675 0.416289 0.050937
Si Si8 0.346258 0.802774 0.508609
O O1 0.135561 0.153758 0.564357
O O2 0.944831 0.340196 0.853126
O O3 0.909766 0.389374 0.616029
O O4 0.799042 0.229798 0.596980
O O5 0.500000 0.500000 0.500000
O O6 0.696082 0.614733 0.651304
O O7 0.493541 0.603637 0.806560
O O8 0.379907 0.745699 0.633928
O O9 0.000000 0.500000 0.500000
O O10 0.038930 0.415701 0.173814
O O11 0.342032 0.184162 0.764323
O O12 0.239323 0.429611 0.881706
O O13 0.478812 0.266602 0.617872
O O14 0.565794 0.268124 0.883084
O O15 0.500000 0.000000 0.500000
O O16 0.701883 0.045664 0.394316
O O17 0.783213 0.358124 0.072762
O O18 0.500000 0.500000 0.000000
#
# Coordination Sequence:
#
# PCOD9091116 Si02
#       8
#     2   2   2   2   2   2   2   2
#     4  12  23  41  67  94 128 164 217 265 313 379
#     4  12  23  37  62  94 133 163 202 260 328 378
#     4  12  24  36  59  98 136 161 199 267 327 376
#     4  10  19  39  63  92 126 162 213 259 314 370
#     4  10  24  41  66  88 124 174 220 261 301 382
#     4  10  20  36  60  89 125 163 201 252 318 383
#     4  11  22  37  64  99 125 158 209 267 323 373
#     4  11  23  42  63  94 127 170 214 256 314 379
#
# _framework density 19.009836
#
# number of rings (size 3 to 8) (size 9 to 14) (size 15 to 20)
#    0.000    1.000    3.750    5.250    3.500    0.000 
#    0.000    0.625    0.000    0.750    0.000    0.000 
#    0.000    0.000    0.000    0.000    0.000    0.000 
#
# Total GULP energy -89153.531212 kJ/mol
# GULP energy per Si atom -5572.095701 kJ/mol
# Density = 1.896657 g / cm^3
# Si number density = 19.009836 Si / 1000 Ang^3
#
#
#
# Elastic Constant Matrix: (Units=GPa)
#
#
# Indices 1 2 3 4 5 6 
#
# 1 128.1075 31.9368 34.0432 5.2915 24.4147 11.1666
# 2 31.9368 78.6953 28.9068 5.8442 18.3091 11.8025
# 3 34.0432 28.9068 71.3942 -13.5096 4.9540 8.3671
# 4 5.2915 5.8442 -13.5096 24.9687 6.6241 -1.9663
# 5 24.4147 18.3091 4.9540 6.6241 42.6787 5.3927
# 6 11.1666 11.8025 8.3671 -1.9663 5.3927 38.7749
#
#
#
# Elastic Compliance Matrix: (Units=1/GPa)
#
#
# Indices 1 2 3 4 5 6 
#
# 1 0.010391 -0.001034 -0.004759 -0.003506 -0.004247 -0.001238
# 2 -0.001034 0.017953 -0.007382 -0.006972 -0.004759 -0.003266
# 3 -0.004759 -0.007382 0.021943 0.014246 0.001203 -0.000562
# 4 -0.003506 -0.006972 0.014246 0.051758 -0.005119 0.003394
# 5 -0.004247 -0.004759 0.001203 -0.005119 0.028791 -0.001852
# 6 -0.001238 -0.003266 -0.000562 0.003394 -0.001852 0.027691
#
#
# Mechanical properties :
#
#
# Convention : Reuss Voigt Hill
#
# Bulk Modulus (GPa) = 41.77951 51.99674 46.88813
# Shear Modulus (GPa) = 25.92571 33.50514 29.71543
#
# Velocity S-wave (km/s) = 3.69698 4.20279 3.95797
# Velocity P-wave (km/s) = 6.34422 7.13885 6.75323
#
# Compressibility (1/GPa) = 0.02393518
#
# Stress axis : x y z
#
# Youngs Moduli (GPa) = 96.23949 55.69972 45.57194
#
# Poissons Ratio (x) = 0.05762 0.21690
# Poissons Ratio (y) = 0.09956 0.33642
# Poissons Ratio (z) = 0.45805 0.41119
#
# Static dielectric constant tensor:
#      x y z
#    x 1.787630 -0.029790 -0.000300 
#    y -0.029790 1.695800 0.003610 
#    z -0.000300 0.003610 1.746590 
# 
# From -- ./inp_files/385563.got.cif
#   From: 2010.05.17/outbox.cif.g08.bks.cpg/sg2_193_cif.got.tgz:385563.got - 2010.06.03 11:33:40.
