data_PCOD9091225
_publ_section_title
;
Structure prediction by ZEFSAII (Michael W. Deem and Ramdas Pophale) SiO2 
 PCOD9091225
Probable space group: P -1
;
_chemical_formula_sum "Si O2"
_cell_formula_units_Z 16
_cell_length_a 9.354433
_cell_length_b 9.256266
_cell_length_c 14.400405
_cell_angle_alpha 120.492141
_cell_angle_beta 39.427252
_cell_angle_gamma 108.211158
_cell_volume 675.151553
_symmetry_space_group_name_H-M "P -1"
_symmetry_group_IT_number 2
_symmetry_cell_setting 'triclinic'
loop_
_space_group_symop_operation_xyz
x,y,z
-x,-y,-z
loop_
_atom_site_type_symbol
_atom_site_label
_atom_site_fract_x
_atom_site_fract_y
_atom_site_fract_z
Si Si1 0.194383 0.696098 0.976349
Si Si2 0.709348 0.849380 0.221807
Si Si3 0.233270 0.963473 0.570932
Si Si4 0.984767 0.271737 0.517595
Si Si5 0.741854 0.392494 0.355274
Si Si6 0.336324 0.500097 0.374494
Si Si7 0.742444 0.066836 0.124645
Si Si8 0.011349 0.301369 0.722102
O O1 0.158876 0.694493 0.104033
O O2 0.933587 0.706847 0.069104
O O3 0.275410 0.867772 0.949926
O O4 0.712426 0.235005 0.255823
O O5 0.467612 0.841949 0.389466
O O6 0.789441 0.996467 0.295799
O O7 0.632253 0.917721 0.180075
O O8 0.040297 0.884695 0.587397
O O9 0.220737 0.155529 0.598361
O O10 0.799245 0.426077 0.624130
O O11 0.936171 0.244324 0.640571
O O12 0.230954 0.331067 0.402189
O O13 0.500000 0.500000 0.500000
O O14 0.605597 0.451159 0.205338
O O15 0.757459 0.374654 0.452784
O O16 0.919171 0.512214 0.268122
O O17 0.000000 0.000000 0.000000
#
# Coordination Sequence:
#
# PCOD9091225 Si02
#       8
#     2   2   2   2   2   2   2   2
#     4  10  21  40  59  89 127 156 198 266 312 364
#     4   9  20  36  63  94 123 154 200 265 315 373
#     4  10  19  39  64  91 124 160 210 256 310 376
#     4  10  22  40  62  85 118 172 214 252 298 369
#     4  11  20  37  64  92 118 166 204 252 315 374
#     4  10  22  40  63  88 122 162 216 254 299 381
#     4  10  20  37  59  90 128 156 196 251 320 371
#     4  10  23  38  60  90 125 162 212 255 306 370
#
# _framework density 23.69838
#
# number of rings (size 3 to 8) (size 9 to 14) (size 15 to 20)
#    0.000    2.000    1.250    1.875    1.750    3.000 
#    4.500    2.500    5.500    0.000    0.000    0.000 
#    0.000    0.000    0.000    0.000    0.000    0.000 
#
# Total GULP energy -89143.368368 kJ/mol
# GULP energy per Si atom -5571.460523 kJ/mol
# Density = 2.364444 g / cm^3
# Si number density = 23.698380 Si / 1000 Ang^3
#
#
#
# Elastic Constant Matrix: (Units=GPa)
#
#
# Indices 1 2 3 4 5 6 
#
# 1 82.1154 16.3888 44.3745 -14.3111 24.8085 -12.4280
# 2 16.3888 46.1776 34.6320 -4.6130 -0.4738 -8.0037
# 3 44.3745 34.6320 145.3118 -4.5364 7.1726 -16.7939
# 4 -14.3111 -4.6130 -4.5364 40.8331 -23.7372 2.6883
# 5 24.8085 -0.4738 7.1726 -23.7372 47.6494 -4.4506
# 6 -12.4280 -8.0037 -16.7939 2.6883 -4.4506 46.0512
#
#
#
# Elastic Compliance Matrix: (Units=1/GPa)
#
#
# Indices 1 2 3 4 5 6 
#
# 1 0.017875 -0.002956 -0.004100 0.000541 -0.008264 0.001985
# 2 -0.002956 0.027735 -0.005563 0.004216 0.004961 0.002227
# 3 -0.004100 -0.005563 0.009590 -0.000912 0.000322 0.001508
# 4 0.000541 0.004216 -0.000912 0.035181 0.017440 0.000178
# 5 -0.008264 0.004961 0.000322 0.017440 0.034074 0.001024
# 6 0.001985 0.002227 0.001508 0.000178 0.001024 0.023276
#
#
# Mechanical properties :
#
#
# Convention : Reuss Voigt Hill
#
# Bulk Modulus (GPa) = 33.37631 51.59949 42.48790
# Shear Modulus (GPa) = 27.32901 38.78737 33.05819
#
# Velocity S-wave (km/s) = 3.39957 4.05002 3.73896
# Velocity P-wave (km/s) = 5.43358 6.60991 6.05040
#
# Compressibility (1/GPa) = 0.02996137
#
# Stress axis : x y z
#
# Youngs Moduli (GPa) = 55.94482 36.05552 104.28025
#
# Poissons Ratio (x) = 0.10658 0.42753
# Poissons Ratio (y) = 0.16537 0.58014
# Poissons Ratio (z) = 0.22936 0.20059
#
# Static dielectric constant tensor:
#      x y z
#    x 1.988460 -0.072780 0.142160 
#    y -0.072780 2.023200 -0.120400 
#    z 0.142160 -0.120400 2.129430 
# 
# From -- ./inp_files/496671.got.cif
#   From: 2010.05.17/outbox.cif.g08.bks.cpg/sg2_249_cif.got.tgz:496671.got - 2010.06.03 11:33:40.
