data_PCOD9091428
_publ_section_title
;
Structure prediction by ZEFSAII (Michael W. Deem and Ramdas Pophale) SiO2 
 PCOD9091428
Probable space group: P -1
;
_chemical_formula_sum "Si O2"
_cell_formula_units_Z 16
_cell_length_a 13.959419
_cell_length_b 7.761032
_cell_length_c 13.765162
_cell_angle_alpha 49.982095
_cell_angle_beta 136.977707
_cell_angle_gamma 98.265086
_cell_volume 608.558448
_symmetry_space_group_name_H-M "P -1"
_symmetry_group_IT_number 2
_symmetry_cell_setting 'triclinic'
loop_
_space_group_symop_operation_xyz
x,y,z
-x,-y,-z
loop_
_atom_site_type_symbol
_atom_site_label
_atom_site_fract_x
_atom_site_fract_y
_atom_site_fract_z
Si Si1 0.523570 0.036732 0.846824
Si Si2 0.526245 0.320640 0.944931
Si Si3 0.004896 0.759886 0.795445
Si Si4 0.094373 0.257445 0.801869
Si Si5 0.648895 0.592342 0.693763
Si Si6 0.351080 0.872838 0.506310
Si Si7 0.058727 0.123981 0.600628
Si Si8 0.841516 0.472675 0.700902
O O1 0.504833 0.203447 0.870508
O O2 0.333062 0.239778 0.581400
O O3 0.566672 0.740428 0.021205
O O4 0.693136 0.959273 0.941278
O O5 0.441957 0.645717 0.744051
O O6 0.737216 0.112387 0.196323
O O7 0.962080 0.546648 0.813237
O O8 0.859487 0.958069 0.699677
O O9 0.973801 0.962725 0.609813
O O10 0.207007 0.579795 0.050009
O O11 0.067235 0.191748 0.696636
O O12 0.032844 0.579838 0.630684
O O13 0.968435 0.263506 0.784515
O O14 0.458771 0.691643 0.555011
O O15 0.750971 0.409917 0.739295
O O16 0.622291 0.886766 0.551733
#
# Coordination Sequence:
#
# PCOD9091428 Si02
#       8
#     2   2   2   2   2   2   2   2
#     4  10  22  38  61  92 123 155 199 247 306 364
#     4  10  19  39  66  88 119 160 201 248 299 368
#     4  11  23  40  66  88 120 161 208 248 302 360
#     4  10  22  39  64  88 126 159 195 254 304 359
#     4  10  23  42  60  87 122 163 208 246 299 359
#     4  10  20  37  65  87 112 166 201 246 296 359
#     4  10  20  40  65  92 116 165 205 236 310 373
#     4  11  23  39  60  92 125 157 197 261 296 348
#
# _framework density 26.291639
#
# number of rings (size 3 to 8) (size 9 to 14) (size 15 to 20)
#    0.000    1.750    2.500    2.250    3.500    4.500 
#    0.000    4.375    2.750    0.000    0.000    0.000 
#    0.000    0.000    0.000    0.000    0.000    0.000 
#
# Total GULP energy -89584.307547 kJ/mol
# GULP energy per Si atom -5599.019222 kJ/mol
# Density = 2.623180 g / cm^3
# Si number density = 26.291639 Si / 1000 Ang^3
#
#
#
# Elastic Constant Matrix: (Units=GPa)
#
#
# Indices 1 2 3 4 5 6 
#
# 1 94.7886 30.6115 -1.2448 -1.9259 14.5758 -10.0168
# 2 30.6115 73.0354 30.7304 -10.8844 -3.8449 2.6695
# 3 -1.2448 30.7304 86.4665 -16.4847 -1.9514 -8.0517
# 4 -1.9259 -10.8844 -16.4847 34.0830 5.1793 -9.4364
# 5 14.5758 -3.8449 -1.9514 5.1793 38.3790 -17.6010
# 6 -10.0168 2.6695 -8.0517 -9.4364 -17.6010 32.3134
#
#
#
# Elastic Compliance Matrix: (Units=1/GPa)
#
#
# Indices 1 2 3 4 5 6 
#
# 1 0.014156 -0.007507 0.003513 0.001888 -0.004337 0.004073
# 2 -0.007507 0.020432 -0.007549 0.000886 0.002412 -0.004324
# 3 0.003513 -0.007549 0.016774 0.008192 0.001941 0.009342
# 4 0.001888 0.000886 0.008192 0.037424 0.001227 0.014151
# 5 -0.004337 0.002412 0.001941 0.001227 0.036731 0.019306
# 6 0.004073 -0.004324 0.009342 0.014151 0.019306 0.049543
#
#
# Mechanical properties :
#
#
# Convention : Reuss Voigt Hill
#
# Bulk Modulus (GPa) = 35.36497 41.60941 38.48719
# Shear Modulus (GPa) = 24.08808 33.90129 28.99468
#
# Velocity S-wave (km/s) = 3.03014 3.59476 3.32446
# Velocity P-wave (km/s) = 5.07174 5.75241 5.42277
#
# Compressibility (1/GPa) = 0.02827657
#
# Stress axis : x y z
#
# Youngs Moduli (GPa) = 70.64131 48.94310 59.61503
#
# Poissons Ratio (x) = 0.36743 -0.20945
# Poissons Ratio (y) = 0.53032 0.45003
# Poissons Ratio (z) = -0.24819 0.36947
#
# Static dielectric constant tensor:
#      x y z
#    x 2.086330 -0.041960 -0.045400 
#    y -0.041960 2.125740 0.001600 
#    z -0.045400 0.001600 1.972010 
# 
# From -- ./inp_files/261030.got.cif
#   From: 2010.05.17/outbox.cif.g08.bks.cpg/sg2_131_cif.got.tgz:261030.got - 2010.06.03 11:33:40.
