data_PCOD9091376
_publ_section_title
;
Structure prediction by ZEFSAII (Michael W. Deem and Ramdas Pophale) SiO2 
 PCOD9091376
Probable space group: P -1
;
_chemical_formula_sum "Si O2"
_cell_formula_units_Z 16
_cell_length_a 16.401367
_cell_length_b 7.957181
_cell_length_c 10.249414
_cell_angle_alpha 102.517874
_cell_angle_beta 132.147142
_cell_angle_gamma 108.906082
_cell_volume 736.905070
_symmetry_space_group_name_H-M "P -1"
_symmetry_group_IT_number 2
_symmetry_cell_setting 'triclinic'
loop_
_space_group_symop_operation_xyz
x,y,z
-x,-y,-z
loop_
_atom_site_type_symbol
_atom_site_label
_atom_site_fract_x
_atom_site_fract_y
_atom_site_fract_z
Si Si1 0.075113 0.041448 0.228328
Si Si2 0.882222 0.720915 0.200266
Si Si3 0.644197 0.238330 0.784782
Si Si4 0.138126 0.481106 0.351557
Si Si5 0.820074 0.107225 0.858206
Si Si6 0.567076 0.255417 0.442335
Si Si7 0.892392 0.268332 0.423176
Si Si8 0.705797 0.866956 0.972412
O O1 0.123115 0.277259 0.371473
O O2 0.195767 0.028850 0.308156
O O3 0.966444 0.838639 0.174905
O O4 0.000000 0.000000 0.000000
O O5 0.770372 0.764928 0.093919
O O6 0.012020 0.803383 0.450088
O O7 0.776140 0.450403 0.040252
O O8 0.715730 0.162851 0.759039
O O9 0.585154 0.312159 0.626240
O O10 0.525315 0.016877 0.702956
O O11 0.277558 0.601379 0.431566
O O12 0.152213 0.661256 0.489070
O O13 0.985297 0.341326 0.088178
O O14 0.781002 0.968155 0.927814
O O15 0.463641 0.286800 0.264375
O O16 0.000000 0.500000 0.500000
O O17 0.761238 0.077493 0.159414
#
# Coordination Sequence:
#
# PCOD9091376 Si02
#       8
#     2   2   2   2   2   2   2   2
#     4  10  20  36  63 103 127 150 205 283 327 361
#     4  12  22  39  69  98 122 169 221 269 319 371
#     4  10  21  40  61  95 131 173 209 257 324 398
#     4  11  21  40  64  95 122 169 209 268 322 368
#     4  10  19  39  65  94 131 159 213 271 317 377
#     4  10  24  40  59  95 134 173 205 254 336 390
#     4  12  23  42  69  92 126 170 227 270 302 375
#     4  11  23  42  59  93 130 175 211 252 320 382
#
# _framework density 21.712429
#
# number of rings (size 3 to 8) (size 9 to 14) (size 15 to 20)
#    0.000    1.250    5.000    2.625    1.750    2.000 
#    4.500    0.000    0.000    2.250    0.000    0.000 
#    0.000    0.000    0.000    0.000    0.000    0.000 
#
# Total GULP energy -89262.671897 kJ/mol
# GULP energy per Si atom -5578.916994 kJ/mol
# Density = 2.166301 g / cm^3
# Si number density = 21.712429 Si / 1000 Ang^3
#
#
#
# Elastic Constant Matrix: (Units=GPa)
#
#
# Indices 1 2 3 4 5 6 
#
# 1 62.5202 18.7800 7.6580 2.2958 21.9839 -4.6792
# 2 18.7800 57.0361 4.5748 -1.6354 13.0261 3.7070
# 3 7.6580 4.5748 71.2960 -10.8462 24.3290 -0.3818
# 4 2.2958 -1.6354 -10.8462 30.1636 2.2677 8.9840
# 5 21.9839 13.0261 24.3290 2.2677 26.8179 7.9697
# 6 -4.6792 3.7070 -0.3818 8.9840 7.9697 42.1158
#
#
#
# Elastic Compliance Matrix: (Units=1/GPa)
#
#
# Indices 1 2 3 4 5 6 
#
# 1 0.027561 -0.003244 0.007863 0.000125 -0.030908 0.009241
# 2 -0.003244 0.020859 0.003032 0.003531 -0.010229 -0.000986
# 3 0.007863 0.003032 0.026138 0.009988 -0.034005 0.005148
# 4 0.000125 0.003531 0.009988 0.039745 -0.012353 -0.006347
# 5 -0.030908 -0.010229 -0.034005 -0.012353 0.105481 -0.020167
# 6 0.009241 -0.000986 0.005148 -0.006347 -0.020167 0.030074
#
#
# Mechanical properties :
#
#
# Convention : Reuss Voigt Hill
#
# Bulk Modulus (GPa) = 11.12814 28.09752 19.61283
# Shear Modulus (GPa) = 18.90294 30.47542 24.68918
#
# Velocity S-wave (km/s) = 2.95380 3.75052 3.37575
# Velocity P-wave (km/s) = 4.09507 5.63241 4.92411
#
# Compressibility (1/GPa) = 0.08986227
#
# Stress axis : x y z
#
# Youngs Moduli (GPa) = 36.28281 47.94064 38.25871
#
# Poissons Ratio (x) = 0.15551 -0.30084
# Poissons Ratio (y) = 0.11769 -0.11602
# Poissons Ratio (z) = -0.28530 -0.14538
#
# Static dielectric constant tensor:
#      x y z
#    x 1.856120 -0.084870 -0.006600 
#    y -0.084870 1.867690 -0.040440 
#    z -0.006600 -0.040440 1.844120 
# 
# From -- ./inp_files/298968.got.cif
#   From: 2010.05.17/outbox.cif.g08.bks.cpg/sg2_150_cif.got.tgz:298968.got - 2010.06.03 11:33:40.
