data_PCOD9091316
_publ_section_title
;
Structure prediction by ZEFSAII (Michael W. Deem and Ramdas Pophale) SiO2 
 PCOD9091316
Probable space group: P -1
;
_chemical_formula_sum "Si O2"
_cell_formula_units_Z 15
_cell_length_a 13.088093
_cell_length_b 9.733534
_cell_length_c 12.415214
_cell_angle_alpha 143.716370
_cell_angle_beta 53.778287
_cell_angle_gamma 125.473732
_cell_volume 736.950929
_symmetry_space_group_name_H-M "P -1"
_symmetry_group_IT_number 2
_symmetry_cell_setting 'triclinic'
loop_
_space_group_symop_operation_xyz
x,y,z
-x,-y,-z
loop_
_atom_site_type_symbol
_atom_site_label
_atom_site_fract_x
_atom_site_fract_y
_atom_site_fract_z
Si Si1 0.986642 0.969609 0.820405
Si Si2 0.380388 0.506155 0.155734
Si Si3 0.522905 0.231241 0.402106
Si Si4 0.500000 0.000000 0.500000
Si Si5 0.663476 0.759699 0.652452
Si Si6 0.696432 0.000063 0.997354
Si Si7 0.895381 0.617316 0.847860
Si Si8 0.965760 0.800705 0.487154
O O1 0.851640 0.060221 0.954679
O O2 0.959900 0.748787 0.781316
O O3 0.014846 0.897046 0.636488
O O4 0.093396 0.175248 0.939172
O O5 0.349777 0.261997 0.088279
O O6 0.251690 0.501168 0.163199
O O7 0.414205 0.733067 0.354171
O O8 0.500000 0.500000 0.000000
O O9 0.518997 0.064078 0.400303
O O10 0.566205 0.508971 0.580514
O O11 0.384166 0.177203 0.394593
O O12 0.625541 0.175566 0.215541
O O13 0.660730 0.963447 0.870904
O O14 0.809946 0.725099 0.542404
O O15 0.971675 0.422509 0.715654
O O16 0.000000 0.000000 0.500000
#
# Coordination Sequence:
#
# PCOD9091316 Si02
#       8
#     2   2   2   1   2   2   2   2
#     4   9  21  42  66  92 118 163 213 255 308 367
#     4  11  23  39  60  95 127 155 203 254 311 361
#     4  11  22  39  65  90 125 162 205 251 309 361
#     4  12  24  38  64  94 128 160 200 258 310 364
#     4  10  23  41  58  91 123 167 206 245 304 373
#     4  10  19  39  65  87 122 162 203 254 299 367
#     4  10  22  42  65  91 121 165 208 255 309 364
#     4  11  24  40  62  91 130 163 205 257 309 370
#
# _framework density 20.354136
#
# number of rings (size 3 to 8) (size 9 to 14) (size 15 to 20)
#    0.000    1.600    2.667    1.600    1.867    1.600 
#    2.400    0.000    0.000    0.000    0.000    0.000 
#    0.000    0.000    0.000    0.000    0.000    0.000 
#
# Total GULP energy -83546.676712 kJ/mol
# GULP energy per Si atom -5569.778447 kJ/mol
# Density = 2.030781 g / cm^3
# Si number density = 20.354136 Si / 1000 Ang^3
#
#
#
# Elastic Constant Matrix: (Units=GPa)
#
#
# Indices 1 2 3 4 5 6 
#
# 1 74.4346 18.0965 31.0619 1.8199 17.0169 3.0737
# 2 18.0965 48.6446 12.4550 -0.9647 9.9427 -12.1280
# 3 31.0619 12.4550 47.6242 12.4235 12.3870 -2.5679
# 4 1.8199 -0.9647 12.4235 21.2570 -0.5440 4.8298
# 5 17.0169 9.9427 12.3870 -0.5440 36.0671 0.9595
# 6 3.0737 -12.1280 -2.5679 4.8298 0.9595 18.8735
#
#
#
# Elastic Compliance Matrix: (Units=1/GPa)
#
#
# Indices 1 2 3 4 5 6 
#
# 1 0.022342 -0.006679 -0.015125 0.009323 -0.003039 -0.012220
# 2 -0.006679 0.029343 0.000057 -0.003047 -0.005562 0.021014
# 3 -0.015125 0.000057 0.040373 -0.025900 -0.007535 0.015004
# 4 0.009323 -0.003047 -0.025900 0.066989 0.006999 -0.024499
# 5 -0.003039 -0.005562 -0.007535 0.006999 0.033589 -0.007603
# 6 -0.012220 0.021014 0.015004 -0.024499 -0.007603 0.077175
#
#
# Mechanical properties :
#
#
# Convention : Reuss Voigt Hill
#
# Bulk Modulus (GPa) = 20.59194 32.65892 26.62543
# Shear Modulus (GPa) = 15.17476 22.51220 18.84348
#
# Velocity S-wave (km/s) = 2.73341 3.32930 3.04597
# Velocity P-wave (km/s) = 4.48340 5.55511 5.04778
#
# Compressibility (1/GPa) = 0.04856268
#
# Stress axis : x y z
#
# Youngs Moduli (GPa) = 44.75892 34.07969 24.76883
#
# Poissons Ratio (x) = 0.22763 0.37464
# Poissons Ratio (y) = 0.29896 -0.00141
# Poissons Ratio (z) = 0.67700 -0.00194
#
# Static dielectric constant tensor:
#      x y z
#    x 1.744820 -0.006540 -0.000180 
#    y -0.006540 1.697500 -0.009210 
#    z -0.000180 -0.009210 1.712610 
# 
# From -- ./inp_files/255680.got.cif
#   From: 2010.05.17/outbox.cif.g08.bks.cpg/sg2_128_cif.got.tgz:255680.got - 2010.06.03 11:33:40.
