data_PCOD9091362
_publ_section_title
;
Structure prediction by ZEFSAII (Michael W. Deem and Ramdas Pophale) SiO2 
 PCOD9091362
Probable space group: P -1
;
_chemical_formula_sum "Si O2"
_cell_formula_units_Z 16
_cell_length_a 16.027026
_cell_length_b 13.642000
_cell_length_c 7.642563
_cell_angle_alpha 38.836279
_cell_angle_beta 69.196652
_cell_angle_gamma 49.382640
_cell_volume 753.802720
_symmetry_space_group_name_H-M "P -1"
_symmetry_group_IT_number 2
_symmetry_cell_setting 'triclinic'
loop_
_space_group_symop_operation_xyz
x,y,z
-x,-y,-z
loop_
_atom_site_type_symbol
_atom_site_label
_atom_site_fract_x
_atom_site_fract_y
_atom_site_fract_z
Si Si1 0.260202 0.554938 0.169793
Si Si2 0.353124 0.650608 0.242456
Si Si3 0.123656 0.433093 0.957044
Si Si4 0.639499 0.000788 0.142461
Si Si5 0.365647 0.094325 0.349552
Si Si6 0.496637 0.227153 0.599221
Si Si7 0.720027 0.480148 0.199989
Si Si8 0.127327 0.418750 0.559512
O O1 0.263322 0.705701 0.077274
O O2 0.363576 0.339427 0.488613
O O3 0.151415 0.562366 0.257821
O O4 0.291042 0.553365 0.948055
O O5 0.473076 0.433929 0.388118
O O6 0.308537 0.614894 0.501239
O O7 0.367080 0.814735 0.040972
O O8 0.226720 0.217357 0.268771
O O9 0.154092 0.576477 0.794792
O O10 0.140873 0.414350 0.763210
O O11 0.000000 0.500000 0.000000
O O12 0.601960 0.944636 0.417609
O O13 0.561270 0.075366 0.924066
O O14 0.771695 0.808023 0.268752
O O15 0.429702 0.900073 0.448717
O O16 0.364172 0.277247 0.035692
O O17 0.000000 0.500000 0.500000
#
# Coordination Sequence:
#
# PCOD9091362 Si02
#       8
#     2   2   2   2   2   2   2   2
#     4  10  22  41  62  95 124 174 207 260 317 375
#     4  10  25  40  62  91 139 166 206 261 323 380
#     4  10  19  39  65  93 121 160 214 268 307 368
#     4  12  23  43  63  99 125 173 210 261 322 373
#     4  10  22  37  63  96 124 166 221 256 312 378
#     4  10  24  39  61  94 137 163 216 259 315 385
#     4  10  20  40  60  92 124 169 210 264 313 371
#     4  12  22  43  70  94 127 163 220 265 314 374
#
# _framework density 21.225714
#
# number of rings (size 3 to 8) (size 9 to 14) (size 15 to 20)
#    1.500    0.000    3.750    1.875    1.750    4.000 
#    0.000    0.625    0.000    1.500    0.000    0.000 
#    0.000    0.000    0.000    0.000    0.000    0.000 
#
# Total GULP energy -89261.981335 kJ/mol
# GULP energy per Si atom -5578.873833 kJ/mol
# Density = 2.117740 g / cm^3
# Si number density = 21.225714 Si / 1000 Ang^3
#
#
#
# Elastic Constant Matrix: (Units=GPa)
#
#
# Indices 1 2 3 4 5 6 
#
# 1 107.8062 35.9725 15.6969 1.3377 9.7626 10.8566
# 2 35.9725 113.0373 27.1740 23.1322 0.2745 18.1420
# 3 15.6969 27.1740 42.0406 9.7281 -4.3597 18.2339
# 4 1.3377 23.1322 9.7281 26.5608 9.8694 9.9488
# 5 9.7626 0.2745 -4.3597 9.8694 31.4520 4.0489
# 6 10.8566 18.1420 18.2339 9.9488 4.0489 43.8605
#
#
#
# Elastic Compliance Matrix: (Units=1/GPa)
#
#
# Indices 1 2 3 4 5 6 
#
# 1 0.011734 -0.004149 -0.003653 0.006911 -0.006195 -0.000666
# 2 -0.004149 0.013546 -0.003729 -0.011546 0.004380 -0.000811
# 3 -0.003653 -0.003729 0.035680 -0.009322 0.010484 -0.011240
# 4 0.006911 -0.011546 -0.009322 0.060655 -0.021751 -0.004810
# 5 -0.006195 0.004380 0.010484 -0.021751 0.042424 -0.003619
# 6 -0.000666 -0.000811 -0.011240 -0.004810 -0.003619 0.029398
#
#
# Mechanical properties :
#
#
# Convention : Reuss Voigt Hill
#
# Bulk Modulus (GPa) = 26.38543 46.73009 36.55776
# Shear Modulus (GPa) = 21.82165 32.64404 27.23285
#
# Velocity S-wave (km/s) = 3.20984 3.92592 3.58580
# Velocity P-wave (km/s) = 5.11814 6.52795 5.86555
#
# Compressibility (1/GPa) = 0.03789971
#
# Stress axis : x y z
#
# Youngs Moduli (GPa) = 85.21954 73.82419 28.02696
#
# Poissons Ratio (x) = 0.30627 0.10237
# Poissons Ratio (y) = 0.35355 0.10451
# Poissons Ratio (z) = 0.31128 0.27527
#
# Static dielectric constant tensor:
#      x y z
#    x 1.851400 0.004430 0.005500 
#    y 0.004430 1.769750 -0.009230 
#    z 0.005500 -0.009230 1.775290 
# 
# From -- ./inp_files/346818.got.cif
#   From: 2010.05.17/outbox.cif.g08.bks.cpg/sg2_174_cif.got.tgz:346818.got - 2010.06.03 11:33:40.
