data_PCOD9091218
_publ_section_title
;
Structure prediction by ZEFSAII (Michael W. Deem and Ramdas Pophale) SiO2 
 PCOD9091218
Probable space group: P -1
;
_chemical_formula_sum "Si O2"
_cell_formula_units_Z 16
_cell_length_a 15.387717
_cell_length_b 21.141835
_cell_length_c 11.196362
_cell_angle_alpha 22.419291
_cell_angle_beta 39.964949
_cell_angle_gamma 30.071366
_cell_volume 685.265506
_symmetry_space_group_name_H-M "P -1"
_symmetry_group_IT_number 2
_symmetry_cell_setting 'triclinic'
loop_
_space_group_symop_operation_xyz
x,y,z
-x,-y,-z
loop_
_atom_site_type_symbol
_atom_site_label
_atom_site_fract_x
_atom_site_fract_y
_atom_site_fract_z
Si Si1 0.712930 0.141450 0.197262
Si Si2 0.224575 0.873722 0.430720
Si Si3 0.621857 0.682017 0.616357
Si Si4 0.199505 0.516926 0.991847
Si Si5 0.506515 0.856991 0.064355
Si Si6 0.130062 0.324864 0.070175
Si Si7 0.112249 0.788111 0.932753
Si Si8 0.523371 0.294634 0.880339
O O1 0.539639 0.297681 0.191901
O O2 0.862898 0.147372 0.077541
O O3 0.774448 0.906689 0.566769
O O4 0.655268 0.199835 0.019030
O O5 0.220611 0.695452 0.686350
O O6 0.415643 0.803056 0.344979
O O7 0.172150 0.880054 0.610984
O O8 0.082588 0.093518 0.121392
O O9 0.738251 0.630307 0.701298
O O10 0.752514 0.470102 0.769377
O O11 0.547916 0.913862 0.244116
O O12 0.337909 0.374619 0.989112
O O13 0.000797 0.633865 0.966332
O O14 0.431192 0.858003 0.012381
O O15 0.716183 0.682325 0.132910
O O16 0.000000 0.500000 0.000000
O O17 0.500000 0.500000 0.500000
#
# Coordination Sequence:
#
# PCOD9091218 Si02
#       8
#     2   2   2   2   2   2   2   2
#     4  10  22  39  67  96 123 175 222 256 317 406
#     4  10  21  39  69  92 127 172 216 273 312 388
#     4   9  22  37  64  92 127 171 212 270 316 381
#     4  10  19  39  64  90 128 176 209 247 332 392
#     4  11  23  40  62 100 132 162 216 270 333 367
#     4  11  22  37  64  98 133 169 213 264 324 396
#     4  10  20  42  68  90 123 176 231 252 320 387
#     4  11  22  39  66  95 133 167 209 271 330 385
#
# _framework density 23.348614999999999
#
# number of rings (size 3 to 8) (size 9 to 14) (size 15 to 20)
#    0.000    1.750    3.750    0.375    1.750    2.000 
#    0.000    6.250    0.000    0.000    0.000    0.000 
#    0.000    0.000    0.000    0.000    0.000    0.000 
#
# Total GULP energy -89470.351917 kJ/mol
# GULP energy per Si atom -5591.896995 kJ/mol
# Density = 2.329547 g / cm^3
# Si number density = 23.348615 Si / 1000 Ang^3
#
#
#
# Elastic Constant Matrix: (Units=GPa)
#
#
# Indices 1 2 3 4 5 6 
#
# 1 100.7404 19.3758 23.8329 4.3419 9.6084 -19.8892
# 2 19.3758 96.6118 25.0195 -5.4417 -7.7616 -15.3920
# 3 23.8329 25.0195 36.8229 -9.5099 0.1559 -9.4703
# 4 4.3419 -5.4417 -9.5099 35.2890 0.8779 -7.3515
# 5 9.6084 -7.7616 0.1559 0.8779 34.3166 -8.6337
# 6 -19.8892 -15.3920 -9.4703 -7.3515 -8.6337 33.8862
#
#
#
# Elastic Compliance Matrix: (Units=1/GPa)
#
#
# Indices 1 2 3 4 5 6 
#
# 1 0.013022 -0.000289 -0.007936 -0.002886 -0.002593 0.004007
# 2 -0.000289 0.013603 -0.007410 0.001135 0.004504 0.005332
# 3 -0.007936 -0.007410 0.042406 0.012683 0.001799 0.007037
# 4 -0.002886 0.001135 0.012683 0.034412 0.002778 0.010540
# 5 -0.002593 0.004504 0.001799 0.002778 0.033354 0.010127
# 6 0.004007 0.005332 0.007037 0.010540 0.010127 0.041118
#
#
# Mechanical properties :
#
#
# Convention : Reuss Voigt Hill
#
# Bulk Modulus (GPa) = 26.48222 41.18129 33.83175
# Shear Modulus (GPa) = 22.54563 31.76149 27.15356
#
# Velocity S-wave (km/s) = 3.11080 3.69225 3.41392
# Velocity P-wave (km/s) = 4.92640 5.98772 5.48280
#
# Compressibility (1/GPa) = 0.03776118
#
# Stress axis : x y z
#
# Youngs Moduli (GPa) = 76.79029 73.51387 23.58156
#
# Poissons Ratio (x) = 0.02125 0.18714
# Poissons Ratio (y) = 0.02219 0.17474
# Poissons Ratio (z) = 0.60940 0.54475
#
# Static dielectric constant tensor:
#      x y z
#    x 1.944410 -0.018370 0.017340 
#    y -0.018370 1.912650 -0.013810 
#    z 0.017340 -0.013810 1.857000 
# 
# From -- ./inp_files/467308.got.cif
#   From: 2010.05.17/outbox.cif.g08.bks.cpg/sg2_234_cif.got.tgz:467308.got - 2010.06.03 11:33:40.
