data_PCOD9091292
_publ_section_title
;
Structure prediction by ZEFSAII (Michael W. Deem and Ramdas Pophale) SiO2 
 PCOD9091292
Probable space group: P -1
;
_chemical_formula_sum "Si O2"
_cell_formula_units_Z 12
_cell_length_a 8.085874
_cell_length_b 13.413180
_cell_length_c 8.294906
_cell_angle_alpha 57.803889
_cell_angle_beta 129.802842
_cell_angle_gamma 134.203878
_cell_volume 489.312494
_symmetry_space_group_name_H-M "P -1"
_symmetry_group_IT_number 2
_symmetry_cell_setting 'triclinic'
loop_
_space_group_symop_operation_xyz
x,y,z
-x,-y,-z
loop_
_atom_site_type_symbol
_atom_site_label
_atom_site_fract_x
_atom_site_fract_y
_atom_site_fract_z
Si Si1 0.752630 0.505534 0.355755
Si Si2 0.474672 0.059773 0.268430
Si Si3 0.975005 0.851863 0.594712
Si Si4 0.577647 0.357240 0.708270
Si Si5 0.556427 0.674736 0.992723
Si Si6 0.243136 0.854903 0.037776
O O1 0.667513 0.468292 0.522273
O O2 0.566007 0.398337 0.191770
O O3 0.000000 0.500000 0.500000
O O4 0.779631 0.648886 0.196298
O O5 0.397926 0.172784 0.118353
O O6 0.767779 0.133678 0.321997
O O7 0.500000 0.000000 0.500000
O O8 0.259152 0.921201 0.160718
O O9 0.726201 0.751068 0.422239
O O10 0.000000 0.000000 0.500000
O O11 0.984192 0.807216 0.821717
O O12 0.702290 0.266708 0.828438
O O13 0.619386 0.396755 0.890418
O O14 0.500000 0.000000 0.000000
#
# Coordination Sequence:
#
# PCOD9091292 Si02
#       6
#     2   2   2   2   2   2
#     4  11  29  50  68  97 134 179 242 293 331 390
#     4  11  22  43  67 104 143 175 221 278 336 414
#     4  11  21  39  67 101 139 175 214 266 342 411
#     4  12  23  46  73  98 138 181 221 282 342 406
#     4  11  25  48  69 101 135 175 241 276 339 409
#     4  10  19  39  64  99 139 165 220 262 336 411
#
# _framework density 24.524206
#
# number of rings (size 3 to 8) (size 9 to 14) (size 15 to 20)
#    0.000    1.000    6.667    1.500    2.333    3.333 
#    3.000    1.667    0.000    0.000    0.000    0.000 
#    0.000    0.000    0.000    0.000    0.000    0.000 
#
# Total GULP energy -67035.354378 kJ/mol
# GULP energy per Si atom -5586.279531 kJ/mol
# Density = 2.446839 g / cm^3
# Si number density = 24.524206 Si / 1000 Ang^3
#
#
#
# Elastic Constant Matrix: (Units=GPa)
#
#
# Indices 1 2 3 4 5 6 
#
# 1 83.8039 42.4921 47.3208 -6.6106 2.8133 -8.2681
# 2 42.4921 61.3764 42.8609 -20.2491 6.6398 -9.1367
# 3 47.3208 42.8609 187.8454 -26.4475 5.3031 -14.9243
# 4 -6.6106 -20.2491 -26.4475 44.2808 -17.4938 7.0788
# 5 2.8133 6.6398 5.3031 -17.4938 67.8197 -5.2412
# 6 -8.2681 -9.1367 -14.9243 7.0788 -5.2412 34.7273
#
#
#
# Elastic Compliance Matrix: (Units=1/GPa)
#
#
# Indices 1 2 3 4 5 6 
#
# 1 0.019935 -0.013477 -0.002566 -0.005102 -0.000541 0.001056
# 2 -0.013477 0.030793 -0.001970 0.010838 0.000643 0.001934
# 3 -0.002566 -0.001970 0.006913 0.002868 0.000603 0.001348
# 4 -0.005102 0.010838 0.002868 0.031616 0.006886 -0.002536
# 5 -0.000541 0.000643 0.000603 0.006886 0.016541 0.001392
# 6 0.001056 0.001934 0.001348 -0.002536 0.001392 0.030863
#
#
# Mechanical properties :
#
#
# Convention : Reuss Voigt Hill
#
# Bulk Modulus (GPa) = 46.26253 66.48591 56.37422
# Shear Modulus (GPa) = 27.79473 42.72233 35.25853
#
# Velocity S-wave (km/s) = 3.37019 4.17831 3.79582
# Velocity P-wave (km/s) = 5.83517 7.10260 6.49985
#
# Compressibility (1/GPa) = 0.02161577
#
# Stress axis : x y z
#
# Youngs Moduli (GPa) = 50.16367 32.47543 144.65063
#
# Poissons Ratio (x) = 0.43767 0.37117
# Poissons Ratio (y) = 0.67605 0.28490
# Poissons Ratio (z) = 0.12872 0.06396
#
# Static dielectric constant tensor:
#      x y z
#    x 2.146410 0.026500 -0.100260 
#    y 0.026500 1.918830 -0.014820 
#    z -0.100260 -0.014820 1.907000 
# 
# From -- ./inp_files/200021.got.cif
#   From: 2010.05.17/outbox.cif.g08.bks.cpg/sg2_101_cif.got.tgz:200021.got - 2010.06.03 11:33:40.
