data_PCOD9091939
_publ_section_title
;
Structure prediction by ZEFSAII (Michael W. Deem and Ramdas Pophale) SiO2 
 PCOD9091939
Probable space group: P -1
;
_chemical_formula_sum "Si O2"
_cell_formula_units_Z 14
_cell_length_a 11.523244
_cell_length_b 8.569085
_cell_length_c 7.719764
_cell_angle_alpha 125.645303
_cell_angle_beta 115.692086
_cell_angle_gamma 61.057501
_cell_volume 529.644173
_symmetry_space_group_name_H-M "P -1"
_symmetry_group_IT_number 2
_symmetry_cell_setting 'triclinic'
loop_
_space_group_symop_operation_xyz
x,y,z
-x,-y,-z
loop_
_atom_site_type_symbol
_atom_site_label
_atom_site_fract_x
_atom_site_fract_y
_atom_site_fract_z
Si Si1 0.578034 0.749026 0.787988
Si Si2 0.438050 0.482285 0.732630
Si Si3 0.991186 0.707834 0.540880
Si Si4 0.208653 0.852471 0.872864
Si Si5 0.841603 0.060586 0.492215
Si Si6 0.559689 0.085550 0.757013
Si Si7 0.861747 0.462690 0.822833
O O1 0.506897 0.646522 0.816103
O O2 0.575516 0.630927 0.527672
O O3 0.737060 0.665963 0.888645
O O4 0.515215 0.978677 0.825296
O O5 0.291833 0.615518 0.790945
O O6 0.511006 0.317834 0.815325
O O7 0.054822 0.853159 0.787051
O O8 0.096289 0.615068 0.393248
O O9 0.000000 0.500000 0.500000
O O10 0.848326 0.857435 0.470832
O O11 0.230913 0.910355 0.722936
O O12 0.279878 0.963760 0.124176
O O13 0.813205 0.267331 0.720517
O O14 0.000000 0.000000 0.500000
O O15 0.500000 0.000000 0.500000
O O16 0.000000 0.500000 0.000000
#
# Coordination Sequence:
#
# PCOD9091939 Si02
#       7
#     2   2   2   2   2   2   2
#     4  10  21  38  60  87 123 158 204 255 313 367
#     4  10  20  41  58  86 122 162 209 251 304 373
#     4  10  22  41  60  95 123 159 212 260 310 384
#     4  10  19  40  64  82 124 166 202 257 312 371
#     4   8  18  37  59  84 115 161 196 246 309 369
#     4  10  23  38  59  89 126 160 210 260 307 366
#     4  10  20  37  63  88 120 159 204 255 317 375
#
# _framework density 26.432841
#
# number of rings (size 3 to 8) (size 9 to 14) (size 15 to 20)
#    0.000    2.571    2.857    0.429    6.000    1.714 
#    5.143    0.714    0.000    0.000    0.000    0.000 
#    0.000    0.000    0.000    0.000    0.000    0.000 
#
# Total GULP energy -77988.506161 kJ/mol
# GULP energy per Si atom -5570.607583 kJ/mol
# Density = 2.637268 g / cm^3
# Si number density = 26.432841 Si / 1000 Ang^3
#
#
#
# Elastic Constant Matrix: (Units=GPa)
#
#
# Indices 1 2 3 4 5 6 
#
# 1 46.4508 27.7541 23.4641 -19.6041 4.8066 13.8193
# 2 27.7541 213.9850 48.5008 -23.9371 17.3280 31.3206
# 3 23.4641 48.5008 170.4642 -18.0877 32.1842 15.4458
# 4 -19.6041 -23.9371 -18.0877 54.6366 -2.0271 6.2143
# 5 4.8066 17.3280 32.1842 -2.0271 34.1922 -6.4785
# 6 13.8193 31.3206 15.4458 6.2143 -6.4785 34.0090
#
#
#
# Elastic Compliance Matrix: (Units=1/GPa)
#
#
# Indices 1 2 3 4 5 6 
#
# 1 0.033204 0.000465 -0.000289 0.013766 -0.007163 -0.017669
# 2 0.000465 0.006548 0.000075 0.003777 -0.004716 -0.007842
# 3 -0.000289 0.000075 0.008441 0.003081 -0.008905 -0.006044
# 4 0.013766 0.003777 0.003081 0.027552 -0.008355 -0.017098
# 5 -0.007163 -0.004716 -0.008905 -0.008355 0.044569 0.021315
# 6 -0.017669 -0.007842 -0.006044 -0.017098 0.021315 0.053736
#
#
# Mechanical properties :
#
#
# Convention : Reuss Voigt Hill
#
# Bulk Modulus (GPa) = 20.53595 70.03755 45.28675
# Shear Modulus (GPa) = 26.34655 46.64628 36.49641
#
# Velocity S-wave (km/s) = 3.16054 4.20540 3.71984
# Velocity P-wave (km/s) = 4.59398 7.08057 5.96821
#
# Compressibility (1/GPa) = 0.04869509
#
# Stress axis : x y z
#
# Youngs Moduli (GPa) = 30.11703 152.71162 118.47496
#
# Poissons Ratio (x) = -0.07102 0.03419
# Poissons Ratio (y) = -0.01401 -0.00885
# Poissons Ratio (z) = 0.00869 -0.01141
#
# Static dielectric constant tensor:
#      x y z
#    x 2.231100 0.192190 0.069460 
#    y 0.192190 2.306130 0.101030 
#    z 0.069460 0.101030 2.320680 
# 
# From -- ./inp_files/296494.got.cif
#   From: 2010.05.17/outbox.cif.g08.bks.cpg/sg2_149_cif.got.tgz:296494.got - 2010.06.03 11:33:40.
