data_PCOD9091683
_publ_section_title
;
Structure prediction by ZEFSAII (Michael W. Deem and Ramdas Pophale) SiO2 
 PCOD9091683
Probable space group: P -1
;
_chemical_formula_sum "Si O2"
_cell_formula_units_Z 14
_cell_length_a 13.816650
_cell_length_b 15.884549
_cell_length_c 16.388559
_cell_angle_alpha 24.222052
_cell_angle_beta 155.777175
_cell_angle_gamma 151.479724
_cell_volume 581.395295
_symmetry_space_group_name_H-M "P -1"
_symmetry_group_IT_number 2
_symmetry_cell_setting 'triclinic'
loop_
_space_group_symop_operation_xyz
x,y,z
-x,-y,-z
loop_
_atom_site_type_symbol
_atom_site_label
_atom_site_fract_x
_atom_site_fract_y
_atom_site_fract_z
Si Si1 0.603924 0.936513 0.482415
Si Si2 0.965989 0.832034 0.973021
Si Si3 0.315802 0.609744 0.412114
Si Si4 0.625012 0.720118 0.132358
Si Si5 0.657293 0.696621 0.001045
Si Si6 0.118649 0.811856 0.667673
Si Si7 0.629341 0.872760 0.275829
O O1 0.480286 0.118608 0.255127
O O2 0.828054 0.039173 0.502673
O O3 0.431391 0.761595 0.445025
O O4 0.722009 0.852827 0.723588
O O5 0.904048 0.797937 0.050601
O O6 0.194099 0.037933 0.945047
O O7 0.040382 0.626391 0.179959
O O8 0.330104 0.387341 0.654905
O O9 0.449213 0.712237 0.341962
O O10 0.696581 0.626342 0.185469
O O11 0.332461 0.692320 0.928861
O O12 0.500000 0.500000 0.000000
O O13 0.824918 0.747203 0.507200
O O14 0.215621 0.939729 0.712154
O O15 0.500000 0.000000 0.000000
#
# Coordination Sequence:
#
# PCOD9091683 Si02
#       7
#     2   2   2   2   2   2   2
#     4  10  22  43  64  93 133 172 216 273 327 386
#     4  12  23  42  67  93 135 174 218 276 319 389
#     4  11  24  43  66  97 132 177 217 266 338 385
#     4  11  24  43  64  98 135 173 221 270 330 389
#     4  11  24  43  67  99 128 177 224 268 331 387
#     4   9  20  39  64  92 134 167 214 274 320 385
#     4  10  19  39  69  96 126 174 220 268 327 387
#
# _framework density 24.080002
#
# number of rings (size 3 to 8) (size 9 to 14) (size 15 to 20)
#    0.000    1.429    4.286    2.571    2.000    1.143 
#    0.000    0.714    0.000    0.000    0.000    0.000 
#    0.000    0.000    0.000    0.000    0.000    0.000 
#
# Total GULP energy -78133.327615 kJ/mol
# GULP energy per Si atom -5580.951973 kJ/mol
# Density = 2.402520 g / cm^3
# Si number density = 24.080002 Si / 1000 Ang^3
#
#
#
# Elastic Constant Matrix: (Units=GPa)
#
#
# Indices 1 2 3 4 5 6 
#
# 1 167.3479 32.5260 81.7530 14.3584 -12.1114 24.0099
# 2 32.5260 104.0557 40.6741 11.0073 -6.5638 -5.4453
# 3 81.7530 40.6741 111.5522 3.0179 -14.7973 33.5826
# 4 14.3584 11.0073 3.0179 14.4049 6.6428 -4.9826
# 5 -12.1114 -6.5638 -14.7973 6.6428 47.5790 5.8793
# 6 24.0099 -5.4453 33.5826 -4.9826 5.8793 27.9539
#
#
#
# Elastic Compliance Matrix: (Units=1/GPa)
#
#
# Indices 1 2 3 4 5 6 
#
# 1 0.010876 -0.000033 -0.005122 -0.013776 0.003894 -0.006469
# 2 -0.000033 0.014426 -0.010044 -0.002465 -0.002654 0.015024
# 3 -0.005122 -0.010044 0.030321 -0.013326 0.013443 -0.039187
# 4 -0.013776 -0.002465 -0.013326 0.121831 -0.031894 0.055785
# 5 0.003894 -0.002654 0.013443 -0.031894 0.034344 -0.032920
# 6 -0.006469 0.015024 -0.039187 0.055785 -0.032920 0.108201
#
#
# Mechanical properties :
#
#
# Convention : Reuss Voigt Hill
#
# Bulk Modulus (GPa) = 39.64318 76.98468 58.31393
# Shear Modulus (GPa) = 13.93507 33.18774 23.56141
#
# Velocity S-wave (km/s) = 2.40823 3.71648 3.13143
# Velocity P-wave (km/s) = 4.92256 7.10324 6.11096
#
# Compressibility (1/GPa) = 0.02522502
#
# Stress axis : x y z
#
# Youngs Moduli (GPa) = 91.94469 69.31742 32.98019
#
# Poissons Ratio (x) = 0.00231 0.16892
# Poissons Ratio (y) = 0.00306 0.33126
# Poissons Ratio (z) = 0.47093 0.69624
#
# Static dielectric constant tensor:
#      x y z
#    x 1.931190 -0.053330 0.020820 
#    y -0.053330 2.003560 -0.022650 
#    z 0.020820 -0.022650 1.949100 
# 
# From -- ./inp_files/520687.got.cif
#   From: 2010.05.17/outbox.cif.g08.bks.cpg/sg2_261_cif.got.tgz:520687.got - 2010.06.03 11:33:40.
