data_PCOD9091618
_publ_section_title
;
Structure prediction by ZEFSAII (Michael W. Deem and Ramdas Pophale) SiO2 
 PCOD9091618
Probable space group: P -1
;
_chemical_formula_sum "Si O2"
_cell_formula_units_Z 12
_cell_length_a 11.702641
_cell_length_b 9.784190
_cell_length_c 10.375852
_cell_angle_alpha 139.072650
_cell_angle_beta 105.105481
_cell_angle_gamma 104.248210
_cell_volume 536.269528
_symmetry_space_group_name_H-M "P -1"
_symmetry_group_IT_number 2
_symmetry_cell_setting 'triclinic'
loop_
_space_group_symop_operation_xyz
x,y,z
-x,-y,-z
loop_
_atom_site_type_symbol
_atom_site_label
_atom_site_fract_x
_atom_site_fract_y
_atom_site_fract_z
Si Si1 0.125415 0.935876 0.850878
Si Si2 0.585726 0.419530 0.836244
Si Si3 0.486587 0.360790 0.262438
Si Si4 0.784283 0.523990 0.580192
Si Si5 0.879374 0.022356 0.425883
Si Si6 0.717280 0.205841 0.581180
O O1 0.957742 0.652877 0.667884
O O2 0.092273 0.920258 0.678068
O O3 0.301866 0.033524 0.980116
O O4 0.166190 0.207791 0.129007
O O5 0.517126 0.478546 0.741560
O O6 0.717956 0.414666 0.815187
O O7 0.444895 0.114121 0.645810
O O8 0.693968 0.701092 0.157938
O O9 0.500000 0.500000 0.500000
O O10 0.650514 0.421912 0.359391
O O11 0.700979 0.264536 0.471845
O O12 0.871177 0.236408 0.645584
O O13 0.000000 0.000000 0.500000
#
# Coordination Sequence:
#
# PCOD9091618 Si02
#       6
#     2   2   2   2   2   2
#     4   9  20  39  61  91 131 159 209 263 308 377
#     4  10  22  43  62  93 127 165 211 264 308 385
#     4   9  16  36  65  86 120 165 205 250 328 358
#     4  10  19  39  68  92 120 172 205 263 319 370
#     4  11  24  42  60  93 133 167 204 262 324 370
#     4  11  22  40  67  90 126 163 217 259 310 383
#
# _framework density 22.376806999999999
#
# number of rings (size 3 to 8) (size 9 to 14) (size 15 to 20)
#    0.000    2.000    5.000    0.500    2.333    1.333 
#    3.000    3.333    0.000    0.000    0.000    0.000 
#    0.000    0.000    0.000    0.000    0.000    0.000 
#
# Total GULP energy -66947.047091 kJ/mol
# GULP energy per Si atom -5578.920591 kJ/mol
# Density = 2.232588 g / cm^3
# Si number density = 22.376807 Si / 1000 Ang^3
#
#
#
# Elastic Constant Matrix: (Units=GPa)
#
#
# Indices 1 2 3 4 5 6 
#
# 1 145.1605 44.0341 43.5486 -9.7219 -7.7613 -11.7108
# 2 44.0341 112.1487 32.9626 17.9568 29.8054 2.2743
# 3 43.5486 32.9626 56.0140 -12.1415 7.8662 -1.3942
# 4 -9.7219 17.9568 -12.1415 21.6573 1.4782 10.1069
# 5 -7.7613 29.8054 7.8662 1.4782 42.7215 2.5952
# 6 -11.7108 2.2743 -1.3942 10.1069 2.5952 39.4620
#
#
#
# Elastic Compliance Matrix: (Units=1/GPa)
#
#
# Indices 1 2 3 4 5 6 
#
# 1 0.010830 -0.005391 -0.004928 0.005413 0.006354 0.001546
# 2 -0.005391 0.024538 -0.015230 -0.033052 -0.014508 0.005867
# 3 -0.004928 -0.015230 0.037827 0.035429 0.002053 -0.008457
# 4 0.005413 -0.033052 0.035429 0.105709 0.015278 -0.023316
# 5 0.006354 -0.014508 0.002053 0.015278 0.033980 -0.003353
# 6 0.001546 0.005867 -0.008457 -0.023316 -0.003353 0.031355
#
#
# Mechanical properties :
#
#
# Convention : Reuss Voigt Hill
#
# Bulk Modulus (GPa) = 45.25304 61.60152 53.42728
# Shear Modulus (GPa) = 16.51790 33.62000 25.06895
#
# Velocity S-wave (km/s) = 2.71988 3.88035 3.35073
# Velocity P-wave (km/s) = 5.48915 6.90399 6.23682
#
# Compressibility (1/GPa) = 0.02209796
#
# Stress axis : x y z
#
# Youngs Moduli (GPa) = 92.34002 40.75242 26.43603
#
# Poissons Ratio (x) = 0.21968 0.13028
# Poissons Ratio (y) = 0.49776 0.40262
# Poissons Ratio (z) = 0.45505 0.62066
#
# Static dielectric constant tensor:
#      x y z
#    x 1.559730 0.024250 0.168880 
#    y 0.024250 1.793100 0.023680 
#    z 0.168880 0.023680 1.710860 
# 
# From -- ./inp_files/170596.got.cif
#   From: 2010.05.17/outbox.cif.g08.bks.cpg/sg2_86_cif.got.tgz:170596.got - 2010.06.03 11:33:40.
