data_PCOD9091481
_publ_section_title
;
Structure prediction by ZEFSAII (Michael W. Deem and Ramdas Pophale) SiO2 
 PCOD9091481
Probable space group: P -1
;
_chemical_formula_sum "Si O2"
_cell_formula_units_Z 10
_cell_length_a 18.341084
_cell_length_b 6.251750
_cell_length_c 9.866877
_cell_angle_alpha 49.520298
_cell_angle_beta 27.735710
_cell_angle_gamma 58.860049
_cell_volume 395.189837
_symmetry_space_group_name_H-M "P -1"
_symmetry_group_IT_number 2
_symmetry_cell_setting 'triclinic'
loop_
_space_group_symop_operation_xyz
x,y,z
-x,-y,-z
loop_
_atom_site_type_symbol
_atom_site_label
_atom_site_fract_x
_atom_site_fract_y
_atom_site_fract_z
Si Si1 0.984557 0.654491 0.113761
Si Si2 0.256252 0.337305 0.872764
Si Si3 0.396374 0.314914 0.914232
Si Si4 0.652702 0.725400 0.691545
Si Si5 0.671633 0.087773 0.250910
O O1 0.802415 0.568013 0.489144
O O2 0.113453 0.514932 0.043551
O O3 0.319522 0.171075 0.964406
O O4 0.000000 0.000000 0.000000
O O5 0.419070 0.541780 0.468766
O O6 0.208761 0.091115 0.941943
O O7 0.000000 0.500000 0.000000
O O8 0.298949 0.580776 0.959490
O O9 0.361775 0.169376 0.174532
O O10 0.658354 0.975113 0.471152
O O11 0.500000 0.500000 0.000000
O O12 0.500000 0.000000 0.500000
#
# Coordination Sequence:
#
# PCOD9091481 Si02
#       5
#     2   2   2   2   2
#     4  12  26  48  74 110 154 197 245 313 378 442
#     4  10  21  41  66  99 143 190 235 300 374 428
#     4  10  22  42  69 102 142 189 249 298 368 445
#     4  12  22  44  74 106 142 191 259 296 371 448
#     4  10  19  39  66  93 140 181 230 303 358 428
#
# _framework density 25.304295
#
# number of rings (size 3 to 8) (size 9 to 14) (size 15 to 20)
#    0.000    1.200    6.000    1.200    0.000    0.800 
#    3.600   16.000    0.000    0.000    0.000    0.000 
#    0.000    0.000    0.000    0.000    0.000    0.000 
#
# Total GULP energy -55725.644624 kJ/mol
# GULP energy per Si atom -5572.564462 kJ/mol
# Density = 2.524670 g / cm^3
# Si number density = 25.304295 Si / 1000 Ang^3
#
#
#
# Elastic Constant Matrix: (Units=GPa)
#
#
# Indices 1 2 3 4 5 6 
#
# 1 156.5617 33.3003 45.6543 -1.4338 29.8564 -19.8689
# 2 33.3003 143.6475 41.0588 39.6536 2.4326 5.5633
# 3 45.6543 41.0588 106.4196 43.0629 -3.6960 -10.0502
# 4 -1.4338 39.6536 43.0629 49.0865 -9.9971 -2.3005
# 5 29.8564 2.4326 -3.6960 -9.9971 47.3616 -2.5450
# 6 -19.8689 5.5633 -10.0502 -2.3005 -2.5450 51.4570
#
#
#
# Elastic Compliance Matrix: (Units=1/GPa)
#
#
# Indices 1 2 3 4 5 6 
#
# 1 0.010067 -0.002496 -0.005918 0.006601 -0.005123 0.003043
# 2 -0.002496 0.009939 0.000587 -0.008911 -0.000900 -0.002366
# 3 -0.005918 0.000587 0.018506 -0.016509 0.001693 0.000612
# 4 0.006601 -0.008911 -0.016509 0.043229 0.004264 0.002431
# 5 -0.005123 -0.000900 0.001693 0.004264 0.025417 -0.000103
# 6 0.003043 -0.002366 0.000612 0.002431 -0.000103 0.021088
#
#
# Mechanical properties :
#
#
# Convention : Reuss Voigt Hill
#
# Bulk Modulus (GPa) = 43.74483 71.85062 57.79773
# Shear Modulus (GPa) = 32.99963 48.68870 40.84417
#
# Velocity S-wave (km/s) = 3.61517 4.39125 4.02197
# Velocity P-wave (km/s) = 5.89499 7.35982 6.66776
#
# Compressibility (1/GPa) = 0.02285984
#
# Stress axis : x y z
#
# Youngs Moduli (GPa) = 99.33160 100.61417 54.03746
#
# Poissons Ratio (x) = 0.25109 0.31977
# Poissons Ratio (y) = 0.24789 -0.03173
# Poissons Ratio (z) = 0.58781 -0.05907
#
# Static dielectric constant tensor:
#      x y z
#    x 2.259010 0.148750 0.070570 
#    y 0.148750 2.062460 0.023980 
#    z 0.070570 0.023980 2.010930 
# 
# From -- ./inp_files/413400.got.cif
#   From: 2010.05.17/outbox.cif.g08.bks.cpg/sg2_207_cif.got.tgz:413400.got - 2010.06.03 11:33:40.
