data_PCOD9091093
_publ_section_title
;
Structure prediction by ZEFSAII (Michael W. Deem and Ramdas Pophale) SiO2 
 PCOD9091093
Probable space group: P -1
;
_chemical_formula_sum "Si O2"
_cell_formula_units_Z 13
_cell_length_a 9.653555
_cell_length_b 11.389588
_cell_length_c 5.091262
_cell_angle_alpha 99.217286
_cell_angle_beta 71.596706
_cell_angle_gamma 75.152366
_cell_volume 495.367556
_symmetry_space_group_name_H-M "P -1"
_symmetry_group_IT_number 2
_symmetry_cell_setting 'triclinic'
loop_
_space_group_symop_operation_xyz
x,y,z
-x,-y,-z
loop_
_atom_site_type_symbol
_atom_site_label
_atom_site_fract_x
_atom_site_fract_y
_atom_site_fract_z
Si Si1 0.661358 0.342974 0.299110
Si Si2 0.721776 0.478266 0.826738
Si Si3 0.168009 0.025041 0.614996
Si Si4 0.974221 0.161193 0.209771
Si Si5 0.363207 0.293482 0.686250
Si Si6 0.500000 0.000000 0.500000
Si Si7 0.068663 0.310251 0.564413
O O1 0.640478 0.411079 0.058365
O O2 0.821147 0.227602 0.153865
O O3 0.516351 0.302616 0.455209
O O4 0.688122 0.434686 0.544085
O O5 0.669479 0.621555 0.003821
O O6 0.905535 0.415489 0.756554
O O7 0.096708 0.166489 0.595741
O O8 0.102589 0.910654 0.560351
O O9 0.349007 0.978072 0.441926
O O10 0.118233 0.053350 0.960719
O O11 0.041812 0.275254 0.267944
O O12 0.213797 0.341272 0.600691
O O13 0.395415 0.147259 0.669639
#
# Coordination Sequence:
#
# PCOD9091093 Si02
#       7
#     2   2   2   2   2   1   2
#     4  11  23  46  70 104 132 182 229 279 337 406
#     4  11  24  46  73  99 135 181 231 276 341 401
#     4  10  19  39  63  89 138 170 230 269 335 402
#     4  10  20  38  64  93 131 180 226 268 337 403
#     4  11  23  44  64 100 141 175 226 285 338 404
#     4  10  22  40  66  96 138 172 222 282 342 396
#     4  10  22  40  63  99 129 179 223 282 338 400
#
# _framework density 26.243141000000001
#
# number of rings (size 3 to 8) (size 9 to 14) (size 15 to 20)
#    0.000    1.538    3.077    1.846    0.000    0.000 
#   11.077    5.385    0.000    0.000    0.000    0.000 
#    0.000    0.000    0.000    0.000    0.000    0.000 
#
# Total GULP energy -72370.229312 kJ/mol
# GULP energy per Si atom -5566.940716 kJ/mol
# Density = 2.618341 g / cm^3
# Si number density = 26.243141 Si / 1000 Ang^3
#
#
#
# Elastic Constant Matrix: (Units=GPa)
#
#
# Indices 1 2 3 4 5 6 
#
# 1 161.6830 6.6998 26.7375 17.6953 -4.2381 12.2590
# 2 6.6998 87.4000 5.4172 17.6209 1.6368 2.8215
# 3 26.7375 5.4172 64.5502 21.1736 6.0277 4.6240
# 4 17.6953 17.6209 21.1736 38.2183 -3.4605 -6.3124
# 5 -4.2381 1.6368 6.0277 -3.4605 30.6024 15.5124
# 6 12.2590 2.8215 4.6240 -6.3124 15.5124 45.8041
#
#
#
# Elastic Compliance Matrix: (Units=1/GPa)
#
#
# Indices 1 2 3 4 5 6 
#
# 1 0.007091 0.000112 -0.002213 -0.002350 0.002611 -0.002889
# 2 0.000112 0.012849 0.001411 -0.007111 -0.000928 -0.001630
# 3 -0.002213 0.001411 0.020748 -0.011827 -0.005039 -0.001513
# 4 -0.002350 -0.007111 -0.011827 0.038455 0.003502 0.006375
# 5 0.002611 -0.000928 -0.005039 0.003502 0.041408 -0.013674
# 6 -0.002889 -0.001630 -0.001513 0.006375 -0.013674 0.028368
#
#
# Mechanical properties :
#
#
# Convention : Reuss Voigt Hill
#
# Bulk Modulus (GPa) = 25.43922 43.48245 34.46084
# Shear Modulus (GPa) = 30.59948 41.24353 35.92150
#
# Velocity S-wave (km/s) = 3.41838 3.96863 3.70374
# Velocity P-wave (km/s) = 5.02942 6.13230 5.60804
#
# Compressibility (1/GPa) = 0.03930939
#
# Stress axis : x y z
#
# Youngs Moduli (GPa) = 141.02648 77.82538 48.19648
#
# Poissons Ratio (x) = -0.00869 0.10664
# Poissons Ratio (y) = -0.01575 -0.06802
# Poissons Ratio (z) = 0.31204 -0.10984
#
# Static dielectric constant tensor:
#      x y z
#    x 2.153830 -0.052040 0.222350 
#    y -0.052040 2.119620 -0.141030 
#    z 0.222350 -0.141030 2.473720 
# 
# From -- ./inp_files/25229.got.cif
#   From: 2010.05.17/outbox.cif.g08.bks.cpg/sg2_13_cif.got.tgz:25229.got - 2010.06.03 11:33:40.
