data_PCOD9091238
_publ_section_title
;
Structure prediction by ZEFSAII (Michael W. Deem and Ramdas Pophale) SiO2 
 PCOD9091238
Probable space group: P -1
;
_chemical_formula_sum "Si O2"
_cell_formula_units_Z 16
_cell_length_a 7.604552
_cell_length_b 20.858905
_cell_length_c 10.776533
_cell_angle_alpha 137.601804
_cell_angle_beta 101.548262
_cell_angle_gamma 111.794349
_cell_volume 698.456350
_symmetry_space_group_name_H-M "P -1"
_symmetry_group_IT_number 2
_symmetry_cell_setting 'triclinic'
loop_
_space_group_symop_operation_xyz
x,y,z
-x,-y,-z
loop_
_atom_site_type_symbol
_atom_site_label
_atom_site_fract_x
_atom_site_fract_y
_atom_site_fract_z
Si Si1 0.841570 0.164119 0.629989
Si Si2 0.038770 0.258844 0.262398
Si Si3 0.632056 0.904207 0.395473
Si Si4 0.683793 0.518883 0.743088
Si Si5 0.486961 0.231981 0.384901
Si Si6 0.027514 0.985182 0.172081
Si Si7 0.220295 0.839652 0.664704
Si Si8 0.144987 0.653766 0.795142
O O1 0.602743 0.143358 0.612237
O O2 0.811175 0.130923 0.433239
O O3 0.781125 0.050205 0.547387
O O4 0.159838 0.340261 0.946545
O O5 0.370870 0.419918 0.508687
O O6 0.833276 0.255671 0.176738
O O7 0.026204 0.246682 0.392038
O O8 0.951715 0.120953 0.996887
O O9 0.868112 0.951880 0.584054
O O10 0.442493 0.764367 0.071442
O O11 0.627609 0.393225 0.618883
O O12 0.913609 0.599105 0.781351
O O13 0.721384 0.248364 0.464944
O O14 0.252742 0.127888 0.313637
O O15 0.296046 0.129495 0.087438
O O16 0.500000 0.000000 0.000000
O O17 0.000000 0.500000 0.500000
#
# Coordination Sequence:
#
# PCOD9091238 Si02
#       8
#     2   2   2   2   2   2   2   2
#     4  10  21  37  62  92 121 163 208 254 309 370
#     4  11  22  39  64  88 125 169 206 256 306 372
#     4  10  19  39  65  90 122 158 209 257 306 375
#     4  10  23  40  61  91 122 167 206 256 311 366
#     4  10  21  36  61  93 124 157 207 254 302 370
#     4  10  19  39  64  92 118 167 208 251 309 361
#     4  12  21  37  61  92 123 163 212 254 308 362
#     4  11  23  41  64  94 125 160 206 258 314 368
#
# _framework density 22.907658999999999
#
# number of rings (size 3 to 8) (size 9 to 14) (size 15 to 20)
#    0.000    1.500    2.500    4.125    0.000    2.000 
#    2.250    1.250    0.000    9.750    0.000    0.000 
#    0.000    0.000    0.000    0.000    0.000    0.000 
#
# Total GULP energy -89526.137145 kJ/mol
# GULP energy per Si atom -5595.383572 kJ/mol
# Density = 2.285552 g / cm^3
# Si number density = 22.907659 Si / 1000 Ang^3
#
#
#
# Elastic Constant Matrix: (Units=GPa)
#
#
# Indices 1 2 3 4 5 6 
#
# 1 39.8733 12.9081 7.7935 -4.7064 4.9383 -8.4360
# 2 12.9081 103.2388 66.4032 -13.3021 8.9275 -11.1921
# 3 7.7935 66.4032 147.6135 -4.5278 4.0134 -10.5170
# 4 -4.7064 -13.3021 -4.5278 40.6327 -0.8946 4.3806
# 5 4.9383 8.9275 4.0134 -0.8946 24.6589 -0.5031
# 6 -8.4360 -11.1921 -10.5170 4.3806 -0.5031 34.5882
#
#
#
# Elastic Compliance Matrix: (Units=1/GPa)
#
#
# Indices 1 2 3 4 5 6 
#
# 1 0.027800 -0.002341 0.000176 0.001749 -0.004567 0.005788
# 2 -0.002341 0.015023 -0.006287 0.003663 -0.003776 0.001860
# 3 0.000176 -0.006287 0.009619 -0.001068 0.000659 0.001078
# 4 0.001749 0.003663 -0.001068 0.026099 -0.000597 -0.002027
# 5 -0.004567 -0.003776 0.000659 -0.000597 0.042677 -0.001439
# 6 0.005788 0.001860 0.001078 -0.002027 -0.001439 0.031489
#
#
# Mechanical properties :
#
#
# Convention : Reuss Voigt Hill
#
# Bulk Modulus (GPa) = 28.13950 51.65945 39.89948
# Shear Modulus (GPa) = 27.55486 33.55069 30.55277
#
# Velocity S-wave (km/s) = 3.47200 3.83117 3.65600
# Velocity P-wave (km/s) = 5.32763 6.49389 5.93945
#
# Compressibility (1/GPa) = 0.03553724
#
# Stress axis : x y z
#
# Youngs Moduli (GPa) = 35.97175 66.56580 103.95626
#
# Poissons Ratio (x) = 0.15583 -0.01825
# Poissons Ratio (y) = 0.08421 0.65355
# Poissons Ratio (z) = -0.00632 0.41849
#
# Static dielectric constant tensor:
#      x y z
#    x 1.823400 0.031710 0.097570 
#    y 0.031710 1.872350 -0.035180 
#    z 0.097570 -0.035180 1.785650 
# 
# From -- ./inp_files/224093.got.cif
#   From: 2010.05.17/outbox.cif.g08.bks.cpg/sg2_113_cif.got.tgz:224093.got - 2010.06.03 11:33:40.
