data_PCOD9091837
_publ_section_title
;
Structure prediction by ZEFSAII (Michael W. Deem and Ramdas Pophale) SiO2 
 PCOD9091837
Probable space group: P -1
;
_chemical_formula_sum "Si O2"
_cell_formula_units_Z 16
_cell_length_a 15.947532
_cell_length_b 16.706302
_cell_length_c 9.461512
_cell_angle_alpha 144.390508
_cell_angle_beta 142.106205
_cell_angle_gamma 36.070344
_cell_volume 797.542006
_symmetry_space_group_name_H-M "P -1"
_symmetry_group_IT_number 2
_symmetry_cell_setting 'triclinic'
loop_
_space_group_symop_operation_xyz
x,y,z
-x,-y,-z
loop_
_atom_site_type_symbol
_atom_site_label
_atom_site_fract_x
_atom_site_fract_y
_atom_site_fract_z
Si Si1 0.874313 0.146949 0.957384
Si Si2 0.421133 0.754895 0.723259
Si Si3 0.027557 0.489522 0.753033
Si Si4 0.724845 0.473557 0.395598
Si Si5 0.724357 0.444666 0.682154
Si Si6 0.552022 0.196526 0.499331
Si Si7 0.588124 0.965737 0.717886
Si Si8 0.077453 0.261094 0.263772
O O1 0.789478 0.314088 0.164908
O O2 0.979816 0.168828 0.011431
O O3 0.729591 0.129969 0.684730
O O4 0.000000 0.000000 0.000000
O O5 0.575701 0.602408 0.757326
O O6 0.289520 0.698220 0.468796
O O7 0.449371 0.801378 0.670334
O O8 0.396418 0.888594 0.991490
O O9 0.095737 0.318344 0.527425
O O10 0.859282 0.525913 0.637260
O O11 0.017295 0.594498 0.756005
O O12 0.130114 0.526663 0.051343
O O13 0.710467 0.431776 0.477554
O O14 0.563300 0.622207 0.351641
O O15 0.488909 0.093717 0.350320
O O16 0.757988 0.832683 0.720390
O O17 0.500000 0.000000 0.500000
#
# Coordination Sequence:
#
# PCOD9091837 Si02
#       8
#     2   2   2   2   2   2   2   2
#     4  11  24  41  62  98 135 167 216 269 329 377
#     4  10  24  42  62  96 131 168 218 262 329 385
#     4  10  19  40  61  92 124 168 213 267 319 378
#     4  10  22  40  66  95 126 171 226 259 319 398
#     4  10  21  39  65  90 130 168 214 269 320 384
#     4  11  23  45  67  93 130 178 211 273 322 387
#     4  12  24  41  68  95 128 169 217 268 322 388
#     4  10  22  38  62  90 128 162 215 262 316 390
#
# _framework density 20.061639
#
# number of rings (size 3 to 8) (size 9 to 14) (size 15 to 20)
#    0.000    1.500    1.250    3.375    3.500    1.000 
#    6.750    1.250    0.000    0.000    0.000    0.000 
#    0.000    0.000    0.000    0.000    0.000    0.000 
#
# Total GULP energy -89242.338307 kJ/mol
# GULP energy per Si atom -5577.646144 kJ/mol
# Density = 2.001598 g / cm^3
# Si number density = 20.061639 Si / 1000 Ang^3
#
#
#
# Elastic Constant Matrix: (Units=GPa)
#
#
# Indices 1 2 3 4 5 6 
#
# 1 79.9725 4.7483 19.9885 -0.7943 29.9208 16.0714
# 2 4.7483 64.1971 31.9050 -7.1611 10.0708 6.6927
# 3 19.9885 31.9050 73.1391 -2.1546 11.1265 -11.0714
# 4 -0.7943 -7.1611 -2.1546 19.4069 -2.8144 9.7905
# 5 29.9208 10.0708 11.1265 -2.8144 32.0916 -5.9156
# 6 16.0714 6.6927 -11.0714 9.7905 -5.9156 20.7199
#
#
#
# Elastic Compliance Matrix: (Units=1/GPa)
#
#
# Indices 1 2 3 4 5 6 
#
# 1 -0.070004 -0.069112 0.060060 -0.100384 0.090897 0.182099
# 2 -0.069112 -0.036652 0.042405 -0.073544 0.081735 0.146191
# 3 0.060060 0.042405 -0.026990 0.069221 -0.077769 -0.129616
# 4 -0.100384 -0.073544 0.069221 -0.054929 0.124756 0.200179
# 5 0.090897 0.081735 -0.077769 0.124756 -0.082039 -0.220832
# 6 0.182099 0.146191 -0.129616 0.200179 -0.220832 -0.367099
#
#
# Mechanical properties :
#
#
# Convention : Reuss Voigt Hill
#
# Bulk Modulus (GPa) = -14.93879 36.73248 10.89684
# Shear Modulus (GPa) = -6.88011 25.15479 9.13734
#
# Velocity S-wave (km/s) = -1.85390 3.54485 2.13647
# Velocity P-wave (km/s) = 3.47062 5.92488 3.39551
#
# Compressibility (1/GPa) = -0.06693981
#
# Stress axis : x y z
#
# Youngs Moduli (GPa) = -14.28498 -27.28337 -37.05044
#
# Poissons Ratio (x) = -1.88561 2.22525
# Poissons Ratio (y) = -0.98727 1.57114
# Poissons Ratio (z) = 0.85795 1.15696
#
# Static dielectric constant tensor:
#      x y z
#    x 1.726120 0.029300 -0.030300 
#    y 0.029300 1.751360 -0.015810 
#    z -0.030300 -0.015810 1.786310 
# 
# From -- ./inp_files/224064.got.cif
#   From: 2010.05.17/outbox.cif.g08.bks.cpg/sg2_113_cif.got.tgz:224064.got - 2010.06.03 11:33:40.
