data_PCOD9091264
_publ_section_title
;
Structure prediction by ZEFSAII (Michael W. Deem and Ramdas Pophale) SiO2 
 PCOD9091264
Probable space group: P -1
;
_chemical_formula_sum "Si O2"
_cell_formula_units_Z 14
_cell_length_a 11.319085
_cell_length_b 10.601566
_cell_length_c 11.043802
_cell_angle_alpha 46.755528
_cell_angle_beta 141.452316
_cell_angle_gamma 110.416815
_cell_volume 548.182377
_symmetry_space_group_name_H-M "P -1"
_symmetry_group_IT_number 2
_symmetry_cell_setting 'triclinic'
loop_
_space_group_symop_operation_xyz
x,y,z
-x,-y,-z
loop_
_atom_site_type_symbol
_atom_site_label
_atom_site_fract_x
_atom_site_fract_y
_atom_site_fract_z
Si Si1 0.113398 0.058693 0.946231
Si Si2 0.480618 0.239720 0.208549
Si Si3 0.211323 0.577574 0.654086
Si Si4 0.599878 0.858540 0.534654
Si Si5 0.638158 0.618617 0.497160
Si Si6 0.778060 0.120393 0.109525
Si Si7 0.996785 0.703570 0.657211
O O1 0.982472 0.284702 0.670455
O O2 0.129016 0.947644 0.905602
O O3 0.353080 0.977862 0.232158
O O4 0.000000 0.000000 0.000000
O O5 0.607395 0.358135 0.275509
O O6 0.367014 0.219413 0.252848
O O7 0.660567 0.034860 0.453342
O O8 0.335416 0.350524 0.908216
O O9 0.137538 0.631432 0.698058
O O10 0.676268 0.701800 0.599286
O O11 0.500000 0.500000 0.500000
O O12 0.865262 0.573643 0.651085
O O13 0.469753 0.775062 0.173358
O O14 0.865860 0.264310 0.145457
O O15 0.840522 0.924491 0.361886
#
# Coordination Sequence:
#
# PCOD9091264 Si02
#       7
#     2   2   2   2   2   2   2
#     4  10  19  39  64  94 133 168 219 272 333 401
#     4  10  22  42  65  97 132 171 227 268 344 391
#     4  10  22  41  66 101 125 173 223 279 328 404
#     4  10  23  41  65  92 134 178 210 285 332 398
#     4  11  25  43  64 101 134 175 224 274 337 399
#     4   9  22  40  67  99 127 176 218 274 338 397
#     4  10  22  43  69  95 133 175 221 274 336 403
#
# _framework density 25.538943
#
# number of rings (size 3 to 8) (size 9 to 14) (size 15 to 20)
#    0.000    2.000    1.429    0.429    8.000    1.143 
#    5.143    0.000    0.000    0.000    0.000    0.000 
#    0.000    0.000    0.000    0.000    0.000    0.000 
#
# Total GULP energy -78129.501867 kJ/mol
# GULP energy per Si atom -5580.678705 kJ/mol
# Density = 2.548082 g / cm^3
# Si number density = 25.538943 Si / 1000 Ang^3
#
#
#
# Elastic Constant Matrix: (Units=GPa)
#
#
# Indices 1 2 3 4 5 6 
#
# 1 78.4301 18.1924 13.4194 11.3114 -6.6484 -0.6282
# 2 18.1924 63.1249 12.4575 2.4941 -14.0869 16.1469
# 3 13.4194 12.4575 94.5410 -6.1077 -7.8140 16.8139
# 4 11.3114 2.4941 -6.1077 41.8805 6.1284 -2.8310
# 5 -6.6484 -14.0869 -7.8140 6.1284 32.2623 10.6169
# 6 -0.6282 16.1469 16.8139 -2.8310 10.6169 35.2086
#
#
#
# Elastic Compliance Matrix: (Units=1/GPa)
#
#
# Indices 1 2 3 4 5 6 
#
# 1 0.014757 -0.004291 -0.002258 -0.003928 0.000424 0.002865
# 2 -0.004291 0.025357 0.001645 -0.003851 0.017241 -0.018000
# 3 -0.002258 0.001645 0.012773 0.000911 0.006015 -0.008635
# 4 -0.003928 -0.003851 0.000911 0.027116 -0.009496 0.006305
# 5 0.000424 0.017241 0.006015 -0.009496 0.050699 -0.026824
# 6 0.002865 -0.018000 -0.008635 0.006305 -0.026824 0.049427
#
#
# Mechanical properties :
#
#
# Convention : Reuss Voigt Hill
#
# Bulk Modulus (GPa) = 23.21196 36.02606 29.61901
# Shear Modulus (GPa) = 24.47424 34.67205 29.57315
#
# Velocity S-wave (km/s) = 3.09902 3.68858 3.40658
# Velocity P-wave (km/s) = 4.68122 5.68135 5.20536
#
# Compressibility (1/GPa) = 0.04308124
#
# Stress axis : x y z
#
# Youngs Moduli (GPa) = 67.76414 39.43635 78.29120
#
# Poissons Ratio (x) = 0.16920 0.17675
# Poissons Ratio (y) = 0.29075 -0.12880
# Poissons Ratio (z) = 0.15298 -0.06488
#
# Static dielectric constant tensor:
#      x y z
#    x 1.994660 0.029480 0.007880 
#    y 0.029480 2.376170 -0.123650 
#    z 0.007880 -0.123650 2.085590 
# 
# From -- ./inp_files/425177.got.cif
#   From: 2010.05.17/outbox.cif.g08.bks.cpg/sg2_213_cif.got.tgz:425177.got - 2010.06.03 11:33:40.
