data_PCOD9091261
_publ_section_title
;
Structure prediction by ZEFSAII (Michael W. Deem and Ramdas Pophale) SiO2 
 PCOD9091261
Probable space group: P -1
;
_chemical_formula_sum "Si O2"
_cell_formula_units_Z 16
_cell_length_a 8.205924
_cell_length_b 10.216318
_cell_length_c 16.766457
_cell_angle_alpha 137.277718
_cell_angle_beta 130.821183
_cell_angle_gamma 43.125936
_cell_volume 630.629600
_symmetry_space_group_name_H-M "P -1"
_symmetry_group_IT_number 2
_symmetry_cell_setting 'triclinic'
loop_
_space_group_symop_operation_xyz
x,y,z
-x,-y,-z
loop_
_atom_site_type_symbol
_atom_site_label
_atom_site_fract_x
_atom_site_fract_y
_atom_site_fract_z
Si Si1 0.808598 0.988256 0.995978
Si Si2 0.421481 0.667975 0.192109
Si Si3 0.917772 0.105933 0.415794
Si Si4 0.108749 0.503999 0.949913
Si Si5 0.570405 0.796997 0.742993
Si Si6 0.033805 0.861955 0.741899
Si Si7 0.226792 0.640051 0.291332
Si Si8 0.960493 0.507285 0.337636
O O1 0.567053 0.997114 0.882259
O O2 0.938483 0.744653 0.966175
O O3 0.000000 0.000000 0.000000
O O4 0.780505 0.139340 0.131093
O O5 0.353030 0.640330 0.248658
O O6 0.701158 0.610873 0.255892
O O7 0.229887 0.923602 0.224704
O O8 0.364282 0.505249 0.046474
O O9 0.646788 0.143325 0.361812
O O10 0.919959 0.091588 0.312424
O O11 0.961712 0.307869 0.541057
O O12 0.140346 0.872470 0.411039
O O13 0.034996 0.352679 0.806386
O O14 0.000000 0.500000 0.000000
O O15 0.600954 0.586225 0.709723
O O16 0.831272 0.689641 0.734439
O O17 0.048659 0.625315 0.647041
#
# Coordination Sequence:
#
# PCOD9091261 Si02
#       8
#     2   2   2   2   2   2   2   2
#     4  10  19  39  64  94 127 158 205 264 328 376
#     4   9  20  38  64  91 121 160 207 261 308 366
#     4  11  25  41  62  89 122 173 214 249 302 374
#     4   8  16  35  62  92 125 159 202 256 320 380
#     4  11  24  41  61  89 128 163 204 259 314 373
#     4  10  22  41  65  93 123 156 210 263 313 368
#     4   9  20  40  61  89 120 159 209 254 309 372
#     4  12  24  39  61  92 126 167 210 251 311 370
#
# _framework density 25.371469999999999
#
# number of rings (size 3 to 8) (size 9 to 14) (size 15 to 20)
#    0.000    2.000    1.250    2.250    0.000    6.000 
#    0.000    3.125    0.000    0.000    0.000    0.000 
#    0.000    0.000    0.000    0.000    0.000    0.000 
#
# Total GULP energy -89486.934264 kJ/mol
# GULP energy per Si atom -5592.933391 kJ/mol
# Density = 2.531372 g / cm^3
# Si number density = 25.371470 Si / 1000 Ang^3
#
#
#
# Elastic Constant Matrix: (Units=GPa)
#
#
# Indices 1 2 3 4 5 6 
#
# 1 58.5364 22.0994 19.9896 -11.7058 12.3122 7.6575
# 2 22.0994 108.6700 48.2660 4.9064 13.6337 2.6032
# 3 19.9896 48.2660 160.8897 -0.1421 22.0860 -12.5390
# 4 -11.7058 4.9064 -0.1421 46.4849 0.5203 11.1377
# 5 12.3122 13.6337 22.0860 0.5203 31.8782 -4.1406
# 6 7.6575 2.6032 -12.5390 11.1377 -4.1406 46.7073
#
#
#
# Elastic Compliance Matrix: (Units=1/GPa)
#
#
# Indices 1 2 3 4 5 6 
#
# 1 0.022700 -0.003302 -0.001303 0.007671 -0.007405 -0.006373
# 2 -0.003302 0.011445 -0.002835 -0.001896 -0.001696 -0.000556
# 3 -0.001303 -0.002835 0.007879 -0.000519 -0.003435 0.002306
# 4 0.007671 -0.001896 -0.000519 0.025514 -0.003203 -0.007659
# 5 -0.007405 -0.001696 -0.003435 -0.003203 0.037974 0.004517
# 6 -0.006373 -0.000556 0.002306 -0.007659 0.004517 0.025332
#
#
# Mechanical properties :
#
#
# Convention : Reuss Voigt Hill
#
# Bulk Modulus (GPa) = 36.84243 56.53402 46.68823
# Shear Modulus (GPa) = 32.30581 40.86349 36.58465
#
# Velocity S-wave (km/s) = 3.57222 4.01759 3.80143
# Velocity P-wave (km/s) = 5.61846 6.62211 6.14082
#
# Compressibility (1/GPa) = 0.02714262
#
# Stress axis : x y z
#
# Youngs Moduli (GPa) = 44.05227 87.37654 126.92538
#
# Poissons Ratio (x) = 0.28854 0.16540
# Poissons Ratio (y) = 0.14547 0.35986
# Poissons Ratio (z) = 0.05740 0.24773
#
# Static dielectric constant tensor:
#      x y z
#    x 1.997830 0.038480 -0.023000 
#    y 0.038480 1.966060 -0.028290 
#    z -0.023000 -0.028290 2.021900 
# 
# From -- ./inp_files/589151.got.cif
#   From: 2010.05.17/outbox.cif.g08.bks.cpg/sg2_295_cif.got.tgz:589151.got - 2010.06.03 11:33:40.
