data_PCOD9091281
_publ_section_title
;
Structure prediction by ZEFSAII (Michael W. Deem and Ramdas Pophale) SiO2 
 PCOD9091281
Probable space group: P -1
;
_chemical_formula_sum "Si O2"
_cell_formula_units_Z 16
_cell_length_a 13.992399
_cell_length_b 13.752378
_cell_length_c 24.238278
_cell_angle_alpha 30.190571
_cell_angle_beta 159.495156
_cell_angle_gamma 138.793680
_cell_volume 776.989302
_symmetry_space_group_name_H-M "P -1"
_symmetry_group_IT_number 2
_symmetry_cell_setting 'triclinic'
loop_
_space_group_symop_operation_xyz
x,y,z
-x,-y,-z
loop_
_atom_site_type_symbol
_atom_site_label
_atom_site_fract_x
_atom_site_fract_y
_atom_site_fract_z
Si Si1 0.721052 0.021830 0.562028
Si Si2 0.212256 0.777757 0.664006
Si Si3 0.825378 0.499921 0.116924
Si Si4 0.378734 0.815688 0.037564
Si Si5 0.309078 0.159479 0.487041
Si Si6 0.199228 0.372883 0.543236
Si Si7 0.266542 0.636064 0.349447
Si Si8 0.750286 0.477391 0.335404
O O1 0.713915 0.255628 0.432494
O O2 0.500000 0.000000 0.500000
O O3 0.686283 0.921800 0.533163
O O4 0.038592 0.903552 0.814896
O O5 0.201456 0.662975 0.771544
O O6 0.912153 0.799820 0.459810
O O7 0.250617 0.996465 0.576971
O O8 0.502383 0.632811 0.861083
O O9 0.048533 0.372156 0.253978
O O10 0.965733 0.653512 0.148736
O O11 0.546776 0.709074 0.235459
O O12 0.467478 0.654647 0.114364
O O13 0.500000 0.000000 0.000000
O O14 0.615127 0.183896 0.656957
O O15 0.278665 0.503637 0.475430
O O16 0.901331 0.504493 0.347080
O O17 0.500000 0.500000 0.500000
O O18 0.000000 0.500000 0.500000
#
# Coordination Sequence:
#
# PCOD9091281 Si02
#       8
#     2   2   2   2   2   2   2   2
#     4  12  27  43  61 100 136 170 222 275 322 387
#     4  10  19  39  64  97 121 153 213 268 319 383
#     4   9  21  39  66  90 125 161 208 265 327 383
#     4  11  22  42  69  94 127 174 224 263 330 392
#     4  11  22  39  64  87 130 166 209 260 327 378
#     4  10  20  40  66  91 125 170 212 261 323 386
#     4   9  21  41  62  90 128 169 209 263 326 394
#     4  10  21  41  67  90 128 168 218 272 309 392
#
# _framework density 20.592305
#
# number of rings (size 3 to 8) (size 9 to 14) (size 15 to 20)
#    0.000    1.750    3.750    0.375    5.250    1.000 
#    4.500    0.000    5.500    0.000    0.000    0.000 
#    0.000    0.000    0.000    0.000    0.000    0.000 
#
# Total GULP energy -89212.325434 kJ/mol
# GULP energy per Si atom -5575.770340 kJ/mol
# Density = 2.054544 g / cm^3
# Si number density = 20.592305 Si / 1000 Ang^3
#
#
#
# Elastic Constant Matrix: (Units=GPa)
#
#
# Indices 1 2 3 4 5 6 
#
# 1 100.9927 40.7291 30.8171 3.6808 19.8170 6.4246
# 2 40.7291 143.2294 29.0629 13.6465 5.9984 0.4044
# 3 30.8171 29.0629 92.9874 9.4743 21.9024 -6.1785
# 4 3.6808 13.6465 9.4743 33.5728 -6.2571 4.0392
# 5 19.8170 5.9984 21.9024 -6.2571 26.3349 8.3726
# 6 6.4246 0.4044 -6.1785 4.0392 8.3726 29.7979
#
#
#
# Elastic Compliance Matrix: (Units=1/GPa)
#
#
# Indices 1 2 3 4 5 6 
#
# 1 0.013247 -0.003010 -0.001433 -0.001274 -0.008191 -0.000638
# 2 -0.003010 0.008350 -0.001584 -0.002459 0.001015 0.000255
# 3 -0.001433 -0.001584 0.017773 -0.008989 -0.018824 0.010523
# 4 -0.001274 -0.002459 -0.008989 0.039247 0.022518 -0.013203
# 5 -0.008191 0.001015 -0.018824 0.022518 0.073095 -0.025742
# 6 -0.000638 0.000255 0.010523 -0.013203 -0.025742 0.044898
#
#
# Mechanical properties :
#
#
# Convention : Reuss Voigt Hill
#
# Bulk Modulus (GPa) = 36.60693 59.82534 48.21613
# Shear Modulus (GPa) = 22.96007 33.71448 28.33727
#
# Velocity S-wave (km/s) = 3.34276 4.05067 3.71362
# Velocity P-wave (km/s) = 5.71964 7.14091 6.46942
#
# Compressibility (1/GPa) = 0.02731723
#
# Stress axis : x y z
#
# Youngs Moduli (GPa) = 75.48815 119.75829 56.26533
#
# Poissons Ratio (x) = 0.36047 0.08061
# Poissons Ratio (y) = 0.22722 0.08912
# Poissons Ratio (z) = 0.10815 0.18968
#
# Static dielectric constant tensor:
#      x y z
#    x 1.773700 -0.073200 0.017010 
#    y -0.073200 1.788410 0.014960 
#    z 0.017010 0.014960 1.752220 
# 
# From -- ./inp_files/619504.got.cif
#   From: 2010.05.17/outbox.cif.g08.bks.cpg/sg2_310_cif.got.tgz:619504.got - 2010.06.03 11:33:40.
