data_PCOD9091724
_publ_section_title
;
Structure prediction by ZEFSAII (Michael W. Deem and Ramdas Pophale) SiO2 
 PCOD9091724
Probable space group: P -1
;
_chemical_formula_sum "Si O2"
_cell_formula_units_Z 15
_cell_length_a 11.538250
_cell_length_b 26.263382
_cell_length_c 11.792124
_cell_angle_alpha 17.269345
_cell_angle_beta 39.265737
_cell_angle_gamma 31.945880
_cell_volume 546.291841
_symmetry_space_group_name_H-M "P -1"
_symmetry_group_IT_number 2
_symmetry_cell_setting 'triclinic'
loop_
_space_group_symop_operation_xyz
x,y,z
-x,-y,-z
loop_
_atom_site_type_symbol
_atom_site_label
_atom_site_fract_x
_atom_site_fract_y
_atom_site_fract_z
Si Si1 0.734017 0.679057 0.053370
Si Si2 0.536226 0.697471 0.804748
Si Si3 0.142011 0.016563 0.084218
Si Si4 0.845086 0.918844 0.825075
Si Si5 0.651085 0.246347 0.931444
Si Si6 0.554813 0.628648 0.517582
Si Si7 0.000000 0.500000 0.000000
Si Si8 0.926828 0.321380 0.048606
O O1 0.469209 0.829074 0.895832
O O2 0.708954 0.572984 0.408672
O O3 0.843518 0.569517 0.084677
O O4 0.909199 0.719918 0.884720
O O5 0.772648 0.627328 0.821777
O O6 0.412411 0.886635 0.408153
O O7 0.366593 0.791579 0.842199
O O8 0.552219 0.498922 0.161009
O O9 0.368996 0.880731 0.129472
O O10 0.150165 0.827509 0.542979
O O11 0.121886 0.151694 0.919964
O O12 0.908591 0.147428 0.913641
O O13 0.917680 0.752924 0.023623
O O14 0.000000 0.000000 0.500000
O O15 0.500000 0.500000 0.500000
O O16 0.700783 0.536732 0.717229
#
# Coordination Sequence:
#
# PCOD9091724 Si02
#       8
#     2   2   2   2   2   2   1   2
#     4  11  26  43  66  99 140 180 228 282 348 403
#     4  11  20  44  68 100 128 182 226 284 337 405
#     4  11  23  39  71 103 130 185 234 273 346 410
#     4  10  19  39  71  94 133 179 232 272 336 407
#     4  11  22  43  68  94 134 180 231 280 339 410
#     4  12  23  41  72 102 141 174 226 291 342 407
#     4  10  26  42  66  96 132 184 234 276 340 418
#     4  11  22  43  68 103 141 175 227 289 334 408
#
# _framework density 27.457851000000002
#
# number of rings (size 3 to 8) (size 9 to 14) (size 15 to 20)
#    0.000    1.067    6.667    1.600    1.867    1.067 
#    2.400    2.000    0.000    0.000    0.000    0.000 
#    0.000    0.000    0.000    0.000    0.000    0.000 
#
# Total GULP energy -83673.163689 kJ/mol
# GULP energy per Si atom -5578.210913 kJ/mol
# Density = 2.739536 g / cm^3
# Si number density = 27.457851 Si / 1000 Ang^3
#
#
#
# Elastic Constant Matrix: (Units=GPa)
#
#
# Indices 1 2 3 4 5 6 
#
# 1 180.0115 43.2415 28.3170 -14.0237 27.0633 -13.5286
# 2 43.2415 129.8819 16.1335 -27.6808 12.2142 9.2366
# 3 28.3170 16.1335 45.8423 -14.3288 15.0705 1.7896
# 4 -14.0237 -27.6808 -14.3288 40.3591 -3.1287 20.0052
# 5 27.0633 12.2142 15.0705 -3.1287 35.8584 -7.3528
# 6 -13.5286 9.2366 1.7896 20.0052 -7.3528 58.5901
#
#
#
# Elastic Compliance Matrix: (Units=1/GPa)
#
#
# Indices 1 2 3 4 5 6 
#
# 1 0.007066 -0.002150 -0.003187 -0.001470 -0.002938 0.002201
# 2 -0.002150 0.011178 0.002063 0.010533 -0.003435 -0.006349
# 3 -0.003187 0.002063 0.032160 0.015107 -0.012288 -0.008744
# 4 -0.001470 0.010533 0.015107 0.045670 -0.008771 -0.019156
# 5 -0.002938 -0.003435 -0.012288 -0.008771 0.037296 0.007914
# 6 0.002201 -0.006349 -0.008744 -0.019156 0.007914 0.026378
#
#
# Mechanical properties :
#
#
# Convention : Reuss Voigt Hill
#
# Bulk Modulus (GPa) = 22.80210 59.01327 40.90768
# Shear Modulus (GPa) = 27.63750 44.83110 36.23430
#
# Velocity S-wave (km/s) = 3.17605 4.04508 3.63662
# Velocity P-wave (km/s) = 4.66606 6.58452 5.70649
#
# Compressibility (1/GPa) = 0.04385562
#
# Stress axis : x y z
#
# Youngs Moduli (GPa) = 141.53073 89.45995 31.09500
#
# Poissons Ratio (x) = 0.19233 0.09911
# Poissons Ratio (y) = 0.30428 -0.06416
# Poissons Ratio (z) = 0.45112 -0.18460
#
# Static dielectric constant tensor:
#      x y z
#    x 2.138810 -0.026030 -0.084600 
#    y -0.026030 2.114100 -0.056350 
#    z -0.084600 -0.056350 2.258610 
# 
# From -- ./inp_files/439516.got.cif
#   From: 2010.05.17/outbox.cif.g08.bks.cpg/sg2_220_cif.got.tgz:439516.got - 2010.06.03 11:33:40.
