data_PCOD9091467
_publ_section_title
;
Structure prediction by ZEFSAII (Michael W. Deem and Ramdas Pophale) SiO2 
 PCOD9091467
Probable space group: P -1
;
_chemical_formula_sum "Si O2"
_cell_formula_units_Z 14
_cell_length_a 8.355457
_cell_length_b 16.652802
_cell_length_c 15.466822
_cell_angle_alpha 152.380131
_cell_angle_beta 58.385414
_cell_angle_gamma 137.090414
_cell_volume 623.970504
_symmetry_space_group_name_H-M "P -1"
_symmetry_group_IT_number 2
_symmetry_cell_setting 'triclinic'
loop_
_space_group_symop_operation_xyz
x,y,z
-x,-y,-z
loop_
_atom_site_type_symbol
_atom_site_label
_atom_site_fract_x
_atom_site_fract_y
_atom_site_fract_z
Si Si1 0.293816 0.222331 0.151827
Si Si2 0.863359 0.084519 0.940461
Si Si3 0.631216 0.737741 0.135943
Si Si4 0.993277 0.107410 0.516485
Si Si5 0.661845 0.977012 0.718970
Si Si6 0.700285 0.362531 0.027586
Si Si7 0.833915 0.495789 0.611694
O O1 0.483108 0.249494 0.056240
O O2 0.306458 0.433941 0.331290
O O3 0.295614 0.150284 0.179516
O O4 0.000000 0.000000 0.000000
O O5 0.670962 0.025907 0.864607
O O6 0.122511 0.171005 0.903901
O O7 0.984658 0.311332 0.182174
O O8 0.500000 0.500000 0.000000
O O9 0.432384 0.684830 0.071810
O O10 0.737240 0.933860 0.366625
O O11 0.093400 0.361801 0.746424
O O12 0.194274 0.114989 0.414854
O O13 0.000000 0.000000 0.500000
O O14 0.391224 0.776453 0.557974
O O15 0.796894 0.226227 0.875103
O O16 0.000000 0.500000 0.500000
#
# Coordination Sequence:
#
# PCOD9091467 Si02
#       7
#     2   2   2   2   2   2   2
#     4  10  19  39  66  91 133 176 210 272 325 388
#     4  10  23  43  63  97 136 170 226 268 328 397
#     4  11  22  42  72  93 128 181 215 272 338 388
#     4  11  24  45  68  95 134 175 220 275 332 387
#     4  11  25  42  66 100 132 173 222 275 326 392
#     4  12  23  44  68  97 135 169 224 274 329 396
#     4  11  22  38  65  97 136 175 215 273 329 391
#
# _framework density 22.436958000000001
#
# number of rings (size 3 to 8) (size 9 to 14) (size 15 to 20)
#    0.000    1.143    5.714    1.714    0.000    4.571 
#    2.571    0.714    0.000    0.000    0.000    0.000 
#    0.000    0.000    0.000    0.000    0.000    0.000 
#
# Total GULP energy -78122.808542 kJ/mol
# GULP energy per Si atom -5580.200610 kJ/mol
# Density = 2.238589 g / cm^3
# Si number density = 22.436958 Si / 1000 Ang^3
#
#
#
# Elastic Constant Matrix: (Units=GPa)
#
#
# Indices 1 2 3 4 5 6 
#
# 1 45.7633 15.9627 29.3921 -0.7641 0.5606 -20.4738
# 2 15.9627 95.8105 29.0647 3.5131 7.9400 -20.0217
# 3 29.3921 29.0647 167.5263 13.4336 14.2859 -16.1782
# 4 -0.7641 3.5131 13.4336 34.6830 -7.3540 -2.2448
# 5 0.5606 7.9400 14.2859 -7.3540 35.9660 -2.9135
# 6 -20.4738 -20.0217 -16.1782 -2.2448 -2.9135 40.6393
#
#
#
# Elastic Compliance Matrix: (Units=1/GPa)
#
#
# Indices 1 2 3 4 5 6 
#
# 1 0.031526 -0.001422 -0.004602 0.004292 0.003650 0.013849
# 2 -0.001422 0.012199 -0.001172 -0.000942 -0.002023 0.004630
# 3 -0.004602 -0.001172 0.007532 -0.003651 -0.003436 -0.000345
# 4 0.004292 -0.000942 -0.003651 0.032395 0.008429 0.002638
# 5 0.003650 -0.002023 -0.003436 0.008429 0.031460 0.002195
# 6 0.013849 0.004630 -0.000345 0.002638 0.002195 0.034030
#
#
# Mechanical properties :
#
#
# Convention : Reuss Voigt Hill
#
# Bulk Modulus (GPa) = 27.12580 50.88212 39.00396
# Shear Modulus (GPa) = 28.43747 37.90302 33.17025
#
# Velocity S-wave (km/s) = 3.56397 4.11458 3.84914
# Velocity P-wave (km/s) = 5.38998 6.73054 6.09721
#
# Compressibility (1/GPa) = 0.03686527
#
# Stress axis : x y z
#
# Youngs Moduli (GPa) = 31.71968 81.97065 132.75924
#
# Poissons Ratio (x) = 0.11658 0.61102
# Poissons Ratio (y) = 0.04511 0.15556
# Poissons Ratio (z) = 0.14599 0.09605
#
# Static dielectric constant tensor:
#      x y z
#    x 1.659970 0.130070 -0.080250 
#    y 0.130070 2.166400 -0.040500 
#    z -0.080250 -0.040500 1.890960 
# 
# From -- ./inp_files/197097.got.cif
#   From: 2010.05.17/outbox.cif.g08.bks.cpg/sg2_99_cif.got.tgz:197097.got - 2010.06.03 11:33:40.
