data_PCOD9091072
_publ_section_title
;
Structure prediction by ZEFSAII (Michael W. Deem and Ramdas Pophale) SiO2 
 PCOD9091072
Probable space group: P -1
;
_chemical_formula_sum "Si O2"
_cell_formula_units_Z 16
_cell_length_a 9.236159
_cell_length_b 20.803461
_cell_length_c 12.079549
_cell_angle_alpha 149.404587
_cell_angle_beta 36.877813
_cell_angle_gamma 151.564253
_cell_volume 553.599612
_symmetry_space_group_name_H-M "P -1"
_symmetry_group_IT_number 2
_symmetry_cell_setting 'triclinic'
loop_
_space_group_symop_operation_xyz
x,y,z
-x,-y,-z
loop_
_atom_site_type_symbol
_atom_site_label
_atom_site_fract_x
_atom_site_fract_y
_atom_site_fract_z
Si Si1 0.874901 0.350545 0.999240
Si Si2 0.445111 0.366893 0.593124
Si Si3 0.450619 0.996094 0.214929
Si Si4 0.481127 0.160390 0.670078
Si Si5 0.997218 0.841488 0.624888
Si Si6 0.968540 0.180714 0.988994
Si Si7 0.610472 0.624174 0.718723
Si Si8 0.772167 0.495950 0.787290
O O1 0.674201 0.375685 0.082168
O O2 0.041281 0.489760 0.199764
O O3 0.639867 0.170904 0.928691
O O4 0.151484 0.353562 0.791961
O O5 0.669297 0.542477 0.657388
O O6 0.607275 0.361430 0.593247
O O7 0.289302 0.234324 0.395910
O O8 0.187619 0.940620 0.201100
O O9 0.454854 0.086759 0.454872
O O10 0.757727 0.094246 0.097306
O O11 0.823548 0.234515 0.608482
O O12 0.313804 0.239349 0.878674
O O13 0.256523 0.021046 0.691160
O O14 0.875485 0.796454 0.757430
O O15 0.987974 0.331835 0.163660
O O16 0.500000 0.500000 0.500000
O O17 0.500000 0.500000 0.000000
#
# Coordination Sequence:
#
# PCOD9091072 Si02
#       8
#     2   2   2   2   2   2   2   2
#     4  10  19  39  63  88 120 163 206 252 318 370
#     4  10  20  40  62  86 122 163 203 252 310 372
#     4  10  21  40  65  93 125 159 207 261 310 371
#     4  11  22  41  63  89 128 161 207 261 308 363
#     4  10  23  40  56  88 122 161 208 251 311 372
#     4  10  22  39  66  96 120 160 210 256 311 370
#     4  10  22  37  59  86 126 159 204 258 301 369
#     4   9  21  38  64  90 120 159 206 250 310 380
#
# _framework density 28.901754
#
# number of rings (size 3 to 8) (size 9 to 14) (size 15 to 20)
#    0.000    2.000    1.250    1.500    1.750    5.000 
#    0.000    4.375    0.000    0.000    0.000    0.000 
#    0.000    0.000    0.000    0.000    0.000    0.000 
#
# Total GULP energy -89635.225640 kJ/mol
# GULP energy per Si atom -5602.201602 kJ/mol
# Density = 2.883597 g / cm^3
# Si number density = 28.901754 Si / 1000 Ang^3
#
#
#
# Elastic Constant Matrix: (Units=GPa)
#
#
# Indices 1 2 3 4 5 6 
#
# 1 112.7969 6.9044 -2.8971 15.4452 23.7322 16.9546
# 2 6.9044 123.8798 6.8523 -23.4460 7.3536 -19.4991
# 3 -2.8971 6.8523 107.2311 -20.4029 5.2724 17.6998
# 4 15.4452 -23.4460 -20.4029 39.1997 12.1965 4.1731
# 5 23.7322 7.3536 5.2724 12.1965 52.9395 4.5206
# 6 16.9546 -19.4991 17.6998 4.1731 4.5206 56.3213
#
#
#
# Elastic Compliance Matrix: (Units=1/GPa)
#
#
# Indices 1 2 3 4 5 6 
#
# 1 0.010703 -0.001603 0.000462 -0.003476 -0.003532 -0.003381
# 2 -0.001603 0.010279 0.000235 0.007367 -0.002741 0.003641
# 3 0.000462 0.000235 0.011483 0.007201 -0.002702 -0.003983
# 4 -0.003476 0.007367 0.007201 0.037866 -0.008841 -0.000762
# 5 -0.003532 -0.002741 -0.002702 -0.008841 0.023180 -0.000242
# 6 -0.003381 0.003641 -0.003983 -0.000762 -0.000242 0.021361
#
#
# Mechanical properties :
#
#
# Convention : Reuss Voigt Hill
#
# Bulk Modulus (GPa) = 32.62198 40.62523 36.62361
# Shear Modulus (GPa) = 39.40076 51.89531 45.64803
#
# Velocity S-wave (km/s) = 3.69625 4.24202 3.97850
# Velocity P-wave (km/s) = 5.43397 6.17089 5.81411
#
# Compressibility (1/GPa) = 0.03065418
#
# Stress axis : x y z
#
# Youngs Moduli (GPa) = 93.43446 97.28760 87.08180
#
# Poissons Ratio (x) = 0.15590 -0.04021
# Poissons Ratio (y) = 0.14973 -0.02049
# Poissons Ratio (z) = -0.04315 -0.02289
#
# Static dielectric constant tensor:
#      x y z
#    x 2.204710 -0.004940 0.060530 
#    y -0.004940 2.281490 0.021600 
#    z 0.060530 0.021600 2.285940 
# 
# From -- ./inp_files/404846.got.cif
#   From: 2010.05.17/outbox.cif.g08.bks.cpg/sg2_203_cif.got.tgz:404846.got - 2010.06.03 11:33:40.
