data_PCOD9091248
_publ_section_title
;
Structure prediction by ZEFSAII (Michael W. Deem and Ramdas Pophale) SiO2 
 PCOD9091248
Probable space group: P -1
;
_chemical_formula_sum "Si O2"
_cell_formula_units_Z 16
_cell_length_a 9.220746
_cell_length_b 15.366834
_cell_length_c 5.496253
_cell_angle_alpha 79.397151
_cell_angle_beta 123.140663
_cell_angle_gamma 101.662729
_cell_volume 636.067872
_symmetry_space_group_name_H-M "P -1"
_symmetry_group_IT_number 2
_symmetry_cell_setting 'triclinic'
loop_
_space_group_symop_operation_xyz
x,y,z
-x,-y,-z
loop_
_atom_site_type_symbol
_atom_site_label
_atom_site_fract_x
_atom_site_fract_y
_atom_site_fract_z
Si Si1 0.420611 0.163741 0.823161
Si Si2 0.373938 0.318060 0.354578
Si Si3 0.138442 0.915603 0.933747
Si Si4 0.705679 0.573533 0.389859
Si Si5 0.652278 0.399418 0.181353
Si Si6 0.133487 0.238622 0.796092
Si Si7 0.779509 0.225447 0.242922
Si Si8 0.769718 0.984191 0.548970
O O1 0.444002 0.258149 0.657397
O O2 0.243678 0.166742 0.809988
O O3 0.395879 0.085748 0.644007
O O4 0.588788 0.171260 0.144568
O O5 0.294924 0.405034 0.336836
O O6 0.529956 0.344754 0.299634
O O7 0.212914 0.255682 0.123691
O O8 0.167489 0.814167 0.947096
O O9 0.937065 0.930760 0.774322
O O10 0.192512 0.962654 0.698647
O O11 0.238536 0.960245 0.238146
O O12 0.757809 0.483737 0.369770
O O13 0.809057 0.663388 0.323718
O O14 0.497841 0.568656 0.143312
O O15 0.762551 0.330414 0.188388
O O16 0.932512 0.210751 0.577691
#
# Coordination Sequence:
#
# PCOD9091248 Si02
#       8
#     2   2   2   2   2   2   2   2
#     4  11  23  42  67  93 132 172 214 271 339 391
#     4  10  19  39  64  93 126 174 216 270 329 399
#     4  10  24  42  69 100 134 176 225 277 342 403
#     4   9  19  40  62  90 128 177 208 269 334 391
#     4  10  20  37  64  94 129 165 223 266 331 394
#     4  10  22  41  61  94 131 168 216 271 333 394
#     4  12  23  42  65  99 127 171 221 278 327 400
#     4  10  23  45  68  96 137 181 217 278 344 410
#
# _framework density 25.154547999999998
#
# number of rings (size 3 to 8) (size 9 to 14) (size 15 to 20)
#    0.000    1.750    5.000    0.375    1.750    3.500 
#    4.500    0.625    0.000    0.000    0.000    0.000 
#    0.000    0.000    0.000    0.000    0.000    0.000 
#
# Total GULP energy -89413.413980 kJ/mol
# GULP energy per Si atom -5588.338374 kJ/mol
# Density = 2.509729 g / cm^3
# Si number density = 25.154548 Si / 1000 Ang^3
#
#
#
# Elastic Constant Matrix: (Units=GPa)
#
#
# Indices 1 2 3 4 5 6 
#
# 1 61.8911 56.9671 43.5234 6.9742 7.6088 -13.0470
# 2 56.9671 166.7458 46.0938 46.1325 -12.3548 -33.4644
# 3 43.5234 46.0938 116.9738 37.5276 8.7215 -8.4796
# 4 6.9742 46.1325 37.5276 43.8476 -7.7035 -9.0771
# 5 7.6088 -12.3548 8.7215 -7.7035 41.4062 5.0452
# 6 -13.0470 -33.4644 -8.4796 -9.0771 5.0452 51.4427
#
#
#
# Elastic Compliance Matrix: (Units=1/GPa)
#
#
# Indices 1 2 3 4 5 6 
#
# 1 0.039922 -0.015676 -0.015588 0.023054 -0.004670 0.001884
# 2 -0.015676 0.015604 0.005251 -0.017155 0.002783 0.003741
# 3 -0.015588 0.005251 0.018839 -0.019852 -0.003154 -0.000626
# 4 0.023054 -0.017155 -0.019852 0.055197 0.005015 0.000663
# 5 -0.004670 0.002783 -0.003154 0.005015 0.027647 -0.001720
# 6 0.001884 0.003741 -0.000626 0.000663 -0.001720 0.022533
#
#
# Mechanical properties :
#
#
# Convention : Reuss Voigt Hill
#
# Bulk Modulus (GPa) = 44.76618 70.97549 57.87084
# Shear Modulus (GPa) = 20.90186 40.60773 30.75480
#
# Velocity S-wave (km/s) = 2.88573 4.02223 3.50041
# Velocity P-wave (km/s) = 5.37943 7.06032 6.27640
#
# Compressibility (1/GPa) = 0.02233829
#
# Stress axis : x y z
#
# Youngs Moduli (GPa) = 25.04907 64.08549 53.08273
#
# Poissons Ratio (x) = 1.00460 0.82746
# Poissons Ratio (y) = 0.39267 -0.27874
# Poissons Ratio (z) = 0.39047 -0.33652
#
# Static dielectric constant tensor:
#      x y z
#    x 2.016260 -0.023830 -0.016860 
#    y -0.023830 2.070410 0.003720 
#    z -0.016860 0.003720 1.998870 
# 
# From -- ./inp_files/76228.got.cif
#   From: 2010.05.17/outbox.cif.g08.bks.cpg/sg2_39_cif.got.tgz:76228.got - 2010.06.03 11:33:40.
