data_PCOD9091829
_publ_section_title
;
Structure prediction by ZEFSAII (Michael W. Deem and Ramdas Pophale) SiO2 
 PCOD9091829
Probable space group: P -1
;
_chemical_formula_sum "Si O2"
_cell_formula_units_Z 16
_cell_length_a 8.476524
_cell_length_b 13.723622
_cell_length_c 14.400864
_cell_angle_alpha 134.889344
_cell_angle_beta 122.596479
_cell_angle_gamma 34.535530
_cell_volume 669.043263
_symmetry_space_group_name_H-M "P -1"
_symmetry_group_IT_number 2
_symmetry_cell_setting 'triclinic'
loop_
_space_group_symop_operation_xyz
x,y,z
-x,-y,-z
loop_
_atom_site_type_symbol
_atom_site_label
_atom_site_fract_x
_atom_site_fract_y
_atom_site_fract_z
Si Si1 0.437824 0.735373 0.355324
Si Si2 0.323809 0.287840 0.969854
Si Si3 0.955142 0.049690 0.788477
Si Si4 0.976839 0.490461 0.608776
Si Si5 0.730725 0.316363 0.066632
Si Si6 0.427110 0.286591 0.201452
Si Si7 0.467680 0.468288 0.575380
Si Si8 0.196193 0.108616 0.222002
O O1 0.173745 0.910203 0.325711
O O2 0.594775 0.529643 0.206383
O O3 0.373007 0.720303 0.429175
O O4 0.689498 0.708151 0.420306
O O5 0.471486 0.090693 0.822480
O O6 0.508831 0.318785 0.020715
O O7 0.378415 0.227031 0.054114
O O8 0.000000 0.500000 0.000000
O O9 0.898724 0.942474 0.760020
O O10 0.812575 0.248347 0.939011
O O11 0.281699 0.908380 0.787754
O O12 0.843176 0.566662 0.720584
O O13 0.816653 0.459591 0.482412
O O14 0.877685 0.690850 0.670918
O O15 0.019488 0.146907 0.102772
O O16 0.489536 0.411162 0.277275
O O17 0.500000 0.500000 0.500000
#
# Coordination Sequence:
#
# PCOD9091829 Si02
#       8
#     2   2   2   2   2   2   2   2
#     4  11  22  39  66  97 122 162 215 259 304 374
#     4  11  21  34  64  93 126 162 211 255 308 370
#     4  11  21  37  63  93 132 166 201 252 317 379
#     4  10  24  40  64  91 121 163 217 253 308 368
#     4  10  19  40  61  89 131 175 199 241 320 382
#     4  11  21  42  63  90 126 171 202 257 320 364
#     4  10  22  46  70  84 120 173 211 259 309 371
#     4  10  20  41  59  89 130 171 199 249 313 376
#
# _framework density 23.914746999999998
#
# number of rings (size 3 to 8) (size 9 to 14) (size 15 to 20)
#    0.000    1.500    3.750    2.250    3.500    1.500 
#    0.000    5.000    0.000    0.000    0.000    0.000 
#    0.000    0.000    0.000    0.000    0.000    0.000 
#
# Total GULP energy -89230.185800 kJ/mol
# GULP energy per Si atom -5576.886612 kJ/mol
# Density = 2.386032 g / cm^3
# Si number density = 23.914747 Si / 1000 Ang^3
#
#
#
# Elastic Constant Matrix: (Units=GPa)
#
#
# Indices 1 2 3 4 5 6 
#
# 1 91.9027 37.3371 29.4200 -16.1382 -10.6637 -9.2530
# 2 37.3371 104.4891 4.8534 -38.9368 -14.1634 -17.6258
# 3 29.4200 4.8534 46.4215 -16.3919 -6.1998 8.6664
# 4 -16.1382 -38.9368 -16.3919 46.1669 11.8704 -8.4820
# 5 -10.6637 -14.1634 -6.1998 11.8704 43.3952 -0.9489
# 6 -9.2530 -17.6258 8.6664 -8.4820 -0.9489 26.0805
#
#
#
# Elastic Compliance Matrix: (Units=1/GPa)
#
#
# Indices 1 2 3 4 5 6 
#
# 1 0.017237 -0.004950 -0.011951 -0.001626 0.001494 0.006267
# 2 -0.004950 0.023113 0.005327 0.022935 0.001243 0.019598
# 3 -0.011951 0.005327 0.033981 0.010690 0.000548 -0.008435
# 4 -0.001626 0.022935 0.010690 0.050487 -0.004593 0.027623
# 5 0.001494 0.001243 0.000548 -0.004593 0.025165 0.000610
# 6 0.006267 0.019598 -0.008435 0.027623 0.000610 0.065620
#
#
# Mechanical properties :
#
#
# Convention : Reuss Voigt Hill
#
# Bulk Modulus (GPa) = 19.53816 42.89270 31.21543
# Shear Modulus (GPa) = 19.54564 34.54205 27.04384
#
# Velocity S-wave (km/s) = 2.86196 3.80463 3.36645
# Velocity P-wave (km/s) = 4.37135 6.10531 5.30959
#
# Compressibility (1/GPa) = 0.05118189
#
# Stress axis : x y z
#
# Youngs Moduli (GPa) = 58.01546 43.26638 29.42786
#
# Poissons Ratio (x) = 0.21418 0.35169
# Poissons Ratio (y) = 0.28720 -0.15675
# Poissons Ratio (z) = 0.69333 -0.23047
#
# Static dielectric constant tensor:
#      x y z
#    x 1.973350 0.004830 -0.046540 
#    y 0.004830 1.986070 0.044460 
#    z -0.046540 0.044460 2.005110 
# 
# From -- ./inp_files/207442.got.cif
#   From: 2010.05.17/outbox.cif.g08.bks.cpg/sg2_104_cif.got.tgz:207442.got - 2010.06.03 11:33:40.
