data_PCOD9091600
_publ_section_title
;
Structure prediction by ZEFSAII (Michael W. Deem and Ramdas Pophale) SiO2 
 PCOD9091600
Probable space group: P -1
;
_chemical_formula_sum "Si O2"
_cell_formula_units_Z 14
_cell_length_a 7.588211
_cell_length_b 10.734863
_cell_length_c 9.621307
_cell_angle_alpha 111.938844
_cell_angle_beta 80.998654
_cell_angle_gamma 59.872189
_cell_volume 568.041948
_symmetry_space_group_name_H-M "P -1"
_symmetry_group_IT_number 2
_symmetry_cell_setting 'triclinic'
loop_
_space_group_symop_operation_xyz
x,y,z
-x,-y,-z
loop_
_atom_site_type_symbol
_atom_site_label
_atom_site_fract_x
_atom_site_fract_y
_atom_site_fract_z
Si Si1 0.335501 0.206572 0.102841
Si Si2 0.070370 0.750952 0.930591
Si Si3 0.921709 0.054393 0.234469
Si Si4 0.899874 0.208808 0.598510
Si Si5 0.444194 0.146158 0.355680
Si Si6 0.611033 0.096633 0.602134
Si Si7 0.538624 0.556937 0.873025
O O1 0.457439 0.283530 0.063562
O O2 0.274677 0.251597 0.294500
O O3 0.113367 0.280072 0.069486
O O4 0.500000 0.000000 0.000000
O O5 0.002678 0.879479 0.866522
O O6 0.332690 0.597240 0.820723
O O7 0.054552 0.853241 0.111350
O O8 0.923184 0.142731 0.410351
O O9 0.667407 0.120664 0.267883
O O10 0.715706 0.188424 0.674309
O O11 0.780756 0.403497 0.716048
O O12 0.157178 0.077979 0.563324
O O13 0.434229 0.195972 0.539858
O O14 0.466417 0.974552 0.304102
O O15 0.500000 0.500000 0.000000
#
# Coordination Sequence:
#
# PCOD9091600 Si02
#       7
#     2   2   2   2   2   2   2
#     4  12  24  45  74  98 138 193 234 279 349 427
#     4  11  23  44  70 104 140 185 232 293 347 418
#     4  10  20  42  73  99 137 185 238 283 343 425
#     4  10  23  43  68  99 145 187 230 287 360 413
#     4  10  19  39  68 104 131 173 248 279 334 418
#     4   9  21  39  70 102 133 188 228 292 338 427
#     4  12  30  46  67 108 148 180 234 300 358 410
#
# _framework density 24.646066000000001
#
# number of rings (size 3 to 8) (size 9 to 14) (size 15 to 20)
#    0.000    1.429    2.857    1.714    8.000    1.143 
#    7.714    1.429    0.000    0.000    0.000    0.000 
#    0.000    0.000    0.000    0.000    0.000    0.000 
#
# Total GULP energy -78076.179638 kJ/mol
# GULP energy per Si atom -5576.869974 kJ/mol
# Density = 2.458997 g / cm^3
# Si number density = 24.646066 Si / 1000 Ang^3
#
#
#
# Elastic Constant Matrix: (Units=GPa)
#
#
# Indices 1 2 3 4 5 6 
#
# 1 132.3502 33.1089 12.4724 -13.9978 7.0885 11.9947
# 2 33.1089 83.4675 33.0507 -5.6907 10.3343 5.7242
# 3 12.4724 33.0507 89.1995 -11.9101 12.4577 -1.9329
# 4 -13.9978 -5.6907 -11.9101 44.0494 -5.0830 -9.5770
# 5 7.0885 10.3343 12.4577 -5.0830 27.4461 -8.2421
# 6 11.9947 5.7242 -1.9329 -9.5770 -8.2421 42.9847
#
#
#
# Elastic Compliance Matrix: (Units=1/GPa)
#
#
# Indices 1 2 3 4 5 6 
#
# 1 0.008765 -0.003189 0.000370 0.001904 -0.001436 -0.001856
# 2 -0.003189 0.015821 -0.005117 -0.001329 -0.003799 -0.002472
# 3 0.000370 -0.005117 0.013994 0.003089 -0.003586 0.001208
# 4 0.001904 -0.001329 0.003089 0.026036 0.005417 0.006624
# 5 -0.001436 -0.003799 -0.003586 0.005417 0.043987 0.010386
# 6 -0.001856 -0.002472 0.001208 0.006624 0.010386 0.027633
#
#
# Mechanical properties :
#
#
# Convention : Reuss Voigt Hill
#
# Bulk Modulus (GPa) = 44.03169 51.36457 47.69813
# Shear Modulus (GPa) = 31.31364 37.98839 34.65101
#
# Velocity S-wave (km/s) = 3.56832 3.93027 3.75366
# Velocity P-wave (km/s) = 5.90607 6.44066 6.17915
#
# Compressibility (1/GPa) = 0.02271092
#
# Stress axis : x y z
#
# Youngs Moduli (GPa) = 114.09077 63.20763 71.45747
#
# Poissons Ratio (x) = 0.20154 -0.02647
# Poissons Ratio (y) = 0.36379 0.36561
# Poissons Ratio (z) = -0.04227 0.32340
#
# Static dielectric constant tensor:
#      x y z
#    x 1.940720 -0.002530 0.028810 
#    y -0.002530 2.037970 -0.056140 
#    z 0.028810 -0.056140 2.045760 
# 
# From -- ./inp_files/385532.got.cif
#   From: 2010.05.17/outbox.cif.g08.bks.cpg/sg2_193_cif.got.tgz:385532.got - 2010.06.03 11:33:40.
