data_PCOD9091488
_publ_section_title
;
Structure prediction by ZEFSAII (Michael W. Deem and Ramdas Pophale) SiO2 
 PCOD9091488
Probable space group: P -1
;
_chemical_formula_sum "Si O2"
_cell_formula_units_Z 16
_cell_length_a 5.270088
_cell_length_b 8.971791
_cell_length_c 19.899119
_cell_angle_alpha 123.835441
_cell_angle_beta 127.472718
_cell_angle_gamma 72.812117
_cell_volume 618.917120
_symmetry_space_group_name_H-M "P -1"
_symmetry_group_IT_number 2
_symmetry_cell_setting 'triclinic'
loop_
_space_group_symop_operation_xyz
x,y,z
-x,-y,-z
loop_
_atom_site_type_symbol
_atom_site_label
_atom_site_fract_x
_atom_site_fract_y
_atom_site_fract_z
Si Si1 0.575743 0.335288 0.697229
Si Si2 0.604427 0.076224 0.124511
Si Si3 0.342303 0.663092 0.136346
Si Si4 0.711818 0.330626 0.333160
Si Si5 0.069221 0.847183 0.404305
Si Si6 0.689379 0.953296 0.745675
Si Si7 0.280723 0.152306 0.418751
Si Si8 0.381673 0.289030 0.014499
O O1 0.693609 0.392810 0.804862
O O2 0.403485 0.488327 0.667767
O O3 0.853550 0.279789 0.678318
O O4 0.273657 0.194137 0.628702
O O5 0.611235 0.183286 0.221720
O O6 0.983488 0.070893 0.167349
O O7 0.488865 0.863909 0.052519
O O8 0.435047 0.191261 0.069915
O O9 0.989962 0.686706 0.055398
O O10 0.480786 0.871038 0.213069
O O11 0.515238 0.498054 0.089049
O O12 0.508007 0.237190 0.336301
O O13 0.078837 0.321234 0.410606
O O14 0.352758 0.812973 0.493454
O O15 0.125914 0.044342 0.430514
O O16 0.777772 0.978984 0.687995
#
# Coordination Sequence:
#
# PCOD9091488 Si02
#       8
#     2   2   2   2   2   2   2   2
#     4  12  26  44  70 102 142 180 227 285 340 402
#     4   9  19  38  61  93 129 180 219 282 338 402
#     4  10  19  39  66  94 129 179 225 284 335 401
#     4  11  24  40  67  95 141 180 224 279 345 408
#     4  11  27  46  72 102 136 181 231 283 337 406
#     4  10  21  40  65  94 134 179 223 275 341 407
#     4  10  24  44  70  98 135 180 226 279 340 408
#     4   9  18  36  67  88 133 171 230 281 335 403
#
# _framework density 25.851604999999999
#
# number of rings (size 3 to 8) (size 9 to 14) (size 15 to 20)
#    0.000    1.750    2.500    0.750    5.250    2.000 
#    0.000    6.250    5.500    0.000    0.000    0.000 
#    0.000    0.000    0.000    0.000    0.000    0.000 
#
# Total GULP energy -89403.706157 kJ/mol
# GULP energy per Si atom -5587.731635 kJ/mol
# Density = 2.579277 g / cm^3
# Si number density = 25.851605 Si / 1000 Ang^3
#
#
#
# Elastic Constant Matrix: (Units=GPa)
#
#
# Indices 1 2 3 4 5 6 
#
# 1 62.2528 29.0384 21.3460 0.3553 0.3638 -5.0413
# 2 29.0384 150.8661 25.1814 -34.7103 11.3689 -24.5423
# 3 21.3460 25.1814 94.1938 -38.9040 5.0706 -8.0856
# 4 0.3553 -34.7103 -38.9040 50.3427 -5.0950 3.3937
# 5 0.3638 11.3689 5.0706 -5.0950 33.6868 -0.4222
# 6 -5.0413 -24.5423 -8.0856 3.3937 -0.4222 28.0804
#
#
#
# Elastic Compliance Matrix: (Units=1/GPa)
#
#
# Indices 1 2 3 4 5 6 
#
# 1 0.020986 -0.005346 -0.007395 -0.009294 0.001261 -0.001892
# 2 -0.005346 0.010727 0.002814 0.008802 -0.002553 0.008124
# 3 -0.007395 0.002814 0.018567 0.015913 -0.001201 0.004537
# 4 -0.009294 0.008802 0.015913 0.037945 0.000549 0.006029
# 5 0.001261 -0.002553 -0.001201 0.000549 0.030772 -0.001954
# 6 -0.001892 0.008124 0.004537 0.006029 -0.001954 0.042921
#
#
# Mechanical properties :
#
#
# Convention : Reuss Voigt Hill
#
# Bulk Modulus (GPa) = 32.86855 50.93825 41.90340
# Shear Modulus (GPa) = 26.05350 37.87176 31.96263
#
# Velocity S-wave (km/s) = 3.17805 3.83164 3.52005
# Velocity P-wave (km/s) = 5.11943 6.27074 5.72410
#
# Compressibility (1/GPa) = 0.03042422
#
# Stress axis : x y z
#
# Youngs Moduli (GPa) = 47.65190 93.22499 53.86041
#
# Poissons Ratio (x) = 0.49838 0.39832
# Poissons Ratio (y) = 0.25475 -0.15157
# Poissons Ratio (z) = 0.35241 -0.26235
#
# Static dielectric constant tensor:
#      x y z
#    x 2.079410 0.043190 -0.019540 
#    y 0.043190 2.061420 0.068570 
#    z -0.019540 0.068570 2.124930 
# 
# From -- ./inp_files/289177.got.cif
#   From: 2010.05.17/outbox.cif.g08.bks.cpg/sg2_145_cif.got.tgz:289177.got - 2010.06.03 11:33:40.
