data_PCOD9091886
_publ_section_title
;
Structure prediction by ZEFSAII (Michael W. Deem and Ramdas Pophale) SiO2 
 PCOD9091886
Probable space group: P -1
;
_chemical_formula_sum "Si O2"
_cell_formula_units_Z 14
_cell_length_a 24.945297
_cell_length_b 14.623134
_cell_length_c 5.461785
_cell_angle_alpha 98.217359
_cell_angle_beta 78.304454
_cell_angle_gamma 162.300489
_cell_volume 584.657211
_symmetry_space_group_name_H-M "P -1"
_symmetry_group_IT_number 2
_symmetry_cell_setting 'triclinic'
loop_
_space_group_symop_operation_xyz
x,y,z
-x,-y,-z
loop_
_atom_site_type_symbol
_atom_site_label
_atom_site_fract_x
_atom_site_fract_y
_atom_site_fract_z
Si Si1 0.199650 0.718240 0.041460
Si Si2 0.469150 0.392630 0.735893
Si Si3 0.786773 0.764432 0.537357
Si Si4 0.152854 0.837305 0.119084
Si Si5 0.677156 0.251118 0.298940
Si Si6 0.090681 0.216293 0.812951
Si Si7 0.001083 0.269376 0.435286
O O1 0.349073 0.888487 0.868375
O O2 0.061097 0.517806 0.871116
O O3 0.240432 0.885300 0.168940
O O4 0.083352 0.469517 0.237250
O O5 0.500000 0.500000 0.500000
O O6 0.594876 0.503607 0.656309
O O7 0.500000 0.500000 0.000000
O O8 0.261890 0.030618 0.842368
O O9 0.790080 0.663333 0.416599
O O10 0.920146 0.982086 0.730690
O O11 0.896810 0.009914 0.343557
O O12 0.147473 0.915213 0.335133
O O13 0.771387 0.480242 0.126105
O O14 0.829681 0.483617 0.454799
O O15 0.500000 0.000000 0.500000
O O16 0.000000 0.000000 0.000000
#
# Coordination Sequence:
#
# PCOD9091886 Si02
#       7
#     2   2   2   2   2   2   2
#     4  10  21  39  62  85 124 169 210 263 326 396
#     4  12  26  43  67 102 138 174 219 281 337 397
#     4  10  22  39  63  91 124 167 220 270 333 389
#     4  10  22  38  61  93 122 165 214 261 328 396
#     4  10  23  39  57  89 123 160 217 266 328 382
#     4  10  22  41  65  87 121 173 226 274 328 398
#     4  10  19  40  63  83 122 162 211 261 327 393
#
# _framework density 23.945654999999999
#
# number of rings (size 3 to 8) (size 9 to 14) (size 15 to 20)
#    0.000    1.714    1.429    2.143    4.000    0.571 
#    2.571    0.000    0.000    0.000    0.000    0.000 
#    0.000    0.000    0.000    0.000    0.000    0.000 
#
# Total GULP energy -78132.200997 kJ/mol
# GULP energy per Si atom -5580.871500 kJ/mol
# Density = 2.389115 g / cm^3
# Si number density = 23.945655 Si / 1000 Ang^3
#
#
#
# Elastic Constant Matrix: (Units=GPa)
#
#
# Indices 1 2 3 4 5 6 
#
# 1 145.4070 34.0491 52.9294 -16.4644 -20.0649 5.8159
# 2 34.0491 41.1694 20.8488 -16.8467 -15.6143 11.7738
# 3 52.9294 20.8488 95.2355 -31.7550 -10.7789 16.0657
# 4 -16.4644 -16.8467 -31.7550 35.4296 4.2395 -7.6634
# 5 -20.0649 -15.6143 -10.7789 4.2395 46.5531 -14.1629
# 6 5.8159 11.7738 16.0657 -7.6634 -14.1629 35.4396
#
#
#
# Elastic Compliance Matrix: (Units=1/GPa)
#
#
# Indices 1 2 3 4 5 6 
#
# 1 0.010396 -0.007231 -0.005569 -0.003117 0.002077 0.003377
# 2 -0.007231 0.040195 0.002403 0.015519 0.007395 -0.006945
# 3 -0.005569 0.002403 0.018671 0.014152 -0.000192 -0.005365
# 4 -0.003117 0.015519 0.014152 0.046526 0.002957 0.000183
# 5 0.002077 0.007395 -0.000192 0.002957 0.027222 0.008808
# 6 0.003377 -0.006945 -0.005365 0.000183 0.008808 0.035962
#
#
# Mechanical properties :
#
#
# Convention : Reuss Voigt Hill
#
# Bulk Modulus (GPa) = 20.63219 55.27404 37.95312
# Shear Modulus (GPa) = 23.15636 35.08343 29.11989
#
# Velocity S-wave (km/s) = 3.11310 3.83185 3.49102
# Velocity P-wave (km/s) = 4.64293 6.53534 5.66866
#
# Compressibility (1/GPa) = 0.04846795
#
# Stress axis : x y z
#
# Youngs Moduli (GPa) = 96.18791 24.87866 53.55802
#
# Poissons Ratio (x) = 0.17991 0.29825
# Poissons Ratio (y) = 0.69558 -0.12868
# Poissons Ratio (z) = 0.53564 -0.05978
#
# Static dielectric constant tensor:
#      x y z
#    x 2.027430 -0.078980 0.011980 
#    y -0.078980 1.977610 0.000720 
#    z 0.011980 0.000720 1.987880 
# 
# From -- ./inp_files/46375.got.cif
#   From: 2010.05.17/outbox.cif.g08.bks.cpg/sg2_24_cif.got.tgz:46375.got - 2010.06.03 11:33:40.
