data_PCOD9091047
_publ_section_title
;
Structure prediction by ZEFSAII (Michael W. Deem and Ramdas Pophale) SiO2 
 PCOD9091047
Probable space group: P -1
;
_chemical_formula_sum "Si O2"
_cell_formula_units_Z 16
_cell_length_a 7.862708
_cell_length_b 14.570587
_cell_length_c 13.364267
_cell_angle_alpha 121.532709
_cell_angle_beta 146.839474
_cell_angle_gamma 56.549785
_cell_volume 692.376352
_symmetry_space_group_name_H-M "P -1"
_symmetry_group_IT_number 2
_symmetry_cell_setting 'triclinic'
loop_
_space_group_symop_operation_xyz
x,y,z
-x,-y,-z
loop_
_atom_site_type_symbol
_atom_site_label
_atom_site_fract_x
_atom_site_fract_y
_atom_site_fract_z
Si Si1 0.253894 0.415435 0.755747
Si Si2 0.454110 0.787713 0.106451
Si Si3 0.263644 0.200262 0.286971
Si Si4 0.324984 0.916280 0.918254
Si Si5 0.362245 0.506281 0.169842
Si Si6 0.890017 0.286535 0.353644
Si Si7 0.374355 0.414500 0.456832
Si Si8 0.394466 0.983482 0.325868
O O1 0.355083 0.339320 0.858735
O O2 0.560447 0.434981 0.859412
O O3 0.061760 0.345069 0.553455
O O4 0.007725 0.534851 0.708604
O O5 0.527905 0.863511 0.276166
O O6 0.506968 0.844111 0.059659
O O7 0.072029 0.796261 0.930369
O O8 0.444886 0.288181 0.383588
O O9 0.462860 0.076318 0.336394
O O10 0.138929 0.247949 0.363074
O O11 0.233763 0.823769 0.748017
O O12 0.992265 0.987372 0.841652
O O13 0.500000 0.000000 0.000000
O O14 0.594030 0.383527 0.224811
O O15 0.477339 0.574583 0.355615
O O16 0.000000 0.500000 0.000000
O O17 0.500000 0.500000 0.500000
O O18 0.500000 0.000000 0.500000
#
# Coordination Sequence:
#
# PCOD9091047 Si02
#       8
#     2   2   2   2   2   2   2   2
#     4  11  21  42  65  86 130 168 207 260 311 385
#     4  10  22  38  66  95 118 168 212 247 325 372
#     4  10  19  39  63  84 124 165 201 260 307 371
#     4  10  22  41  62  89 127 160 211 267 307 369
#     4  11  23  38  63  94 122 165 214 258 313 380
#     4   9  18  41  61  83 121 172 203 250 322 362
#     4  11  24  41  60  92 128 165 211 256 316 370
#     4  10  21  41  65  90 118 164 214 251 316 377
#
# _framework density 23.108819
#
# number of rings (size 3 to 8) (size 9 to 14) (size 15 to 20)
#    0.000    2.000    2.500    3.750    1.750    3.500 
#    9.000    1.250    0.000    0.000    0.000    0.000 
#    0.000    0.000    0.000    0.000    0.000    0.000 
#
# Total GULP energy -89427.539308 kJ/mol
# GULP energy per Si atom -5589.221207 kJ/mol
# Density = 2.305622 g / cm^3
# Si number density = 23.108819 Si / 1000 Ang^3
#
#
#
# Elastic Constant Matrix: (Units=GPa)
#
#
# Indices 1 2 3 4 5 6 
#
# 1 55.8311 23.1444 22.7978 6.2913 14.2535 26.7777
# 2 23.1444 128.2633 39.1980 14.3728 12.1190 29.8091
# 3 22.7978 39.1980 87.7616 9.0453 -6.1488 17.3236
# 4 6.2913 14.3728 9.0453 51.1495 3.5638 1.8831
# 5 14.2535 12.1190 -6.1488 3.5638 32.5077 12.3937
# 6 26.7777 29.8091 17.3236 1.8831 12.3937 43.2936
#
#
#
# Elastic Compliance Matrix: (Units=1/GPa)
#
#
# Indices 1 2 3 4 5 6 
#
# 1 0.028738 0.000624 -0.005514 -0.001643 -0.008558 -0.013477
# 2 0.000624 0.010553 -0.003822 -0.001984 -0.002707 -0.005261
# 3 -0.005514 -0.003822 0.015726 -0.001490 0.007915 -0.002452
# 4 -0.001643 -0.001984 -0.001490 0.020621 -0.002106 0.002684
# 5 -0.008558 -0.002707 0.007915 -0.002106 0.040069 -0.007389
# 6 -0.013477 -0.005261 -0.002452 0.002684 -0.007389 0.038036
#
#
# Mechanical properties :
#
#
# Convention : Reuss Voigt Hill
#
# Bulk Modulus (GPa) = 26.60101 49.12627 37.86364
# Shear Modulus (GPa) = 27.21878 37.83788 32.52833
#
# Velocity S-wave (km/s) = 3.43571 4.05084 3.75589
# Velocity P-wave (km/s) = 5.22255 6.57145 5.93544
#
# Compressibility (1/GPa) = 0.03759255
#
# Stress axis : x y z
#
# Youngs Moduli (GPa) = 34.79773 94.76203 63.58866
#
# Poissons Ratio (x) = -0.05916 0.35063
# Poissons Ratio (y) = -0.02173 0.24305
# Poissons Ratio (z) = 0.19188 0.36219
#
# Static dielectric constant tensor:
#      x y z
#    x 1.906830 0.023240 -0.016230 
#    y 0.023240 1.883690 0.017790 
#    z -0.016230 0.017790 1.896060 
# 
# From -- ./inp_files/187359.got.cif
#   From: 2010.05.17/outbox.cif.g08.bks.cpg/sg2_94_cif.got.tgz:187359.got - 2010.06.03 11:33:40.
