data_PCOD9091922
_publ_section_title
;
Structure prediction by ZEFSAII (Michael W. Deem and Ramdas Pophale) SiO2 
 PCOD9091922
Probable space group: P -1
;
_chemical_formula_sum "Si O2"
_cell_formula_units_Z 16
_cell_length_a 8.373686
_cell_length_b 12.972393
_cell_length_c 12.099424
_cell_angle_alpha 65.965035
_cell_angle_beta 85.827550
_cell_angle_gamma 38.981474
_cell_volume 683.722175
_symmetry_space_group_name_H-M "P -1"
_symmetry_group_IT_number 2
_symmetry_cell_setting 'triclinic'
loop_
_space_group_symop_operation_xyz
x,y,z
-x,-y,-z
loop_
_atom_site_type_symbol
_atom_site_label
_atom_site_fract_x
_atom_site_fract_y
_atom_site_fract_z
Si Si1 0.140721 0.634899 0.029438
Si Si2 0.324416 0.137639 0.214528
Si Si3 0.554753 0.216997 0.886956
Si Si4 0.230430 0.193915 0.833918
Si Si5 0.132406 0.892783 0.868198
Si Si6 0.558223 0.211465 0.291888
Si Si7 0.465751 0.197505 0.542523
Si Si8 0.880444 0.507774 0.372272
O O1 0.381357 0.417308 0.160223
O O2 0.963218 0.762885 0.093994
O O3 0.197905 0.721835 0.934860
O O4 0.939814 0.688928 0.927648
O O5 0.382897 0.202414 0.268693
O O6 0.598423 0.968706 0.196328
O O7 0.317247 0.018139 0.323549
O O8 0.290524 0.436603 0.749923
O O9 0.639777 0.193981 0.016683
O O10 0.826627 0.081380 0.856650
O O11 0.448470 0.149598 0.907291
O O12 0.049729 0.400140 0.698615
O O13 0.161682 0.939232 0.730094
O O14 0.583793 0.189871 0.431440
O O15 0.343432 0.349363 0.579115
O O16 0.184378 0.286745 0.484447
#
# Coordination Sequence:
#
# PCOD9091922 Si02
#       8
#     2   2   2   2   2   2   2   2
#     4  12  22  40  61  93 122 162 202 254 300 357
#     4  11  23  37  64  94 119 156 206 252 302 356
#     4   9  19  39  60  91 121 156 204 254 296 352
#     4   9  18  37  65  90 113 152 205 254 299 338
#     4  11  23  36  60  90 131 160 199 245 308 365
#     4  12  25  38  57  93 130 163 194 249 310 361
#     4  10  19  40  63  93 119 156 203 254 303 357
#     4   8  17  37  66  90 114 152 203 258 292 349
#
# _framework density 23.401318
#
# number of rings (size 3 to 8) (size 9 to 14) (size 15 to 20)
#    0.750    1.000    2.500    2.250    3.500    1.000 
#    0.000    2.500    0.000    4.500    0.000    0.000 
#    0.000    0.000    0.000    0.000    0.000    0.000 
#
# Total GULP energy -89301.541297 kJ/mol
# GULP energy per Si atom -5581.346331 kJ/mol
# Density = 2.334806 g / cm^3
# Si number density = 23.401318 Si / 1000 Ang^3
#
#
#
# Elastic Constant Matrix: (Units=GPa)
#
#
# Indices 1 2 3 4 5 6 
#
# 1 52.7788 7.6125 13.9928 13.8396 -6.0600 -1.1764
# 2 7.6125 36.0260 24.1229 20.0588 -10.9542 -13.0994
# 3 13.9928 24.1229 123.2697 20.3013 -16.1216 -19.7082
# 4 13.8396 20.0588 20.3013 47.7267 -13.2746 -7.8731
# 5 -6.0600 -10.9542 -16.1216 -13.2746 31.8223 8.3661
# 6 -1.1764 -13.0994 -19.7082 -7.8731 8.3661 23.9470
#
#
#
# Elastic Compliance Matrix: (Units=1/GPa)
#
#
# Indices 1 2 3 4 5 6 
#
# 1 0.020962 -0.001276 -0.001623 -0.004957 0.001492 -0.003155
# 2 -0.001276 0.044580 -0.003368 -0.013289 0.003673 0.015899
# 3 -0.001623 -0.003368 0.010253 -0.001053 0.001833 0.005529
# 4 -0.004957 -0.013289 -0.001053 0.030165 0.006746 -0.000819
# 5 0.001492 0.003673 0.001833 0.006746 0.038747 -0.007728
# 6 -0.003155 0.015899 0.005529 -0.000819 -0.007728 0.057282
#
#
# Mechanical properties :
#
#
# Convention : Reuss Voigt Hill
#
# Bulk Modulus (GPa) = 15.80760 33.72568 24.76664
# Shear Modulus (GPa) = 21.22157 31.78896 26.50527
#
# Velocity S-wave (km/s) = 3.01467 3.68968 3.36912
# Velocity P-wave (km/s) = 4.34595 5.70919 5.07357
#
# Compressibility (1/GPa) = 0.06326072
#
# Stress axis : x y z
#
# Youngs Moduli (GPa) = 47.70498 22.43172 97.53470
#
# Poissons Ratio (x) = 0.02863 0.15826
# Poissons Ratio (y) = 0.06088 0.32852
# Poissons Ratio (z) = 0.07741 0.07555
#
# Static dielectric constant tensor:
#      x y z
#    x 1.870340 -0.017090 -0.003980 
#    y -0.017090 1.988140 -0.040190 
#    z -0.003980 -0.040190 1.952670 
# 
# From -- ./inp_files/398791.got.cif
#   From: 2010.05.17/outbox.cif.g08.bks.cpg/sg2_200_cif.got.tgz:398791.got - 2010.06.03 11:33:40.
