data_PCOD9091836
_publ_section_title
;
Structure prediction by ZEFSAII (Michael W. Deem and Ramdas Pophale) SiO2 
 PCOD9091836
Probable space group: P -1
;
_chemical_formula_sum "Si O2"
_cell_formula_units_Z 16
_cell_length_a 11.307722
_cell_length_b 18.081896
_cell_length_c 14.026127
_cell_angle_alpha 143.145397
_cell_angle_beta 29.251452
_cell_angle_gamma 147.013235
_cell_volume 737.372183
_symmetry_space_group_name_H-M "P -1"
_symmetry_group_IT_number 2
_symmetry_cell_setting 'triclinic'
loop_
_space_group_symop_operation_xyz
x,y,z
-x,-y,-z
loop_
_atom_site_type_symbol
_atom_site_label
_atom_site_fract_x
_atom_site_fract_y
_atom_site_fract_z
Si Si1 0.082964 0.985742 0.293397
Si Si2 0.266733 0.316038 0.518802
Si Si3 0.125251 0.723313 0.491322
Si Si4 0.846101 0.409935 0.851192
Si Si5 0.556206 0.158694 0.421768
Si Si6 0.575267 0.693496 0.806503
Si Si7 0.499932 0.953966 0.102326
Si Si8 0.213691 0.593018 0.626152
O O1 0.131890 0.145988 0.428350
O O2 0.242747 0.963757 0.247342
O O3 0.246042 0.971280 0.072617
O O4 0.761725 0.877800 0.400792
O O5 0.418484 0.371226 0.366628
O O6 0.484498 0.360414 0.495960
O O7 0.047811 0.372691 0.733413
O O8 0.899902 0.775629 0.689681
O O9 0.926468 0.557298 0.483097
O O10 0.252785 0.708940 0.286040
O O11 0.336726 0.803709 0.507919
O O12 0.018868 0.553617 0.817290
O O13 0.607708 0.403013 0.078398
O O14 0.748408 0.285947 0.347292
O O15 0.563440 0.024752 0.233529
O O16 0.455515 0.798766 0.980476
#
# Coordination Sequence:
#
# PCOD9091836 Si02
#       8
#     2   2   2   2   2   2   2   2
#     4  10  22  39  62  94 121 153 198 257 302 349
#     4  10  19  40  61  92 123 146 206 255 297 357
#     4   9  24  42  56  91 123 162 207 234 288 371
#     4   9  21  38  60  89 119 161 199 244 299 351
#     4  12  22  41  66  85 125 165 194 246 305 349
#     4  10  21  40  64  86 127 155 197 254 301 352
#     4  10  22  39  61  97 118 150 207 250 301 357
#     4  10  22  40  61  89 123 157 204 248 288 367
#
# _framework density 21.698677
#
# number of rings (size 3 to 8) (size 9 to 14) (size 15 to 20)
#    0.750    1.250    1.250    1.875    1.750    2.000 
#    2.250    9.375    0.000    0.000    0.000    0.000 
#    0.000    0.000    0.000    0.000    0.000    0.000 
#
# Total GULP energy -89278.828660 kJ/mol
# GULP energy per Si atom -5579.926791 kJ/mol
# Density = 2.164929 g / cm^3
# Si number density = 21.698677 Si / 1000 Ang^3
#
#
#
# Elastic Constant Matrix: (Units=GPa)
#
#
# Indices 1 2 3 4 5 6 
#
# 1 66.8632 25.8436 18.5003 -12.4585 8.3818 16.4717
# 2 25.8436 47.0175 23.9001 -9.1595 -0.3882 11.2950
# 3 18.5003 23.9001 96.1361 -22.8812 16.1492 4.5046
# 4 -12.4585 -9.1595 -22.8812 18.8556 -8.9959 2.8269
# 5 8.3818 -0.3882 16.1492 -8.9959 26.0341 5.4286
# 6 16.4717 11.2950 4.5046 2.8269 5.4286 41.3173
#
#
#
# Elastic Compliance Matrix: (Units=1/GPa)
#
#
# Indices 1 2 3 4 5 6 
#
# 1 0.022351 -0.009067 0.001617 0.012113 -0.002671 -0.007086
# 2 -0.009067 0.032819 -0.005784 0.009577 0.011750 -0.006925
# 3 0.001617 -0.005784 0.016151 0.015686 -0.004945 -0.001248
# 4 0.012113 0.009577 0.015686 0.099489 0.024902 -0.019236
# 5 -0.002671 0.011750 -0.004945 0.024902 0.053268 -0.010311
# 6 -0.007086 -0.006925 -0.001248 -0.019236 -0.010311 0.031728
#
#
# Mechanical properties :
#
#
# Convention : Reuss Voigt Hill
#
# Bulk Modulus (GPa) = 22.29562 38.50055 30.39809
# Shear Modulus (GPa) = 16.82225 26.69292 21.75759
#
# Velocity S-wave (km/s) = 2.78738 3.51117 3.17000
# Velocity P-wave (km/s) = 4.54497 5.84975 5.23814
#
# Compressibility (1/GPa) = 0.04485186
#
# Stress axis : x y z
#
# Youngs Moduli (GPa) = 44.74161 30.47014 61.91460
#
# Poissons Ratio (x) = 0.27628 -0.10010
# Poissons Ratio (y) = 0.40568 0.35812
# Poissons Ratio (z) = -0.07233 0.17624
#
# Static dielectric constant tensor:
#      x y z
#    x 1.780320 -0.034380 0.012630 
#    y -0.034380 1.857790 -0.026470 
#    z 0.012630 -0.026470 1.805700 
# 
# From -- ./inp_files/523788.got.cif
#   From: 2010.05.17/outbox.cif.g08.bks.cpg/sg2_262_cif.got.tgz:523788.got - 2010.06.03 11:33:40.
