data_PCOD9091863
_publ_section_title
;
Structure prediction by ZEFSAII (Michael W. Deem and Ramdas Pophale) SiO2 
 PCOD9091863
Probable space group: P -1
;
_chemical_formula_sum "Si O2"
_cell_formula_units_Z 16
_cell_length_a 8.893033
_cell_length_b 8.871513
_cell_length_c 17.464000
_cell_angle_alpha 130.432927
_cell_angle_beta 121.611718
_cell_angle_gamma 44.470897
_cell_volume 729.817996
_symmetry_space_group_name_H-M "P -1"
_symmetry_group_IT_number 2
_symmetry_cell_setting 'triclinic'
loop_
_space_group_symop_operation_xyz
x,y,z
-x,-y,-z
loop_
_atom_site_type_symbol
_atom_site_label
_atom_site_fract_x
_atom_site_fract_y
_atom_site_fract_z
Si Si1 0.183671 0.705930 0.625526
Si Si2 0.201867 0.281020 0.879363
Si Si3 0.794874 0.377177 0.896356
Si Si4 0.538907 0.739684 0.815937
Si Si5 0.460366 0.158308 0.468743
Si Si6 0.164055 0.104374 0.272512
Si Si7 0.047236 0.518800 0.267865
Si Si8 0.254176 0.731497 0.491305
O O1 0.377277 0.691869 0.715819
O O2 0.273604 0.434517 0.534071
O O3 0.147948 0.842864 0.581390
O O4 0.982170 0.824904 0.667041
O O5 0.012334 0.286457 0.876201
O O6 0.153862 0.309827 0.785463
O O7 0.416906 0.027356 0.877868
O O8 0.195744 0.507733 0.984503
O O9 0.607177 0.598486 0.867883
O O10 0.779363 0.151624 0.825419
O O11 0.752999 0.627130 0.785870
O O12 0.374522 0.088756 0.351064
O O13 0.682539 0.124152 0.495848
O O14 0.500000 0.000000 0.500000
O O15 0.038121 0.324011 0.250866
O O16 0.120394 0.648231 0.386093
O O17 0.500000 0.500000 0.500000
#
# Coordination Sequence:
#
# PCOD9091863 Si02
#       8
#     2   2   2   2   2   2   2   2
#     4  11  21  39  63  91 134 173 218 256 320 396
#     4  10  23  44  68  98 124 174 221 272 333 390
#     4  10  23  42  70  96 130 165 223 279 328 380
#     4  11  20  43  69  93 127 176 217 267 328 401
#     4  11  22  37  61  94 133 172 217 267 320 385
#     4  12  23  41  61 100 134 170 219 276 319 382
#     4  11  23  42  67  93 139 169 217 271 325 389
#     4  10  19  40  62  89 132 179 211 255 322 396
#
# _framework density 21.923272999999998
#
# number of rings (size 3 to 8) (size 9 to 14) (size 15 to 20)
#    0.000    1.250    6.250    1.500    1.750    0.500 
#    6.750    1.875    0.000    0.000    0.000    0.000 
#    0.000    0.000    0.000    0.000    0.000    0.000 
#
# Total GULP energy -89476.770364 kJ/mol
# GULP energy per Si atom -5592.298148 kJ/mol
# Density = 2.187337 g / cm^3
# Si number density = 21.923273 Si / 1000 Ang^3
#
#
#
# Elastic Constant Matrix: (Units=GPa)
#
#
# Indices 1 2 3 4 5 6 
#
# 1 64.9900 29.8940 21.6380 -1.3497 -1.4115 18.5061
# 2 29.8940 97.7698 27.0729 1.2195 2.3665 15.2224
# 3 21.6380 27.0729 115.8160 2.8589 17.2146 16.7871
# 4 -1.3497 1.2195 2.8589 24.6309 16.6641 -1.4679
# 5 -1.4115 2.3665 17.2146 16.6641 21.6928 0.7079
# 6 18.5061 15.2224 16.7871 -1.4679 0.7079 39.9740
#
#
#
# Elastic Compliance Matrix: (Units=1/GPa)
#
#
# Indices 1 2 3 4 5 6 
#
# 1 0.020390 -0.004554 -0.002667 -0.003270 0.006675 -0.006824
# 2 -0.004554 0.012436 -0.001899 -0.001460 0.001037 -0.001902
# 3 -0.002667 -0.001899 0.012284 0.010179 -0.017452 -0.002518
# 4 -0.003270 -0.001460 0.010179 0.093756 -0.080240 0.002659
# 5 0.006675 0.001037 -0.017452 -0.080240 0.121948 -0.001262
# 6 -0.006824 -0.001902 -0.002518 0.002659 -0.001262 0.030077
#
#
# Mechanical properties :
#
#
# Convention : Reuss Voigt Hill
#
# Bulk Modulus (GPa) = 37.21657 48.42061 42.81859
# Shear Modulus (GPa) = 15.71895 30.59094 23.15495
#
# Velocity S-wave (km/s) = 2.68059 3.73951 3.25342
# Velocity P-wave (km/s) = 5.15688 6.38589 5.80401
#
# Compressibility (1/GPa) = 0.02686975
#
# Stress axis : x y z
#
# Youngs Moduli (GPa) = 49.04372 80.41476 81.40496
#
# Poissons Ratio (x) = 0.36623 0.21713
# Poissons Ratio (y) = 0.22336 0.15455
# Poissons Ratio (z) = 0.13081 0.15267
#
# Static dielectric constant tensor:
#      x y z
#    x 1.807630 0.002140 0.000130 
#    y 0.002140 1.878360 0.000390 
#    z 0.000130 0.000390 1.806950 
# 
# From -- ./inp_files/557610.got.cif
#   From: 2010.05.17/outbox.cif.g08.bks.cpg/sg2_279_cif.got.tgz:557610.got - 2010.06.03 11:33:40.
