data_PCOD9091309
_publ_section_title
;
Structure prediction by ZEFSAII (Michael W. Deem and Ramdas Pophale) SiO2 
 PCOD9091309
Probable space group: P -1
;
_chemical_formula_sum "Si O2"
_cell_formula_units_Z 14
_cell_length_a 17.297028
_cell_length_b 6.678483
_cell_length_c 12.281524
_cell_angle_alpha 55.584914
_cell_angle_beta 48.261488
_cell_angle_gamma 84.355633
_cell_volume 779.281871
_symmetry_space_group_name_H-M "P -1"
_symmetry_group_IT_number 2
_symmetry_cell_setting 'triclinic'
loop_
_space_group_symop_operation_xyz
x,y,z
-x,-y,-z
loop_
_atom_site_type_symbol
_atom_site_label
_atom_site_fract_x
_atom_site_fract_y
_atom_site_fract_z
Si Si1 0.489651 0.204082 0.763425
Si Si2 0.869543 0.555936 0.024845
Si Si3 0.369583 0.817846 0.563219
Si Si4 0.606671 0.429726 0.938191
Si Si5 0.315628 0.321194 0.429199
Si Si6 0.926823 0.077240 0.128356
Si Si7 0.670880 0.532070 0.097836
O O1 0.543365 0.225694 0.585881
O O2 0.595012 0.405496 0.678723
O O3 0.389728 0.298791 0.843447
O O4 0.438499 0.889867 0.940549
O O5 0.806493 0.652147 0.964197
O O6 0.765100 0.414810 0.255958
O O7 0.987235 0.780899 0.894771
O O8 0.892977 0.305615 0.042172
O O9 0.369185 0.104759 0.453835
O O10 0.383754 0.754065 0.695804
O O11 0.695335 0.605754 0.707518
O O12 0.649777 0.497602 0.000531
O O13 0.500000 0.500000 0.000000
O O14 0.191503 0.175291 0.647354
O O15 0.000000 0.000000 0.000000
#
# Coordination Sequence:
#
# PCOD9091309 Si02
#       7
#     2   2   2   2   2   2   2
#     4  12  21  35  62  87 123 159 202 236 296 362
#     4   8  20  38  58  90 116 149 191 255 297 338
#     4   9  20  38  58  90 120 149 197 246 301 340
#     4  12  24  41  55  84 131 166 193 238 294 364
#     4  11  23  38  61  90 120 157 201 242 296 357
#     4  10  19  39  65  86 117 150 202 248 299 344
#     4  10  23  38  60  89 125 157 194 246 299 352
#
# _framework density 17.965259
#
# number of rings (size 3 to 8) (size 9 to 14) (size 15 to 20)
#    0.857    0.857    2.857    1.714    0.000    4.571 
#    0.000    0.714    0.000    1.714    0.000    0.000 
#    0.000    0.000    0.000    0.000    0.000    0.000 
#
# Total GULP energy -78038.333505 kJ/mol
# GULP energy per Si atom -5574.166679 kJ/mol
# Density = 1.792437 g / cm^3
# Si number density = 17.965259 Si / 1000 Ang^3
#
#
#
# Elastic Constant Matrix: (Units=GPa)
#
#
# Indices 1 2 3 4 5 6 
#
# 1 107.6227 53.7459 35.1249 6.7942 8.0784 -15.1099
# 2 53.7459 106.3931 47.1168 9.0683 3.7326 -14.7378
# 3 35.1249 47.1168 62.0332 8.0336 14.5262 -13.8332
# 4 6.7942 9.0683 8.0336 30.5141 0.2695 1.0734
# 5 8.0784 3.7326 14.5262 0.2695 33.6925 10.2451
# 6 -15.1099 -14.7378 -13.8332 1.0734 10.2451 20.6995
#
#
#
# Elastic Compliance Matrix: (Units=1/GPa)
#
#
# Indices 1 2 3 4 5 6 
#
# 1 0.013755 -0.005217 -0.000498 -0.001639 -0.005110 0.008608
# 2 -0.005217 0.016583 -0.010963 -0.000866 0.004625 -0.001572
# 3 -0.000498 -0.010963 0.037773 -0.007394 -0.023780 0.029227
# 4 -0.001639 -0.000866 -0.007394 0.035704 0.007072 -0.012106
# 5 -0.005110 0.004625 -0.023780 0.007072 0.053756 -0.043301
# 6 0.008608 -0.001572 0.029227 -0.012106 -0.043301 0.095066
#
#
# Mechanical properties :
#
#
# Convention : Reuss Voigt Hill
#
# Bulk Modulus (GPa) = 28.77255 60.89156 44.83206
# Shear Modulus (GPa) = 16.80233 26.31867 21.56050
#
# Velocity S-wave (km/s) = 3.06153 3.83165 3.46804
# Velocity P-wave (km/s) = 5.34301 7.31731 6.40667
#
# Compressibility (1/GPa) = 0.03475535
#
# Stress axis : x y z
#
# Youngs Moduli (GPa) = 72.70158 60.30136 26.47396
#
# Poissons Ratio (x) = 0.31457 0.01318
# Poissons Ratio (y) = 0.37926 0.29025
# Poissons Ratio (z) = 0.03619 0.66111
#
# Static dielectric constant tensor:
#      x y z
#    x 1.645550 0.011560 -0.007090 
#    y 0.011560 1.620830 -0.001400 
#    z -0.007090 -0.001400 1.628220 
# 
# From -- ./inp_files/458976.got.cif
#   From: 2010.05.17/outbox.cif.g08.bks.cpg/sg2_230_cif.got.tgz:458976.got - 2010.06.03 11:33:40.
