data_PCOD9091834
_publ_section_title
;
Structure prediction by ZEFSAII (Michael W. Deem and Ramdas Pophale) SiO2 
 PCOD9091834
Probable space group: P -1
;
_chemical_formula_sum "Si O2"
_cell_formula_units_Z 15
_cell_length_a 9.254519
_cell_length_b 11.224549
_cell_length_c 15.423199
_cell_angle_alpha 153.224086
_cell_angle_beta 71.053713
_cell_angle_gamma 107.381719
_cell_volume 682.511783
_symmetry_space_group_name_H-M "P -1"
_symmetry_group_IT_number 2
_symmetry_cell_setting 'triclinic'
loop_
_space_group_symop_operation_xyz
x,y,z
-x,-y,-z
loop_
_atom_site_type_symbol
_atom_site_label
_atom_site_fract_x
_atom_site_fract_y
_atom_site_fract_z
Si Si1 0.933905 0.072607 0.758334
Si Si2 0.000000 0.000000 0.000000
Si Si3 0.387826 0.512315 0.390275
Si Si4 0.606815 0.034216 0.875245
Si Si5 0.273167 0.864518 0.788496
Si Si6 0.291138 0.526914 0.733049
Si Si7 0.136124 0.576181 0.352547
Si Si8 0.016555 0.574852 0.189718
O O1 0.946293 0.217489 0.757457
O O2 0.756887 0.998724 0.764659
O O3 0.988725 0.294381 0.962522
O O4 0.037010 0.814232 0.565712
O O5 0.122081 0.024879 0.910734
O O6 0.935445 0.706355 0.787402
O O7 0.391669 0.200666 0.206425
O O8 0.295019 0.636238 0.567533
O O9 0.563995 0.611691 0.426743
O O10 0.304489 0.586802 0.367370
O O11 0.436179 0.014814 0.857631
O O12 0.635154 0.311047 0.096839
O O13 0.234472 0.744517 0.814971
O O14 0.145798 0.372168 0.696380
O O15 0.131340 0.593843 0.260636
#
# Coordination Sequence:
#
# PCOD9091834 Si02
#       8
#     2   1   2   2   2   2   2   2
#     4  10  24  44  69  96 122 178 223 259 308 394
#     4  12  24  38  62  96 134 164 200 274 328 372
#     4  11  24  36  61  96 134 160 212 264 336 378
#     4  10  20  38  64  90 127 167 215 258 322 386
#     4  11  22  36  60  93 130 169 208 263 323 390
#     4  10  19  40  61  91 123 175 211 259 314 389
#     4  12  25  40  63 102 130 168 208 274 325 375
#     4  10  23  45  71  90 130 170 228 260 310 378
#
# _framework density 21.977641999999999
#
# number of rings (size 3 to 8) (size 9 to 14) (size 15 to 20)
#    0.000    1.333    1.333    6.000    5.600    1.067 
#    0.000    0.667    0.000    3.200    0.000    0.000 
#    0.000    0.000    0.000    0.000    0.000    0.000 
#
# Total GULP energy -83559.036019 kJ/mol
# GULP energy per Si atom -5570.602401 kJ/mol
# Density = 2.192762 g / cm^3
# Si number density = 21.977642 Si / 1000 Ang^3
#
#
#
# Elastic Constant Matrix: (Units=GPa)
#
#
# Indices 1 2 3 4 5 6 
#
# 1 -203.9277 52.4447 -45.9120 33.6120 72.0189 -24.4052
# 2 52.4447 107.9494 4.1746 -16.9234 -6.6864 7.4304
# 3 -45.9120 4.1746 85.0730 6.7369 3.3975 -4.2354
# 4 33.6120 -16.9234 6.7369 15.5210 -4.1507 -0.9190
# 5 72.0189 -6.6864 3.3975 -4.1507 21.1141 -3.7677
# 6 -24.4052 7.4304 -4.2354 -0.9190 -3.7677 15.3918
#
#
#
# Elastic Compliance Matrix: (Units=1/GPa)
#
#
# Indices 1 2 3 4 5 6 
#
# 1 -0.001016 0.001951 -0.001417 0.006290 0.005321 -0.001264
# 2 0.001951 0.008892 0.000323 0.004339 -0.003335 -0.001668
# 3 -0.001417 0.000323 0.010937 -0.000343 0.003361 0.001408
# 4 0.006290 0.004339 -0.000343 0.054155 -0.007752 0.009120
# 5 0.005321 -0.003335 0.003361 -0.007752 0.029244 0.017668
# 6 -0.001264 -0.001668 0.001408 0.009120 0.017668 0.069027
#
#
# Mechanical properties :
#
#
# Convention : Reuss Voigt Hill
#
# Bulk Modulus (GPa) = 48.71801 1.16770 24.94286
# Shear Modulus (GPa) = 28.34999 8.96454 18.65726
#
# Velocity S-wave (km/s) = 3.59548 2.02183 2.91678
# Velocity P-wave (km/s) = 6.28107 2.44599 4.76627
#
# Compressibility (1/GPa) = 0.02052629
#
# Stress axis : x y z
#
# Youngs Moduli (GPa) = -984.60730 112.46343 91.43368
#
# Poissons Ratio (x) = -0.21941 0.12960
# Poissons Ratio (y) = 1.92090 -0.02954
# Poissons Ratio (z) = -1.39558 -0.03634
#
# Static dielectric constant tensor:
#      x y z
#    x 1.724690 0.101170 0.068140 
#    y 0.101170 1.708050 -0.050660 
#    z 0.068140 -0.050660 1.832130 
# 
# From -- ./inp_files/501128.got.cif
#   From: 2010.05.17/outbox.cif.g08.bks.cpg/sg2_251_cif.got.tgz:501128.got - 2010.06.03 11:33:40.
