data_PCOD9091545
_publ_section_title
;
Structure prediction by ZEFSAII (Michael W. Deem and Ramdas Pophale) SiO2 
 PCOD9091545
Probable space group: P -1
;
_chemical_formula_sum "Si O2"
_cell_formula_units_Z 12
_cell_length_a 13.328174
_cell_length_b 7.108659
_cell_length_c 9.431719
_cell_angle_alpha 74.953669
_cell_angle_beta 140.596791
_cell_angle_gamma 80.066838
_cell_volume 434.653584
_symmetry_space_group_name_H-M "P -1"
_symmetry_group_IT_number 2
_symmetry_cell_setting 'triclinic'
loop_
_space_group_symop_operation_xyz
x,y,z
-x,-y,-z
loop_
_atom_site_type_symbol
_atom_site_label
_atom_site_fract_x
_atom_site_fract_y
_atom_site_fract_z
Si Si1 0.200420 0.458702 0.446034
Si Si2 0.139947 0.787981 0.076061
Si Si3 0.537964 0.192282 0.461566
Si Si4 0.457188 0.898590 0.822733
Si Si5 0.846915 0.163973 0.462595
Si Si6 0.838395 0.482658 0.168784
O O1 0.333926 0.780894 0.295478
O O2 0.378314 0.171354 0.717246
O O3 0.000231 0.500622 0.271750
O O4 0.181525 0.550606 0.246309
O O5 0.328969 0.450139 0.143208
O O6 0.015591 0.908245 0.772829
O O7 0.000000 0.000000 0.000000
O O8 0.771753 0.374371 0.458153
O O9 0.500000 0.000000 0.500000
O O10 0.310469 0.289927 0.927326
O O11 0.340381 0.822140 0.798597
O O12 0.360126 0.914895 0.559157
O O13 0.923422 0.247965 0.405025
#
# Coordination Sequence:
#
# PCOD9091545 Si02
#       6
#     2   2   2   2   2   2
#     4  11  22  42  68  97 125 174 215 265 318 386
#     4  10  19  39  67  91 130 167 210 267 318 373
#     4  10  20  41  66  93 130 167 212 264 315 380
#     4  10  24  40  68  94 129 170 219 258 326 378
#     4  11  22  43  64  95 135 168 208 275 321 374
#     4  10  23  41  68  93 132 170 211 269 323 376
#
# _framework density 27.608191999999999
#
# number of rings (size 3 to 8) (size 9 to 14) (size 15 to 20)
#    1.000    0.667    3.333    3.000    0.000    2.000 
#    0.000    4.167    0.000    0.000    0.000    0.000 
#    0.000    0.000    0.000    0.000    0.000    0.000 
#
# Total GULP energy -67203.281925 kJ/mol
# GULP energy per Si atom -5600.273494 kJ/mol
# Density = 2.754535 g / cm^3
# Si number density = 27.608192 Si / 1000 Ang^3
#
#
#
# Elastic Constant Matrix: (Units=GPa)
#
#
# Indices 1 2 3 4 5 6 
#
# 1 132.3751 51.7019 51.5589 -9.2411 9.0690 29.3701
# 2 51.7019 146.9332 44.8838 -15.5683 24.4062 25.4281
# 3 51.5589 44.8838 137.4765 -11.3840 16.0046 21.3610
# 4 -9.2411 -15.5683 -11.3840 65.7398 -1.2508 1.6687
# 5 9.0690 24.4062 16.0046 -1.2508 56.0740 -1.9248
# 6 29.3701 25.4281 21.3610 1.6687 -1.9248 56.2722
#
#
#
# Elastic Compliance Matrix: (Units=1/GPa)
#
#
# Indices 1 2 3 4 5 6 
#
# 1 0.010178 -0.002143 -0.002530 0.000570 -0.000095 -0.003403
# 2 -0.002143 0.009133 -0.001233 0.001653 -0.003333 -0.002703
# 3 -0.002530 -0.001233 0.009165 0.000950 -0.001707 -0.001688
# 4 0.000570 0.001653 0.000950 0.015881 -0.000794 -0.001903
# 5 -0.000095 -0.003333 -0.001707 -0.000794 0.019869 0.002907
# 6 -0.003403 -0.002703 -0.001688 -0.001903 0.002907 0.021565
#
#
# Mechanical properties :
#
#
# Convention : Reuss Voigt Hill
#
# Bulk Modulus (GPa) = 60.01333 79.23044 69.62189
# Shear Modulus (GPa) = 48.46861 53.52657 50.99759
#
# Velocity S-wave (km/s) = 4.19452 4.40795 4.30256
# Velocity P-wave (km/s) = 6.72632 7.39372 7.06790
#
# Compressibility (1/GPa) = 0.01666297
#
# Stress axis : x y z
#
# Youngs Moduli (GPa) = 98.24704 109.49006 109.10916
#
# Poissons Ratio (x) = 0.23468 0.27609
# Poissons Ratio (y) = 0.21058 0.13454
# Poissons Ratio (z) = 0.24861 0.13501
#
# Static dielectric constant tensor:
#      x y z
#    x 2.327710 -0.131100 -0.133700 
#    y -0.131100 2.253410 0.098150 
#    z -0.133700 0.098150 2.306550 
# 
# From -- ./inp_files/230874.got.cif
#   From: 2010.05.17/outbox.cif.g08.bks.cpg/sg2_116_cif.got.tgz:230874.got - 2010.06.03 11:33:40.
