data_PCOD9091324
_publ_section_title
;
Structure prediction by ZEFSAII (Michael W. Deem and Ramdas Pophale) SiO2 
 PCOD9091324
Probable space group: P -1
;
_chemical_formula_sum "Si O2"
_cell_formula_units_Z 16
_cell_length_a 9.017765
_cell_length_b 11.901338
_cell_length_c 17.024827
_cell_angle_alpha 52.628793
_cell_angle_beta 37.397924
_cell_angle_gamma 44.434641
_cell_volume 773.515884
_symmetry_space_group_name_H-M "P -1"
_symmetry_group_IT_number 2
_symmetry_cell_setting 'triclinic'
loop_
_space_group_symop_operation_xyz
x,y,z
-x,-y,-z
loop_
_atom_site_type_symbol
_atom_site_label
_atom_site_fract_x
_atom_site_fract_y
_atom_site_fract_z
Si Si1 0.594159 0.635980 0.889795
Si Si2 0.452744 0.870149 0.979653
Si Si3 0.578989 0.654343 0.449307
Si Si4 0.190579 0.429411 0.343459
Si Si5 0.501741 0.162688 0.447781
Si Si6 0.408257 0.664441 0.214479
Si Si7 0.765393 0.508199 0.280200
Si Si8 0.889301 0.976638 0.798951
O O1 0.413119 0.802545 0.942510
O O2 0.627743 0.654197 0.775126
O O3 0.905800 0.565839 0.823588
O O4 0.500000 0.500000 0.000000
O O5 0.545656 0.718053 0.064281
O O6 0.684044 0.927406 0.860958
O O7 0.189988 0.006274 0.081652
O O8 0.532094 0.801867 0.460603
O O9 0.627951 0.659385 0.334427
O O10 0.333408 0.613200 0.589438
O O11 0.868999 0.506699 0.421511
O O12 0.269408 0.308274 0.433797
O O13 0.260303 0.570057 0.279969
O O14 0.500000 0.000000 0.500000
O O15 0.795911 0.142900 0.303043
O O16 0.629222 0.559496 0.231093
O O17 0.189184 0.839364 0.267431
#
# Coordination Sequence:
#
# PCOD9091324 Si02
#       8
#     2   2   2   2   2   2   2   2
#     4  11  21  39  60  95 122 151 197 255 298 353
#     4   9  20  38  62  81 127 155 186 255 295 351
#     4  10  22  41  59  87 122 155 198 254 291 346
#     4  11  23  38  64  90 122 157 204 245 296 356
#     4  12  24  38  60  88 122 166 197 244 300 359
#     4  10  19  39  65  89 114 161 199 242 294 360
#     4  10  22  36  64  89 116 151 206 248 293 345
#     4   9  21  40  58  88 121 157 199 241 300 356
#
# _framework density 20.684773
#
# number of rings (size 3 to 8) (size 9 to 14) (size 15 to 20)
#    0.750    1.000    2.500    1.875    1.750    1.500 
#    2.250    1.250    0.000    0.000    0.000    0.000 
#    0.000    0.000    0.000    0.000    0.000    0.000 
#
# Total GULP energy -89268.629033 kJ/mol
# GULP energy per Si atom -5579.289315 kJ/mol
# Density = 2.063769 g / cm^3
# Si number density = 20.684773 Si / 1000 Ang^3
#
#
#
# Elastic Constant Matrix: (Units=GPa)
#
#
# Indices 1 2 3 4 5 6 
#
# 1 69.9570 13.7568 3.7676 0.3012 1.7479 20.3268
# 2 13.7568 53.8835 2.3499 -2.1781 -3.0543 33.5915
# 3 3.7676 2.3499 40.3649 7.2614 1.4425 6.4152
# 4 0.3012 -2.1781 7.2614 27.8157 8.2089 2.2386
# 5 1.7479 -3.0543 1.4425 8.2089 33.2487 10.4355
# 6 20.3268 33.5915 6.4152 2.2386 10.4355 42.1080
#
#
#
# Elastic Compliance Matrix: (Units=1/GPa)
#
#
# Indices 1 2 3 4 5 6 
#
# 1 0.016893 0.002711 -0.000108 0.000120 0.002788 -0.010999
# 2 0.002711 0.044595 0.002949 0.001143 0.016570 -0.041501
# 3 -0.000108 0.002949 0.026860 -0.007118 0.002989 -0.006755
# 4 0.000120 0.001143 -0.007118 0.040751 -0.009770 0.000370
# 5 0.002788 0.016570 0.002989 -0.009770 0.041515 -0.024789
# 6 -0.010999 -0.041501 -0.006755 0.000370 -0.024789 0.069318
#
#
# Mechanical properties :
#
#
# Convention : Reuss Voigt Hill
#
# Bulk Modulus (GPa) = 10.05507 22.66157 16.35832
# Shear Modulus (GPa) = 19.08565 30.25655 24.67110
#
# Velocity S-wave (km/s) = 3.04088 3.82873 3.45732
# Velocity P-wave (km/s) = 4.14740 5.52495 4.88498
#
# Compressibility (1/GPa) = 0.09945235
#
# Stress axis : x y z
#
# Youngs Moduli (GPa) = 59.19723 22.42387 37.23057
#
# Poissons Ratio (x) = -0.06080 0.00401
# Poissons Ratio (y) = -0.16051 -0.10978
# Poissons Ratio (z) = 0.00638 -0.06612
#
# Static dielectric constant tensor:
#      x y z
#    x 1.741850 0.033500 0.015900 
#    y 0.033500 1.763410 0.045240 
#    z 0.015900 0.045240 1.756460 
# 
# From -- ./inp_files/559084.got.cif
#   From: 2010.05.17/outbox.cif.g08.bks.cpg/sg2_280_cif.got.tgz:559084.got - 2010.06.03 11:33:40.
