data_PCOD9091464
_publ_section_title
;
Structure prediction by ZEFSAII (Michael W. Deem and Ramdas Pophale) SiO2 
 PCOD9091464
Probable space group: P -1
;
_chemical_formula_sum "Si O2"
_cell_formula_units_Z 16
_cell_length_a 9.327220
_cell_length_b 14.227211
_cell_length_c 7.895538
_cell_angle_alpha 138.559190
_cell_angle_beta 85.736325
_cell_angle_gamma 84.360898
_cell_volume 672.437485
_symmetry_space_group_name_H-M "P -1"
_symmetry_group_IT_number 2
_symmetry_cell_setting 'triclinic'
loop_
_space_group_symop_operation_xyz
x,y,z
-x,-y,-z
loop_
_atom_site_type_symbol
_atom_site_label
_atom_site_fract_x
_atom_site_fract_y
_atom_site_fract_z
Si Si1 0.059152 0.069913 0.834137
Si Si2 0.097165 0.539022 0.298403
Si Si3 0.101017 0.164056 0.348082
Si Si4 0.393670 0.360743 0.959471
Si Si5 0.873487 0.365657 0.211472
Si Si6 0.433368 0.449879 0.607482
Si Si7 0.382822 0.078484 0.757958
Si Si8 0.438783 0.156652 0.361429
O O1 0.217496 0.055823 0.712754
O O2 0.089133 0.123009 0.094710
O O3 0.996610 0.926981 0.664941
O O4 0.924667 0.194448 0.939740
O O5 0.159794 0.610785 0.552968
O O6 0.977584 0.666550 0.394893
O O7 0.017859 0.422438 0.229402
O O8 0.231487 0.457276 0.063806
O O9 0.272446 0.134362 0.341380
O O10 0.376897 0.250199 0.966359
O O11 0.452269 0.255273 0.658083
O O12 0.491705 0.471235 0.149570
O O13 0.738610 0.469266 0.268720
O O14 0.500000 0.500000 0.500000
O O15 0.460194 0.275023 0.380126
O O16 0.500000 0.000000 0.500000
O O17 0.445297 0.996635 0.817786
#
# Coordination Sequence:
#
# PCOD9091464 Si02
#       8
#     2   2   2   2   2   2   2   2
#     4  10  22  41  68  97 130 172 220 277 325 386
#     4  10  19  39  66  91 129 167 215 273 328 384
#     4  10  23  40  66  99 130 168 224 272 331 388
#     4  11  24  44  66  93 137 179 210 272 339 386
#     4  10  20  38  65  96 127 163 224 272 320 387
#     4  12  25  41  69 102 129 174 223 274 331 392
#     4  10  24  45  66  92 136 181 215 267 335 395
#     4  11  26  45  62  97 137 173 222 271 329 401
#
# _framework density 23.794034
#
# number of rings (size 3 to 8) (size 9 to 14) (size 15 to 20)
#    0.000    1.500    3.750    0.375    5.250    2.000 
#    0.000    2.500    0.000    0.000    0.000    0.000 
#    0.000    0.000    0.000    0.000    0.000    0.000 
#
# Total GULP energy -89459.991196 kJ/mol
# GULP energy per Si atom -5591.249450 kJ/mol
# Density = 2.373988 g / cm^3
# Si number density = 23.794034 Si / 1000 Ang^3
#
#
#
# Elastic Constant Matrix: (Units=GPa)
#
#
# Indices 1 2 3 4 5 6 
#
# 1 84.5453 25.7692 23.5164 15.5698 0.4890 2.2894
# 2 25.7692 107.2265 27.6187 26.8166 -2.4584 7.8005
# 3 23.5164 27.6187 54.9210 18.4950 -2.3838 1.8901
# 4 15.5698 26.8166 18.4950 36.9931 -5.3978 -1.0582
# 5 0.4890 -2.4584 -2.3838 -5.3978 36.8474 5.4222
# 6 2.2894 7.8005 1.8901 -1.0582 5.4222 33.7357
#
#
#
# Elastic Compliance Matrix: (Units=1/GPa)
#
#
# Indices 1 2 3 4 5 6 
#
# 1 0.014028 -0.001572 -0.004322 -0.002748 -0.000932 -0.000283
# 2 -0.001572 0.012439 -0.003180 -0.006838 0.000058 -0.002815
# 3 -0.004322 -0.003180 0.024404 -0.008046 0.000340 -0.000646
# 4 -0.002748 -0.006838 -0.008046 0.037860 0.004204 0.002730
# 5 -0.000932 0.000058 0.000340 0.004204 0.028442 -0.004409
# 6 -0.000283 -0.002815 -0.000646 0.002730 -0.004409 0.031143
#
#
# Mechanical properties :
#
#
# Convention : Reuss Voigt Hill
#
# Bulk Modulus (GPa) = 30.55821 44.50016 37.52918
# Shear Modulus (GPa) = 28.18953 32.83447 30.51200
#
# Velocity S-wave (km/s) = 3.44573 3.71879 3.58486
# Velocity P-wave (km/s) = 5.35737 6.09771 5.73949
#
# Compressibility (1/GPa) = 0.03272444
#
# Stress axis : x y z
#
# Youngs Moduli (GPa) = 71.28475 80.39130 40.97669
#
# Poissons Ratio (x) = 0.12635 0.17708
# Poissons Ratio (y) = 0.11204 0.13032
# Poissons Ratio (z) = 0.30806 0.25567
#
# Static dielectric constant tensor:
#      x y z
#    x 1.902280 -0.024490 0.001630 
#    y -0.024490 2.013280 -0.062780 
#    z 0.001630 -0.062780 1.931690 
# 
# From -- ./inp_files/209356.got.cif
#   From: 2010.05.17/outbox.cif.g08.bks.cpg/sg2_105_cif.got.tgz:209356.got - 2010.06.03 11:33:40.
