data_PCOD9091592
_publ_section_title
;
Structure prediction by ZEFSAII (Michael W. Deem and Ramdas Pophale) SiO2 
 PCOD9091592
Probable space group: P -1
;
_chemical_formula_sum "Si O2"
_cell_formula_units_Z 12
_cell_length_a 10.589992
_cell_length_b 13.832804
_cell_length_c 19.369837
_cell_angle_alpha 159.380231
_cell_angle_beta 153.641605
_cell_angle_gamma 34.593364
_cell_volume 441.489314
_symmetry_space_group_name_H-M "P -1"
_symmetry_group_IT_number 2
_symmetry_cell_setting 'triclinic'
loop_
_space_group_symop_operation_xyz
x,y,z
-x,-y,-z
loop_
_atom_site_type_symbol
_atom_site_label
_atom_site_fract_x
_atom_site_fract_y
_atom_site_fract_z
Si Si1 0.467145 0.645266 0.268917
Si Si2 0.718095 0.130988 0.420925
Si Si3 0.834680 0.162122 0.860060
Si Si4 0.348230 0.585651 0.568937
Si Si5 0.755451 0.357967 0.100677
Si Si6 0.747189 0.249424 0.220630
O O1 0.599670 0.897801 0.550431
O O2 0.484604 0.365022 0.131011
O O3 0.170182 0.687424 0.115557
O O4 0.659602 0.607322 0.268156
O O5 0.623387 0.415449 0.597245
O O6 0.707725 0.231770 0.403595
O O7 0.465825 0.895814 0.156635
O O8 0.000000 0.000000 0.500000
O O9 0.122515 0.021548 0.922692
O O10 0.764887 0.349744 0.016216
O O11 0.309281 0.763867 0.735657
O O12 0.080703 0.348452 0.276823
O O13 0.000000 0.500000 0.500000
#
# Coordination Sequence:
#
# PCOD9091592 Si02
#       6
#     2   2   2   2   2   2
#     4  10  22  37  62 108 135 172 239 280 340 420
#     4  11  28  43  69 111 145 182 237 295 349 417
#     4  10  22  37  67 108 134 176 237 294 337 414
#     4  11  25  48  72 105 144 184 240 291 346 428
#     4  12  24  45  81 102 135 197 236 282 361 421
#     4  10  19  39  67  99 137 176 230 294 339 405
#
# _framework density 27.180724000000001
#
# number of rings (size 3 to 8) (size 9 to 14) (size 15 to 20)
#    0.000    1.333    3.333    3.000    7.000    1.333 
#    0.000    0.833    3.667    5.000    0.000    0.000 
#    0.000    0.000    0.000    0.000    0.000    0.000 
#
# Total GULP energy -67110.599132 kJ/mol
# GULP energy per Si atom -5592.549928 kJ/mol
# Density = 2.711886 g / cm^3
# Si number density = 27.180724 Si / 1000 Ang^3
#
#
#
# Elastic Constant Matrix: (Units=GPa)
#
#
# Indices 1 2 3 4 5 6 
#
# 1 96.8351 40.0009 27.1698 -4.1222 -18.3166 11.4934
# 2 40.0009 219.0593 52.9961 4.4831 12.2925 14.2436
# 3 27.1698 52.9961 147.3495 2.8477 -2.9056 -6.9251
# 4 -4.1222 4.4831 2.8477 45.7014 0.5229 -11.3016
# 5 -18.3166 12.2925 -2.9056 0.5229 53.4738 -0.8744
# 6 11.4934 14.2436 -6.9251 -11.3016 -0.8744 33.0325
#
#
#
# Elastic Compliance Matrix: (Units=1/GPa)
#
#
# Indices 1 2 3 4 5 6 
#
# 1 0.013007 -0.001977 -0.001779 0.000496 0.004747 -0.003751
# 2 -0.001977 0.005681 -0.001820 -0.001247 -0.002113 -0.002626
# 3 -0.001779 -0.001820 0.007918 0.000307 0.000288 0.003176
# 4 0.000496 -0.001247 0.000307 0.024179 0.000379 0.008712
# 5 0.004747 -0.002113 0.000288 0.000379 0.020824 0.000001
# 6 -0.003751 -0.002626 0.003176 0.008712 0.000001 0.036357
#
#
# Mechanical properties :
#
#
# Convention : Reuss Voigt Hill
#
# Bulk Modulus (GPa) = 64.71003 78.17527 71.44265
# Shear Modulus (GPa) = 40.23453 49.31336 44.77395
#
# Velocity S-wave (km/s) = 3.85159 4.26405 4.06306
# Velocity P-wave (km/s) = 6.60596 7.28468 6.95361
#
# Compressibility (1/GPa) = 0.01545356
#
# Stress axis : x y z
#
# Youngs Moduli (GPa) = 76.88099 176.02269 126.29136
#
# Poissons Ratio (x) = 0.34805 0.22473
# Poissons Ratio (y) = 0.15202 0.22981
# Poissons Ratio (z) = 0.13681 0.32030
#
# Static dielectric constant tensor:
#      x y z
#    x 2.126380 -0.009000 0.044640 
#    y -0.009000 2.224120 -0.009670 
#    z 0.044640 -0.009670 2.176110 
# 
# From -- ./inp_files/595696.got.cif
#   From: 2010.05.17/outbox.cif.g08.bks.cpg/sg2_298_cif.got.tgz:595696.got - 2010.06.03 11:33:40.
