data_PCOD9091463
_publ_section_title
;
Structure prediction by ZEFSAII (Michael W. Deem and Ramdas Pophale) SiO2 
 PCOD9091463
Probable space group: P -1
;
_chemical_formula_sum "Si O2"
_cell_formula_units_Z 12
_cell_length_a 10.119786
_cell_length_b 15.030231
_cell_length_c 16.697985
_cell_angle_alpha 155.042451
_cell_angle_beta 32.253216
_cell_angle_gamma 137.656346
_cell_volume 567.591171
_symmetry_space_group_name_H-M "P -1"
_symmetry_group_IT_number 2
_symmetry_cell_setting 'triclinic'
loop_
_space_group_symop_operation_xyz
x,y,z
-x,-y,-z
loop_
_atom_site_type_symbol
_atom_site_label
_atom_site_fract_x
_atom_site_fract_y
_atom_site_fract_z
Si Si1 0.595894 0.031390 0.734976
Si Si2 0.274299 0.369803 0.248928
Si Si3 0.468840 0.253087 0.226114
Si Si4 0.612715 0.636706 0.987399
Si Si5 0.005771 0.332578 0.789870
Si Si6 0.083932 0.534108 0.755290
O O1 0.814528 0.160236 0.764087
O O2 0.718530 0.792949 0.469266
O O3 0.342545 0.115992 0.982243
O O4 0.536874 0.131111 0.758882
O O5 0.404235 0.366811 0.266233
O O6 0.384176 0.458323 0.182394
O O7 0.000000 0.500000 0.500000
O O8 0.240187 0.336834 0.469476
O O9 0.717239 0.325535 0.195678
O O10 0.500000 0.000000 0.000000
O O11 0.893559 0.649625 0.883178
O O12 0.500000 0.500000 0.000000
O O13 0.940258 0.450252 0.835970
O O14 0.000000 0.500000 0.000000
#
# Coordination Sequence:
#
# PCOD9091463 Si02
#       6
#     2   2   2   2   2   2
#     4   9  21  37  62  91 128 168 211 264 319 378
#     4  10  19  39  66  91 128 172 207 260 332 380
#     4  11  23  40  62  94 124 166 217 261 320 385
#     4  10  20  41  64  94 133 167 209 272 321 382
#     4  11  21  38  61  93 127 171 217 264 319 388
#     4  11  22  39  63  90 128 166 212 266 317 381
#
# _framework density 21.141978999999999
#
# number of rings (size 3 to 8) (size 9 to 14) (size 15 to 20)
#    1.000    0.667    3.333    2.000    0.000    1.333 
#    0.000    6.667    0.000    0.000    0.000    0.000 
#    0.000    0.000    0.000    0.000    0.000    0.000 
#
# Total GULP energy -66801.127627 kJ/mol
# GULP energy per Si atom -5566.760636 kJ/mol
# Density = 2.109386 g / cm^3
# Si number density = 21.141979 Si / 1000 Ang^3
#
#
#
# Elastic Constant Matrix: (Units=GPa)
#
#
# Indices 1 2 3 4 5 6 
#
# 1 150.2070 33.5646 59.5588 5.3379 -3.5961 -14.2170
# 2 33.5646 40.8045 27.5827 -6.6031 12.6247 -10.9132
# 3 59.5588 27.5827 147.3621 3.8740 -3.0116 5.2172
# 4 5.3379 -6.6031 3.8740 32.9434 -5.8990 7.8963
# 5 -3.5961 12.6247 -3.0116 -5.8990 41.7175 -9.7640
# 6 -14.2170 -10.9132 5.2172 7.8963 -9.7640 29.0377
#
#
#
# Elastic Compliance Matrix: (Units=1/GPa)
#
#
# Indices 1 2 3 4 5 6 
#
# 1 0.009859 -0.006439 -0.002802 -0.003136 0.003293 0.004870
# 2 -0.006439 0.039710 -0.005469 0.005960 -0.010332 0.007660
# 3 -0.002802 -0.005469 0.009137 -0.000439 0.000926 -0.004638
# 4 -0.003136 0.005960 -0.000439 0.034232 0.000803 -0.008256
# 5 0.003293 -0.010332 0.000926 0.000803 0.029241 0.007177
# 6 0.004870 0.007660 -0.004638 -0.008256 0.007177 0.045193
#
#
# Mechanical properties :
#
#
# Convention : Reuss Voigt Hill
#
# Bulk Modulus (GPa) = 34.14707 64.42064 49.28386
# Shear Modulus (GPa) = 24.20671 35.25089 29.72880
#
# Velocity S-wave (km/s) = 3.38740 4.08774 3.75394
# Velocity P-wave (km/s) = 5.61121 7.26747 6.49237
#
# Compressibility (1/GPa) = 0.02928509
#
# Stress axis : x y z
#
# Youngs Moduli (GPa) = 101.43475 25.18235 109.44641
#
# Poissons Ratio (x) = 0.16215 0.30666
# Poissons Ratio (y) = 0.65313 0.59861
# Poissons Ratio (z) = 0.28422 0.13773
#
# Static dielectric constant tensor:
#      x y z
#    x 1.815470 0.001540 -0.061770 
#    y 0.001540 1.844130 -0.025760 
#    z -0.061770 -0.025760 1.841630 
# 
# From -- ./inp_files/128526.got.cif
#   From: 2010.05.17/outbox.cif.g08.bks.cpg/sg2_65_cif.got.tgz:128526.got - 2010.06.03 11:33:40.
