data_PCOD9091708
_publ_section_title
;
Structure prediction by ZEFSAII (Michael W. Deem and Ramdas Pophale) SiO2 
 PCOD9091708
Probable space group: P -1
;
_chemical_formula_sum "Si O2"
_cell_formula_units_Z 14
_cell_length_a 21.887437
_cell_length_b 11.585057
_cell_length_c 15.605802
_cell_angle_alpha 153.099112
_cell_angle_beta 19.206493
_cell_angle_gamma 150.707548
_cell_volume 576.919908
_symmetry_space_group_name_H-M "P -1"
_symmetry_group_IT_number 2
_symmetry_cell_setting 'triclinic'
loop_
_space_group_symop_operation_xyz
x,y,z
-x,-y,-z
loop_
_atom_site_type_symbol
_atom_site_label
_atom_site_fract_x
_atom_site_fract_y
_atom_site_fract_z
Si Si1 0.472160 0.725167 0.807115
Si Si2 0.130201 0.146261 0.277260
Si Si3 0.866178 0.659067 0.234492
Si Si4 0.593360 0.630819 0.094380
Si Si5 0.073007 0.444471 0.111554
Si Si6 0.289607 0.952943 0.639706
Si Si7 0.482969 0.021241 0.815553
O O1 0.648984 0.595293 0.509582
O O2 0.488471 0.814761 0.745421
O O3 0.267175 0.546664 0.972384
O O4 0.500000 0.000000 0.000000
O O5 0.040796 0.321157 0.576719
O O6 0.259734 0.312626 0.142460
O O7 0.272454 0.996437 0.039076
O O8 0.958565 0.955782 0.332135
O O9 0.881412 0.616914 0.086063
O O10 0.000000 0.500000 0.000000
O O11 0.412383 0.751814 0.385659
O O12 0.679636 0.801875 0.174667
O O13 0.538554 0.320632 0.974087
O O14 0.926099 0.197947 0.178242
O O15 0.377014 0.008895 0.467107
#
# Coordination Sequence:
#
# PCOD9091708 Si02
#       7
#     2   2   2   2   2   2   2
#     4  12  29  50  69 106 152 189 239 305 364 426
#     4  11  21  41  75 113 140 190 239 293 355 437
#     4  12  28  48  73 104 142 193 246 297 363 437
#     4  10  19  39  70 112 148 184 245 287 350 426
#     4  12  23  46  75 103 150 185 241 296 363 417
#     4  10  20  39  73 108 144 194 238 294 348 430
#     4  11  23  43  72 107 152 185 238 296 362 417
#
# _framework density 24.266798000000001
#
# number of rings (size 3 to 8) (size 9 to 14) (size 15 to 20)
#    0.000    0.857    5.714    2.143    2.000    1.143 
#    5.143    3.571    0.000    0.000    0.000    0.000 
#    0.000    0.000    0.000    0.000    0.000    0.000 
#
# Total GULP energy -78540.462021 kJ/mol
# GULP energy per Si atom -5610.033002 kJ/mol
# Density = 2.421157 g / cm^3
# Si number density = 24.266798 Si / 1000 Ang^3
#
#
#
# Elastic Constant Matrix: (Units=GPa)
#
#
# Indices 1 2 3 4 5 6 
#
# 1 76.7344 38.8383 35.8544 -9.3711 -2.7586 14.9023
# 2 38.8383 132.4951 41.7856 -15.9854 -8.5297 39.0341
# 3 35.8544 41.7856 129.4868 -19.0872 -7.0762 21.2659
# 4 -9.3711 -15.9854 -19.0872 49.1187 14.4949 -6.2452
# 5 -2.7586 -8.5297 -7.0762 14.4949 37.5933 11.6159
# 6 14.9023 39.0341 21.2659 -6.2452 11.6159 50.0380
#
#
#
# Elastic Compliance Matrix: (Units=1/GPa)
#
#
# Indices 1 2 3 4 5 6 
#
# 1 0.016555 -0.003589 -0.003236 0.000752 -0.000317 -0.000588
# 2 -0.003589 0.011891 -0.001094 0.000191 0.004891 -0.008854
# 3 -0.003236 -0.001094 0.009741 0.002147 0.001244 -0.002344
# 4 0.000752 0.000191 0.002147 0.025030 -0.010467 0.004269
# 5 -0.000317 0.004891 0.001244 -0.010467 0.036276 -0.013977
# 6 -0.000588 -0.008854 -0.002344 0.004269 -0.013977 0.031840
#
#
# Mechanical properties :
#
#
# Convention : Reuss Voigt Hill
#
# Bulk Modulus (GPa) = 44.74274 63.51921 54.13098
# Shear Modulus (GPa) = 32.33736 42.16585 37.25160
#
# Velocity S-wave (km/s) = 3.65441 4.17297 3.92227
# Velocity P-wave (km/s) = 6.02363 7.03210 6.54731
#
# Compressibility (1/GPa) = 0.02234999
#
# Stress axis : x y z
#
# Youngs Moduli (GPa) = 60.40491 84.09995 102.65693
#
# Poissons Ratio (x) = 0.30180 0.33218
# Poissons Ratio (y) = 0.21677 0.11231
# Poissons Ratio (z) = 0.19546 0.09201
#
# Static dielectric constant tensor:
#      x y z
#    x 1.909100 0.005850 -0.026520 
#    y 0.005850 1.947350 0.027260 
#    z -0.026520 0.027260 1.891160 
# 
# From -- ./inp_files/541152.got.cif
#   From: 2010.05.17/outbox.cif.g08.bks.cpg/sg2_271_cif.got.tgz:541152.got - 2010.06.03 11:33:40.
