data_PCOD9091165
_publ_section_title
;
Structure prediction by ZEFSAII (Michael W. Deem and Ramdas Pophale) SiO2 
 PCOD9091165
Probable space group: P -1
;
_chemical_formula_sum "Si O2"
_cell_formula_units_Z 16
_cell_length_a 8.854222
_cell_length_b 14.941057
_cell_length_c 9.325041
_cell_angle_alpha 98.285526
_cell_angle_beta 47.174838
_cell_angle_gamma 122.894030
_cell_volume 707.169688
_symmetry_space_group_name_H-M "P -1"
_symmetry_group_IT_number 2
_symmetry_cell_setting 'triclinic'
loop_
_space_group_symop_operation_xyz
x,y,z
-x,-y,-z
loop_
_atom_site_type_symbol
_atom_site_label
_atom_site_fract_x
_atom_site_fract_y
_atom_site_fract_z
Si Si1 0.805790 0.253715 0.934855
Si Si2 0.363701 0.207146 0.400328
Si Si3 0.124491 0.255831 0.985066
Si Si4 0.465477 0.767484 0.389855
Si Si5 0.827639 0.105321 0.659192
Si Si6 0.300967 0.406963 0.494088
Si Si7 0.381203 0.996312 0.727291
Si Si8 0.910393 0.674674 0.668408
O O1 0.545774 0.231676 0.153689
O O2 0.984831 0.281943 0.964868
O O3 0.753786 0.149522 0.850725
O O4 0.010261 0.358473 0.721290
O O5 0.486428 0.201790 0.465518
O O6 0.346445 0.311004 0.455536
O O7 0.057530 0.100832 0.559543
O O8 0.174893 0.314735 0.118848
O O9 0.381870 0.280460 0.762550
O O10 0.910516 0.117904 0.105954
O O11 0.583530 0.886183 0.257273
O O12 0.160995 0.679589 0.533694
O O13 0.566214 0.000494 0.728961
O O14 0.965860 0.205304 0.469906
O O15 0.500000 0.500000 0.500000
O O16 0.301667 0.423171 0.326301
O O17 0.500000 0.000000 0.500000
#
# Coordination Sequence:
#
# PCOD9091165 Si02
#       8
#     2   2   2   2   2   2   2   2
#     4  10  20  38  63  84 116 155 189 237 295 341
#     4  10  19  39  64  82 120 155 189 238 298 336
#     4  12  20  37  61  84 118 163 193 240 282 332
#     4  11  20  37  59  87 117 161 191 237 285 333
#     4   9  20  37  54  84 120 157 197 237 281 329
#     4  10  23  43  63  89 116 142 189 244 293 363
#     4  11  21  37  54  84 126 154 205 240 268 333
#     4   9  20  37  62  82 118 148 192 232 295 345
#
# _framework density 22.625405000000001
#
# number of rings (size 3 to 8) (size 9 to 14) (size 15 to 20)
#    0.000    2.000    6.250    0.375    0.000    7.000 
#    2.250    2.500    0.000    0.000    0.000    0.000 
#    0.000    0.000    0.000    0.000    0.000    0.000 
#
# Total GULP energy -89322.212859 kJ/mol
# GULP energy per Si atom -5582.638304 kJ/mol
# Density = 2.257391 g / cm^3
# Si number density = 22.625405 Si / 1000 Ang^3
#
#
#
# Elastic Constant Matrix: (Units=GPa)
#
#
# Indices 1 2 3 4 5 6 
#
# 1 95.8332 27.2069 21.5050 15.4811 4.2113 38.9105
# 2 27.2069 81.2640 30.0463 25.2889 -1.4233 36.3806
# 3 21.5050 30.0463 126.3441 26.7292 -1.2538 19.4274
# 4 15.4811 25.2889 26.7292 24.4625 7.2645 13.2672
# 5 4.2113 -1.4233 -1.2538 7.2645 41.9482 7.4513
# 6 38.9105 36.3806 19.4274 13.2672 7.4513 41.9424
#
#
#
# Elastic Compliance Matrix: (Units=1/GPa)
#
#
# Indices 1 2 3 4 5 6 
#
# 1 0.017736 0.004654 0.000288 -0.006950 0.002956 -0.018952
# 2 0.004654 0.028243 0.001098 -0.023161 0.008717 -0.023547
# 3 0.000288 0.001098 0.010675 -0.012352 0.002961 -0.002784
# 4 -0.006950 -0.023161 -0.012352 0.082694 -0.016379 0.009011
# 5 0.002956 0.008717 0.002961 -0.016379 0.028826 -0.011616
# 6 -0.018952 -0.023547 -0.002784 0.009011 -0.011616 0.062351
#
#
# Mechanical properties :
#
#
# Convention : Reuss Voigt Hill
#
# Bulk Modulus (GPa) = 14.54835 51.21750 32.88292
# Shear Modulus (GPa) = 20.71626 36.64949 28.68287
#
# Velocity S-wave (km/s) = 3.02920 4.02909 3.56438
# Velocity P-wave (km/s) = 4.32190 6.65816 5.61292
#
# Compressibility (1/GPa) = 0.06873633
#
# Stress axis : x y z
#
# Youngs Moduli (GPa) = 56.38109 35.40684 93.67530
#
# Poissons Ratio (x) = -0.16480 -0.02698
# Poissons Ratio (y) = -0.26242 -0.10289
# Poissons Ratio (z) = -0.01624 -0.03889
#
# Static dielectric constant tensor:
#      x y z
#    x 1.887380 0.002510 0.010800 
#    y 0.002510 1.924640 -0.044400 
#    z 0.010800 -0.044400 1.822680 
# 
# From -- ./inp_files/213193.got.cif
#   From: 2010.05.17/outbox.cif.g08.bks.cpg/sg2_107_cif.got.tgz:213193.got - 2010.06.03 11:33:40.
