data_PCOD9091913
_publ_section_title
;
Structure prediction by ZEFSAII (Michael W. Deem and Ramdas Pophale) SiO2 
 PCOD9091913
Probable space group: P -1
;
_chemical_formula_sum "Si O2"
_cell_formula_units_Z 12
_cell_length_a 11.389377
_cell_length_b 15.002146
_cell_length_c 8.850731
_cell_angle_alpha 128.181934
_cell_angle_beta 68.804981
_cell_angle_gamma 150.568859
_cell_volume 519.297490
_symmetry_space_group_name_H-M "P -1"
_symmetry_group_IT_number 2
_symmetry_cell_setting 'triclinic'
loop_
_space_group_symop_operation_xyz
x,y,z
-x,-y,-z
loop_
_atom_site_type_symbol
_atom_site_label
_atom_site_fract_x
_atom_site_fract_y
_atom_site_fract_z
Si Si1 0.510611 0.217803 0.603873
Si Si2 0.981848 0.481235 0.166619
Si Si3 0.748012 0.745671 0.767251
Si Si4 0.092538 0.810460 0.609464
Si Si5 0.285188 0.793376 0.724708
Si Si6 0.297944 0.251092 0.550725
O O1 0.784422 0.415979 0.774990
O O2 0.501466 0.106397 0.370430
O O3 0.475111 0.302362 0.614210
O O4 0.285515 0.032337 0.641421
O O5 0.024669 0.643290 0.373553
O O6 0.722526 0.231566 0.117657
O O7 0.000000 0.500000 0.000000
O O8 0.467316 0.505297 0.736788
O O9 0.722692 0.786077 0.659033
O O10 0.845627 0.694568 0.636757
O O11 0.000000 0.000000 0.000000
O O12 0.238588 0.880137 0.765646
O O13 0.000000 0.500000 0.500000
O O14 0.000000 0.000000 0.500000
#
# Coordination Sequence:
#
# PCOD9091913 Si02
#       6
#     2   2   2   2   2   2
#     4  10  19  40  63  91 136 179 221 287 352 409
#     4  10  20  37  64 100 126 176 228 285 353 418
#     4  11  25  46  71 101 138 188 241 285 345 415
#     4  10  19  41  62  90 137 177 219 290 346 408
#     4   8  16  33  61  85 122 170 212 274 346 403
#     4  11  23  46  70  99 140 188 232 294 347 406
#
# _framework density 23.108142999999998
#
# number of rings (size 3 to 8) (size 9 to 14) (size 15 to 20)
#    0.000    2.333    1.667    5.000    0.000    0.667 
#   15.000    1.667    0.000    0.000    0.000    0.000 
#    0.000    0.000    0.000    0.000    0.000    0.000 
#
# Total GULP energy -66925.387852 kJ/mol
# GULP energy per Si atom -5577.115654 kJ/mol
# Density = 2.305555 g / cm^3
# Si number density = 23.108143 Si / 1000 Ang^3
#
#
#
# Elastic Constant Matrix: (Units=GPa)
#
#
# Indices 1 2 3 4 5 6 
#
# 1 124.2604 38.4138 34.4228 -18.9126 32.0018 -26.6754
# 2 38.4138 190.9302 31.8562 -7.2435 21.3765 -25.6546
# 3 34.4228 31.8562 77.0495 -7.2172 33.1961 -13.4115
# 4 -18.9126 -7.2435 -7.2172 42.0227 -10.7545 10.5614
# 5 32.0018 21.3765 33.1961 -10.7545 28.0611 -15.0916
# 6 -26.6754 -25.6546 -13.4115 10.5614 -15.0916 46.1782
#
#
#
# Elastic Compliance Matrix: (Units=1/GPa)
#
#
# Indices 1 2 3 4 5 6 
#
# 1 0.011935 -0.000802 0.000696 0.001713 -0.011891 0.002373
# 2 -0.000802 0.006024 -0.001329 -0.000381 -0.001042 0.002244
# 3 0.000696 -0.001329 0.027635 -0.003467 -0.035475 -0.003111
# 4 0.001713 -0.000381 -0.003467 0.027547 0.011506 -0.002769
# 5 -0.011891 -0.001042 -0.035475 0.011506 0.103617 0.013481
# 6 0.002373 0.002244 -0.003111 -0.002769 0.013481 0.028409
#
#
# Mechanical properties :
#
#
# Convention : Reuss Voigt Hill
#
# Bulk Modulus (GPa) = 23.40552 66.84729 45.12641
# Shear Modulus (GPa) = 22.49422 42.42223 32.45822
#
# Velocity S-wave (km/s) = 3.12337 4.28929 3.75190
# Velocity P-wave (km/s) = 4.81227 7.31584 6.19191
#
# Compressibility (1/GPa) = 0.04272496
#
# Stress axis : x y z
#
# Youngs Moduli (GPa) = 83.78458 165.99373 36.18606
#
# Poissons Ratio (x) = 0.13317 -0.02519
# Poissons Ratio (y) = 0.06722 0.04808
# Poissons Ratio (z) = -0.05831 0.22053
#
# Static dielectric constant tensor:
#      x y z
#    x 1.969030 0.115320 0.012390 
#    y 0.115320 2.064330 0.066270 
#    z 0.012390 0.066270 2.032970 
# 
# From -- ./inp_files/268554.got.cif
#   From: 2010.05.17/outbox.cif.g08.bks.cpg/sg2_135_cif.got.tgz:268554.got - 2010.06.03 11:33:40.
