data_PCOD9091100
_publ_section_title
;
Structure prediction by ZEFSAII (Michael W. Deem and Ramdas Pophale) SiO2 
 PCOD9091100
Probable space group: P -1
;
_chemical_formula_sum "Si O2"
_cell_formula_units_Z 16
_cell_length_a 9.548523
_cell_length_b 12.099163
_cell_length_c 14.917717
_cell_angle_alpha 33.053881
_cell_angle_beta 94.803507
_cell_angle_gamma 80.002116
_cell_volume 837.182229
_symmetry_space_group_name_H-M "P -1"
_symmetry_group_IT_number 2
_symmetry_cell_setting 'triclinic'
loop_
_space_group_symop_operation_xyz
x,y,z
-x,-y,-z
loop_
_atom_site_type_symbol
_atom_site_label
_atom_site_fract_x
_atom_site_fract_y
_atom_site_fract_z
Si Si1 0.665602 0.033014 0.645328
Si Si2 0.189634 0.888894 0.582509
Si Si3 0.297496 0.201640 0.484677
Si Si4 0.909701 0.484422 0.591967
Si Si5 0.671317 0.287886 0.649520
Si Si6 0.090976 0.111361 0.985504
Si Si7 0.181347 0.502508 0.941919
Si Si8 0.902445 0.418394 0.920572
O O1 0.751416 0.069383 0.538494
O O2 0.481471 0.120162 0.558672
O O3 0.687356 0.178520 0.627446
O O4 0.729699 0.768054 0.854864
O O5 0.254948 0.010957 0.572949
O O6 0.248270 0.627633 0.793476
O O7 0.000000 0.000000 0.500000
O O8 0.207211 0.293815 0.510764
O O9 0.231152 0.411090 0.268164
O O10 0.798334 0.374828 0.625021
O O11 0.000000 0.500000 0.500000
O O12 0.044042 0.337507 0.771848
O O13 0.500000 0.500000 0.500000
O O14 0.728228 0.067663 0.868465
O O15 0.006670 0.194991 0.020516
O O16 0.000000 0.000000 0.000000
O O17 0.157700 0.613943 0.963884
O O18 0.014283 0.536416 0.870533
#
# Coordination Sequence:
#
# PCOD9091100 Si02
#       8
#     2   2   2   2   2   2   2   2
#     4  12  25  44  66  94 141 172 205 280 332 385
#     4  12  25  40  68  98 125 176 224 261 325 391
#     4  11  23  43  63  92 137 171 212 270 335 385
#     4  10  23  41  67  97 126 166 221 277 315 384
#     4  11  22  43  67  91 125 176 217 258 341 387
#     4   9  20  36  63  90 122 168 214 253 318 394
#     4  11  22  39  66  94 126 173 220 263 322 388
#     4  10  19  39  63  90 129 169 210 271 321 381
#
# _framework density 19.111727999999999
#
# number of rings (size 3 to 8) (size 9 to 14) (size 15 to 20)
#    0.000    1.250    5.000    1.125    1.750    1.500 
#    0.000    1.875    0.000    0.000    0.000    0.000 
#    0.000    0.000    0.000    0.000    0.000    0.000 
#
# Total GULP energy -89208.625009 kJ/mol
# GULP energy per Si atom -5575.539063 kJ/mol
# Density = 1.906823 g / cm^3
# Si number density = 19.111728 Si / 1000 Ang^3
#
#
#
# Elastic Constant Matrix: (Units=GPa)
#
#
# Indices 1 2 3 4 5 6 
#
# 1 91.9982 40.0785 61.3783 12.2089 17.6320 -9.7752
# 2 40.0785 150.0327 45.4312 2.9375 0.4168 -7.1492
# 3 61.3783 45.4312 123.9825 -0.5993 15.6841 -19.5095
# 4 12.2089 2.9375 -0.5993 21.2374 3.7128 1.9179
# 5 17.6320 0.4168 15.6841 3.7128 36.6187 1.8368
# 6 -9.7752 -7.1492 -19.5095 1.9179 1.8368 29.4245
#
#
#
# Elastic Compliance Matrix: (Units=1/GPa)
#
#
# Indices 1 2 3 4 5 6 
#
# 1 0.019941 -0.002584 -0.008067 -0.010587 -0.005127 0.001658
# 2 -0.002584 0.007917 -0.001928 0.000018 0.001995 -0.000338
# 3 -0.008067 -0.001928 0.014121 0.005277 -0.002981 0.006057
# 4 -0.010587 0.000018 0.005277 0.054058 -0.002474 -0.003383
# 5 -0.005127 0.001995 -0.002981 -0.002474 0.031533 -0.005002
# 6 0.001658 -0.000338 0.006057 -0.003383 -0.005002 0.039003
#
#
# Mechanical properties :
#
#
# Convention : Reuss Voigt Hill
#
# Bulk Modulus (GPa) = 59.44137 73.30993 66.37565
# Shear Modulus (GPa) = 25.33744 32.06450 28.70097
#
# Velocity S-wave (km/s) = 3.64504 4.10047 3.87944
# Velocity P-wave (km/s) = 6.99176 7.80130 7.40760
#
# Compressibility (1/GPa) = 0.01682330
#
# Stress axis : x y z
#
# Youngs Moduli (GPa) = 50.14744 126.30993 70.81550
#
# Poissons Ratio (x) = 0.32634 0.57126
# Poissons Ratio (y) = 0.12956 0.13650
# Poissons Ratio (z) = 0.40454 0.24346
#
# Static dielectric constant tensor:
#      x y z
#    x 1.629080 -0.009850 0.019580 
#    y -0.009850 1.674400 -0.017700 
#    z 0.019580 -0.017700 1.749820 
# 
# From -- ./inp_files/218533.got.cif
#   From: 2010.05.17/outbox.cif.g08.bks.cpg/sg2_110_cif.got.tgz:218533.got - 2010.06.03 11:33:40.
