data_PCOD9091639
_publ_section_title
;
Structure prediction by ZEFSAII (Michael W. Deem and Ramdas Pophale) SiO2 
 PCOD9091639
Probable space group: P -1
;
_chemical_formula_sum "Si O2"
_cell_formula_units_Z 12
_cell_length_a 7.282014
_cell_length_b 4.855291
_cell_length_c 18.580037
_cell_angle_alpha 94.404658
_cell_angle_beta 129.895452
_cell_angle_gamma 63.912736
_cell_volume 432.109124
_symmetry_space_group_name_H-M "P -1"
_symmetry_group_IT_number 2
_symmetry_cell_setting 'triclinic'
loop_
_space_group_symop_operation_xyz
x,y,z
-x,-y,-z
loop_
_atom_site_type_symbol
_atom_site_label
_atom_site_fract_x
_atom_site_fract_y
_atom_site_fract_z
Si Si1 0.893740 0.295576 0.533349
Si Si2 0.306477 0.431124 0.002884
Si Si3 0.493538 0.941212 0.709621
Si Si4 0.549429 0.401971 0.822087
Si Si5 0.202947 0.243560 0.837513
Si Si6 0.686256 0.372741 0.640884
O O1 0.776412 0.270474 0.579758
O O2 0.618026 0.588831 0.433881
O O3 0.000000 0.000000 0.500000
O O4 0.185212 0.255611 0.627769
O O5 0.100935 0.422146 0.892500
O O6 0.500000 0.500000 0.000000
O O7 0.234435 0.635992 0.061435
O O8 0.509863 0.078253 0.078900
O O9 0.468488 0.704998 0.756342
O O10 0.613113 0.724256 0.662909
O O11 0.655456 0.096584 0.790710
O O12 0.292688 0.417178 0.803982
O O13 0.972612 0.165425 0.750929
#
# Coordination Sequence:
#
# PCOD9091639 Si02
#       6
#     2   2   2   2   2   2
#     4   9  19  40  70  95 135 171 215 268 329 383
#     4   9  19  35  68  94 129 174 217 265 331 382
#     4  11  23  41  66  96 135 176 212 267 327 382
#     4  11  20  41  65  93 133 176 214 264 327 384
#     4  10  19  39  68  96 128 175 220 270 323 385
#     4  10  20  40  66 101 130 169 225 268 319 392
#
# _framework density 27.770761
#
# number of rings (size 3 to 8) (size 9 to 14) (size 15 to 20)
#    0.000    2.000    3.333    0.000    0.000    0.000 
#    9.000   10.000    0.000    0.000    0.000    0.000 
#    0.000    0.000    0.000    0.000    0.000    0.000 
#
# Total GULP energy -66957.729200 kJ/mol
# GULP energy per Si atom -5579.810767 kJ/mol
# Density = 2.770755 g / cm^3
# Si number density = 27.770761 Si / 1000 Ang^3
#
#
#
# Elastic Constant Matrix: (Units=GPa)
#
#
# Indices 1 2 3 4 5 6 
#
# 1 159.5873 54.7358 52.5508 -23.3452 -52.9723 -12.2586
# 2 54.7358 110.5778 54.3006 26.1205 4.1121 -7.3489
# 3 52.5508 54.3006 154.3667 28.3546 -11.4972 -5.4741
# 4 -23.3452 26.1205 28.3546 38.8300 -39.9678 -19.0877
# 5 -52.9723 4.1121 -11.4972 -39.9678 -4.6928 -12.0403
# 6 -12.2586 -7.3489 -5.4741 -19.0877 -12.0403 47.8189
#
#
#
# Elastic Compliance Matrix: (Units=1/GPa)
#
#
# Indices 1 2 3 4 5 6 
#
# 1 0.004058 -0.000533 -0.001032 -0.003765 -0.006062 -0.002189
# 2 -0.000533 0.010647 -0.003348 0.001335 0.004824 0.002864
# 3 -0.001032 -0.003348 0.008540 -0.001792 0.002659 0.000153
# 4 -0.003765 0.001335 -0.001792 0.007856 -0.014839 -0.001565
# 5 -0.006062 0.004824 0.002659 -0.014839 -0.002469 -0.007053
# 6 -0.002189 0.002864 0.000153 -0.001565 -0.007053 0.018408
#
#
# Mechanical properties :
#
#
# Convention : Reuss Voigt Hill
#
# Bulk Modulus (GPa) = 74.52156 83.07847 78.80002
# Shear Modulus (GPa) = 81.51655 33.92084 57.71870
#
# Velocity S-wave (km/s) = 5.42375 3.49873 4.56389
# Velocity P-wave (km/s) = 8.13115 6.80457 7.49726
#
# Compressibility (1/GPa) = 0.01341893
#
# Stress axis : x y z
#
# Youngs Moduli (GPa) = 246.45665 93.92474 117.10073
#
# Poissons Ratio (x) = 0.05003 0.12079
# Poissons Ratio (y) = 0.13128 0.39209
# Poissons Ratio (z) = 0.25423 0.31449
#
# Static dielectric constant tensor:
#      x y z
#    x 2.117760 0.014210 -0.008910 
#    y 0.014210 2.245280 0.019670 
#    z -0.008910 0.019670 2.268100 
# 
# From -- ./inp_files/584926.got.cif
#   From: 2010.05.17/outbox.cif.g08.bks.cpg/sg2_293_cif.got.tgz:584926.got - 2010.06.03 11:33:40.
