data_PCOD9091608
_publ_section_title
;
Structure prediction by ZEFSAII (Michael W. Deem and Ramdas Pophale) SiO2 
 PCOD9091608
Probable space group: P -1
;
_chemical_formula_sum "Si O2"
_cell_formula_units_Z 14
_cell_length_a 8.774120
_cell_length_b 9.052764
_cell_length_c 9.873852
_cell_angle_alpha 107.236565
_cell_angle_beta 58.465025
_cell_angle_gamma 130.417127
_cell_volume 507.820219
_symmetry_space_group_name_H-M "P -1"
_symmetry_group_IT_number 2
_symmetry_cell_setting 'triclinic'
loop_
_space_group_symop_operation_xyz
x,y,z
-x,-y,-z
loop_
_atom_site_type_symbol
_atom_site_label
_atom_site_fract_x
_atom_site_fract_y
_atom_site_fract_z
Si Si1 0.002426 0.780071 0.069302
Si Si2 0.592741 0.208937 0.152181
Si Si3 0.643779 0.244236 0.833253
Si Si4 0.451669 0.328388 0.697628
Si Si5 0.117037 0.872796 0.737995
Si Si6 0.876635 0.468842 0.408410
Si Si7 0.155658 0.098216 0.323450
O O1 0.111010 0.940378 0.184597
O O2 0.146915 0.701779 0.955130
O O3 0.024580 0.858265 0.927051
O O4 0.738713 0.640689 0.188966
O O5 0.406375 0.225195 0.302259
O O6 0.566652 0.247144 0.018139
O O7 0.518477 0.014485 0.810465
O O8 0.563044 0.330986 0.788646
O O9 0.913601 0.363813 0.731692
O O10 0.655134 0.452076 0.531474
O O11 0.304058 0.096011 0.671046
O O12 0.202804 0.742376 0.659437
O O13 0.920699 0.792690 0.696903
O O14 0.000000 0.500000 0.500000
O O15 0.000000 0.000000 0.500000
#
# Coordination Sequence:
#
# PCOD9091608 Si02
#       7
#     2   2   2   2   2   2   2
#     4  11  21  39  68  97 124 170 221 261 314 386
#     4  11  20  39  70  88 130 173 212 262 317 394
#     4  10  19  39  68  88 129 168 216 255 326 374
#     4  10  20  38  66  96 129 161 220 268 319 377
#     4  11  22  40  69  94 127 173 218 261 321 384
#     4  10  24  39  62  97 133 166 214 271 321 378
#     4  11  23  36  64 103 126 161 217 268 319 377
#
# _framework density 27.568811
#
# number of rings (size 3 to 8) (size 9 to 14) (size 15 to 20)
#    0.000    1.429    4.286    3.000    4.000    2.286 
#    0.000    7.857    0.000    0.000    0.000    0.000 
#    0.000    0.000    0.000    0.000    0.000    0.000 
#
# Total GULP energy -78168.438655 kJ/mol
# GULP energy per Si atom -5583.459904 kJ/mol
# Density = 2.750606 g / cm^3
# Si number density = 27.568811 Si / 1000 Ang^3
#
#
#
# Elastic Constant Matrix: (Units=GPa)
#
#
# Indices 1 2 3 4 5 6 
#
# 1 167.0442 25.9966 68.5174 -17.6848 -48.9912 23.9258
# 2 25.9966 143.1229 55.1178 -21.7757 -22.5235 17.6191
# 3 68.5174 55.1178 149.0770 -26.5541 -21.3439 29.6975
# 4 -17.6848 -21.7757 -26.5541 58.3028 22.5407 -15.3115
# 5 -48.9912 -22.5235 -21.3439 22.5407 70.8299 -17.3244
# 6 23.9258 17.6191 29.6975 -15.3115 -17.3244 24.3024
#
#
#
# Elastic Compliance Matrix: (Units=1/GPa)
#
#
# Indices 1 2 3 4 5 6 
#
# 1 0.009006 0.000577 -0.003383 -0.001188 0.005242 -0.002162
# 2 0.000577 0.008527 -0.002661 0.001105 0.001541 -0.001704
# 3 -0.003383 -0.002661 0.010946 0.001618 -0.002590 -0.008943
# 4 -0.001188 0.001105 0.001618 0.022153 -0.004860 0.008885
# 5 0.005242 0.001541 -0.002590 -0.004860 0.021184 0.008926
# 6 -0.002162 -0.001704 -0.008943 0.008885 0.008926 0.067401
#
#
# Mechanical properties :
#
#
# Convention : Reuss Voigt Hill
#
# Bulk Modulus (GPa) = 56.99661 84.27867 70.63764
# Shear Modulus (GPa) = 32.05166 51.32784 41.68975
#
# Velocity S-wave (km/s) = 3.41340 4.31955 3.89293
# Velocity P-wave (km/s) = 6.02115 7.45082 6.77381
#
# Compressibility (1/GPa) = 0.01754490
#
# Stress axis : x y z
#
# Youngs Moduli (GPa) = 111.04268 117.26964 91.36169
#
# Poissons Ratio (x) = -0.06772 0.30906
# Poissons Ratio (y) = -0.06412 0.24314
# Poissons Ratio (z) = 0.37564 0.31209
#
# Static dielectric constant tensor:
#      x y z
#    x 2.253040 0.099080 0.017630 
#    y 0.099080 2.293390 0.094460 
#    z 0.017630 0.094460 2.098760 
# 
# From -- ./inp_files/189082.got.cif
#   From: 2010.05.17/outbox.cif.g08.bks.cpg/sg2_95_cif.got.tgz:189082.got - 2010.06.03 11:33:40.
