data_PCOD9091785
_publ_section_title
;
Structure prediction by ZEFSAII (Michael W. Deem and Ramdas Pophale) SiO2 
 PCOD9091785
Probable space group: P -1
;
_chemical_formula_sum "Si O2"
_cell_formula_units_Z 14
_cell_length_a 11.603685
_cell_length_b 9.030963
_cell_length_c 9.491737
_cell_angle_alpha 135.831063
_cell_angle_beta 94.574835
_cell_angle_gamma 94.686011
_cell_volume 676.892021
_symmetry_space_group_name_H-M "P -1"
_symmetry_group_IT_number 2
_symmetry_cell_setting 'triclinic'
loop_
_space_group_symop_operation_xyz
x,y,z
-x,-y,-z
loop_
_atom_site_type_symbol
_atom_site_label
_atom_site_fract_x
_atom_site_fract_y
_atom_site_fract_z
Si Si1 0.490232 0.177202 0.002606
Si Si2 0.839330 0.578776 0.930691
Si Si3 0.380529 0.319939 0.849734
Si Si4 0.717187 0.779427 0.827301
Si Si5 0.911549 0.182681 0.781745
Si Si6 0.762171 0.258537 0.091799
Si Si7 0.761996 0.728841 0.473445
O O1 0.409651 0.313886 0.176246
O O2 0.626683 0.258734 0.034184
O O3 0.414696 0.127444 0.818050
O O4 0.500000 0.000000 0.000000
O O5 0.810858 0.662935 0.832485
O O6 0.868277 0.339420 0.770657
O O7 0.727270 0.597056 0.028950
O O8 0.951184 0.735421 0.119269
O O9 0.338199 0.264549 0.649562
O O10 0.500000 0.500000 0.000000
O O11 0.714087 0.757887 0.644823
O O12 0.754354 0.040780 0.035525
O O13 0.867830 0.928036 0.581282
O O14 0.844129 0.233450 0.951585
O O15 0.801625 0.498010 0.320986
#
# Coordination Sequence:
#
# PCOD9091785 Si02
#       7
#     2   2   2   2   2   2   2
#     4   9  18  37  61  84 121 158 192 245 306 340
#     4  10  21  44  62  86 126 155 198 257 297 344
#     4  11  20  39  65  85 121 162 193 247 305 352
#     4   9  22  39  61  91 118 159 200 249 300 349
#     4  10  22  41  64  86 121 161 202 245 297 358
#     4  10  19  40  60  85 125 157 191 251 297 349
#     4  11  22  38  63  93 117 162 203 239 300 367
#
# _framework density 20.682766999999998
#
# number of rings (size 3 to 8) (size 9 to 14) (size 15 to 20)
#    0.000    2.000    2.857    0.000    0.000    3.429 
#    7.714   11.429    0.000    0.000    0.000    0.000 
#    0.000    0.000    0.000    0.000    0.000    0.000 
#
# Total GULP energy -77971.191131 kJ/mol
# GULP energy per Si atom -5569.370795 kJ/mol
# Density = 2.063569 g / cm^3
# Si number density = 20.682767 Si / 1000 Ang^3
#
#
#
# Elastic Constant Matrix: (Units=GPa)
#
#
# Indices 1 2 3 4 5 6 
#
# 1 -278.7215 226.4962 48.0091 6.6700 55.9154 -41.7049
# 2 226.4962 20.9769 30.2756 -26.3568 -11.6883 16.8812
# 3 48.0091 30.2756 73.6610 -3.2156 2.5817 6.1581
# 4 6.6700 -26.3568 -3.2156 36.7056 -5.9605 12.2442
# 5 55.9154 -11.6883 2.5817 -5.9605 9.4114 7.5661
# 6 -41.7049 16.8812 6.1581 12.2442 7.5661 22.3147
#
#
#
# Elastic Compliance Matrix: (Units=1/GPa)
#
#
# Indices 1 2 3 4 5 6 
#
# 1 0.001108 0.003772 -0.001853 0.004852 0.005552 -0.004815
# 2 0.003772 0.009340 -0.006156 0.002330 -0.010955 0.004118
# 3 -0.001853 -0.006156 0.017450 -0.001911 -0.000778 -0.002309
# 4 0.004852 0.002330 -0.001911 0.032302 0.004120 -0.011287
# 5 0.005552 -0.010955 -0.000778 0.004120 0.067539 -0.006283
# 6 -0.004815 0.004118 -0.002309 -0.011287 -0.006283 0.041660
#
#
# Mechanical properties :
#
#
# Convention : Reuss Voigt Hill
#
# Bulk Modulus (GPa) = 51.47959 47.27536 49.37748
# Shear Modulus (GPa) = 27.12257 -18.90463 4.10897
#
# Velocity S-wave (km/s) = 3.62520 -3.02657 1.41102
# Velocity P-wave (km/s) = 6.51666 3.27009 5.15560
#
# Compressibility (1/GPa) = 0.01942517
#
# Stress axis : x y z
#
# Youngs Moduli (GPa) = 902.20694 107.06203 57.30543
#
# Poissons Ratio (x) = -0.40381 0.10618
# Poissons Ratio (y) = -3.40286 0.35276
# Poissons Ratio (z) = 1.67162 0.65906
#
# Static dielectric constant tensor:
#      x y z
#    x 1.753350 0.020100 -0.001710 
#    y 0.020100 1.869930 0.023280 
#    z -0.001710 0.023280 1.750430 
# 
# From -- ./inp_files/246081.got.cif
#   From: 2010.05.17/outbox.cif.g08.bks.cpg/sg2_124_cif.got.tgz:246081.got - 2010.06.03 11:33:40.
