data_PCOD9091196
_publ_section_title
;
Structure prediction by ZEFSAII (Michael W. Deem and Ramdas Pophale) SiO2 
 PCOD9091196
Probable space group: P -1
;
_chemical_formula_sum "Si O2"
_cell_formula_units_Z 16
_cell_length_a 13.470177
_cell_length_b 13.648773
_cell_length_c 10.994940
_cell_angle_alpha 135.403340
_cell_angle_beta 136.404472
_cell_angle_gamma 31.820391
_cell_volume 708.483669
_symmetry_space_group_name_H-M "P -1"
_symmetry_group_IT_number 2
_symmetry_cell_setting 'triclinic'
loop_
_space_group_symop_operation_xyz
x,y,z
-x,-y,-z
loop_
_atom_site_type_symbol
_atom_site_label
_atom_site_fract_x
_atom_site_fract_y
_atom_site_fract_z
Si Si1 0.563727 0.541123 0.416809
Si Si2 0.864350 0.142914 0.614920
Si Si3 0.657188 0.774368 0.587556
Si Si4 0.083992 0.174741 0.016921
Si Si5 0.717806 0.767691 0.360244
Si Si6 0.022941 0.769067 0.545314
Si Si7 0.848082 0.228556 0.074082
Si Si8 0.440339 0.717640 0.989353
O O1 0.372698 0.685768 0.461489
O O2 0.591000 0.666780 0.477347
O O3 0.518522 0.435390 0.201180
O O4 0.793124 0.362513 0.501513
O O5 0.966328 0.212148 0.824153
O O6 0.895323 0.993522 0.606527
O O7 0.000000 0.000000 0.500000
O O8 0.760105 0.710311 0.489259
O O9 0.458110 0.999379 0.593997
O O10 0.798321 0.760698 0.797169
O O11 0.256231 0.939018 0.976503
O O12 0.918602 0.270901 0.061107
O O13 0.893346 0.717313 0.393608
O O14 0.623852 0.694332 0.153492
O O15 0.113256 0.723361 0.720664
O O16 0.635855 0.296419 0.962503
O O17 0.000000 0.000000 0.000000
#
# Coordination Sequence:
#
# PCOD9091196 Si02
#       8
#     2   2   2   2   2   2   2   2
#     4  11  24  41  64  96 124 168 218 257 319 378
#     4  12  26  44  69  91 119 171 222 268 321 370
#     4  10  21  34  63  99 130 176 206 246 316 392
#     4  10  19  39  64  87 134 167 207 261 319 366
#     4  10  20  35  62  96 140 170 202 246 317 389
#     4  11  21  42  62  93 134 160 204 269 310 377
#     4   9  15  31  61  86 121 171 190 240 323 365
#     4   9  20  35  59  99 129 168 202 253 312 384
#
# _framework density 22.583442000000002
#
# number of rings (size 3 to 8) (size 9 to 14) (size 15 to 20)
#    0.000    1.750    6.250    0.000    3.500    2.500 
#    2.250    0.625    0.000    1.500    0.000    0.000 
#    0.000    0.000    0.000    0.000    0.000    0.000 
#
# Total GULP energy -89336.976827 kJ/mol
# GULP energy per Si atom -5583.561052 kJ/mol
# Density = 2.253204 g / cm^3
# Si number density = 22.583442 Si / 1000 Ang^3
#
#
#
# Elastic Constant Matrix: (Units=GPa)
#
#
# Indices 1 2 3 4 5 6 
#
# 1 95.0623 17.7623 54.4250 2.2332 20.5891 -35.4387
# 2 17.7623 90.8653 0.9285 13.4139 18.6838 -11.9021
# 3 54.4250 0.9285 92.9754 -0.6042 41.8166 -7.9558
# 4 2.2332 13.4139 -0.6042 32.9511 -0.9339 7.2296
# 5 20.5891 18.6838 41.8166 -0.9339 37.5679 -1.1948
# 6 -35.4387 -11.9021 -7.9558 7.2296 -1.1948 37.5996
#
#
#
# Elastic Compliance Matrix: (Units=1/GPa)
#
#
# Indices 1 2 3 4 5 6 
#
# 1 0.028832 -0.002351 -0.017053 -0.006485 0.004959 0.024227
# 2 -0.002351 0.017266 0.009983 -0.008620 -0.018420 0.006434
# 3 -0.017053 0.009983 0.036550 -0.001965 -0.036541 -0.005963
# 4 -0.006485 -0.008620 -0.001965 0.038123 0.010459 -0.016254
# 5 0.004959 -0.018420 -0.036541 0.010459 0.073722 -0.008557
# 6 0.024227 0.006434 -0.005963 -0.016254 -0.008557 0.053059
#
#
# Mechanical properties :
#
#
# Convention : Reuss Voigt Hill
#
# Bulk Modulus (GPa) = 15.67296 47.23719 31.45508
# Shear Modulus (GPa) = 17.38144 35.34287 26.36216
#
# Velocity S-wave (km/s) = 2.77727 3.96029 3.42032
# Velocity P-wave (km/s) = 4.15204 6.47101 5.43661
#
# Compressibility (1/GPa) = 0.06380415
#
# Stress axis : x y z
#
# Youngs Moduli (GPa) = 34.68367 57.91879 27.35982
#
# Poissons Ratio (x) = 0.13616 0.46658
# Poissons Ratio (y) = 0.08154 -0.27312
# Poissons Ratio (z) = 0.59148 -0.57818
#
# Static dielectric constant tensor:
#      x y z
#    x 1.867630 0.005090 0.004280 
#    y 0.005090 1.944570 -0.029690 
#    z 0.004280 -0.029690 1.833670 
# 
# From -- ./inp_files/455117.got.cif
#   From: 2010.05.17/outbox.cif.g08.bks.cpg/sg2_228_cif.got.tgz:455117.got - 2010.06.03 11:33:40.
