data_PCOD9091610
_publ_section_title
;
Structure prediction by ZEFSAII (Michael W. Deem and Ramdas Pophale) SiO2 
 PCOD9091610
Probable space group: P -1
;
_chemical_formula_sum "Si O2"
_cell_formula_units_Z 16
_cell_length_a 9.111424
_cell_length_b 23.626891
_cell_length_c 7.201622
_cell_angle_alpha 63.184807
_cell_angle_beta 107.792009
_cell_angle_gamma 151.162498
_cell_volume 652.734442
_symmetry_space_group_name_H-M "P -1"
_symmetry_group_IT_number 2
_symmetry_cell_setting 'triclinic'
loop_
_space_group_symop_operation_xyz
x,y,z
-x,-y,-z
loop_
_atom_site_type_symbol
_atom_site_label
_atom_site_fract_x
_atom_site_fract_y
_atom_site_fract_z
Si Si1 0.726803 0.153572 0.032790
Si Si2 0.321711 0.123481 0.834869
Si Si3 0.411708 0.799139 0.537353
Si Si4 0.608993 0.707988 0.318008
Si Si5 0.446084 0.411612 0.025492
Si Si6 0.628465 0.353962 0.092978
Si Si7 0.255511 0.468725 0.427235
Si Si8 0.279805 0.887109 0.345818
O O1 0.084867 0.283438 0.028219
O O2 0.540041 0.033505 0.252052
O O3 0.560787 0.162031 0.972227
O O4 0.708506 0.127083 0.847849
O O5 0.306884 0.096059 0.655027
O O6 0.422053 0.232664 0.705107
O O7 0.000000 0.000000 0.000000
O O8 0.426558 0.739542 0.744127
O O9 0.350320 0.845628 0.536379
O O10 0.097116 0.676848 0.473456
O O11 0.347006 0.560147 0.456731
O O12 0.936697 0.793788 0.376529
O O13 0.577108 0.707740 0.081483
O O14 0.512265 0.362988 0.191508
O O15 0.500000 0.500000 0.000000
O O16 0.679161 0.493905 0.818241
O O17 0.000000 0.500000 0.000000
O O18 0.500000 0.500000 0.500000
#
# Coordination Sequence:
#
# PCOD9091610 Si02
#       8
#     2   2   2   2   2   2   2   2
#     4  10  20  39  65  92 122 171 223 260 330 383
#     4  11  24  40  65  99 127 163 227 283 317 375
#     4  11  23  39  65  96 134 170 218 271 328 393
#     4  11  21  39  68  90 131 172 213 275 330 382
#     4  11  24  40  66  96 134 175 211 273 338 392
#     4  11  23  43  60  96 138 174 208 265 342 401
#     4  11  20  38  62  95 127 167 227 262 322 395
#     4  10  19  39  68  90 121 177 225 263 314 402
#
# _framework density 24.512266
#
# number of rings (size 3 to 8) (size 9 to 14) (size 15 to 20)
#    0.000    1.250    7.500    0.750    1.750    1.500 
#    0.000    2.500    0.000    2.250    0.000    0.000 
#    0.000    0.000    0.000    0.000    0.000    0.000 
#
# Total GULP energy -89366.130178 kJ/mol
# GULP energy per Si atom -5585.383136 kJ/mol
# Density = 2.445647 g / cm^3
# Si number density = 24.512266 Si / 1000 Ang^3
#
#
#
# Elastic Constant Matrix: (Units=GPa)
#
#
# Indices 1 2 3 4 5 6 
#
# 1 194.1017 49.4016 32.9258 -3.6048 43.3161 -3.2334
# 2 49.4016 82.3264 18.7919 -20.9744 -1.1348 -11.3216
# 3 32.9258 18.7919 70.4720 -14.4615 25.2777 5.4034
# 4 -3.6048 -20.9744 -14.4615 32.0355 -2.7146 0.8434
# 5 43.3161 -1.1348 25.2777 -2.7146 54.0596 -12.3506
# 6 -3.2334 -11.3216 5.4034 0.8434 -12.3506 43.7200
#
#
#
# Elastic Compliance Matrix: (Units=1/GPa)
#
#
# Indices 1 2 3 4 5 6 
#
# 1 0.008475 -0.006677 0.000104 -0.003957 -0.007927 -0.003278
# 2 -0.006677 0.021534 -0.004557 0.011955 0.010444 0.008366
# 3 0.000104 -0.004557 0.021196 0.005816 -0.011427 -0.007132
# 4 -0.003957 0.011955 0.005816 0.041443 0.003289 0.002214
# 5 -0.007927 0.010444 -0.011427 0.003289 0.033533 0.012940
# 6 -0.003278 0.008366 -0.007132 0.002214 0.012940 0.029291
#
#
# Mechanical properties :
#
#
# Convention : Reuss Voigt Hill
#
# Bulk Modulus (GPa) = 34.55014 61.01540 47.78277
# Shear Modulus (GPa) = 26.68363 42.34839 34.51601
#
# Velocity S-wave (km/s) = 3.30295 4.16100 3.75655
# Velocity P-wave (km/s) = 5.35459 6.93044 6.19284
#
# Compressibility (1/GPa) = 0.02894344
#
# Stress axis : x y z
#
# Youngs Moduli (GPa) = 117.99972 46.43842 47.17891
#
# Poissons Ratio (x) = 0.31007 -0.00489
# Poissons Ratio (y) = 0.78789 0.21499
# Poissons Ratio (z) = -0.01223 0.21162
#
# Static dielectric constant tensor:
#      x y z
#    x 2.028070 -0.082650 0.096430 
#    y -0.082650 1.952800 0.009020 
#    z 0.096430 0.009020 2.172730 
# 
# From -- ./inp_files/225381.got.cif
#   From: 2010.05.17/outbox.cif.g08.bks.cpg/sg2_113_cif.got.tgz:225381.got - 2010.06.03 11:33:40.
