data_PCOD9091961
_publ_section_title
;
Structure prediction by ZEFSAII (Michael W. Deem and Ramdas Pophale) SiO2 
 PCOD9091961
Probable space group: P -1
;
_chemical_formula_sum "Si O2"
_cell_formula_units_Z 16
_cell_length_a 9.024369
_cell_length_b 13.812577
_cell_length_c 9.485828
_cell_angle_alpha 103.698148
_cell_angle_beta 71.640242
_cell_angle_gamma 134.619232
_cell_volume 798.572567
_symmetry_space_group_name_H-M "P -1"
_symmetry_group_IT_number 2
_symmetry_cell_setting 'triclinic'
loop_
_space_group_symop_operation_xyz
x,y,z
-x,-y,-z
loop_
_atom_site_type_symbol
_atom_site_label
_atom_site_fract_x
_atom_site_fract_y
_atom_site_fract_z
Si Si1 0.834150 0.505688 0.988887
Si Si2 0.870740 0.745147 0.104326
Si Si3 0.026826 0.124372 0.595134
Si Si4 0.329665 0.012730 0.546393
Si Si5 0.432245 0.322837 0.211122
Si Si6 0.497885 0.297175 0.482871
Si Si7 0.004856 0.912030 0.857280
Si Si8 0.625162 0.467668 0.756216
O O1 0.882309 0.632904 0.092008
O O2 0.597168 0.368837 0.055512
O O3 0.801043 0.516393 0.836928
O O4 0.000000 0.500000 0.000000
O O5 0.989559 0.862021 0.228609
O O6 0.616611 0.658952 0.155935
O O7 0.966596 0.805426 0.941913
O O8 0.271579 0.258730 0.541710
O O9 0.000000 0.000000 0.500000
O O10 0.852187 0.103543 0.548075
O O11 0.440375 0.160385 0.500952
O O12 0.500000 0.000000 0.500000
O O13 0.208306 0.988252 0.720659
O O14 0.553418 0.337422 0.318835
O O15 0.203992 0.172359 0.207709
O O16 0.384821 0.420504 0.246397
O O17 0.650372 0.412895 0.590368
O O18 0.000000 0.000000 0.000000
#
# Coordination Sequence:
#
# PCOD9091961 Si02
#       8
#     2   2   2   2   2   2   2   2
#     4  11  23  39  60  92 128 159 197 263 326 370
#     4  10  20  38  62  90 119 160 211 258 305 373
#     4   9  18  36  60  84 117 160 207 253 302 371
#     4  11  25  41  59  91 134 167 202 262 323 365
#     4  11  21  39  65  91 117 159 218 260 300 372
#     4  10  21  38  64  87 119 166 215 252 303 380
#     4  12  22  38  69  94 118 167 219 251 309 377
#     4  10  19  40  64  89 121 156 208 262 311 365
#
# _framework density 20.03575
#
# number of rings (size 3 to 8) (size 9 to 14) (size 15 to 20)
#    0.000    1.500    3.750    3.375    1.750    2.000 
#    0.000    1.250    0.000    0.000    0.000    0.000 
#    0.000    0.000    0.000    0.000    0.000    0.000 
#
# Total GULP energy -89161.488419 kJ/mol
# GULP energy per Si atom -5572.593026 kJ/mol
# Density = 1.999015 g / cm^3
# Si number density = 20.035750 Si / 1000 Ang^3
#
#
#
# Elastic Constant Matrix: (Units=GPa)
#
#
# Indices 1 2 3 4 5 6 
#
# 1 128.4765 35.0537 45.0064 15.4655 9.8183 -8.9166
# 2 35.0537 60.2040 37.1151 9.4624 7.6321 -5.2163
# 3 45.0064 37.1151 123.0924 11.9673 27.8951 -5.9743
# 4 15.4655 9.4624 11.9673 34.1906 2.4018 8.8174
# 5 9.8183 7.6321 27.8951 2.4018 23.9524 -1.4212
# 6 -8.9166 -5.2163 -5.9743 8.8174 -1.4212 14.9489
#
#
#
# Elastic Compliance Matrix: (Units=1/GPa)
#
#
# Indices 1 2 3 4 5 6 
#
# 1 0.010525 -0.003520 -0.001959 -0.004956 0.000012 0.007191
# 2 -0.003520 0.023015 -0.005049 -0.004839 0.000882 0.006851
# 3 -0.001959 -0.005049 0.013690 -0.002261 -0.013149 0.002625
# 4 -0.004956 -0.004839 -0.002261 0.041307 0.000292 -0.029885
# 5 0.000012 0.000882 -0.013149 0.000292 0.056764 0.000284
# 6 0.007191 0.006851 0.002625 -0.029885 0.000284 0.092278
#
#
# Mechanical properties :
#
#
# Convention : Reuss Voigt Hill
#
# Bulk Modulus (GPa) = 38.20684 60.68036 49.44360
# Shear Modulus (GPa) = 18.70144 27.59157 23.14651
#
# Velocity S-wave (km/s) = 3.05848 3.71498 3.40260
# Velocity P-wave (km/s) = 5.61989 6.98235 6.33784
#
# Compressibility (1/GPa) = 0.02617332
#
# Stress axis : x y z
#
# Youngs Moduli (GPa) = 95.01282 43.45012 73.04793
#
# Poissons Ratio (x) = 0.15295 0.14308
# Poissons Ratio (y) = 0.33445 0.36884
# Poissons Ratio (z) = 0.18610 0.21939
#
# Static dielectric constant tensor:
#      x y z
#    x 1.717430 -0.022240 0.043970 
#    y -0.022240 1.762960 -0.018840 
#    z 0.043970 -0.018840 1.806090 
# 
# From -- ./inp_files/208198.got.cif
#   From: 2010.05.17/outbox.cif.g08.bks.cpg/sg2_105_cif.got.tgz:208198.got - 2010.06.03 11:33:40.
