data_PCOD9091735
_publ_section_title
;
Structure prediction by ZEFSAII (Michael W. Deem and Ramdas Pophale) SiO2 
 PCOD9091735
Probable space group: P -1
;
_chemical_formula_sum "Si O2"
_cell_formula_units_Z 16
_cell_length_a 17.829232
_cell_length_b 9.166636
_cell_length_c 5.112878
_cell_angle_alpha 76.836466
_cell_angle_beta 94.222703
_cell_angle_gamma 134.869194
_cell_volume 572.053851
_symmetry_space_group_name_H-M "P -1"
_symmetry_group_IT_number 2
_symmetry_cell_setting 'triclinic'
loop_
_space_group_symop_operation_xyz
x,y,z
-x,-y,-z
loop_
_atom_site_type_symbol
_atom_site_label
_atom_site_fract_x
_atom_site_fract_y
_atom_site_fract_z
Si Si1 0.153901 0.441614 0.525389
Si Si2 0.690240 0.184764 0.255930
Si Si3 0.968734 0.155057 0.957758
Si Si4 0.151222 0.121938 0.472308
Si Si5 0.547153 0.214779 0.282301
Si Si6 0.641839 0.866011 0.749581
Si Si7 0.858956 0.297995 0.871238
Si Si8 0.611773 0.571697 0.544628
O O1 0.267579 0.670465 0.534475
O O2 0.169223 0.324438 0.388978
O O3 0.094732 0.501808 0.369539
O O4 0.085811 0.293490 0.817493
O O5 0.625013 0.232555 0.097398
O O6 0.639826 0.956343 0.433146
O O7 0.797166 0.289394 0.094402
O O8 0.945493 0.295858 0.943684
O O9 0.890456 0.994323 0.767199
O O10 0.938324 0.035929 0.269583
O O11 0.262994 0.212577 0.574949
O O12 0.456042 0.182460 0.120823
O O13 0.594018 0.396374 0.437884
O O14 0.500000 0.000000 0.500000
O O15 0.625458 0.663890 0.808964
O O16 0.757161 0.069770 0.805348
O O17 0.500000 0.500000 0.500000
#
# Coordination Sequence:
#
# PCOD9091735 Si02
#       8
#     2   2   2   2   2   2   2   2
#     4  11  26  44  69 103 138 186 238 293 354 412
#     4  10  21  38  63  94 137 179 232 288 349 417
#     4  12  28  47  74 102 145 189 240 295 351 418
#     4  12  26  48  73 105 144 186 237 295 352 422
#     4   9  18  35  64  93 131 176 224 291 349 420
#     4   9  19  38  60  94 133 178 232 283 350 417
#     4  11  24  41  68  98 140 183 237 295 349 424
#     4  10  19  39  71  97 137 181 231 284 352 422
#
# _framework density 27.969394999999999
#
# number of rings (size 3 to 8) (size 9 to 14) (size 15 to 20)
#    0.000    1.500    2.500    1.875    5.250    1.000 
#    0.000    0.625   16.500    0.000    0.000    0.000 
#    0.000    0.000    0.000    0.000    0.000    0.000 
#
# Total GULP energy -89266.806817 kJ/mol
# GULP energy per Si atom -5579.175426 kJ/mol
# Density = 2.790574 g / cm^3
# Si number density = 27.969395 Si / 1000 Ang^3
#
#
#
# Elastic Constant Matrix: (Units=GPa)
#
#
# Indices 1 2 3 4 5 6 
#
# 1 125.7218 21.7172 20.2970 -2.3644 -26.3421 -24.5878
# 2 21.7172 153.5596 30.3584 25.1491 -3.2555 -8.6740
# 3 20.2970 30.3584 90.9812 5.8741 1.2822 -10.7979
# 4 -2.3644 25.1491 5.8741 37.7779 -0.8279 -6.5732
# 5 -26.3421 -3.2555 1.2822 -0.8279 35.6194 9.1352
# 6 -24.5878 -8.6740 -10.7979 -6.5732 9.1352 63.4729
#
#
#
# Elastic Compliance Matrix: (Units=1/GPa)
#
#
# Indices 1 2 3 4 5 6 
#
# 1 0.010548 -0.001205 -0.001870 0.002401 0.007088 0.002832
# 2 -0.001205 0.007903 -0.002068 -0.005060 -0.000150 -0.000241
# 3 -0.001870 -0.002068 0.012327 -0.000468 -0.002382 0.001384
# 4 0.002401 -0.005060 -0.000468 0.030638 0.001233 0.003154
# 5 0.007088 -0.000150 -0.002382 0.001233 0.034046 -0.002452
# 6 0.002832 -0.000241 0.001384 0.003154 -0.002452 0.017734
#
#
# Mechanical properties :
#
#
# Convention : Reuss Voigt Hill
#
# Bulk Modulus (GPa) = 48.79978 57.22309 53.01143
# Shear Modulus (GPa) = 38.36915 47.23336 42.80125
#
# Velocity S-wave (km/s) = 3.70784 4.11390 3.91613
# Velocity P-wave (km/s) = 5.98466 6.56271 6.28034
#
# Compressibility (1/GPa) = 0.02049190
#
# Stress axis : x y z
#
# Youngs Moduli (GPa) = 94.80330 126.52782 81.12542
#
# Poissons Ratio (x) = 0.15248 0.15169
# Poissons Ratio (y) = 0.11425 0.16778
# Poissons Ratio (z) = 0.17727 0.26167
#
# Static dielectric constant tensor:
#      x y z
#    x 2.364700 0.060860 -0.054640 
#    y 0.060860 2.235840 -0.024190 
#    z -0.054640 -0.024190 2.271760 
# 
# From -- ./inp_files/47938.got.cif
#   From: 2010.05.17/outbox.cif.g08.bks.cpg/sg2_24_cif.got.tgz:47938.got - 2010.06.03 11:33:40.
