data_PCOD9091597
_publ_section_title
;
Structure prediction by ZEFSAII (Michael W. Deem and Ramdas Pophale) SiO2 
 PCOD9091597
Probable space group: P -1
;
_chemical_formula_sum "Si O2"
_cell_formula_units_Z 16
_cell_length_a 8.917416
_cell_length_b 8.357044
_cell_length_c 11.528255
_cell_angle_alpha 99.721204
_cell_angle_beta 99.152266
_cell_angle_gamma 48.119542
_cell_volume 629.208037
_symmetry_space_group_name_H-M "P -1"
_symmetry_group_IT_number 2
_symmetry_cell_setting 'triclinic'
loop_
_space_group_symop_operation_xyz
x,y,z
-x,-y,-z
loop_
_atom_site_type_symbol
_atom_site_label
_atom_site_fract_x
_atom_site_fract_y
_atom_site_fract_z
Si Si1 0.443147 0.756749 0.276680
Si Si2 0.173593 0.373410 0.362851
Si Si3 0.890059 0.828768 0.082756
Si Si4 0.258869 0.160355 0.684847
Si Si5 0.135143 0.056254 0.446402
Si Si6 0.382772 0.752694 0.005447
Si Si7 0.685819 0.434714 0.441306
Si Si8 0.733403 0.647875 0.885832
O O1 0.556876 0.848746 0.316488
O O2 0.367183 0.810598 0.144353
O O3 0.612816 0.507855 0.308416
O O4 0.259749 0.852081 0.353320
O O5 0.146910 0.214562 0.391318
O O6 0.266653 0.424195 0.477766
O O7 0.293774 0.306099 0.248734
O O8 0.949700 0.596039 0.334484
O O9 0.765479 0.877522 0.190448
O O10 0.119451 0.613214 0.112572
O O11 0.833133 0.739542 0.963685
O O12 0.826951 0.052751 0.060030
O O13 0.251235 0.021340 0.574118
O O14 0.897753 0.192377 0.449169
O O15 0.500000 0.500000 0.000000
O O16 0.539346 0.751694 0.952046
O O17 0.500000 0.500000 0.500000
#
# Coordination Sequence:
#
# PCOD9091597 Si02
#       8
#     2   2   2   2   2   2   2   2
#     4  12  24  41  68  98 130 179 234 279 347 407
#     4  10  20  39  70 102 132 170 228 284 338 403
#     4  10  22  42  68 100 131 175 236 292 338 398
#     4  10  19  39  68 103 131 165 229 296 342 391
#     4  11  22  41  70 104 132 170 231 290 336 412
#     4  12  28  44  64  96 143 189 230 276 349 426
#     4  11  25  43  65  96 143 180 213 276 356 427
#     4  10  22  40  72 101 133 174 232 295 340 397
#
# _framework density 25.428792000000001
#
# number of rings (size 3 to 8) (size 9 to 14) (size 15 to 20)
#    0.000    1.250    3.750    2.250    3.500    2.000 
#    0.000    0.000    0.000    0.000    0.000    0.000 
#    0.000    0.000    0.000    0.000    0.000    0.000 
#
# Total GULP energy -89571.497470 kJ/mol
# GULP energy per Si atom -5598.218592 kJ/mol
# Density = 2.537092 g / cm^3
# Si number density = 25.428792 Si / 1000 Ang^3
#
#
#
# Elastic Constant Matrix: (Units=GPa)
#
#
# Indices 1 2 3 4 5 6 
#
# 1 83.3629 10.9829 6.0977 3.1339 -24.9560 -19.5081
# 2 10.9829 135.7602 25.6328 -22.8143 -2.3015 -6.5890
# 3 6.0977 25.6328 141.5942 -10.4413 -33.6186 -8.4620
# 4 3.1339 -22.8143 -10.4413 43.5648 -6.3243 -12.1351
# 5 -24.9560 -2.3015 -33.6186 -6.3243 25.6114 13.7661
# 6 -19.5081 -6.5890 -8.4620 -12.1351 13.7661 38.7751
#
#
#
# Elastic Compliance Matrix: (Units=1/GPa)
#
#
# Indices 1 2 3 4 5 6 
#
# 1 0.020623 -0.001595 0.006517 0.004106 0.027971 0.002881
# 2 -0.001595 0.008690 -0.001882 0.004508 -0.003744 0.003004
# 3 0.006517 -0.001882 0.013645 0.005136 0.026329 -0.001803
# 4 0.004106 0.004508 0.005136 0.030680 0.014136 0.008536
# 5 0.027971 -0.003744 0.026329 0.014136 0.112863 -0.016463
# 6 0.002881 0.003004 -0.001803 0.008536 -0.016463 0.035873
#
#
# Mechanical properties :
#
#
# Convention : Reuss Voigt Hill
#
# Bulk Modulus (GPa) = 20.39233 49.57156 34.98194
# Shear Modulus (GPa) = 21.49261 42.79055 32.14158
#
# Velocity S-wave (km/s) = 2.91040 4.10660 3.55911
# Velocity P-wave (km/s) = 4.39667 6.48244 5.53863
#
# Compressibility (1/GPa) = 0.04903806
#
# Stress axis : x y z
#
# Youngs Moduli (GPa) = 48.49063 115.07446 73.28926
#
# Poissons Ratio (x) = 0.18350 -0.47760
# Poissons Ratio (y) = 0.07733 0.13790
# Poissons Ratio (z) = -0.31600 0.21652
#
# Static dielectric constant tensor:
#      x y z
#    x 1.978900 0.014990 -0.012040 
#    y 0.014990 2.115910 0.010750 
#    z -0.012040 0.010750 1.959740 
# 
# From -- ./inp_files/382673.got.cif
#   From: 2010.05.17/outbox.cif.g08.bks.cpg/sg2_192_cif.got.tgz:382673.got - 2010.06.03 11:33:40.
