data_PCOD9091182
_publ_section_title
;
Structure prediction by ZEFSAII (Michael W. Deem and Ramdas Pophale) SiO2 
 PCOD9091182
Probable space group: P -1
;
_chemical_formula_sum "Si O2"
_cell_formula_units_Z 16
_cell_length_a 21.044956
_cell_length_b 17.811373
_cell_length_c 6.850844
_cell_angle_alpha 58.036940
_cell_angle_beta 49.506103
_cell_angle_gamma 19.483605
_cell_volume 615.665314
_symmetry_space_group_name_H-M "P -1"
_symmetry_group_IT_number 2
_symmetry_cell_setting 'triclinic'
loop_
_space_group_symop_operation_xyz
x,y,z
-x,-y,-z
loop_
_atom_site_type_symbol
_atom_site_label
_atom_site_fract_x
_atom_site_fract_y
_atom_site_fract_z
Si Si1 0.739450 0.003143 0.852341
Si Si2 0.063142 0.073415 0.852788
Si Si3 0.900256 0.502046 0.255799
Si Si4 0.378270 0.594718 0.815293
Si Si5 0.844160 0.067989 0.723829
Si Si6 0.692346 0.660694 0.876654
Si Si7 0.534279 0.997920 0.663443
Si Si8 0.845963 0.848426 0.267558
O O1 0.915732 0.752389 0.805842
O O2 0.839157 0.004551 0.638441
O O3 0.700087 0.029327 0.129538
O O4 0.497935 0.224973 0.936199
O O5 0.242452 0.818100 0.825214
O O6 0.157080 0.081184 0.637993
O O7 0.039597 0.096904 0.103180
O O8 0.820920 0.282585 0.967028
O O9 0.823007 0.559891 0.553320
O O10 0.670183 0.733104 0.274925
O O11 0.000000 0.500000 0.000000
O O12 0.500000 0.500000 0.500000
O O13 0.585432 0.355043 0.861595
O O14 0.000000 0.000000 0.500000
O O15 0.557734 0.882792 0.888671
O O16 0.892953 0.424442 0.927453
O O17 0.751206 0.842817 0.489011
O O18 0.500000 0.000000 0.500000
#
# Coordination Sequence:
#
# PCOD9091182 Si02
#       8
#     2   2   2   2   2   2   2   2
#     4  11  23  43  64  90 131 166 210 267 311 375
#     4  10  24  42  65  93 127 169 208 267 324 372
#     4  11  21  40  66  89 127 166 206 258 319 371
#     4  11  22  43  66  90 128 164 210 268 316 378
#     4  11  23  42  64  95 128 170 215 259 324 383
#     4  11  22  42  65  90 126 170 209 261 317 368
#     4  10  19  39  64  85 126 167 198 256 313 363
#     4  11  22  42  64  94 125 164 217 257 312 381
#
# _framework density 25.988144999999999
#
# number of rings (size 3 to 8) (size 9 to 14) (size 15 to 20)
#    0.000    1.250    5.000    2.250    0.000    2.000 
#    4.500    1.250    0.000    0.000    0.000    0.000 
#    0.000    0.000    0.000    0.000    0.000    0.000 
#
# Total GULP energy -89381.325836 kJ/mol
# GULP energy per Si atom -5586.332865 kJ/mol
# Density = 2.592899 g / cm^3
# Si number density = 25.988145 Si / 1000 Ang^3
#
#
#
# Elastic Constant Matrix: (Units=GPa)
#
#
# Indices 1 2 3 4 5 6 
#
# 1 137.8309 56.0853 40.5707 32.4596 -49.5932 18.6093
# 2 56.0853 176.3722 26.2282 24.4057 -28.2533 -12.1705
# 3 40.5707 26.2282 92.7306 14.8947 -27.6391 -7.9006
# 4 32.4596 24.4057 14.8947 50.9175 -7.3772 -2.0861
# 5 -49.5932 -28.2533 -27.6391 -7.3772 49.7918 5.3714
# 6 18.6093 -12.1705 -7.9006 -2.0861 5.3714 58.9963
#
#
#
# Elastic Compliance Matrix: (Units=1/GPa)
#
#
# Indices 1 2 3 4 5 6 
#
# 1 0.016302 -0.002240 -0.001921 -0.007081 0.013644 -0.007354
# 2 -0.002240 0.006954 -0.000224 -0.001594 0.001144 0.001951
# 3 -0.001921 -0.000224 0.013653 -0.001852 0.005063 0.001862
# 4 -0.007081 -0.001594 -0.001852 0.024767 -0.005645 0.003046
# 5 0.013644 0.001144 0.005063 -0.005645 0.037047 -0.006962
# 6 -0.007354 0.001951 0.001862 0.003046 -0.006962 0.020663
#
#
# Mechanical properties :
#
#
# Convention : Reuss Voigt Hill
#
# Bulk Modulus (GPa) = 35.53836 72.52243 54.03040
# Shear Modulus (GPa) = 36.35419 50.87774 43.61597
#
# Velocity S-wave (km/s) = 3.74421 4.42942 4.10115
# Velocity P-wave (km/s) = 5.69181 7.35706 6.57735
#
# Compressibility (1/GPa) = 0.02813861
#
# Stress axis : x y z
#
# Youngs Moduli (GPa) = 61.34160 143.80488 73.24458
#
# Poissons Ratio (x) = 0.32216 0.14072
# Poissons Ratio (y) = 0.13742 0.01638
# Poissons Ratio (z) = 0.11786 0.03215
#
# Static dielectric constant tensor:
#      x y z
#    x 2.205410 0.073580 0.005650 
#    y 0.073580 2.034880 -0.116380 
#    z 0.005650 -0.116380 2.290950 
# 
# From -- ./inp_files/348414.got.cif
#   From: 2010.05.17/outbox.cif.g08.bks.cpg/sg2_175_cif.got.tgz:348414.got - 2010.06.03 11:33:40.
