data_PCOD9091474
_publ_section_title
;
Structure prediction by ZEFSAII (Michael W. Deem and Ramdas Pophale) SiO2 
 PCOD9091474
Probable space group: P -1
;
_chemical_formula_sum "Si O2"
_cell_formula_units_Z 16
_cell_length_a 10.824309
_cell_length_b 8.612321
_cell_length_c 14.969063
_cell_angle_alpha 41.739808
_cell_angle_beta 121.823529
_cell_angle_gamma 101.427655
_cell_volume 740.812119
_symmetry_space_group_name_H-M "P -1"
_symmetry_group_IT_number 2
_symmetry_cell_setting 'triclinic'
loop_
_space_group_symop_operation_xyz
x,y,z
-x,-y,-z
loop_
_atom_site_type_symbol
_atom_site_label
_atom_site_fract_x
_atom_site_fract_y
_atom_site_fract_z
Si Si1 0.485231 0.739626 0.270024
Si Si2 0.542166 0.934873 0.647609
Si Si3 0.941680 0.039450 0.064542
Si Si4 0.837946 0.014044 0.674166
Si Si5 0.729307 0.751230 0.053193
Si Si6 0.970595 0.524360 0.821081
Si Si7 0.388149 0.561643 0.721735
Si Si8 0.696275 0.569841 0.573103
O O1 0.508861 0.647049 0.217514
O O2 0.650053 0.592354 0.442725
O O3 0.358307 0.642682 0.311471
O O4 0.426084 0.035657 0.131772
O O5 0.498016 0.694412 0.752211
O O6 0.500000 0.000000 0.500000
O O7 0.717044 0.923952 0.723820
O O8 0.427916 0.173867 0.549736
O O9 0.808250 0.921653 0.064941
O O10 0.913766 0.332119 0.940062
O O11 0.061655 0.913255 0.243103
O O12 0.000000 0.000000 0.000000
O O13 0.740300 0.229686 0.476373
O O14 0.935673 0.779701 0.751027
O O15 0.690672 0.559010 0.184364
O O16 0.853495 0.606195 0.088126
O O17 0.861583 0.561057 0.675257
#
# Coordination Sequence:
#
# PCOD9091474 Si02
#       8
#     2   2   2   2   2   2   2   2
#     4  11  23  39  66  95 126 164 218 268 317 373
#     4  10  19  39  66  93 120 155 219 264 304 364
#     4  10  24  39  63  95 131 161 207 266 322 373
#     4  11  22  41  69  97 118 171 218 267 313 373
#     4  11  26  41  61  95 140 171 198 266 325 384
#     4  11  22  42  63  94 129 163 216 266 316 375
#     4  11  23  43  66  91 130 172 216 258 319 383
#     4  11  21  38  69  96 117 167 223 269 307 367
#
# _framework density 21.597919999999998
#
# number of rings (size 3 to 8) (size 9 to 14) (size 15 to 20)
#    0.000    1.250    6.250    0.750    7.000    1.000 
#    0.000    0.625    0.000    0.000    0.000    0.000 
#    0.000    0.000    0.000    0.000    0.000    0.000 
#
# Total GULP energy -89358.510772 kJ/mol
# GULP energy per Si atom -5584.906923 kJ/mol
# Density = 2.154876 g / cm^3
# Si number density = 21.597920 Si / 1000 Ang^3
#
#
#
# Elastic Constant Matrix: (Units=GPa)
#
#
# Indices 1 2 3 4 5 6 
#
# 1 68.4910 17.8407 43.6167 -20.6508 -14.2820 4.4716
# 2 17.8407 57.2206 23.8680 -12.1559 -2.0900 -8.1457
# 3 43.6167 23.8680 110.1719 -9.6862 -1.0443 1.1758
# 4 -20.6508 -12.1559 -9.6862 37.4197 2.5135 14.7210
# 5 -14.2820 -2.0900 -1.0443 2.5135 33.1305 -13.5647
# 6 4.4716 -8.1457 1.1758 14.7210 -13.5647 31.7965
#
#
#
# Elastic Compliance Matrix: (Units=1/GPa)
#
#
# Indices 1 2 3 4 5 6 
#
# 1 0.027235 -0.002612 -0.008784 0.014576 0.006932 -0.007966
# 2 -0.002612 0.021073 -0.003396 0.002012 0.002393 0.005981
# 3 -0.008784 -0.003396 0.013087 -0.001995 -0.003765 -0.000801
# 4 0.014576 0.002012 -0.001995 0.045592 -0.007696 -0.025852
# 5 0.006932 0.002393 -0.003765 -0.007696 0.042596 0.021512
# 6 -0.007966 0.005981 -0.000801 -0.025852 0.021512 0.055278
#
#
# Mechanical properties :
#
#
# Convention : Reuss Voigt Hill
#
# Bulk Modulus (GPa) = 31.43423 45.17048 38.30236
# Shear Modulus (GPa) = 20.40403 30.50654 25.45529
#
# Velocity S-wave (km/s) = 3.07697 3.76237 3.43680
# Velocity P-wave (km/s) = 5.21627 6.31138 5.78978
#
# Compressibility (1/GPa) = 0.03181245
#
# Stress axis : x y z
#
# Youngs Moduli (GPa) = 36.71732 47.45386 76.40888
#
# Poissons Ratio (x) = 0.12394 0.67119
# Poissons Ratio (y) = 0.09590 0.25946
# Poissons Ratio (z) = 0.32253 0.16114
#
# Static dielectric constant tensor:
#      x y z
#    x 1.764920 -0.017220 0.030330 
#    y -0.017220 1.981740 0.112660 
#    z 0.030330 0.112660 1.908170 
# 
# From -- ./inp_files/514933.got.cif
#   From: 2010.05.17/outbox.cif.g08.bks.cpg/sg2_258_cif.got.tgz:514933.got - 2010.06.03 11:33:40.
