data_PCOD9091962
_publ_section_title
;
Structure prediction by ZEFSAII (Michael W. Deem and Ramdas Pophale) SiO2 
 PCOD9091962
Probable space group: P -1
;
_chemical_formula_sum "Si O2"
_cell_formula_units_Z 16
_cell_length_a 8.987240
_cell_length_b 8.587811
_cell_length_c 14.312919
_cell_angle_alpha 92.244287
_cell_angle_beta 77.063722
_cell_angle_gamma 139.170421
_cell_volume 689.064362
_symmetry_space_group_name_H-M "P -1"
_symmetry_group_IT_number 2
_symmetry_cell_setting 'triclinic'
loop_
_space_group_symop_operation_xyz
x,y,z
-x,-y,-z
loop_
_atom_site_type_symbol
_atom_site_label
_atom_site_fract_x
_atom_site_fract_y
_atom_site_fract_z
Si Si1 0.189018 0.773174 0.300491
Si Si2 0.214861 0.041169 0.470205
Si Si3 0.685413 0.861977 0.837105
Si Si4 0.517338 0.859110 0.134578
Si Si5 0.127884 0.040700 0.804490
Si Si6 0.732794 0.307030 0.002288
Si Si7 0.005933 0.708652 0.657147
Si Si8 0.543636 0.541697 0.670998
O O1 0.188049 0.888803 0.390424
O O2 0.439686 0.884266 0.241314
O O3 0.008816 0.488966 0.335100
O O4 0.177706 0.876681 0.214067
O O5 0.202072 0.934078 0.564675
O O6 0.434060 0.325063 0.417427
O O7 0.000000 0.000000 0.500000
O O8 0.441852 0.713888 0.918274
O O9 0.616471 0.705917 0.753090
O O10 0.884682 0.928638 0.868865
O O11 0.686373 0.852682 0.138171
O O12 0.642856 0.067503 0.046247
O O13 0.281019 0.646406 0.102026
O O14 0.282208 0.268397 0.716963
O O15 0.052570 0.830254 0.751239
O O16 0.000000 0.500000 0.000000
O O17 0.749719 0.569492 0.647712
#
# Coordination Sequence:
#
# PCOD9091962 Si02
#       8
#     2   2   2   2   2   2   2   2
#     4  10  19  40  64  89 129 173 227 271 325 380
#     4   9  19  37  63  92 131 175 226 278 320 380
#     4   9  22  40  64  99 126 174 221 265 336 387
#     4  10  23  40  64  95 130 172 218 267 328 396
#     4  11  22  40  64  94 136 177 221 263 325 399
#     4  10  23  43  67  97 130 164 214 277 331 389
#     4  10  20  36  63  92 128 177 226 277 316 380
#     4   9  19  38  61  88 133 176 216 274 326 380
#
# _framework density 23.219892000000002
#
# number of rings (size 3 to 8) (size 9 to 14) (size 15 to 20)
#    0.000    2.250    1.250    1.125    1.750    4.000 
#    4.500    1.875    0.000    0.000    0.000    0.000 
#    0.000    0.000    0.000    0.000    0.000    0.000 
#
# Total GULP energy -89205.902417 kJ/mol
# GULP energy per Si atom -5575.368901 kJ/mol
# Density = 2.316704 g / cm^3
# Si number density = 23.219892 Si / 1000 Ang^3
#
#
#
# Elastic Constant Matrix: (Units=GPa)
#
#
# Indices 1 2 3 4 5 6 
#
# 1 119.4257 41.4969 49.0517 6.1191 -8.2769 8.2884
# 2 41.4969 90.7846 33.2936 -21.4239 10.3417 -18.6806
# 3 49.0517 33.2936 90.8462 -11.8746 -2.0929 -6.7695
# 4 6.1191 -21.4239 -11.8746 29.0922 -5.9331 3.3479
# 5 -8.2769 10.3417 -2.0929 -5.9331 19.3307 -4.4608
# 6 8.2884 -18.6806 -6.7695 3.3479 -4.4608 42.5396
#
#
#
# Elastic Compliance Matrix: (Units=1/GPa)
#
#
# Indices 1 2 3 4 5 6 
#
# 1 0.016042 -0.009529 -0.007004 -0.011197 0.006181 -0.006896
# 2 -0.009529 0.022080 -0.000485 0.015127 -0.009150 0.009325
# 3 -0.007004 -0.000485 0.016292 0.007828 0.002202 0.003359
# 4 -0.011197 0.015127 0.007828 0.051376 0.005247 0.006577
# 5 0.006181 -0.009150 0.002202 0.005247 0.061388 0.001152
# 6 -0.006896 0.009325 0.003359 0.006577 0.001152 0.029084
#
#
# Mechanical properties :
#
#
# Convention : Reuss Voigt Hill
#
# Bulk Modulus (GPa) = 49.07831 60.97123 55.02477
# Shear Modulus (GPa) = 21.08893 30.00679 25.54786
#
# Velocity S-wave (km/s) = 3.01695 3.59874 3.32061
# Velocity P-wave (km/s) = 5.77219 6.60175 6.20086
#
# Compressibility (1/GPa) = 0.02037560
#
# Stress axis : x y z
#
# Youngs Moduli (GPa) = 62.33618 45.29054 61.38068
#
# Poissons Ratio (x) = 0.43158 0.42994
# Poissons Ratio (y) = 0.59401 0.02979
# Poissons Ratio (z) = 0.43663 0.02198
#
# Static dielectric constant tensor:
#      x y z
#    x 1.918890 0.084210 0.020110 
#    y 0.084210 2.234560 0.073220 
#    z 0.020110 0.073220 1.930830 
# 
# From -- ./inp_files/495061.got.cif
#   From: 2010.05.17/outbox.cif.g08.bks.cpg/sg2_248_cif.got.tgz:495061.got - 2010.06.03 11:33:40.
