data_PCOD9091824
_publ_section_title
;
Structure prediction by ZEFSAII (Michael W. Deem and Ramdas Pophale) SiO2 
 PCOD9091824
Probable space group: P -1
;
_chemical_formula_sum "Si O2"
_cell_formula_units_Z 14
_cell_length_a 6.356770
_cell_length_b 14.204785
_cell_length_c 9.913238
_cell_angle_alpha 110.921198
_cell_angle_beta 49.958064
_cell_angle_gamma 90.868459
_cell_volume 610.613811
_symmetry_space_group_name_H-M "P -1"
_symmetry_group_IT_number 2
_symmetry_cell_setting 'triclinic'
loop_
_space_group_symop_operation_xyz
x,y,z
-x,-y,-z
loop_
_atom_site_type_symbol
_atom_site_label
_atom_site_fract_x
_atom_site_fract_y
_atom_site_fract_z
Si Si1 0.236058 0.560992 0.938611
Si Si2 0.719851 0.317301 0.282186
Si Si3 0.252012 0.205543 0.366157
Si Si4 0.744057 0.966969 0.266334
Si Si5 0.827747 0.896902 0.910100
Si Si6 0.856647 0.768228 0.275485
Si Si7 0.388415 0.650037 0.357513
O O1 0.223576 0.610228 0.820326
O O2 0.518497 0.465373 0.807963
O O3 0.000000 0.500000 0.000000
O O4 0.130081 0.664516 0.128448
O O5 0.472652 0.272424 0.303818
O O6 0.607683 0.375947 0.497940
O O7 0.985671 0.218187 0.169385
O O8 0.329004 0.121650 0.170282
O O9 0.252448 0.175542 0.508263
O O10 0.926243 0.277360 0.512324
O O11 0.924187 0.851776 0.190250
O O12 0.500000 0.000000 0.500000
O O13 0.652211 0.950527 0.142335
O O14 0.944854 0.042495 0.201178
O O15 0.608589 0.721353 0.292708
#
# Coordination Sequence:
#
# PCOD9091824 Si02
#       7
#     2   2   2   2   2   2   2
#     4  10  20  37  61  89 122 165 201 250 308 362
#     4  10  19  40  61  87 127 160 201 253 304 366
#     4  10  21  39  61  91 125 161 202 253 307 366
#     4  11  21  41  68  91 120 166 211 254 310 375
#     4  10  23  42  64  92 126 163 207 255 313 371
#     4  10  21  40  61  89 128 157 204 259 305 364
#     4   9  20  37  62  88 120 167 205 245 305 364
#
# _framework density 22.927745999999999
#
# number of rings (size 3 to 8) (size 9 to 14) (size 15 to 20)
#    0.000    2.000    1.429    3.000    0.000    1.714 
#    5.143   10.714    0.000    0.000    0.000    0.000 
#    0.000    0.000    0.000    0.000    0.000    0.000 
#
# Total GULP energy -78146.816611 kJ/mol
# GULP energy per Si atom -5581.915472 kJ/mol
# Density = 2.287556 g / cm^3
# Si number density = 22.927746 Si / 1000 Ang^3
#
#
#
# Elastic Constant Matrix: (Units=GPa)
#
#
# Indices 1 2 3 4 5 6 
#
# 1 60.0841 12.9617 14.7426 2.9337 16.8776 -9.8740
# 2 12.9617 98.7722 32.6626 -18.3082 23.4405 -23.5690
# 3 14.7426 32.6626 130.3916 6.7689 27.6948 5.9380
# 4 2.9337 -18.3082 6.7689 49.2140 -2.1600 -1.8128
# 5 16.8776 23.4405 27.6948 -2.1600 29.9640 10.8607
# 6 -9.8740 -23.5690 5.9380 -1.8128 10.8607 11.1150
#
#
#
# Elastic Compliance Matrix: (Units=1/GPa)
#
#
# Indices 1 2 3 4 5 6 
#
# 1 0.011876 -0.011729 0.000773 -0.005668 0.010900 -0.026309
# 2 -0.011729 -0.002277 -0.001280 -0.000329 0.022987 -0.037079
# 3 0.000773 -0.001280 0.009924 -0.002244 -0.009257 0.001349
# 4 -0.005668 -0.000329 -0.002244 0.020893 0.011517 -0.012380
# 5 0.010900 0.022987 -0.009257 0.011517 -0.007762 0.072834
# 6 -0.026309 -0.037079 0.001349 -0.012380 0.072834 -0.085935
#
#
# Mechanical properties :
#
#
# Convention : Reuss Voigt Hill
#
# Bulk Modulus (GPa) = -201.97581 45.55352 -78.21114
# Shear Modulus (GPa) = -164.15708 33.31733 -65.41988
#
# Velocity S-wave (km/s) = -8.47071 3.81615 -5.34743
# Velocity P-wave (km/s) = 13.56297 6.27126 8.50369
#
# Compressibility (1/GPa) = -0.00495109
#
# Stress axis : x y z
#
# Youngs Moduli (GPa) = 84.20637 -439.14705 100.76947
#
# Poissons Ratio (x) = -5.15080 -0.07787
# Poissons Ratio (y) = 0.98767 0.12901
# Poissons Ratio (z) = -0.06507 -0.56220
#
# Static dielectric constant tensor:
#      x y z
#    x 1.828600 -0.041420 -0.007340 
#    y -0.041420 1.857670 0.088030 
#    z -0.007340 0.088030 1.975190 
# 
# From -- ./inp_files/135600.got.cif
#   From: 2010.05.17/outbox.cif.g08.bks.cpg/sg2_68_cif.got.tgz:135600.got - 2010.06.03 11:33:40.
