data_PCOD9091185
_publ_section_title
;
Structure prediction by ZEFSAII (Michael W. Deem and Ramdas Pophale) SiO2 
 PCOD9091185
Probable space group: P -1
;
_chemical_formula_sum "Si O2"
_cell_formula_units_Z 14
_cell_length_a 11.200495
_cell_length_b 9.253859
_cell_length_c 14.929427
_cell_angle_alpha 116.000238
_cell_angle_beta 140.320633
_cell_angle_gamma 46.148992
_cell_volume 697.222347
_symmetry_space_group_name_H-M "P -1"
_symmetry_group_IT_number 2
_symmetry_cell_setting 'triclinic'
loop_
_space_group_symop_operation_xyz
x,y,z
-x,-y,-z
loop_
_atom_site_type_symbol
_atom_site_label
_atom_site_fract_x
_atom_site_fract_y
_atom_site_fract_z
Si Si1 0.035078 0.870069 0.899329
Si Si2 0.649716 0.864686 0.758374
Si Si3 0.273333 0.512928 0.349164
Si Si4 0.459890 0.805119 0.067749
Si Si5 0.004078 0.479401 0.647148
Si Si6 0.053845 0.028462 0.772357
Si Si7 0.874506 0.818794 0.526266
O O1 0.880856 0.799046 0.817702
O O2 0.943509 0.010711 0.795659
O O3 0.319450 0.724792 0.006522
O O4 0.000000 0.000000 0.000000
O O5 0.673315 0.662596 0.734975
O O6 0.614696 0.001214 0.860650
O O7 0.409300 0.014389 0.602458
O O8 0.500000 0.500000 0.500000
O O9 0.189869 0.475165 0.382636
O O10 0.067038 0.739766 0.256784
O O11 0.740082 0.638863 0.189455
O O12 0.331595 0.895093 0.922532
O O13 0.034962 0.326100 0.547333
O O14 0.941000 0.675269 0.611271
O O15 0.994911 0.928301 0.636171
#
# Coordination Sequence:
#
# PCOD9091185 Si02
#       7
#     2   2   2   2   2   2   2
#     4   8  17  36  62  87 116 151 193 251 291 342
#     4  10  19  39  64  86 121 156 196 250 293 344
#     4  12  25  38  58  94 122 160 199 243 296 362
#     4   8  20  40  61  87 117 152 199 246 293 355
#     4  10  23  40  63  86 121 155 206 244 299 352
#     4  10  21  38  61  86 124 153 203 236 304 350
#     4  10  21  40  64  89 112 162 202 251 294 343
#
# _framework density 20.079678000000001
#
# number of rings (size 3 to 8) (size 9 to 14) (size 15 to 20)
#    0.857    1.429    1.429    0.857    2.000    3.429 
#    0.000    0.000    0.000    0.000    0.000    0.000 
#    0.000    0.000    0.000    0.000    0.000    0.000 
#
# Total GULP energy -78024.661142 kJ/mol
# GULP energy per Si atom -5573.190082 kJ/mol
# Density = 2.003398 g / cm^3
# Si number density = 20.079678 Si / 1000 Ang^3
#
#
#
# Elastic Constant Matrix: (Units=GPa)
#
#
# Indices 1 2 3 4 5 6 
#
# 1 28.7925 3.0341 6.0448 6.6048 10.5548 -7.8528
# 2 3.0341 100.7796 44.4147 17.3258 3.6209 5.1529
# 3 6.0448 44.4147 121.6580 2.9501 8.7239 0.4881
# 4 6.6048 17.3258 2.9501 28.7609 0.7162 2.9242
# 5 10.5548 3.6209 8.7239 0.7162 24.7648 -2.0958
# 6 -7.8528 5.1529 0.4881 2.9242 -2.0958 18.7520
#
#
#
# Elastic Compliance Matrix: (Units=1/GPa)
#
#
# Indices 1 2 3 4 5 6 
#
# 1 0.050836 0.001019 -0.001271 -0.013820 -0.019186 0.021053
# 2 0.001019 0.013398 -0.004700 -0.007600 -0.000689 -0.002025
# 3 -0.001271 -0.004700 0.010120 0.002156 -0.002407 -0.000110
# 4 -0.013820 -0.007600 0.002156 0.043217 0.004143 -0.010031
# 5 -0.019186 -0.000689 -0.002407 0.004143 0.049137 -0.002937
# 6 0.021053 -0.002025 -0.000110 -0.010031 -0.002937 0.063939
#
#
# Mechanical properties :
#
#
# Convention : Reuss Voigt Hill
#
# Bulk Modulus (GPa) = 15.51631 39.80194 27.65912
# Shear Modulus (GPa) = 19.08132 27.63798 23.35965
#
# Velocity S-wave (km/s) = 3.08601 3.71403 3.41449
# Velocity P-wave (km/s) = 4.52129 6.18523 5.41752
#
# Compressibility (1/GPa) = 0.06444833
#
# Stress axis : x y z
#
# Youngs Moduli (GPa) = 19.67102 74.63654 98.81762
#
# Poissons Ratio (x) = -0.07603 0.12563
# Poissons Ratio (y) = -0.02004 0.46446
# Poissons Ratio (z) = 0.02501 0.35081
#
# Static dielectric constant tensor:
#      x y z
#    x 1.694720 -0.009590 0.005670 
#    y -0.009590 1.730930 0.045630 
#    z 0.005670 0.045630 1.751350 
# 
# From -- ./inp_files/341926.got.cif
#   From: 2010.05.17/outbox.cif.g08.bks.cpg/sg2_171_cif.got.tgz:341926.got - 2010.06.03 11:33:40.
