data_PCOD9091128
_publ_section_title
;
Structure prediction by ZEFSAII (Michael W. Deem and Ramdas Pophale) SiO2 
 PCOD9091128
Probable space group: P -1
;
_chemical_formula_sum "Si O2"
_cell_formula_units_Z 16
_cell_length_a 9.464237
_cell_length_b 15.318443
_cell_length_c 17.497724
_cell_angle_alpha 38.003020
_cell_angle_beta 40.379058
_cell_angle_gamma 31.288624
_cell_volume 779.559010
_symmetry_space_group_name_H-M "P -1"
_symmetry_group_IT_number 2
_symmetry_cell_setting 'triclinic'
loop_
_space_group_symop_operation_xyz
x,y,z
-x,-y,-z
loop_
_atom_site_type_symbol
_atom_site_label
_atom_site_fract_x
_atom_site_fract_y
_atom_site_fract_z
Si Si1 0.140386 0.288459 0.592983
Si Si2 0.254390 0.958192 0.184637
Si Si3 0.135221 0.227485 0.172265
Si Si4 0.292709 0.473503 0.961066
Si Si5 0.143995 0.261558 0.911047
Si Si6 0.837060 0.888522 0.440417
Si Si7 0.947092 0.195182 0.885492
Si Si8 0.195314 0.042337 0.425211
O O1 0.056646 0.262401 0.562698
O O2 0.000000 0.500000 0.500000
O O3 0.031040 0.228439 0.746306
O O4 0.483501 0.145455 0.562414
O O5 0.569352 0.763480 0.181992
O O6 0.978487 0.976293 0.293869
O O7 0.275914 0.045740 0.190974
O O8 0.207432 0.084762 0.047484
O O9 0.178242 0.171999 0.280171
O O10 0.826019 0.370981 0.162287
O O11 0.265813 0.327564 0.037618
O O12 0.617097 0.358271 0.923604
O O13 0.101794 0.570889 0.049167
O O14 0.083910 0.237332 0.866257
O O15 0.917914 0.850634 0.521835
O O16 0.500000 0.000000 0.500000
O O17 0.000000 0.000000 0.000000
O O18 0.000000 0.000000 0.500000
#
# Coordination Sequence:
#
# PCOD9091128 Si02
#       8
#     2   2   2   2   2   2   2   2
#     4  11  27  44  64  99 140 173 220 281 340 389
#     4  10  19  39  63  93 135 165 218 276 331 394
#     4  10  21  39  65  96 128 169 222 267 336 392
#     4  10  23  39  63 100 131 167 214 287 335 386
#     4  10  22  37  63  98 127 171 219 277 334 392
#     4  10  23  41  65  97 129 178 222 269 333 396
#     4  12  24  42  69  92 133 177 226 270 337 406
#     4  11  22  42  71  92 125 178 224 263 325 411
#
# _framework density 20.524425000000001
#
# number of rings (size 3 to 8) (size 9 to 14) (size 15 to 20)
#    0.000    1.500    1.250    3.375    1.750    7.000 
#    0.000    1.875    0.000    0.000    0.000    0.000 
#    0.000    0.000    0.000    0.000    0.000    0.000 
#
# Total GULP energy -89136.918208 kJ/mol
# GULP energy per Si atom -5571.057388 kJ/mol
# Density = 2.047771 g / cm^3
# Si number density = 20.524425 Si / 1000 Ang^3
#
#
#
# Elastic Constant Matrix: (Units=GPa)
#
#
# Indices 1 2 3 4 5 6 
#
# 1 110.6668 38.8797 29.9522 1.2247 5.4300 19.8981
# 2 38.8797 97.4713 41.8077 6.9853 -8.2932 -1.0084
# 3 29.9522 41.8077 86.0955 1.4597 7.7573 2.0808
# 4 1.2247 6.9853 1.4597 25.3554 -5.3068 -1.0074
# 5 5.4300 -8.2932 7.7573 -5.3068 40.9424 10.9673
# 6 19.8981 -1.0084 2.0808 -1.0074 10.9673 41.2807
#
#
#
# Elastic Compliance Matrix: (Units=1/GPa)
#
#
# Indices 1 2 3 4 5 6 
#
# 1 0.012054 -0.004049 -0.002053 0.000328 -0.000467 -0.005673
# 2 -0.004049 0.015126 -0.006291 -0.002704 0.004041 0.001499
# 3 -0.002053 -0.006291 0.015741 0.000075 -0.004292 0.001185
# 4 0.000328 -0.002704 0.000075 0.041163 0.004868 -0.000517
# 5 -0.000467 0.004041 -0.004292 0.004868 0.028609 -0.006941
# 6 -0.005673 0.001499 0.001185 -0.000517 -0.006941 0.028768
#
#
# Mechanical properties :
#
#
# Convention : Reuss Voigt Hill
#
# Bulk Modulus (GPa) = 55.14613 57.27918 56.21266
# Shear Modulus (GPa) = 29.02054 33.75530 31.38792
#
# Velocity S-wave (km/s) = 3.76433 4.05982 3.91486
# Velocity P-wave (km/s) = 6.76908 7.06715 6.91972
#
# Compressibility (1/GPa) = 0.01813364
#
# Stress axis : x y z
#
# Youngs Moduli (GPa) = 82.96044 66.11108 63.52821
#
# Poissons Ratio (x) = 0.26771 0.13045
# Poissons Ratio (y) = 0.33593 0.39965
# Poissons Ratio (z) = 0.17036 0.41590
#
# Static dielectric constant tensor:
#      x y z
#    x 134.796560 -53.182110 -13.680080 
#    y -53.182110 23.025550 5.505510 
#    z -13.680080 5.505510 3.228400 
# 
# From -- ./inp_files/383021.got.cif
#   From: 2010.05.17/outbox.cif.g08.bks.cpg/sg2_192_cif.got.tgz:383021.got - 2010.06.03 11:33:40.
