data_PCOD9091727
_publ_section_title
;
Structure prediction by ZEFSAII (Michael W. Deem and Ramdas Pophale) SiO2 
 PCOD9091727
Probable space group: P -1
;
_chemical_formula_sum "Si O2"
_cell_formula_units_Z 14
_cell_length_a 10.593241
_cell_length_b 13.445457
_cell_length_c 17.664454
_cell_angle_alpha 145.345651
_cell_angle_beta 26.853125
_cell_angle_gamma 145.773415
_cell_volume 602.451807
_symmetry_space_group_name_H-M "P -1"
_symmetry_group_IT_number 2
_symmetry_cell_setting 'triclinic'
loop_
_space_group_symop_operation_xyz
x,y,z
-x,-y,-z
loop_
_atom_site_type_symbol
_atom_site_label
_atom_site_fract_x
_atom_site_fract_y
_atom_site_fract_z
Si Si1 0.604843 0.049245 0.294867
Si Si2 0.804392 0.369946 0.783957
Si Si3 0.658280 0.040104 0.860431
Si Si4 0.729943 0.805862 0.547067
Si Si5 0.431915 0.557311 0.197337
Si Si6 0.839619 0.818985 0.824141
Si Si7 0.223102 0.093878 0.666130
O O1 0.535854 0.197405 0.369096
O O2 0.438652 0.052100 0.464963
O O3 0.944666 0.095769 0.166656
O O4 0.443587 0.841251 0.218707
O O5 0.792251 0.434918 0.744638
O O6 0.116454 0.349223 0.628809
O O7 0.683225 0.494873 0.981400
O O8 0.646461 0.855376 0.706173
O O9 0.000954 0.156979 0.770847
O O10 0.500000 0.000000 0.000000
O O11 0.463814 0.137138 0.981055
O O12 0.000000 0.000000 0.500000
O O13 0.256692 0.402452 0.255593
O O14 0.599700 0.749404 0.271010
O O15 0.016326 0.914737 0.713496
#
# Coordination Sequence:
#
# PCOD9091727 Si02
#       7
#     2   2   2   2   2   2   2
#     4  11  22  42  75  93 132 186 223 270 345 396
#     4  10  22  44  66  98 136 174 225 282 328 411
#     4  10  22  40  68 102 133 175 229 277 330 397
#     4  10  19  39  71  95 128 186 226 263 342 406
#     4  11  25  41  69 101 135 173 227 278 340 394
#     4  11  24  42  67 100 137 170 228 278 332 399
#     4  11  23  45  68  98 133 183 222 275 339 399
#
# _framework density 23.238372999999999
#
# number of rings (size 3 to 8) (size 9 to 14) (size 15 to 20)
#    0.000    1.429    4.286    2.143    0.000    3.429 
#    2.571    0.714    0.000    0.000    0.000    1.000 
#    0.000    0.000    0.000    0.000    0.000    0.000 
#
# Total GULP energy -78253.897165 kJ/mol
# GULP energy per Si atom -5589.564083 kJ/mol
# Density = 2.318548 g / cm^3
# Si number density = 23.238373 Si / 1000 Ang^3
#
#
#
# Elastic Constant Matrix: (Units=GPa)
#
#
# Indices 1 2 3 4 5 6 
#
# 1 160.1563 29.8078 45.1087 1.0543 -15.6440 2.9258
# 2 29.8078 72.0509 18.1654 2.0569 9.8523 -12.6558
# 3 45.1087 18.1654 87.7124 7.2431 26.8320 -6.0498
# 4 1.0543 2.0569 7.2431 16.4975 1.6408 -4.5974
# 5 -15.6440 9.8523 26.8320 1.6408 52.9995 -6.1933
# 6 2.9258 -12.6558 -6.0498 -4.5974 -6.1933 31.6269
#
#
#
# Elastic Compliance Matrix: (Units=1/GPa)
#
#
# Indices 1 2 3 4 5 6 
#
# 1 0.009293 -0.003530 -0.006220 0.001387 0.006268 -0.002033
# 2 -0.003530 0.016989 -0.000271 0.000361 -0.003317 0.006476
# 3 -0.006220 -0.000271 0.018578 -0.006374 -0.010881 0.000963
# 4 0.001387 0.000361 -0.006374 0.065482 0.002573 0.008819
# 5 0.006268 -0.003317 -0.010881 0.002573 0.026958 0.001664
# 6 -0.002033 0.006476 0.000963 0.008819 0.001664 0.036190
#
#
# Mechanical properties :
#
#
# Convention : Reuss Voigt Hill
#
# Bulk Modulus (GPa) = 40.29717 56.23148 48.26432
# Shear Modulus (GPa) = 24.77629 35.34729 30.06179
#
# Velocity S-wave (km/s) = 3.26878 3.90433 3.60060
# Velocity P-wave (km/s) = 5.62361 6.67647 6.17253
#
# Compressibility (1/GPa) = 0.02481564
#
# Stress axis : x y z
#
# Youngs Moduli (GPa) = 107.60545 58.86270 53.82845
#
# Poissons Ratio (x) = 0.20780 0.33484
# Poissons Ratio (y) = 0.37987 0.01460
# Poissons Ratio (z) = 0.66935 0.01597
#
# Static dielectric constant tensor:
#      x y z
#    x 1.954730 -0.021620 -0.067450 
#    y -0.021620 1.881950 -0.044910 
#    z -0.067450 -0.044910 1.901290 
# 
# From -- ./inp_files/569794.got.cif
#   From: 2010.05.17/outbox.cif.g08.bks.cpg/sg2_285_cif.got.tgz:569794.got - 2010.06.03 11:33:40.
