data_PCOD9091410
_publ_section_title
;
Structure prediction by ZEFSAII (Michael W. Deem and Ramdas Pophale) SiO2 
 PCOD9091410
Probable space group: P -1
;
_chemical_formula_sum "Si O2"
_cell_formula_units_Z 16
_cell_length_a 11.990865
_cell_length_b 9.384465
_cell_length_c 6.961871
_cell_angle_alpha 69.789578
_cell_angle_beta 112.321809
_cell_angle_gamma 71.585184
_cell_volume 582.944143
_symmetry_space_group_name_H-M "P -1"
_symmetry_group_IT_number 2
_symmetry_cell_setting 'triclinic'
loop_
_space_group_symop_operation_xyz
x,y,z
-x,-y,-z
loop_
_atom_site_type_symbol
_atom_site_label
_atom_site_fract_x
_atom_site_fract_y
_atom_site_fract_z
Si Si1 0.443367 0.682678 0.991062
Si Si2 0.060809 0.626251 0.998322
Si Si3 0.285427 0.381989 0.675245
Si Si4 0.895502 0.005492 0.751622
Si Si5 0.366835 0.479897 0.306569
Si Si6 0.956591 0.283626 0.604104
Si Si7 0.590730 0.071459 0.639215
Si Si8 0.277744 0.057761 0.799176
O O1 0.580582 0.699341 0.066333
O O2 0.394856 0.630924 0.181523
O O3 0.500000 0.500000 0.000000
O O4 0.322469 0.885171 0.782592
O O5 0.222353 0.523515 0.092373
O O6 0.042123 0.673567 0.190171
O O7 0.000000 0.500000 0.000000
O O8 0.980498 0.824399 0.769799
O O9 0.323592 0.488918 0.497267
O O10 0.140881 0.514154 0.626519
O O11 0.286258 0.221323 0.641172
O O12 0.873824 0.181695 0.555575
O O13 0.750414 0.017549 0.710043
O O14 0.000000 0.000000 0.000000
O O15 0.494117 0.283038 0.448911
O O16 0.116078 0.156822 0.708941
O O17 0.500000 0.000000 0.500000
O O18 0.620902 0.013005 0.912091
#
# Coordination Sequence:
#
# PCOD9091410 Si02
#       8
#     2   2   2   2   2   2   2   2
#     4  12  28  47  72 105 147 194 246 305 369 438
#     4  10  20  36  64 107 145 183 240 304 356 434
#     4  11  25  45  72 104 147 189 242 300 371 441
#     4  10  19  39  66 100 145 190 248 295 361 436
#     4  11  25  42  70 102 143 188 243 292 368 437
#     4  10  22  42  72 102 142 197 241 296 370 441
#     4  12  25  39  72 112 149 192 247 302 370 444
#     4  12  25  47  72 105 152 194 241 309 374 428
#
# _framework density 27.446883
#
# number of rings (size 3 to 8) (size 9 to 14) (size 15 to 20)
#    0.000    1.000    3.750    3.375    5.250    0.000 
#    0.000    3.125    0.000    0.000    0.000    0.000 
#    0.000    0.000    0.000    0.000    0.000    0.000 
#
# Total GULP energy -89434.664233 kJ/mol
# GULP energy per Si atom -5589.666515 kJ/mol
# Density = 2.738441 g / cm^3
# Si number density = 27.446883 Si / 1000 Ang^3
#
#
#
# Elastic Constant Matrix: (Units=GPa)
#
#
# Indices 1 2 3 4 5 6 
#
# 1 135.3237 67.9684 47.0827 -18.1318 42.7713 16.6108
# 2 67.9684 176.7050 62.0300 -30.6116 31.2391 29.6531
# 3 47.0827 62.0300 97.6888 -12.0090 13.0651 -13.1648
# 4 -18.1318 -30.6116 -12.0090 64.4205 -9.8378 6.8184
# 5 42.7713 31.2391 13.0651 -9.8378 52.7779 -10.8632
# 6 16.6108 29.6531 -13.1648 6.8184 -10.8632 55.0447
#
#
#
# Elastic Compliance Matrix: (Units=1/GPa)
#
#
# Indices 1 2 3 4 5 6 
#
# 1 0.014663 0.000949 -0.007000 0.002398 -0.012181 -0.009311
# 2 0.000949 0.011889 -0.007919 0.004460 -0.007187 -0.010556
# 3 -0.007000 -0.007919 0.019023 -0.002341 0.007843 0.012766
# 4 0.002398 0.004460 -0.002341 0.018260 -0.001902 -0.006323
# 5 -0.012181 -0.007187 0.007843 -0.001902 0.034152 0.016399
# 6 -0.009311 -0.010556 0.012766 -0.006323 0.016399 0.033736
#
#
# Mechanical properties :
#
#
# Convention : Reuss Voigt Hill
#
# Bulk Modulus (GPa) = 56.71308 84.87553 70.79431
# Shear Modulus (GPa) = 30.20370 49.95770 40.08070
#
# Velocity S-wave (km/s) = 3.32089 4.27096 3.82553
# Velocity P-wave (km/s) = 5.95081 7.43722 6.73514
#
# Compressibility (1/GPa) = 0.01763262
#
# Stress axis : x y z
#
# Youngs Moduli (GPa) = 68.19828 84.11360 52.56806
#
# Poissons Ratio (x) = -0.07981 0.36800
# Poissons Ratio (y) = -0.06471 0.41631
# Poissons Ratio (z) = 0.47742 0.66613
#
# Static dielectric constant tensor:
#      x y z
#    x 2.164920 -0.035120 -0.009410 
#    y -0.035120 2.148810 -0.012650 
#    z -0.009410 -0.012650 2.533080 
# 
# From -- ./inp_files/243124.got.cif
#   From: 2010.05.17/outbox.cif.g08.bks.cpg/sg2_122_cif.got.tgz:243124.got - 2010.06.03 11:33:40.
