data_PCOD9091440
_publ_section_title
;
Structure prediction by ZEFSAII (Michael W. Deem and Ramdas Pophale) SiO2 
 PCOD9091440
Probable space group: P -1
;
_chemical_formula_sum "Si O2"
_cell_formula_units_Z 14
_cell_length_a 9.372806
_cell_length_b 8.384715
_cell_length_c 14.410878
_cell_angle_alpha 79.391051
_cell_angle_beta 131.322212
_cell_angle_gamma 133.196794
_cell_volume 540.763678
_symmetry_space_group_name_H-M "P -1"
_symmetry_group_IT_number 2
_symmetry_cell_setting 'triclinic'
loop_
_space_group_symop_operation_xyz
x,y,z
-x,-y,-z
loop_
_atom_site_type_symbol
_atom_site_label
_atom_site_fract_x
_atom_site_fract_y
_atom_site_fract_z
Si Si1 0.786904 0.068265 0.277676
Si Si2 0.796745 0.708662 0.322387
Si Si3 0.805683 0.013673 0.091653
Si Si4 0.888464 0.405978 0.567810
Si Si5 0.204096 0.761081 0.109419
Si Si6 0.203433 0.264240 0.001896
Si Si7 0.472776 0.394727 0.399628
O O1 0.918122 0.970863 0.346826
O O2 0.519463 0.895676 0.255124
O O3 0.669447 0.986501 0.130515
O O4 0.948031 0.345819 0.329019
O O5 0.004868 0.709981 0.362509
O O6 0.480200 0.491364 0.158815
O O7 0.712086 0.612816 0.403142
O O8 0.155066 0.231702 0.239468
O O9 0.738858 0.073122 0.965776
O O10 0.708071 0.770480 0.048838
O O11 0.000000 0.500000 0.500000
O O12 0.555573 0.255956 0.451771
O O13 0.000000 0.500000 0.000000
O O14 0.013636 0.726575 0.108296
O O15 0.000000 0.000000 0.000000
O O16 0.500000 0.500000 0.500000
#
# Coordination Sequence:
#
# PCOD9091440 Si02
#       7
#     2   2   2   2   2   2   2
#     4  12  24  43  66 100 133 169 217 278 328 390
#     4  11  23  44  68  96 130 173 221 264 334 397
#     4  11  23  40  65  97 133 167 216 277 326 385
#     4  10  24  41  68  90 129 179 220 263 325 380
#     4  11  21  40  65  96 126 172 213 264 337 393
#     4  10  19  39  66  89 131 166 213 264 329 387
#     4  11  21  43  66  92 128 176 223 268 319 384
#
# _framework density 25.889313000000001
#
# number of rings (size 3 to 8) (size 9 to 14) (size 15 to 20)
#    0.000    1.143    5.714    2.143    2.000    2.857 
#    2.571    0.714    0.000    0.000    0.000    0.000 
#    0.000    0.000    0.000    0.000    0.000    0.000 
#
# Total GULP energy -78150.900349 kJ/mol
# GULP energy per Si atom -5582.207168 kJ/mol
# Density = 2.583039 g / cm^3
# Si number density = 25.889313 Si / 1000 Ang^3
#
#
#
# Elastic Constant Matrix: (Units=GPa)
#
#
# Indices 1 2 3 4 5 6 
#
# 1 200.9643 38.9369 33.2699 -9.3103 6.1378 -49.3962
# 2 38.9369 99.9553 8.5083 5.2942 -1.0899 -22.0286
# 3 33.2699 8.5083 53.1985 5.9580 -2.6374 -13.7276
# 4 -9.3103 5.2942 5.9580 33.5304 -7.6860 -0.6465
# 5 6.1378 -1.0899 -2.6374 -7.6860 65.3992 -4.1388
# 6 -49.3962 -22.0286 -13.7276 -0.6465 -4.1388 49.0453
#
#
#
# Elastic Compliance Matrix: (Units=1/GPa)
#
#
# Indices 1 2 3 4 5 6 
#
# 1 0.007379 -0.001457 -0.003191 0.002931 -0.000127 0.005913
# 2 -0.001457 0.011495 0.000302 -0.002125 0.000330 0.003781
# 3 -0.003191 0.000302 0.022108 -0.004607 0.000852 0.003121
# 4 0.002931 -0.002125 -0.004607 0.032604 0.003426 0.001427
# 5 -0.000127 0.000330 0.000852 0.003426 0.015849 0.001642
# 6 0.005913 0.003781 0.003121 0.001427 0.001642 0.029074
#
#
# Mechanical properties :
#
#
# Convention : Reuss Voigt Hill
#
# Bulk Modulus (GPa) = 30.96645 57.28314 44.12480
# Shear Modulus (GPa) = 36.24113 47.82185 42.03149
#
# Velocity S-wave (km/s) = 3.74551 4.30253 4.03365
# Velocity P-wave (km/s) = 5.54006 6.84518 6.22691
#
# Compressibility (1/GPa) = 0.03229301
#
# Stress axis : x y z
#
# Youngs Moduli (GPa) = 135.51066 86.99087 45.23182
#
# Poissons Ratio (x) = 0.12670 0.14433
# Poissons Ratio (y) = 0.19737 -0.01367
# Poissons Ratio (z) = 0.43240 -0.02629
#
# Static dielectric constant tensor:
#      x y z
#    x 2.071260 -0.019700 0.081340 
#    y -0.019700 2.071830 -0.017420 
#    z 0.081340 -0.017420 2.145640 
# 
# From -- ./inp_files/169161.got.cif
#   From: 2010.05.17/outbox.cif.g08.bks.cpg/sg2_85_cif.got.tgz:169161.got - 2010.06.03 11:33:40.
