data_PCOD9091059
_publ_section_title
;
Structure prediction by ZEFSAII (Michael W. Deem and Ramdas Pophale) SiO2 
 PCOD9091059
Probable space group: P -1
;
_chemical_formula_sum "Si O2"
_cell_formula_units_Z 16
_cell_length_a 19.369125
_cell_length_b 18.737023
_cell_length_c 18.817290
_cell_angle_alpha 22.126694
_cell_angle_beta 21.166245
_cell_angle_gamma 19.757400
_cell_volume 764.288221
_symmetry_space_group_name_H-M "P -1"
_symmetry_group_IT_number 2
_symmetry_cell_setting 'triclinic'
loop_
_space_group_symop_operation_xyz
x,y,z
-x,-y,-z
loop_
_atom_site_type_symbol
_atom_site_label
_atom_site_fract_x
_atom_site_fract_y
_atom_site_fract_z
Si Si1 0.008485 0.701486 0.871018
Si Si2 0.262071 0.137705 0.671412
Si Si3 0.611936 0.910574 0.673050
Si Si4 0.560832 0.847676 0.250562
Si Si5 0.196202 0.615526 0.022862
Si Si6 0.481586 0.683860 0.793402
Si Si7 0.724860 0.821464 0.902406
Si Si8 0.784155 0.177953 0.327116
O O1 0.054233 0.861958 0.725033
O O2 0.938310 0.775909 0.788025
O O3 0.220538 0.433404 0.920045
O O4 0.790140 0.720721 0.101055
O O5 0.284433 0.326396 0.435543
O O6 0.034651 0.234690 0.846693
O O7 0.479272 0.019802 0.626464
O O8 0.306496 0.938873 0.758909
O O9 0.727416 0.643409 0.806576
O O10 0.423419 0.028699 0.809133
O O11 0.792849 0.973278 0.465188
O O12 0.473763 0.697652 0.505118
O O13 0.344863 0.050400 0.224191
O O14 0.387881 0.643098 0.849140
O O15 0.176982 0.685390 0.895091
O O16 0.500000 0.500000 0.000000
O O17 0.500000 0.000000 0.000000
#
# Coordination Sequence:
#
# PCOD9091059 Si02
#       8
#     2   2   2   2   2   2   2   2
#     4  10  19  39  63  86 125 164 195 252 312 348
#     4  11  24  42  63  91 125 158 210 253 299 379
#     4  10  22  42  58  92 125 152 213 250 289 376
#     4   9  20  39  57  89 124 154 204 252 292 369
#     4  12  23  42  65  89 123 166 199 256 315 352
#     4  11  23  43  65  91 124 161 203 257 309 359
#     4   9  19  37  63  91 123 157 204 256 295 360
#     4  10  23  39  63  91 120 163 206 248 304 366
#
# _framework density 20.93451
#
# number of rings (size 3 to 8) (size 9 to 14) (size 15 to 20)
#    0.750    1.000    2.500    1.875    0.000    2.000 
#    2.250   11.875    0.000    0.000    0.000    0.000 
#    0.000    0.000    0.000    0.000    0.000    0.000 
#
# Total GULP energy -89130.692764 kJ/mol
# GULP energy per Si atom -5570.668298 kJ/mol
# Density = 2.088686 g / cm^3
# Si number density = 20.934510 Si / 1000 Ang^3
#
#
#
# Elastic Constant Matrix: (Units=GPa)
#
#
# Indices 1 2 3 4 5 6 
#
# 1 78.8613 -2.9536 -6.6952 -15.4870 -9.0910 2.7592
# 2 -2.9536 56.3415 17.7560 -4.4933 2.8849 4.8366
# 3 -6.6952 17.7560 78.2757 -7.9281 -4.1859 -2.1385
# 4 -15.4870 -4.4933 -7.9281 26.7853 4.8791 4.9905
# 5 -9.0910 2.8849 -4.1859 4.8791 30.7168 2.1032
# 6 2.7592 4.8366 -2.1385 4.9905 2.1032 14.7560
#
#
#
# Elastic Compliance Matrix: (Units=1/GPa)
#
#
# Indices 1 2 3 4 5 6 
#
# 1 0.015658 0.001444 0.002081 0.010598 0.003591 -0.007196
# 2 0.001444 0.020501 -0.004381 0.005073 -0.002284 -0.009015
# 3 0.002081 -0.004381 0.014521 0.004085 0.002258 0.001448
# 4 0.010598 0.005073 0.004085 0.049747 -0.003357 -0.019399
# 5 0.003591 -0.002284 0.002258 -0.003357 0.034909 -0.003436
# 6 -0.007196 -0.009015 0.001448 -0.019399 -0.003436 0.079330
#
#
# Mechanical properties :
#
#
# Convention : Reuss Voigt Hill
#
# Bulk Modulus (GPa) = 20.42195 25.52146 22.97170
# Shear Modulus (GPa) = 21.48668 28.14304 24.81486
#
# Velocity S-wave (km/s) = 3.20719 3.67050 3.44664
# Velocity P-wave (km/s) = 4.84676 5.49372 5.18035
#
# Compressibility (1/GPa) = 0.04896693
#
# Stress axis : x y z
#
# Youngs Moduli (GPa) = 63.86398 48.77864 68.86451
#
# Poissons Ratio (x) = -0.07045 -0.14328
# Poissons Ratio (y) = -0.09223 0.30173
# Poissons Ratio (z) = -0.13287 0.21372
#
# Static dielectric constant tensor:
#      x y z
#    x 1.794980 -0.016960 0.019990 
#    y -0.016960 1.743070 0.013480 
#    z 0.019990 0.013480 1.794860 
# 
# From -- ./inp_files/601676.got.cif
#   From: 2010.05.17/outbox.cif.g08.bks.cpg/sg2_301_cif.got.tgz:601676.got - 2010.06.03 11:33:40.
