data_PCOD9091755
_publ_section_title
;
Structure prediction by ZEFSAII (Michael W. Deem and Ramdas Pophale) SiO2 
 PCOD9091755
Probable space group: P -1
;
_chemical_formula_sum "Si O2"
_cell_formula_units_Z 14
_cell_length_a 12.031484
_cell_length_b 9.705972
_cell_length_c 6.850276
_cell_angle_alpha 88.364362
_cell_angle_beta 87.224040
_cell_angle_gamma 141.596822
_cell_volume 493.484058
_symmetry_space_group_name_H-M "P -1"
_symmetry_group_IT_number 2
_symmetry_cell_setting 'triclinic'
loop_
_space_group_symop_operation_xyz
x,y,z
-x,-y,-z
loop_
_atom_site_type_symbol
_atom_site_label
_atom_site_fract_x
_atom_site_fract_y
_atom_site_fract_z
Si Si1 0.759218 0.619432 0.064848
Si Si2 0.077270 0.767085 0.147115
Si Si3 0.596090 0.687721 0.323293
Si Si4 0.970012 0.374458 0.289227
Si Si5 0.547681 0.949638 0.370804
Si Si6 0.015011 0.135127 0.341386
Si Si7 0.515593 0.898227 0.881583
O O1 0.935408 0.753856 0.179972
O O2 0.625855 0.607287 0.151459
O O3 0.845816 0.754112 0.849229
O O4 0.648062 0.369105 0.079224
O O5 0.053742 0.606219 0.284633
O O6 0.023826 0.665904 0.937021
O O7 0.291843 0.995523 0.128603
O O8 0.500000 0.500000 0.500000
O O9 0.497918 0.738652 0.349616
O O10 0.805048 0.939423 0.308715
O O11 0.060045 0.335219 0.395437
O O12 0.761882 0.181123 0.355366
O O13 0.508216 0.949296 0.131332
O O14 0.509077 0.926870 0.622485
O O15 0.000000 0.000000 0.500000
#
# Coordination Sequence:
#
# PCOD9091755 Si02
#       7
#     2   2   2   2   2   2   2
#     4  11  24  48  77 110 156 199 245 322 384 442
#     4  10  19  39  75 112 137 184 250 310 373 444
#     4  11  26  48  73 105 157 205 244 312 392 444
#     4   9  18  40  69 100 147 181 236 314 369 430
#     4  11  23  44  70 103 150 195 243 312 381 442
#     4  10  23  46  72 106 151 200 253 303 376 462
#     4  12  22  41  78 112 140 192 259 308 364 460
#
# _framework density 28.369709
#
# number of rings (size 3 to 8) (size 9 to 14) (size 15 to 20)
#    0.000    1.429    2.857    3.000    0.000    2.286 
#    7.714    2.143    0.000    0.000    0.000    0.000 
#    0.000    0.000    0.000    0.000    0.000    0.000 
#
# Total GULP energy -78244.455910 kJ/mol
# GULP energy per Si atom -5588.889708 kJ/mol
# Density = 2.830514 g / cm^3
# Si number density = 28.369709 Si / 1000 Ang^3
#
#
#
# Elastic Constant Matrix: (Units=GPa)
#
#
# Indices 1 2 3 4 5 6 
#
# 1 190.5857 81.2491 129.3511 -8.6228 12.4224 -13.9430
# 2 81.2491 166.1019 59.3649 -32.3946 -4.0644 -9.6679
# 3 129.3511 59.3649 205.9112 -26.5412 -2.2139 -25.8706
# 4 -8.6228 -32.3946 -26.5412 54.6405 -3.1899 17.8623
# 5 12.4224 -4.0644 -2.2139 -3.1899 57.8783 -19.0076
# 6 -13.9430 -9.6679 -25.8706 17.8623 -19.0076 47.0804
#
#
#
# Elastic Compliance Matrix: (Units=1/GPa)
#
#
# Indices 1 2 3 4 5 6 
#
# 1 0.011564 -0.004131 -0.006740 -0.003725 -0.003622 -0.001176
# 2 -0.004131 0.008814 0.000696 0.005100 0.001725 -0.000270
# 3 -0.006740 0.000696 0.009783 0.003095 0.003241 0.003657
# 4 -0.003725 0.005100 0.003095 0.024767 0.000110 -0.007707
# 5 -0.003622 0.001725 0.003241 0.000110 0.021491 0.009697
# 6 -0.001176 -0.000270 0.003657 -0.007707 0.009697 0.029685
#
#
# Mechanical properties :
#
#
# Convention : Reuss Voigt Hill
#
# Bulk Modulus (GPa) = 101.93300 122.50324 112.21812
# Shear Modulus (GPa) = 38.54291 51.42876 44.98583
#
# Velocity S-wave (km/s) = 3.68991 4.26232 3.98640
# Velocity P-wave (km/s) = 7.35949 8.21571 7.79936
#
# Compressibility (1/GPa) = 0.00981037
#
# Stress axis : x y z
#
# Youngs Moduli (GPa) = 86.47155 113.46057 102.21552
#
# Poissons Ratio (x) = 0.46875 0.68898
# Poissons Ratio (y) = 0.35725 -0.07118
# Poissons Ratio (z) = 0.58286 -0.07901
#
# Static dielectric constant tensor:
#      x y z
#    x 2.294450 -0.008420 0.023510 
#    y -0.008420 2.031850 0.054310 
#    z 0.023510 0.054310 2.555150 
# 
# From -- ./inp_files/120071.got.cif
#   From: 2010.05.17/outbox.cif.g08.bks.cpg/sg2_61_cif.got.tgz:120071.got - 2010.06.03 11:33:40.
