data_PCOD9091688
_publ_section_title
;
Structure prediction by ZEFSAII (Michael W. Deem and Ramdas Pophale) SiO2 
 PCOD9091688
Probable space group: P -1
;
_chemical_formula_sum "Si O2"
_cell_formula_units_Z 16
_cell_length_a 14.606811
_cell_length_b 11.507137
_cell_length_c 10.395393
_cell_angle_alpha 64.463606
_cell_angle_beta 28.199164
_cell_angle_gamma 56.908425
_cell_volume 686.175877
_symmetry_space_group_name_H-M "P -1"
_symmetry_group_IT_number 2
_symmetry_cell_setting 'triclinic'
loop_
_space_group_symop_operation_xyz
x,y,z
-x,-y,-z
loop_
_atom_site_type_symbol
_atom_site_label
_atom_site_fract_x
_atom_site_fract_y
_atom_site_fract_z
Si Si1 0.945849 0.419916 0.221529
Si Si2 0.232631 0.110248 0.640580
Si Si3 0.505664 0.471602 0.355859
Si Si4 0.737634 0.166254 0.845099
Si Si5 0.962953 0.403542 0.758822
Si Si6 0.611678 0.168776 0.277818
Si Si7 0.692953 0.779379 0.754017
Si Si8 0.160456 0.151242 0.203513
O O1 0.712676 0.427850 0.483269
O O2 0.120328 0.263800 0.088125
O O3 0.953682 0.500698 0.304046
O O4 0.000000 0.500000 0.000000
O O5 0.413293 0.142875 0.476793
O O6 0.296398 0.100979 0.415120
O O7 0.025445 0.253990 0.830447
O O8 0.244898 0.966028 0.753876
O O9 0.500000 0.500000 0.500000
O O10 0.525996 0.312943 0.389807
O O11 0.712854 0.477438 0.030879
O O12 0.931059 0.190500 0.532976
O O13 0.732345 0.189510 0.992710
O O14 0.511182 0.247946 0.022485
O O15 0.772882 0.004537 0.854976
O O16 0.902218 0.648754 0.512935
O O17 0.695968 0.826825 0.872602
#
# Coordination Sequence:
#
# PCOD9091688 Si02
#       8
#     2   2   2   2   2   2   2   2
#     4  12  26  45  63  93 136 174 217 275 330 391
#     4   8  19  37  70  97 129 169 215 268 326 387
#     4  12  24  41  64  98 134 166 221 268 326 396
#     4  10  22  43  66  98 132 165 223 272 329 390
#     4  10  22  43  64  95 134 170 216 266 326 390
#     4  10  19  39  69  97 130 175 213 272 331 378
#     4   9  20  43  65  94 132 168 215 266 326 392
#     4  11  25  41  67  95 130 174 218 274 326 390
#
# _framework density 23.317637999999999
#
# number of rings (size 3 to 8) (size 9 to 14) (size 15 to 20)
#    0.750    1.000    2.500    1.125    1.750    3.000 
#    4.500    4.375    0.000    0.000    0.000    0.000 
#    0.000    0.000    0.000    0.000    0.000    0.000 
#
# Total GULP energy -89481.911543 kJ/mol
# GULP energy per Si atom -5592.619471 kJ/mol
# Density = 2.326457 g / cm^3
# Si number density = 23.317638 Si / 1000 Ang^3
#
#
#
# Elastic Constant Matrix: (Units=GPa)
#
#
# Indices 1 2 3 4 5 6 
#
# 1 88.7455 31.4731 12.7810 6.6291 -3.7231 -0.0106
# 2 31.4731 64.9762 -11.6669 1.2557 10.3294 -13.0518
# 3 12.7810 -11.6669 85.9790 9.5022 -2.6819 -10.3296
# 4 6.6291 1.2557 9.5022 22.1849 -2.3054 0.8195
# 5 -3.7231 10.3294 -2.6819 -2.3054 31.2984 10.7800
# 6 -0.0106 -13.0518 -10.3296 0.8195 10.7800 37.2175
#
#
#
# Elastic Compliance Matrix: (Units=1/GPa)
#
#
# Indices 1 2 3 4 5 6 
#
# 1 0.016424 -0.011512 -0.004529 -0.001219 0.007873 -0.007543
# 2 -0.011512 0.028299 0.007463 -0.003650 -0.016103 0.016737
# 3 -0.004529 0.007463 0.014854 -0.006266 -0.005064 0.008343
# 4 -0.001219 -0.003650 -0.006266 0.049189 0.006175 -0.005891
# 5 0.007873 -0.016103 -0.005064 0.006175 0.045208 -0.020281
# 6 -0.007543 0.016737 0.008343 -0.005891 -0.020281 0.041056
#
#
# Mechanical properties :
#
#
# Convention : Reuss Voigt Hill
#
# Bulk Modulus (GPa) = 23.57389 33.87501 28.72445
# Shear Modulus (GPa) = 22.09214 31.94772 27.01993
#
# Velocity S-wave (km/s) = 3.08140 3.70551 3.40777
# Velocity P-wave (km/s) = 4.77408 5.73297 5.27536
#
# Compressibility (1/GPa) = 0.04241982
#
# Stress axis : x y z
#
# Youngs Moduli (GPa) = 60.88823 35.33734 67.32366
#
# Poissons Ratio (x) = 0.40679 0.30494
# Poissons Ratio (y) = 0.70093 -0.50244
# Poissons Ratio (z) = 0.27579 -0.26373
#
# Static dielectric constant tensor:
#      x y z
#    x 1.843980 -0.047300 -0.014030 
#    y -0.047300 1.896630 -0.012080 
#    z -0.014030 -0.012080 1.897150 
# 
# From -- ./inp_files/451213.got.cif
#   From: 2010.05.17/outbox.cif.g08.bks.cpg/sg2_226_cif.got.tgz:451213.got - 2010.06.03 11:33:40.
