data_PCOD9091431
_publ_section_title
;
Structure prediction by ZEFSAII (Michael W. Deem and Ramdas Pophale) SiO2 
 PCOD9091431
Probable space group: P -1
;
_chemical_formula_sum "Si O2"
_cell_formula_units_Z 16
_cell_length_a 7.537565
_cell_length_b 23.585340
_cell_length_c 9.606199
_cell_angle_alpha 152.820971
_cell_angle_beta 60.265477
_cell_angle_gamma 115.403469
_cell_volume 677.024440
_symmetry_space_group_name_H-M "P -1"
_symmetry_group_IT_number 2
_symmetry_cell_setting 'triclinic'
loop_
_space_group_symop_operation_xyz
x,y,z
-x,-y,-z
loop_
_atom_site_type_symbol
_atom_site_label
_atom_site_fract_x
_atom_site_fract_y
_atom_site_fract_z
Si Si1 0.615984 0.898832 0.825609
Si Si2 0.431912 0.951835 0.275779
Si Si3 0.899754 0.718587 0.170510
Si Si4 0.006584 0.640976 0.250159
Si Si5 0.772938 0.259719 0.372273
Si Si6 0.627436 0.486841 0.777536
Si Si7 0.606920 0.697417 0.702689
Si Si8 0.869097 0.821602 0.109312
O O1 0.813312 0.841985 0.551930
O O2 0.451514 0.790303 0.660515
O O3 0.615366 0.959918 0.110716
O O4 0.500000 0.000000 0.000000
O O5 0.500000 0.000000 0.500000
O O6 0.246539 0.047733 0.522549
O O7 0.430041 0.803709 0.979338
O O8 0.033232 0.655188 0.105267
O O9 0.951057 0.761143 0.088746
O O10 0.728703 0.615564 0.987993
O O11 0.790891 0.700854 0.523189
O O12 0.179118 0.706535 0.414513
O O13 0.000000 0.500000 0.000000
O O14 0.792238 0.382031 0.536391
O O15 0.941607 0.163162 0.035942
O O16 0.498349 0.431310 0.578767
O O17 0.500000 0.500000 0.000000
O O18 0.716217 0.732981 0.884320
#
# Coordination Sequence:
#
# PCOD9091431 Si02
#       8
#     2   2   2   2   2   2   2   2
#     4  12  23  43  69  94 122 164 219 266 304 381
#     4  10  19  39  66  88 121 171 209 249 315 382
#     4  12  23  40  66  95 129 164 216 261 310 379
#     4  11  20  37  63  92 126 169 207 258 316 373
#     4  11  23  41  63  93 129 167 210 255 328 377
#     4  12  19  37  68  93 121 171 215 253 311 380
#     4  10  20  39  63  92 123 171 213 248 316 390
#     4  10  25  40  61  96 131 165 204 269 322 364
#
# _framework density 23.632826000000001
#
# number of rings (size 3 to 8) (size 9 to 14) (size 15 to 20)
#    0.000    1.000    7.500    0.000    0.000    1.500 
#    0.000    3.125    0.000    0.000    0.000    0.000 
#    0.000    0.000    0.000    0.000    0.000    0.000 
#
# Total GULP energy -89209.269980 kJ/mol
# GULP energy per Si atom -5575.579374 kJ/mol
# Density = 2.357904 g / cm^3
# Si number density = 23.632826 Si / 1000 Ang^3
#
#
#
# Elastic Constant Matrix: (Units=GPa)
#
#
# Indices 1 2 3 4 5 6 
#
# 1 89.3433 17.6637 27.7131 -14.4136 25.0342 -25.6424
# 2 17.6637 61.1410 22.6089 -11.2893 7.9128 -36.4608
# 3 27.7131 22.6089 130.0335 -9.3328 10.3613 -13.1288
# 4 -14.4136 -11.2893 -9.3328 30.2737 -16.1745 5.4898
# 5 25.0342 7.9128 10.3613 -16.1745 48.7297 -7.4505
# 6 -25.6424 -36.4608 -13.1288 5.4898 -7.4505 31.2432
#
#
#
# Elastic Compliance Matrix: (Units=1/GPa)
#
#
# Indices 1 2 3 4 5 6 
#
# 1 0.020805 0.016306 -0.003109 0.006115 -0.005697 0.032366
# 2 0.016306 0.071015 -0.005489 0.016348 0.000633 0.091229
# 3 -0.003109 -0.005489 0.008788 0.000052 -0.000176 -0.005315
# 4 0.006115 0.016348 0.000052 0.045039 0.012060 0.019081
# 5 -0.005697 0.000633 -0.000176 0.012060 0.027449 0.000416
# 6 0.032366 0.091229 -0.005315 0.019081 0.000416 0.159548
#
#
# Mechanical properties :
#
#
# Convention : Reuss Voigt Hill
#
# Bulk Modulus (GPa) = 8.61875 46.27657 27.44766
# Shear Modulus (GPa) = 14.04879 36.21811 25.13345
#
# Velocity S-wave (km/s) = 2.44080 3.91901 3.26467
# Velocity P-wave (km/s) = 3.40561 6.33262 5.08431
#
# Compressibility (1/GPa) = 0.11602606
#
# Stress axis : x y z
#
# Youngs Moduli (GPa) = 48.06469 14.08158 113.78758
#
# Poissons Ratio (x) = -0.22962 0.35372
# Poissons Ratio (y) = -0.78375 0.62455
# Poissons Ratio (z) = 0.14941 0.07729
#
# Static dielectric constant tensor:
#      x y z
#    x 1.957000 -0.040300 -0.029780 
#    y -0.040300 1.928180 0.042500 
#    z -0.029780 0.042500 2.004480 
# 
# From -- ./inp_files/217711.got.cif
#   From: 2010.05.17/outbox.cif.g08.bks.cpg/sg2_109_cif.got.tgz:217711.got - 2010.06.03 11:33:40.
