data_PCOD9091381
_publ_section_title
;
Structure prediction by ZEFSAII (Michael W. Deem and Ramdas Pophale) SiO2 
 PCOD9091381
Probable space group: P -1
;
_chemical_formula_sum "Si O2"
_cell_formula_units_Z 14
_cell_length_a 13.520826
_cell_length_b 7.856301
_cell_length_c 12.799341
_cell_angle_alpha 131.093262
_cell_angle_beta 41.017879
_cell_angle_gamma 136.535484
_cell_volume 595.428754
_symmetry_space_group_name_H-M "P -1"
_symmetry_group_IT_number 2
_symmetry_cell_setting 'triclinic'
loop_
_space_group_symop_operation_xyz
x,y,z
-x,-y,-z
loop_
_atom_site_type_symbol
_atom_site_label
_atom_site_fract_x
_atom_site_fract_y
_atom_site_fract_z
Si Si1 0.497892 0.206288 0.745195
Si Si2 0.301182 0.413733 0.634894
Si Si3 0.995424 0.369276 0.214666
Si Si4 0.972280 0.146064 0.704313
Si Si5 0.168568 0.820896 0.945426
Si Si6 0.870091 0.619770 0.672710
Si Si7 0.665899 0.934362 0.383441
O O1 0.673038 0.418983 0.735420
O O2 0.430487 0.260789 0.711640
O O3 0.337095 0.089956 0.902319
O O4 0.540050 0.982819 0.578585
O O5 0.500000 0.500000 0.500000
O O6 0.250757 0.627675 0.796350
O O7 0.238077 0.184136 0.675070
O O8 0.177482 0.278591 0.581840
O O9 0.072457 0.675765 0.264518
O O10 0.095303 0.309751 0.202760
O O11 0.964965 0.251249 0.074063
O O12 0.798938 0.211235 0.346301
O O13 0.907782 0.845641 0.650205
O O14 0.915821 0.201704 0.885336
O O15 0.000000 0.500000 0.500000
#
# Coordination Sequence:
#
# PCOD9091381 Si02
#       7
#     2   2   2   2   2   2   2
#     4  10  21  39  61  93 129 166 214 267 315 378
#     4  11  19  35  67  98 123 160 219 269 304 371
#     4  10  21  42  67  97 126 170 212 266 323 377
#     4  11  25  44  64  97 135 170 208 269 321 383
#     4  10  23  43  66  94 135 166 217 262 317 385
#     4  12  24  42  66  96 132 167 217 264 326 381
#     4  10  19  39  65  95 122 166 220 267 314 367
#
# _framework density 23.51247
#
# number of rings (size 3 to 8) (size 9 to 14) (size 15 to 20)
#    0.000    1.429    4.286    1.714    2.000    1.714 
#    7.714    0.714    0.000    0.000    0.000    0.000 
#    0.000    0.000    0.000    0.000    0.000    0.000 
#
# Total GULP energy -78040.664095 kJ/mol
# GULP energy per Si atom -5574.333150 kJ/mol
# Density = 2.345895 g / cm^3
# Si number density = 23.512470 Si / 1000 Ang^3
#
#
#
# Elastic Constant Matrix: (Units=GPa)
#
#
# Indices 1 2 3 4 5 6 
#
# 1 86.9289 35.9059 13.7219 -4.1155 0.8068 3.3368
# 2 35.9059 129.3216 30.1467 -19.5768 -8.1846 -3.7427
# 3 13.7219 30.1467 90.9994 -16.2361 6.6304 -0.2444
# 4 -4.1155 -19.5768 -16.2361 28.9063 2.3652 -9.8521
# 5 0.8068 -8.1846 6.6304 2.3652 27.9485 -2.1318
# 6 3.3368 -3.7427 -0.2444 -9.8521 -2.1318 44.1473
#
#
#
# Elastic Compliance Matrix: (Units=1/GPa)
#
#
# Indices 1 2 3 4 5 6 
#
# 1 0.013242 -0.003855 -0.000946 -0.001762 -0.001274 -0.001788
# 2 -0.003855 0.010486 -0.002053 0.006037 0.003363 0.002679
# 3 -0.000946 -0.002053 0.013324 0.006736 -0.004208 0.001271
# 4 -0.001762 0.006037 0.006736 0.046145 -0.002857 0.010842
# 5 -0.001274 0.003363 -0.004208 -0.002857 0.038161 0.001563
# 6 -0.001788 0.002679 0.001271 0.010842 0.001563 0.025516
#
#
# Mechanical properties :
#
#
# Convention : Reuss Voigt Hill
#
# Bulk Modulus (GPa) = 42.83877 51.86653 47.35265
# Shear Modulus (GPa) = 29.69757 35.36545 32.53151
#
# Velocity S-wave (km/s) = 3.55781 3.88250 3.72369
# Velocity P-wave (km/s) = 5.92760 6.49657 6.21860
#
# Compressibility (1/GPa) = 0.02334334
#
# Stress axis : x y z
#
# Youngs Moduli (GPa) = 75.51478 95.36553 75.05394
#
# Poissons Ratio (x) = 0.36767 0.07100
# Poissons Ratio (y) = 0.29113 0.15409
# Poissons Ratio (z) = 0.07144 0.19580
#
# Static dielectric constant tensor:
#      x y z
#    x 1.960560 -0.004860 0.051060 
#    y -0.004860 1.982890 0.056410 
#    z 0.051060 0.056410 1.922010 
# 
# From -- ./inp_files/529052.got.cif
#   From: 2010.05.17/outbox.cif.g08.bks.cpg/sg2_265_cif.got.tgz:529052.got - 2010.06.03 11:33:40.
