data_PCOD9091860
_publ_section_title
;
Structure prediction by ZEFSAII (Michael W. Deem and Ramdas Pophale) SiO2 
 PCOD9091860
Probable space group: P -1
;
_chemical_formula_sum "Si O2"
_cell_formula_units_Z 14
_cell_length_a 7.347958
_cell_length_b 11.052850
_cell_length_c 7.847564
_cell_angle_alpha 70.938771
_cell_angle_beta 58.346146
_cell_angle_gamma 70.769010
_cell_volume 502.800145
_symmetry_space_group_name_H-M "P -1"
_symmetry_group_IT_number 2
_symmetry_cell_setting 'triclinic'
loop_
_space_group_symop_operation_xyz
x,y,z
-x,-y,-z
loop_
_atom_site_type_symbol
_atom_site_label
_atom_site_fract_x
_atom_site_fract_y
_atom_site_fract_z
Si Si1 0.174011 0.431199 0.808535
Si Si2 0.825091 0.126810 0.871297
Si Si3 0.310221 0.807110 0.455481
Si Si4 0.244461 0.161299 0.942181
Si Si5 0.440268 0.445906 0.349711
Si Si6 0.391362 0.264129 0.178979
Si Si7 0.248343 0.053505 0.570712
O O1 0.233953 0.475435 0.566954
O O2 0.412652 0.443932 0.767470
O O3 0.098088 0.294030 0.876687
O O4 0.000000 0.500000 0.000000
O O5 0.804088 0.202817 0.665746
O O6 0.085656 0.088323 0.794182
O O7 0.768851 0.984570 0.933061
O O8 0.648899 0.199841 0.056440
O O9 0.391903 0.681932 0.592909
O O10 0.178346 0.930890 0.566016
O O11 0.533170 0.847601 0.267586
O O12 0.286273 0.232927 0.068334
O O13 0.375734 0.402637 0.215559
O O14 0.265644 0.183634 0.404201
O O15 0.500000 0.000000 0.500000
#
# Coordination Sequence:
#
# PCOD9091860 Si02
#       7
#     2   2   2   2   2   2   2
#     4  10  24  43  64  85 118 170 218 252 307 369
#     4  11  23  38  64  95 130 167 200 245 326 378
#     4  10  19  40  62  88 127 162 203 250 307 376
#     4  10  21  40  65  90 127 168 206 256 306 376
#     4  10  23  42  64  90 122 162 210 265 306 358
#     4  11  22  40  62  97 129 156 205 266 315 368
#     4  12  23  35  57  95 132 164 199 249 308 371
#
# _framework density 27.844066000000002
#
# number of rings (size 3 to 8) (size 9 to 14) (size 15 to 20)
#    0.000    1.429    4.286    1.286    2.000    2.286 
#    0.000    0.714    0.000    0.000    0.000    0.000 
#    0.000    0.000    0.000    0.000    0.000    0.000 
#
# Total GULP energy -78145.493708 kJ/mol
# GULP energy per Si atom -5581.820979 kJ/mol
# Density = 2.778069 g / cm^3
# Si number density = 27.844066 Si / 1000 Ang^3
#
#
#
# Elastic Constant Matrix: (Units=GPa)
#
#
# Indices 1 2 3 4 5 6 
#
# 1 17.8687 -13.6978 -6.3910 -8.6192 -19.1241 -10.3469
# 2 -13.6978 121.7646 40.3151 12.9722 -2.4685 19.7243
# 3 -6.3910 40.3151 135.9258 25.9048 -29.3145 -0.7870
# 4 -8.6192 12.9722 25.9048 62.6755 -3.8113 8.1522
# 5 -19.1241 -2.4685 -29.3145 -3.8113 57.9097 13.6857
# 6 -10.3469 19.7243 -0.7870 8.1522 13.6857 31.4002
#
#
#
# Elastic Compliance Matrix: (Units=1/GPa)
#
#
# Indices 1 2 3 4 5 6 
#
# 1 0.130915 0.008149 0.011530 0.012485 0.046769 0.014683
# 2 0.008149 0.010817 -0.002267 0.000792 0.003445 -0.005873
# 3 0.011530 -0.002267 0.010839 -0.002217 0.008492 0.002369
# 4 0.012485 0.000792 -0.002217 0.019218 0.005170 -0.003682
# 5 0.046769 0.003445 0.008492 0.005170 0.038613 -0.004711
# 6 0.014683 -0.005873 0.002369 -0.003682 -0.004711 0.043443
#
#
# Mechanical properties :
#
#
# Convention : Reuss Voigt Hill
#
# Bulk Modulus (GPa) = 5.33630 35.11242 20.22436
# Shear Modulus (GPa) = 17.76294 47.41925 32.59109
#
# Velocity S-wave (km/s) = 2.52849 4.13125 3.42495
# Velocity P-wave (km/s) = 3.23188 5.94929 4.78744
#
# Compressibility (1/GPa) = 0.18739563
#
# Stress axis : x y z
#
# Youngs Moduli (GPa) = 7.63855 92.44925 92.25761
#
# Poissons Ratio (x) = -0.75338 -1.06377
# Poissons Ratio (y) = -0.06225 0.20916
# Poissons Ratio (z) = -0.08808 0.20960
#
# Static dielectric constant tensor:
#      x y z
#    x 2.637980 0.042870 0.179520 
#    y 0.042870 2.366920 0.055910 
#    z 0.179520 0.055910 2.171790 
# 
# From -- ./inp_files/177203.got.cif
#   From: 2010.05.17/outbox.cif.g08.bks.cpg/sg2_89_cif.got.tgz:177203.got - 2010.06.03 11:33:40.
