data_PCOD9091133
_publ_section_title
;
Structure prediction by ZEFSAII (Michael W. Deem and Ramdas Pophale) SiO2 
 PCOD9091133
Probable space group: P -1
;
_chemical_formula_sum "Si O2"
_cell_formula_units_Z 14
_cell_length_a 8.836723
_cell_length_b 8.503440
_cell_length_c 13.991949
_cell_angle_alpha 40.840821
_cell_angle_beta 110.994984
_cell_angle_gamma 121.005953
_cell_volume 588.396542
_symmetry_space_group_name_H-M "P -1"
_symmetry_group_IT_number 2
_symmetry_cell_setting 'triclinic'
loop_
_space_group_symop_operation_xyz
x,y,z
-x,-y,-z
loop_
_atom_site_type_symbol
_atom_site_label
_atom_site_fract_x
_atom_site_fract_y
_atom_site_fract_z
Si Si1 0.223166 0.459329 0.486731
Si Si2 0.894181 0.149207 0.659227
Si Si3 0.316561 0.203833 0.909277
Si Si4 0.675049 0.241393 0.396823
Si Si5 0.674703 0.151447 0.081698
Si Si6 0.385584 0.131913 0.606884
Si Si7 0.284886 0.362765 0.030802
O O1 0.131244 0.659347 0.354418
O O2 0.259308 0.286397 0.493403
O O3 0.418381 0.661433 0.470909
O O4 0.097940 0.248402 0.631361
O O5 0.816205 0.218702 0.512677
O O6 0.778318 0.860191 0.800007
O O7 0.339093 0.481155 0.740739
O O8 0.238112 0.956368 0.933027
O O9 0.508847 0.201847 0.977344
O O10 0.221887 0.213255 0.984078
O O11 0.500000 0.000000 0.500000
O O12 0.691050 0.140425 0.340818
O O13 0.604199 0.930328 0.250194
O O14 0.777237 0.417261 0.042797
O O15 0.500000 0.500000 0.000000
#
# Coordination Sequence:
#
# PCOD9091133 Si02
#       7
#     2   2   2   2   2   2   2
#     4  10  23  41  63  98 132 176 213 282 332 396
#     4  11  23  42  66  97 139 165 222 281 336 379
#     4  10  21  35  62  97 130 166 224 268 328 387
#     4  12  22  37  66 102 128 175 221 279 324 404
#     4  10  20  36  63  97 127 171 225 273 314 404
#     4  11  22  41  69  97 131 175 228 266 334 405
#     4  10  19  39  63  94 126 176 216 271 324 397
#
# _framework density 23.793475999999998
#
# number of rings (size 3 to 8) (size 9 to 14) (size 15 to 20)
#    0.000    1.429    2.857    4.286    2.000    0.571 
#    2.571    0.714    0.000    8.571    0.000    0.000 
#    0.000    0.000    0.000    0.000    0.000    0.000 
#
# Total GULP energy -78030.340030 kJ/mol
# GULP energy per Si atom -5573.595716 kJ/mol
# Density = 2.373932 g / cm^3
# Si number density = 23.793476 Si / 1000 Ang^3
#
#
#
# Elastic Constant Matrix: (Units=GPa)
#
#
# Indices 1 2 3 4 5 6 
#
# 1 85.2501 41.5193 32.7061 -15.6237 -4.6718 -14.6845
# 2 41.5193 144.3856 43.3196 -14.1275 6.3792 -45.3917
# 3 32.7061 43.3196 135.8485 -9.5546 -1.7727 2.5204
# 4 -15.6237 -14.1275 -9.5546 42.2729 0.7298 6.5734
# 5 -4.6718 6.3792 -1.7727 0.7298 27.5436 -5.7760
# 6 -14.6845 -45.3917 2.5204 6.5734 -5.7760 45.0385
#
#
#
# Elastic Compliance Matrix: (Units=1/GPa)
#
#
# Indices 1 2 3 4 5 6 
#
# 1 0.015297 -0.002687 -0.002560 0.003758 0.003438 0.002315
# 2 -0.002687 0.012569 -0.003552 0.000596 -0.001146 0.011757
# 3 -0.002560 -0.003552 0.009255 0.000746 -0.000095 -0.005054
# 4 0.003758 0.000596 0.000746 0.025740 -0.000563 -0.002045
# 5 0.003438 -0.001146 -0.000095 -0.000563 0.038202 0.004953
# 6 0.002315 0.011757 -0.005054 -0.002045 0.004953 0.036023
#
#
# Mechanical properties :
#
#
# Convention : Reuss Voigt Hill
#
# Bulk Modulus (GPa) = 51.22189 66.73049 58.97619
# Shear Modulus (GPa) = 31.01870 39.50027 35.25948
#
# Velocity S-wave (km/s) = 3.61455 4.07889 3.85372
# Velocity P-wave (km/s) = 6.24455 7.09152 6.68147
#
# Compressibility (1/GPa) = 0.01952290
#
# Stress axis : x y z
#
# Youngs Moduli (GPa) = 65.37328 79.55794 108.04778
#
# Poissons Ratio (x) = 0.21379 0.27656
# Poissons Ratio (y) = 0.17567 0.38382
# Poissons Ratio (z) = 0.16733 0.28262
#
# Static dielectric constant tensor:
#      x y z
#    x 1.993430 -0.056990 0.023930 
#    y -0.056990 2.048860 0.061260 
#    z 0.023930 0.061260 1.919490 
# 
# From -- ./inp_files/491847.got.cif
#   From: 2010.05.17/outbox.cif.g08.bks.cpg/sg2_246_cif.got.tgz:491847.got - 2010.06.03 11:33:40.
