data_PCOD9091186
_publ_section_title
;
Structure prediction by ZEFSAII (Michael W. Deem and Ramdas Pophale) SiO2 
 PCOD9091186
Probable space group: P -1
;
_chemical_formula_sum "Si O2"
_cell_formula_units_Z 14
_cell_length_a 9.510072
_cell_length_b 19.414058
_cell_length_c 21.474695
_cell_angle_alpha 26.432609
_cell_angle_beta 159.421038
_cell_angle_gamma 151.864961
_cell_volume 595.890487
_symmetry_space_group_name_H-M "P -1"
_symmetry_group_IT_number 2
_symmetry_cell_setting 'triclinic'
loop_
_space_group_symop_operation_xyz
x,y,z
-x,-y,-z
loop_
_atom_site_type_symbol
_atom_site_label
_atom_site_fract_x
_atom_site_fract_y
_atom_site_fract_z
Si Si1 0.094018 0.002930 0.641993
Si Si2 0.148115 0.357016 0.210110
Si Si3 0.865138 0.093040 0.811693
Si Si4 0.681221 0.071671 0.951729
Si Si5 0.021655 0.437495 0.641372
Si Si6 0.928997 0.451007 0.731774
Si Si7 0.990683 0.677313 0.680480
O O1 0.925512 0.812307 0.718954
O O2 0.383262 0.061166 0.653175
O O3 0.350779 0.034900 0.787288
O O4 0.859094 0.141385 0.430921
O O5 0.653803 0.418756 0.376074
O O6 0.913375 0.326574 0.203806
O O7 0.000000 0.500000 0.000000
O O8 0.097057 0.277253 0.772644
O O9 0.000000 0.000000 0.000000
O O10 0.982400 0.018906 0.857998
O O11 0.841578 0.264421 0.864895
O O12 0.500000 0.000000 0.000000
O O13 0.149835 0.467912 0.742552
O O14 0.519896 0.397714 0.468899
O O15 0.500000 0.500000 0.500000
O O16 0.133693 0.564828 0.781484
#
# Coordination Sequence:
#
# PCOD9091186 Si02
#       7
#     2   2   2   2   2   2   2
#     4  10  21  42  60  86 125 166 200 246 314 367
#     4  12  25  37  62  97 128 150 208 265 304 352
#     4   9  16  35  59  84 118 159 200 239 300 359
#     4  11  21  34  64  95 121 155 212 260 297 357
#     4  10  20  40  64  91 119 164 210 247 297 373
#     4  10  19  39  64  86 121 160 211 247 300 362
#     4  10  22  43  65  85 121 175 205 239 306 378
#
# _framework density 23.494250000000001
#
# number of rings (size 3 to 8) (size 9 to 14) (size 15 to 20)
#    0.000    1.714    5.714    2.571    4.000    0.000 
#    2.571    2.857    0.000    0.000    0.000    0.000 
#    0.000    0.000    0.000    0.000    0.000    0.000 
#
# Total GULP energy -78135.649532 kJ/mol
# GULP energy per Si atom -5581.117824 kJ/mol
# Density = 2.344078 g / cm^3
# Si number density = 23.494250 Si / 1000 Ang^3
#
#
#
# Elastic Constant Matrix: (Units=GPa)
#
#
# Indices 1 2 3 4 5 6 
#
# 1 148.6018 38.0236 46.9004 -30.7176 -8.2562 -23.2721
# 2 38.0236 146.5688 42.9806 -41.8525 5.9026 -34.0735
# 3 46.9004 42.9806 70.9927 -17.6992 0.8352 -26.2460
# 4 -30.7176 -41.8525 -17.6992 45.3153 -2.4891 13.2187
# 5 -8.2562 5.9026 0.8352 -2.4891 37.3216 -5.5119
# 6 -23.2721 -34.0735 -26.2460 13.2187 -5.5119 38.2181
#
#
#
# Elastic Compliance Matrix: (Units=1/GPa)
#
#
# Indices 1 2 3 4 5 6 
#
# 1 0.009511 0.000611 -0.004854 0.004754 0.002691 0.001747
# 2 0.000611 0.011085 -0.003191 0.007842 -0.000238 0.005317
# 3 -0.004854 -0.003191 0.022880 -0.000209 0.000388 0.010040
# 4 0.004754 0.007842 -0.000209 0.032957 0.001808 -0.001396
# 5 0.002691 -0.000238 0.000388 0.001808 0.028299 0.005148
# 6 0.001747 0.005317 0.010040 -0.001396 0.005148 0.040089
#
#
# Mechanical properties :
#
#
# Convention : Reuss Voigt Hill
#
# Bulk Modulus (GPa) = 34.95626 69.10805 52.03215
# Shear Modulus (GPa) = 29.54645 40.05491 34.80068
#
# Velocity S-wave (km/s) = 3.55012 4.13350 3.85287
# Velocity P-wave (km/s) = 5.63164 7.22910 6.47978
#
# Compressibility (1/GPa) = 0.02860718
#
# Stress axis : x y z
#
# Youngs Moduli (GPa) = 105.14516 90.21400 43.70669
#
# Poissons Ratio (x) = -0.05514 0.21214
# Poissons Ratio (y) = -0.06427 0.13949
# Poissons Ratio (z) = 0.51036 0.28791
#
# Static dielectric constant tensor:
#      x y z
#    x 1.902000 -0.016070 0.059470 
#    y -0.016070 1.891590 0.114730 
#    z 0.059470 0.114730 2.061020 
# 
# From -- ./inp_files/303788.got.cif
#   From: 2010.05.17/outbox.cif.g08.bks.cpg/sg2_152_cif.got.tgz:303788.got - 2010.06.03 11:33:40.
