data_PCOD9091425
_publ_section_title
;
Structure prediction by ZEFSAII (Michael W. Deem and Ramdas Pophale) SiO2 
 PCOD9091425
Probable space group: P -1
;
_chemical_formula_sum "Si O2"
_cell_formula_units_Z 16
_cell_length_a 8.796731
_cell_length_b 15.765552
_cell_length_c 12.714943
_cell_angle_alpha 27.788065
_cell_angle_beta 89.255189
_cell_angle_gamma 79.457127
_cell_volume 764.389463
_symmetry_space_group_name_H-M "P -1"
_symmetry_group_IT_number 2
_symmetry_cell_setting 'triclinic'
loop_
_space_group_symop_operation_xyz
x,y,z
-x,-y,-z
loop_
_atom_site_type_symbol
_atom_site_label
_atom_site_fract_x
_atom_site_fract_y
_atom_site_fract_z
Si Si1 0.978952 0.296251 0.737274
Si Si2 0.585224 0.907791 0.710319
Si Si3 0.626910 0.306327 0.657080
Si Si4 0.071742 0.921454 0.830771
Si Si5 0.158529 0.939443 0.491864
Si Si6 0.475873 0.251472 0.507823
Si Si7 0.259804 0.080059 0.817595
Si Si8 0.367974 0.668194 0.955157
O O1 0.809186 0.301070 0.683086
O O2 0.000000 0.500000 0.500000
O O3 0.136103 0.148426 0.839843
O O4 0.977529 0.223484 0.935421
O O5 0.519339 0.732469 0.916514
O O6 0.500000 0.000000 0.500000
O O7 0.771196 0.886184 0.710097
O O8 0.534144 0.059905 0.642150
O O9 0.500000 0.500000 0.500000
O O10 0.597714 0.281523 0.561244
O O11 0.607887 0.124965 0.920044
O O12 0.214329 0.789859 0.896335
O O13 0.155993 0.037078 0.772783
O O14 0.915090 0.072190 0.607860
O O15 0.299213 0.751356 0.748212
O O16 0.000000 0.000000 0.500000
O O17 0.335612 0.230472 0.607806
O O18 0.413064 0.441021 0.225968
#
# Coordination Sequence:
#
# PCOD9091425 Si02
#       8
#     2   2   2   2   2   2   2   2
#     4  11  24  40  63  96 139 176 223 274 330 401
#     4  10  23  41  66  93 128 166 218 270 334 383
#     4  11  24  41  64 100 134 176 230 275 326 403
#     4  10  19  39  66  87 129 175 209 272 332 380
#     4   9  21  39  68  90 122 167 212 268 330 390
#     4  12  24  40  72  93 134 178 214 276 340 386
#     4  11  23  42  64  94 134 177 224 270 333 402
#     4  10  21  43  64  96 126 165 224 269 331 400
#
# _framework density 20.931739
#
# number of rings (size 3 to 8) (size 9 to 14) (size 15 to 20)
#    0.000    1.500    1.250    4.875    3.500    3.000 
#    0.000    0.625    5.500    0.000    0.000    0.000 
#    0.000    0.000    0.000    0.000    0.000    0.000 
#
# Total GULP energy -89277.850172 kJ/mol
# GULP energy per Si atom -5579.865636 kJ/mol
# Density = 2.088410 g / cm^3
# Si number density = 20.931739 Si / 1000 Ang^3
#
#
#
# Elastic Constant Matrix: (Units=GPa)
#
#
# Indices 1 2 3 4 5 6 
#
# 1 92.1681 13.8181 48.2383 7.2455 -21.9521 -9.3324
# 2 13.8181 57.6168 15.7203 14.8366 1.6088 4.3377
# 3 48.2383 15.7203 125.7126 7.7088 -9.6348 15.3893
# 4 7.2455 14.8366 7.7088 33.7322 6.5153 3.6591
# 5 -21.9521 1.6088 -9.6348 6.5153 25.9926 11.7370
# 6 -9.3324 4.3377 15.3893 3.6591 11.7370 38.1948
#
#
#
# Elastic Compliance Matrix: (Units=1/GPa)
#
#
# Indices 1 2 3 4 5 6 
#
# 1 0.017921 -0.002207 -0.005791 -0.004376 0.012643 0.003497
# 2 -0.002207 0.020352 -0.001122 -0.007891 -0.000952 -0.001350
# 3 -0.005791 -0.001122 0.011353 -0.000629 0.002513 -0.006574
# 4 -0.004376 -0.007891 -0.000629 0.036626 -0.012858 0.000523
# 5 0.012643 -0.000952 0.002513 -0.012858 0.060170 -0.015073
# 6 0.003497 -0.001350 -0.006574 0.000523 -0.015073 0.034420
#
#
# Mechanical properties :
#
#
# Convention : Reuss Voigt Hill
#
# Bulk Modulus (GPa) = 31.86247 47.89455 39.87851
# Shear Modulus (GPa) = 23.86129 32.76531 28.31330
#
# Velocity S-wave (km/s) = 3.37999 3.96073 3.68183
# Velocity P-wave (km/s) = 5.52155 6.62174 6.09652
#
# Compressibility (1/GPa) = 0.03138489
#
# Stress axis : x y z
#
# Youngs Moduli (GPa) = 55.80012 49.13628 88.08131
#
# Poissons Ratio (x) = 0.10845 0.51011
# Poissons Ratio (y) = 0.12316 0.09882
# Poissons Ratio (z) = 0.32316 0.05512
#
# Static dielectric constant tensor:
#      x y z
#    x 1.800470 -0.011870 -0.004280 
#    y -0.011870 1.818430 0.002330 
#    z -0.004280 0.002330 1.766300 
# 
# From -- ./inp_files/313308.got.cif
#   From: 2010.05.17/outbox.cif.g08.bks.cpg/sg2_157_cif.got.tgz:313308.got - 2010.06.03 11:33:40.
