data_PCOD9091656
_publ_section_title
;
Structure prediction by ZEFSAII (Michael W. Deem and Ramdas Pophale) SiO2 
 PCOD9091656
Probable space group: P -1
;
_chemical_formula_sum "Si O2"
_cell_formula_units_Z 16
_cell_length_a 14.549962
_cell_length_b 26.141966
_cell_length_c 8.385570
_cell_angle_alpha 39.152881
_cell_angle_beta 51.708357
_cell_angle_gamma 21.452404
_cell_volume 660.660712
_symmetry_space_group_name_H-M "P -1"
_symmetry_group_IT_number 2
_symmetry_cell_setting 'triclinic'
loop_
_space_group_symop_operation_xyz
x,y,z
-x,-y,-z
loop_
_atom_site_type_symbol
_atom_site_label
_atom_site_fract_x
_atom_site_fract_y
_atom_site_fract_z
Si Si1 0.168049 0.409701 0.294452
Si Si2 0.350141 0.170668 0.055900
Si Si3 0.648638 0.479981 0.301431
Si Si4 0.321049 0.886965 0.989969
Si Si5 0.858420 0.474423 0.288192
Si Si6 0.722556 0.984235 0.836292
Si Si7 0.110912 0.153208 0.357889
Si Si8 0.928103 0.101762 0.181377
O O1 0.480265 0.202746 0.522951
O O2 0.958051 0.591937 0.195434
O O3 0.065913 0.383623 0.412870
O O4 0.140021 0.473942 0.001125
O O5 0.540245 0.041456 0.007307
O O6 0.516938 0.136720 0.051605
O O7 0.291976 0.116919 0.311707
O O8 0.500000 0.500000 0.500000
O O9 0.872301 0.377038 0.434125
O O10 0.808871 0.355871 0.269276
O O11 0.397117 0.697416 0.997840
O O12 0.196748 0.009856 0.672010
O O13 0.554130 0.675755 0.206170
O O14 0.104751 0.984192 0.111573
O O15 0.851518 0.866720 0.822534
O O16 0.972310 0.872623 0.927267
O O17 0.000000 0.000000 0.500000
#
# Coordination Sequence:
#
# PCOD9091656 Si02
#       8
#     2   2   2   2   2   2   2   2
#     4  10  19  39  68  99 132 169 223 282 341 399
#     4  10  22  39  65 100 137 171 220 285 352 394
#     4  12  26  46  68  99 138 182 233 277 332 405
#     4  10  22  42  69 100 128 178 230 279 338 408
#     4  10  21  39  68 101 127 172 229 283 325 398
#     4  11  24  42  64 100 139 176 224 277 350 413
#     4  12  23  40  67  96 138 179 223 286 334 404
#     4  11  26  46  70  95 137 183 226 282 337 405
#
# _framework density 24.21818
#
# number of rings (size 3 to 8) (size 9 to 14) (size 15 to 20)
#    0.000    1.250    3.750    1.875    0.000    3.000 
#    2.250    0.000    0.000    0.000    0.000    0.000 
#    0.000    0.000    0.000    0.000    0.000    0.000 
#
# Total GULP energy -89377.741191 kJ/mol
# GULP energy per Si atom -5586.108824 kJ/mol
# Density = 2.416306 g / cm^3
# Si number density = 24.218180 Si / 1000 Ang^3
#
#
#
# Elastic Constant Matrix: (Units=GPa)
#
#
# Indices 1 2 3 4 5 6 
#
# 1 79.6171 28.0256 -1.6473 -5.0047 3.8319 2.0182
# 2 28.0256 160.7806 15.7810 20.2477 -0.2546 27.1693
# 3 -1.6473 15.7810 74.6360 15.1938 -5.4301 -8.9687
# 4 -5.0047 20.2477 15.1938 31.3440 -3.9469 -2.1457
# 5 3.8319 -0.2546 -5.4301 -3.9469 20.9297 2.7388
# 6 2.0182 27.1693 -8.9687 -2.1457 2.7388 39.2030
#
#
#
# Elastic Compliance Matrix: (Units=1/GPa)
#
#
# Indices 1 2 3 4 5 6 
#
# 1 0.014050 -0.003344 0.000267 0.004158 -0.002025 0.002024
# 2 -0.003344 0.008818 -0.001519 -0.005937 0.000071 -0.006616
# 3 0.000267 -0.001519 0.015604 -0.005966 0.002317 0.004121
# 4 0.004158 -0.005937 -0.005966 0.040179 0.004618 0.004412
# 5 -0.002025 0.000071 0.002317 0.004618 0.049970 -0.002653
# 6 0.002024 -0.006616 0.004121 0.004412 -0.002653 0.031359
#
#
# Mechanical properties :
#
#
# Convention : Reuss Voigt Hill
#
# Bulk Modulus (GPa) = 34.15554 44.37250 39.26402
# Shear Modulus (GPa) = 27.94349 36.48695 32.21522
#
# Velocity S-wave (km/s) = 3.40048 3.88570 3.65116
# Velocity P-wave (km/s) = 5.43614 6.20429 5.83287
#
# Compressibility (1/GPa) = 0.02927783
#
# Stress axis : x y z
#
# Youngs Moduli (GPa) = 71.17270 113.40932 64.08735
#
# Poissons Ratio (x) = 0.37927 -0.01709
# Poissons Ratio (y) = 0.23802 0.09737
# Poissons Ratio (z) = -0.01898 0.17231
#
# Static dielectric constant tensor:
#      x y z
#    x 1.986760 0.008290 -0.011940 
#    y 0.008290 1.896050 0.021510 
#    z -0.011940 0.021510 1.997550 
# 
# From -- ./inp_files/273491.got.cif
#   From: 2010.05.17/outbox.cif.g08.bks.cpg/sg2_137_cif.got.tgz:273491.got - 2010.06.03 11:33:40.
