data_PCOD9091077
_publ_section_title
;
Structure prediction by ZEFSAII (Michael W. Deem and Ramdas Pophale) SiO2 
 PCOD9091077
Probable space group: P -1
;
_chemical_formula_sum "Si O2"
_cell_formula_units_Z 16
_cell_length_a 7.740420
_cell_length_b 17.308965
_cell_length_c 7.389086
_cell_angle_alpha 131.510568
_cell_angle_beta 123.993379
_cell_angle_gamma 67.661272
_cell_volume 614.565875
_symmetry_space_group_name_H-M "P -1"
_symmetry_group_IT_number 2
_symmetry_cell_setting 'triclinic'
loop_
_space_group_symop_operation_xyz
x,y,z
-x,-y,-z
loop_
_atom_site_type_symbol
_atom_site_label
_atom_site_fract_x
_atom_site_fract_y
_atom_site_fract_z
Si Si1 0.564895 0.598534 0.801627
Si Si2 0.227830 0.001153 0.726988
Si Si3 0.600821 0.165729 0.682142
Si Si4 0.388813 0.659412 0.284174
Si Si5 0.883988 0.298697 0.223859
Si Si6 0.306143 0.192092 0.887044
Si Si7 0.770741 0.543864 0.217654
Si Si8 0.120726 0.817675 0.598626
O O1 0.500000 0.500000 0.500000
O O2 0.344667 0.648516 0.810168
O O3 0.665026 0.687331 0.875122
O O4 0.716713 0.576552 0.027748
O O5 0.374993 0.938190 0.575413
O O6 0.213998 0.930709 0.788313
O O7 0.301328 0.118476 0.943810
O O8 0.000000 0.000000 0.500000
O O9 0.495589 0.254211 0.634967
O O10 0.485670 0.156896 0.792436
O O11 0.833047 0.217870 0.907462
O O12 0.575474 0.575628 0.280710
O O13 0.276970 0.727402 0.476620
O O14 0.214158 0.580826 0.978710
O O15 0.926229 0.216243 0.280144
O O16 0.041712 0.390914 0.491238
O O17 0.092492 0.183558 0.638998
#
# Coordination Sequence:
#
# PCOD9091077 Si02
#       8
#     2   2   2   2   2   2   2   2
#     4  11  23  38  62  95 122 160 217 250 297 379
#     4   9  20  38  64  92 123 164 205 259 316 364
#     4  10  20  40  61  92 123 162 212 254 305 379
#     4  10  21  38  58  87 124 166 207 256 305 373
#     4  11  22  39  64  92 123 165 209 252 307 378
#     4  10  19  39  63  88 121 169 203 250 315 363
#     4  11  22  41  61  85 130 170 206 253 319 357
#     4  10  20  37  63  90 125 160 207 255 317 359
#
# _framework density 26.034637
#
# number of rings (size 3 to 8) (size 9 to 14) (size 15 to 20)
#    0.000    1.750    3.750    1.125    1.750    1.500 
#    0.000   12.500    0.000    1.500    0.000    0.000 
#    0.000    0.000    0.000    0.000    0.000    0.000 
#
# Total GULP energy -89355.417651 kJ/mol
# GULP energy per Si atom -5584.713603 kJ/mol
# Density = 2.597538 g / cm^3
# Si number density = 26.034637 Si / 1000 Ang^3
#
#
#
# Elastic Constant Matrix: (Units=GPa)
#
#
# Indices 1 2 3 4 5 6 
#
# 1 37.2911 9.0350 5.5666 8.7193 11.1995 3.6279
# 2 9.0350 115.7786 36.9491 36.1254 8.6176 18.8376
# 3 5.5666 36.9491 104.4434 11.6960 24.1569 8.7812
# 4 8.7193 36.1254 11.6960 49.5002 -0.5276 16.1493
# 5 11.1995 8.6176 24.1569 -0.5276 36.5146 1.4660
# 6 3.6279 18.8376 8.7812 16.1493 1.4660 35.2705
#
#
#
# Elastic Compliance Matrix: (Units=1/GPa)
#
#
# Indices 1 2 3 4 5 6 
#
# 1 0.031193 -0.000330 0.001566 -0.005600 -0.010589 -0.000418
# 2 -0.000330 0.012465 -0.003177 -0.007528 -0.000753 -0.002354
# 3 0.001566 -0.003177 0.012641 -0.000721 -0.008066 -0.000946
# 4 -0.005600 -0.007528 -0.000721 0.029872 0.004768 -0.009100
# 5 -0.010589 -0.000753 -0.008066 0.004768 0.036224 -0.000190
# 6 -0.000418 -0.002354 -0.000946 -0.009100 -0.000190 0.034062
#
#
# Mechanical properties :
#
#
# Convention : Reuss Voigt Hill
#
# Bulk Modulus (GPa) = 19.07853 40.06828 29.57341
# Shear Modulus (GPa) = 28.11955 37.98790 33.05372
#
# Velocity S-wave (km/s) = 3.29003 3.82400 3.56702
# Velocity P-wave (km/s) = 4.66652 5.90941 5.32435
#
# Compressibility (1/GPa) = 0.05241493
#
# Stress axis : x y z
#
# Youngs Moduli (GPa) = 32.05893 80.22590 79.10840
#
# Poissons Ratio (x) = 0.02651 -0.12387
# Poissons Ratio (y) = 0.01059 0.25133
# Poissons Ratio (z) = -0.05020 0.25488
#
# Static dielectric constant tensor:
#      x y z
#    x 2.072900 0.027880 -0.006060 
#    y 0.027880 2.201560 0.000640 
#    z -0.006060 0.000640 2.172130 
# 
# From -- ./inp_files/218772.got.cif
#   From: 2010.05.17/outbox.cif.g08.bks.cpg/sg2_110_cif.got.tgz:218772.got - 2010.06.03 11:33:40.
