data_PCOD9091642
_publ_section_title
;
Structure prediction by ZEFSAII (Michael W. Deem and Ramdas Pophale) SiO2 
 PCOD9091642
Probable space group: P -1
;
_chemical_formula_sum "Si O2"
_cell_formula_units_Z 16
_cell_length_a 11.341513
_cell_length_b 14.276477
_cell_length_c 8.168221
_cell_angle_alpha 117.991582
_cell_angle_beta 109.603122
_cell_angle_gamma 117.050362
_cell_volume 744.779602
_symmetry_space_group_name_H-M "P -1"
_symmetry_group_IT_number 2
_symmetry_cell_setting 'triclinic'
loop_
_space_group_symop_operation_xyz
x,y,z
-x,-y,-z
loop_
_atom_site_type_symbol
_atom_site_label
_atom_site_fract_x
_atom_site_fract_y
_atom_site_fract_z
Si Si1 0.473809 0.702982 0.389520
Si Si2 0.930590 0.846143 0.268044
Si Si3 0.151885 0.409083 0.806244
Si Si4 0.483472 0.967300 0.201309
Si Si5 0.581664 0.663710 0.723784
Si Si6 0.714565 0.375993 0.263910
Si Si7 0.721786 0.026259 0.645151
Si Si8 0.787843 0.300943 0.540824
O O1 0.601609 0.737374 0.621106
O O2 0.327231 0.696331 0.388739
O O3 0.605075 0.845019 0.442665
O O4 0.338865 0.536721 0.103314
O O5 0.898101 0.745138 0.321940
O O6 0.075697 0.877648 0.240685
O O7 0.754285 0.757505 0.999513
O O8 0.000000 0.000000 0.500000
O O9 0.193053 0.492110 0.721289
O O10 0.972346 0.362781 0.746379
O O11 0.323101 0.946178 0.178067
O O12 0.628803 0.042641 0.480224
O O13 0.630639 0.114811 0.266084
O O14 0.391684 0.795407 0.990932
O O15 0.500000 0.500000 0.500000
O O16 0.433110 0.640877 0.731711
O O17 0.837945 0.404751 0.492248
#
# Coordination Sequence:
#
# PCOD9091642 Si02
#       8
#     2   2   2   2   2   2   2   2
#     4  10  22  42  69  95 133 180 221 278 341 400
#     4  12  27  45  70  98 136 181 235 277 325 406
#     4  12  23  40  68  98 133 177 224 283 336 401
#     4  10  19  39  68  96 135 170 217 277 345 398
#     4  11  25  47  68  95 137 182 225 279 336 398
#     4  11  24  41  67  99 137 176 223 279 340 402
#     4  10  21  40  65  99 128 176 224 276 332 398
#     4  10  22  39  64 103 135 169 221 280 343 398
#
# _framework density 21.482865
#
# number of rings (size 3 to 8) (size 9 to 14) (size 15 to 20)
#    0.000    1.250    3.750    1.875    0.000    3.000 
#    2.250    0.000    0.000    0.000    0.000    0.000 
#    0.000    0.000    0.000    0.000    0.000    0.000 
#
# Total GULP energy -89228.062890 kJ/mol
# GULP energy per Si atom -5576.753931 kJ/mol
# Density = 2.143397 g / cm^3
# Si number density = 21.482865 Si / 1000 Ang^3
#
#
#
# Elastic Constant Matrix: (Units=GPa)
#
#
# Indices 1 2 3 4 5 6 
#
# 1 85.2589 25.3316 32.7939 2.7578 2.4208 -19.8268
# 2 25.3316 152.1322 23.1780 14.2724 9.4902 -19.4074
# 3 32.7939 23.1780 74.5058 3.8057 1.1676 -18.3484
# 4 2.7578 14.2724 3.8057 29.6763 -17.9342 1.0460
# 5 2.4208 9.4902 1.1676 -17.9342 32.9012 1.0713
# 6 -19.8268 -19.4074 -18.3484 1.0460 1.0713 30.8211
#
#
#
# Elastic Compliance Matrix: (Units=1/GPa)
#
#
# Indices 1 2 3 4 5 6 
#
# 1 0.015481 -0.000655 -0.004790 -0.002023 -0.002105 0.006837
# 2 -0.000655 0.008716 -0.000563 -0.008689 -0.007354 0.005282
# 3 -0.004790 -0.000563 0.017678 -0.003009 -0.001989 0.007259
# 4 -0.002023 -0.008689 -0.003009 0.060800 0.036291 -0.011889
# 5 -0.002105 -0.007354 -0.001989 0.036291 0.052856 -0.010238
# 6 0.006837 0.005282 0.007259 -0.011889 -0.010238 0.045250
#
#
# Mechanical properties :
#
#
# Convention : Reuss Voigt Hill
#
# Bulk Modulus (GPa) = 33.49167 52.72266 43.10717
# Shear Modulus (GPa) = 22.44656 34.05261 28.24959
#
# Velocity S-wave (km/s) = 3.23593 3.98566 3.63020
# Velocity P-wave (km/s) = 5.43925 6.76577 6.13845
#
# Compressibility (1/GPa) = 0.02985817
#
# Stress axis : x y z
#
# Youngs Moduli (GPa) = 64.59473 114.73301 56.56734
#
# Poissons Ratio (x) = 0.07511 0.27098
# Poissons Ratio (y) = 0.04229 0.03187
# Poissons Ratio (z) = 0.30944 0.06463
#
# Static dielectric constant tensor:
#      x y z
#    x 1.751600 0.010630 -0.025850 
#    y 0.010630 1.845040 -0.037380 
#    z -0.025850 -0.037380 1.790590 
# 
# From -- ./inp_files/274115.got.cif
#   From: 2010.05.17/outbox.cif.g08.bks.cpg/sg2_138_cif.got.tgz:274115.got - 2010.06.03 11:33:40.
