data_PCOD9091963
_publ_section_title
;
Structure prediction by ZEFSAII (Michael W. Deem and Ramdas Pophale) SiO2 
 PCOD9091963
Probable space group: P -1
;
_chemical_formula_sum "Si O2"
_cell_formula_units_Z 16
_cell_length_a 8.310506
_cell_length_b 20.153075
_cell_length_c 12.543167
_cell_angle_alpha 20.998404
_cell_angle_beta 78.511818
_cell_angle_gamma 79.284047
_cell_volume 737.708115
_symmetry_space_group_name_H-M "P -1"
_symmetry_group_IT_number 2
_symmetry_cell_setting 'triclinic'
loop_
_space_group_symop_operation_xyz
x,y,z
-x,-y,-z
loop_
_atom_site_type_symbol
_atom_site_label
_atom_site_fract_x
_atom_site_fract_y
_atom_site_fract_z
Si Si1 0.397318 0.142497 0.087345
Si Si2 0.486972 0.541102 0.813676
Si Si3 0.250000 0.786773 0.569839
Si Si4 0.804104 0.788308 0.370928
Si Si5 0.250000 0.916182 0.875727
Si Si6 0.986972 0.458893 0.936990
Si Si7 0.102681 0.142498 0.985161
Si Si8 0.304105 0.211686 0.235860
O O1 0.249999 0.230123 0.904816
O O2 0.583852 0.202806 0.954477
O O3 0.347001 0.143817 0.214652
O O4 0.392882 0.927342 0.373543
O O5 0.321070 0.665384 0.647019
O O6 0.638441 0.665202 0.572118
O O7 0.500000 0.500000 0.000000
O O8 0.447534 0.351847 0.043567
O O9 0.178930 0.665389 0.856820
O O10 0.107119 0.927342 0.344428
O O11 0.947533 0.648146 0.599119
O O12 0.847001 0.856177 0.146112
O O13 0.778321 0.950444 0.217767
O O14 0.278322 0.049551 0.569106
O O15 0.083853 0.797194 0.062894
O O16 0.000000 0.500000 0.000000
O O17 0.138441 0.334791 0.067736
#
# Coordination Sequence:
#
# PCOD9091963 Si02
#       8
#     2   2   2   2   2   2   2   2
#     4  10  25  43  65  98 139 174 221 269 337 399
#     4  12  20  37  67  97 132 166 221 280 329 380
#     4  10  19  40  64  89 132 172 212 272 323 380
#     4  12  23  41  66 104 129 174 222 281 332 393
#     4  12  21  40  72  95 134 170 228 278 327 386
#     4  12  20  37  67  97 132 166 221 280 329 380
#     4  10  25  43  65  98 139 174 221 269 337 399
#     4  12  23  41  66 104 129 174 222 281 332 393
#
# _framework density 21.688794000000001
#
# number of rings (size 3 to 8) (size 9 to 14) (size 15 to 20)
#    0.750    0.000    7.500    0.750    0.000    4.000 
#    4.500    1.250    0.000    0.000    0.000    0.000 
#    0.000    0.000    0.000    0.000    0.000    0.000 
#
# Total GULP energy -89300.711468 kJ/mol
# GULP energy per Si atom -5581.294467 kJ/mol
# Density = 2.163943 g / cm^3
# Si number density = 21.688794 Si / 1000 Ang^3
#
#
#
# Elastic Constant Matrix: (Units=GPa)
#
#
# Indices 1 2 3 4 5 6 
#
# 1 153.6606 21.7756 4.5600 11.2674 -2.3063 -14.8951
# 2 21.7756 80.6113 17.7436 31.4103 2.2430 -0.6495
# 3 4.5600 17.7436 18.7558 11.1147 -1.5298 -0.6659
# 4 11.2674 31.4103 11.1147 23.0084 0.2599 2.5218
# 5 -2.3063 2.2430 -1.5298 0.2599 14.6785 6.3483
# 6 -14.8951 -0.6495 -0.6659 2.5218 6.3483 24.7002
#
#
#
# Elastic Compliance Matrix: (Units=1/GPa)
#
#
# Indices 1 2 3 4 5 6 
#
# 1 0.007321 -0.000750 0.001242 -0.003701 -0.000696 0.004986
# 2 -0.000750 0.027935 -0.005468 -0.035654 -0.006703 0.005498
# 3 0.001242 -0.005468 0.077357 -0.031020 0.007997 0.003802
# 4 -0.003701 -0.035654 -0.031020 0.110730 0.007082 -0.017131
# 5 -0.000696 -0.006703 0.007997 0.007082 0.079009 -0.021410
# 6 0.004986 0.005498 0.003802 -0.017131 -0.021410 0.050991
#
#
# Mechanical properties :
#
#
# Convention : Reuss Voigt Hill
#
# Bulk Modulus (GPa) = 9.74062 37.90957 23.82509
# Shear Modulus (GPa) = 12.57814 26.40733 19.49273
#
# Velocity S-wave (km/s) = 2.41080 3.49314 3.00116
# Velocity P-wave (km/s) = 3.50002 5.81258 4.79772
#
# Compressibility (1/GPa) = 0.10266289
#
# Stress axis : x y z
#
# Youngs Moduli (GPa) = 136.58580 35.79796 12.92701
#
# Poissons Ratio (x) = 0.02684 -0.01606
# Poissons Ratio (y) = 0.10240 0.07068
# Poissons Ratio (z) = -0.16970 0.19574
#
# Static dielectric constant tensor:
#      x y z
#    x 1.934720 0.028040 0.019940 
#    y 0.028040 1.731390 -0.031550 
#    z 0.019940 -0.031550 1.780000 
# 
# From -- ./inp_files/405207.got.cif
#   From: 2010.05.17/outbox.cif.g08.bks.cpg/sg2_203_cif.got.tgz:405207.got - 2010.06.03 11:33:40.
