data_PCOD9091868
_publ_section_title
;
Structure prediction by ZEFSAII (Michael W. Deem and Ramdas Pophale) SiO2 
 PCOD9091868
Probable space group: P -1
;
_chemical_formula_sum "Si O2"
_cell_formula_units_Z 16
_cell_length_a 7.576952
_cell_length_b 18.405622
_cell_length_c 11.657337
_cell_angle_alpha 151.073250
_cell_angle_beta 59.567003
_cell_angle_gamma 109.818115
_cell_volume 656.457853
_symmetry_space_group_name_H-M "P -1"
_symmetry_group_IT_number 2
_symmetry_cell_setting 'triclinic'
loop_
_space_group_symop_operation_xyz
x,y,z
-x,-y,-z
loop_
_atom_site_type_symbol
_atom_site_label
_atom_site_fract_x
_atom_site_fract_y
_atom_site_fract_z
Si Si1 0.324785 0.226156 0.199741
Si Si2 0.166664 0.696451 0.241876
Si Si3 0.179671 0.550141 0.703308
Si Si4 0.688427 0.874824 0.325163
Si Si5 0.909740 0.961010 0.853707
Si Si6 0.298595 0.835921 0.176698
Si Si7 0.015667 0.736767 0.827984
Si Si8 0.810389 0.612156 0.082112
O O1 0.353935 0.393499 0.458978
O O2 0.283904 0.114247 0.157948
O O3 0.105334 0.272031 0.262347
O O4 0.501061 0.150872 0.946485
O O5 0.319277 0.747269 0.169989
O O6 0.082576 0.832905 0.549666
O O7 0.955023 0.677144 0.216345
O O8 0.266351 0.527279 0.028040
O O9 0.157531 0.578209 0.613103
O O10 0.208703 0.714345 0.965297
O O11 0.976413 0.534142 0.820625
O O12 0.650392 0.752490 0.263160
O O13 0.500000 0.000000 0.500000
O O14 0.805863 0.986706 0.510559
O O15 0.833684 0.788393 0.055615
O O16 0.000000 0.000000 0.000000
O O17 0.865760 0.124808 0.029182
#
# Coordination Sequence:
#
# PCOD9091868 Si02
#       8
#     2   2   2   2   2   2   2   2
#     4  11  21  40  58  85 125 161 196 251 312 356
#     4  10  19  40  62  91 120 155 211 248 298 365
#     4  10  21  37  60  91 116 157 211 247 301 362
#     4  11  21  39  61  89 125 157 205 253 310 359
#     4  10  21  36  60  88 118 159 199 247 300 363
#     4  11  23  36  63  91 122 160 196 260 309 357
#     4  10  21  37  63  84 115 164 209 246 295 369
#     4   9  21  36  65  89 115 165 205 251 298 357
#
# _framework density 24.373232000000002
#
# number of rings (size 3 to 8) (size 9 to 14) (size 15 to 20)
#    0.000    1.750    3.750    0.750    1.750    1.500 
#    0.000    2.500    2.750    0.000    0.000    0.000 
#    0.000    0.000    0.000    0.000    0.000    0.000 
#
# Total GULP energy -89287.842834 kJ/mol
# GULP energy per Si atom -5580.490177 kJ/mol
# Density = 2.431776 g / cm^3
# Si number density = 24.373232 Si / 1000 Ang^3
#
#
#
# Elastic Constant Matrix: (Units=GPa)
#
#
# Indices 1 2 3 4 5 6 
#
# 1 42.0097 3.1700 6.3290 1.8053 2.9368 -10.4994
# 2 3.1700 164.5249 21.9442 30.6377 -10.2236 -3.8842
# 3 6.3290 21.9442 86.9700 6.4594 12.3562 -10.1048
# 4 1.8053 30.6377 6.4594 51.7118 -0.6479 -0.0563
# 5 2.9368 -10.2236 12.3562 -0.6479 26.5471 0.8898
# 6 -10.4994 -3.8842 -10.1048 -0.0563 0.8898 28.9267
#
#
#
# Elastic Compliance Matrix: (Units=1/GPa)
#
#
# Indices 1 2 3 4 5 6 
#
# 1 0.026525 -0.000324 -0.000208 -0.000739 -0.003303 0.009612
# 2 -0.000324 0.007342 -0.002054 -0.004035 0.003720 0.000028
# 3 -0.000208 -0.002054 0.013649 -0.000567 -0.007290 0.004640
# 4 -0.000739 -0.004035 -0.000567 0.021816 -0.000644 -0.000946
# 5 -0.003303 0.003720 -0.007290 -0.000644 0.042998 -0.004570
# 6 0.009612 0.000028 0.004640 -0.000946 -0.004570 0.039822
#
#
# Mechanical properties :
#
#
# Convention : Reuss Voigt Hill
#
# Bulk Modulus (GPa) = 23.61683 39.59899 31.60791
# Shear Modulus (GPa) = 29.16524 38.90787 34.03655
#
# Velocity S-wave (km/s) = 3.46296 3.99975 3.74099
# Velocity P-wave (km/s) = 5.06953 6.13293 5.62641
#
# Compressibility (1/GPa) = 0.04234268
#
# Stress axis : x y z
#
# Youngs Moduli (GPa) = 37.70082 136.21002 73.26760
#
# Poissons Ratio (x) = 0.04414 0.01521
# Poissons Ratio (y) = 0.01222 0.15052
# Poissons Ratio (z) = 0.00783 0.27983
#
# Static dielectric constant tensor:
#      x y z
#    x 2.137510 -0.003330 0.068400 
#    y -0.003330 1.932760 0.046110 
#    z 0.068400 0.046110 1.927450 
# 
# From -- ./inp_files/261564.got.cif
#   From: 2010.05.17/outbox.cif.g08.bks.cpg/sg2_131_cif.got.tgz:261564.got - 2010.06.03 11:33:40.
