data_PCOD9091373
_publ_section_title
;
Structure prediction by ZEFSAII (Michael W. Deem and Ramdas Pophale) SiO2 
 PCOD9091373
Probable space group: P -1
;
_chemical_formula_sum "Si O2"
_cell_formula_units_Z 16
_cell_length_a 16.849120
_cell_length_b 14.475848
_cell_length_c 12.026114
_cell_angle_alpha 142.625773
_cell_angle_beta 37.330144
_cell_angle_gamma 160.614086
_cell_volume 575.727257
_symmetry_space_group_name_H-M "P -1"
_symmetry_group_IT_number 2
_symmetry_cell_setting 'triclinic'
loop_
_space_group_symop_operation_xyz
x,y,z
-x,-y,-z
loop_
_atom_site_type_symbol
_atom_site_label
_atom_site_fract_x
_atom_site_fract_y
_atom_site_fract_z
Si Si1 0.010923 0.868691 0.673648
Si Si2 0.541287 0.303876 0.721056
Si Si3 0.389928 0.076602 0.997765
Si Si4 0.592606 0.557978 0.167527
Si Si5 0.807975 0.701340 0.492379
Si Si6 0.809145 0.466069 0.082356
Si Si7 0.277231 0.843007 0.272070
Si Si8 0.146013 0.687075 0.628010
O O1 0.215510 0.937823 0.493833
O O2 0.810970 0.639914 0.772670
O O3 0.905808 0.761202 0.563325
O O4 0.127346 0.146345 0.830088
O O5 0.456796 0.362447 0.793870
O O6 0.666748 0.265638 0.505351
O O7 0.290874 0.984920 0.739212
O O8 0.490891 0.292591 0.998338
O O9 0.585970 0.305395 0.098089
O O10 0.097642 0.796251 0.065701
O O11 0.470922 0.982436 0.799956
O O12 0.437867 0.451146 0.348064
O O13 0.749572 0.492091 0.288974
O O14 0.000000 0.000000 0.500000
O O15 0.767567 0.241371 0.890520
O O16 0.065865 0.520666 0.243913
O O17 0.000000 0.500000 0.500000
#
# Coordination Sequence:
#
# PCOD9091373 Si02
#       8
#     2   2   2   2   2   2   2   2
#     4  10  22  38  61  96 127 167 218 269 316 379
#     4   9  20  34  60  94 120 159 206 270 309 373
#     4  10  23  41  66  88 136 171 213 266 325 380
#     4  11  22  38  65  93 129 165 222 267 316 381
#     4  11  22  37  64  93 125 170 226 265 313 374
#     4  10  23  42  62  94 128 177 216 261 326 381
#     4   9  23  40  62  94 130 174 204 270 327 390
#     4  10  19  39  65  94 123 165 212 261 323 388
#
# _framework density 27.790938000000001
#
# number of rings (size 3 to 8) (size 9 to 14) (size 15 to 20)
#    0.750    1.250    1.250    2.250    3.500    7.500 
#    0.000    1.875    0.000    2.250    0.000    0.000 
#    0.000    0.000    0.000    0.000    0.000    0.000 
#
# Total GULP energy -89171.769888 kJ/mol
# GULP energy per Si atom -5573.235618 kJ/mol
# Density = 2.772768 g / cm^3
# Si number density = 27.790938 Si / 1000 Ang^3
#
#
#
# Elastic Constant Matrix: (Units=GPa)
#
#
# Indices 1 2 3 4 5 6 
#
# 1 100.7458 38.1479 44.8979 21.5585 -11.0684 15.9230
# 2 38.1479 162.3883 33.8553 20.5472 -8.6496 -12.9885
# 3 44.8979 33.8553 91.3769 18.3305 0.6606 22.1600
# 4 21.5585 20.5472 18.3305 43.2534 14.0929 -0.8589
# 5 -11.0684 -8.6496 0.6606 14.0929 43.7814 17.6217
# 6 15.9230 -12.9885 22.1600 -0.8589 17.6217 48.2963
#
#
#
# Elastic Compliance Matrix: (Units=1/GPa)
#
#
# Indices 1 2 3 4 5 6 
#
# 1 0.016790 -0.002127 -0.003647 -0.009311 0.010231 -0.008333
# 2 -0.002127 0.007655 -0.002447 -0.001431 -0.000094 0.003892
# 3 -0.003647 -0.002447 0.016783 -0.005454 0.003535 -0.008543
# 4 -0.009311 -0.001431 -0.005454 0.037497 -0.019904 0.013117
# 5 0.010231 -0.000094 0.003535 -0.019904 0.039765 -0.019884
# 6 -0.008333 0.003892 -0.008543 0.013117 -0.019884 0.035908
#
#
# Mechanical properties :
#
#
# Convention : Reuss Voigt Hill
#
# Bulk Modulus (GPa) = 40.34623 65.36814 52.85719
# Shear Modulus (GPa) = 27.91687 42.90688 35.41188
#
# Velocity S-wave (km/s) = 3.17287 3.93353 3.57350
# Velocity P-wave (km/s) = 5.28887 6.64851 6.00728
#
# Compressibility (1/GPa) = 0.02478546
#
# Stress axis : x y z
#
# Youngs Moduli (GPa) = 59.55787 130.62691 59.58584
#
# Poissons Ratio (x) = 0.27790 0.21730
# Poissons Ratio (y) = 0.12670 0.14581
# Poissons Ratio (z) = 0.21720 0.31965
#
# Static dielectric constant tensor:
#      x y z
#    x 2.368530 0.013660 0.082130 
#    y 0.013660 2.356790 -0.025000 
#    z 0.082130 -0.025000 2.273480 
# 
# From -- ./inp_files/538903.got.cif
#   From: 2010.05.17/outbox.cif.g08.bks.cpg/sg2_270_cif.got.tgz:538903.got - 2010.06.03 11:33:40.
