data_PCOD9091519
_publ_section_title
;
Structure prediction by ZEFSAII (Michael W. Deem and Ramdas Pophale) SiO2 
 PCOD9091519
Probable space group: P -1
;
_chemical_formula_sum "Si O2"
_cell_formula_units_Z 14
_cell_length_a 20.140307
_cell_length_b 12.411677
_cell_length_c 7.898587
_cell_angle_alpha 45.625921
_cell_angle_beta 47.462495
_cell_angle_gamma 22.951594
_cell_volume 546.686063
_symmetry_space_group_name_H-M "P -1"
_symmetry_group_IT_number 2
_symmetry_cell_setting 'triclinic'
loop_
_space_group_symop_operation_xyz
x,y,z
-x,-y,-z
loop_
_atom_site_type_symbol
_atom_site_label
_atom_site_fract_x
_atom_site_fract_y
_atom_site_fract_z
Si Si1 0.631468 0.223663 0.203502
Si Si2 0.983207 0.907312 0.476270
Si Si3 0.461497 0.888993 0.752027
Si Si4 0.985071 0.355035 0.760725
Si Si5 0.361684 0.514419 0.605745
Si Si6 0.198126 0.656591 0.080961
Si Si7 0.230988 0.380036 0.831074
O O1 0.649969 0.043512 0.262659
O O2 0.535907 0.325132 0.433604
O O3 0.826262 0.991105 0.168255
O O4 0.500000 0.500000 0.000000
O O5 0.029253 0.923299 0.200775
O O6 0.113602 0.589340 0.641636
O O7 0.783439 0.155760 0.557055
O O8 0.000000 0.000000 0.500000
O O9 0.649562 0.551350 0.815130
O O10 0.500000 0.000000 0.500000
O O11 0.362538 0.061674 0.907329
O O12 0.000000 0.500000 0.500000
O O13 0.856102 0.433423 0.789898
O O14 0.899435 0.482965 0.950737
O O15 0.323794 0.403624 0.706178
O O16 0.310398 0.564837 0.833069
#
# Coordination Sequence:
#
# PCOD9091519 Si02
#       7
#     2   2   2   2   2   2   2
#     4  12  27  49  70 105 151 187 234 299 365 418
#     4  10  19  39  67 102 130 171 231 296 335 407
#     4  12  22  44  76 103 132 193 252 283 337 440
#     4  11  27  46  68 104 153 182 228 307 367 411
#     4  10  22  40  70  99 137 182 235 292 349 417
#     4  11  24  42  73 102 134 187 244 287 348 425
#     4  10  22  41  72  97 133 189 246 278 342 431
#
# _framework density 25.608847000000001
#
# number of rings (size 3 to 8) (size 9 to 14) (size 15 to 20)
#    0.000    1.143    2.857    3.000    2.000    6.286 
#    2.571    1.429    0.000    0.000    0.000    0.000 
#    0.000    0.000    0.000    0.000    0.000    0.000 
#
# Total GULP energy -78175.207528 kJ/mol
# GULP energy per Si atom -5583.943395 kJ/mol
# Density = 2.555056 g / cm^3
# Si number density = 25.608847 Si / 1000 Ang^3
#
#
#
# Elastic Constant Matrix: (Units=GPa)
#
#
# Indices 1 2 3 4 5 6 
#
# 1 71.9951 -2.0876 25.2011 20.5514 -2.1423 1.7031
# 2 -2.0876 133.6980 25.5766 42.3820 -1.7859 10.1996
# 3 25.2011 25.5766 123.7694 39.2930 5.5052 7.6280
# 4 20.5514 42.3820 39.2930 57.9022 13.7820 4.3153
# 5 -2.1423 -1.7859 5.5052 13.7820 35.1772 16.6335
# 6 1.7031 10.1996 7.6280 4.3153 16.6335 37.3427
#
#
#
# Elastic Compliance Matrix: (Units=1/GPa)
#
#
# Indices 1 2 3 4 5 6 
#
# 1 0.017501 0.003912 -0.001457 -0.009458 0.006870 -0.003536
# 2 0.003912 0.011738 0.000530 -0.011841 0.008101 -0.005733
# 3 -0.001457 0.000530 0.010697 -0.007510 0.002364 -0.002449
# 4 -0.009458 -0.011841 -0.007510 0.038325 -0.019486 0.009450
# 5 0.006870 0.008101 0.002364 -0.019486 0.046720 -0.021568
# 6 -0.003536 -0.005733 -0.002449 0.009450 -0.021568 0.037521
#
#
# Mechanical properties :
#
#
# Convention : Reuss Voigt Hill
#
# Bulk Modulus (GPa) = 21.78379 47.42698 34.60538
# Shear Modulus (GPa) = 29.09790 44.80259 36.95025
#
# Velocity S-wave (km/s) = 3.37448 4.18724 3.80263
# Velocity P-wave (km/s) = 4.86905 6.47590 5.72909
#
# Compressibility (1/GPa) = 0.04590570
#
# Stress axis : x y z
#
# Youngs Moduli (GPa) = 57.13927 85.19042 93.48802
#
# Poissons Ratio (x) = -0.33323 0.13619
# Poissons Ratio (y) = -0.22351 -0.04955
# Poissons Ratio (z) = 0.08324 -0.04515
#
# Static dielectric constant tensor:
#      x y z
#    x 2.070950 -0.058010 0.120380 
#    y -0.058010 2.322310 -0.308080 
#    z 0.120380 -0.308080 2.281410 
# 
# From -- ./inp_files/354262.got.cif
#   From: 2010.05.17/outbox.cif.g08.bks.cpg/sg2_178_cif.got.tgz:354262.got - 2010.06.03 11:33:40.
