data_PCOD9091416
_publ_section_title
;
Structure prediction by ZEFSAII (Michael W. Deem and Ramdas Pophale) SiO2 
 PCOD9091416
Probable space group: P -1
;
_chemical_formula_sum "Si O2"
_cell_formula_units_Z 14
_cell_length_a 9.091164
_cell_length_b 14.771277
_cell_length_c 7.056138
_cell_angle_alpha 91.986707
_cell_angle_beta 96.419950
_cell_angle_gamma 37.973172
_cell_volume 577.147424
_symmetry_space_group_name_H-M "P -1"
_symmetry_group_IT_number 2
_symmetry_cell_setting 'triclinic'
loop_
_space_group_symop_operation_xyz
x,y,z
-x,-y,-z
loop_
_atom_site_type_symbol
_atom_site_label
_atom_site_fract_x
_atom_site_fract_y
_atom_site_fract_z
Si Si1 0.118002 0.521914 0.641500
Si Si2 0.616839 0.525580 0.778695
Si Si3 0.698683 0.691334 0.829318
Si Si4 0.105970 0.733131 0.600646
Si Si5 0.420026 0.794037 0.182330
Si Si6 0.210500 0.725968 0.031243
Si Si7 0.622590 0.039165 0.489987
O O1 0.969322 0.596432 0.824710
O O2 0.087992 0.635000 0.556354
O O3 0.000000 0.500000 0.500000
O O4 0.392070 0.362039 0.694288
O O5 0.715876 0.577210 0.767130
O O6 0.784529 0.356700 0.819762
O O7 0.385316 0.625170 0.615852
O O8 0.480251 0.598397 0.968408
O O9 0.528710 0.831312 0.675328
O O10 0.567620 0.757595 0.017298
O O11 0.902708 0.885504 0.471220
O O12 0.059022 0.773433 0.824985
O O13 0.192944 0.837806 0.107625
O O14 0.374269 0.900682 0.317998
O O15 0.500000 0.000000 0.500000
#
# Coordination Sequence:
#
# PCOD9091416 Si02
#       7
#     2   2   2   2   2   2   2
#     4  12  21  40  67  95 124 167 208 261 322 363
#     4   8  16  36  64  90 121 155 209 261 299 364
#     4  11  23  40  66  96 124 165 218 252 312 376
#     4  10  19  39  66  84 133 171 197 261 318 368
#     4  11  22  42  68  92 126 164 214 264 306 377
#     4   8  16  36  65  90 121 160 209 258 316 350
#     4  12  25  42  60  93 137 168 201 261 320 371
#
# _framework density 24.257234
#
# number of rings (size 3 to 8) (size 9 to 14) (size 15 to 20)
#    0.857    0.857    4.286    1.286    0.000    1.714 
#    0.000    2.857    0.000    0.000    0.000    0.000 
#    0.000    0.000    0.000    0.000    0.000    0.000 
#
# Total GULP energy -78179.614111 kJ/mol
# GULP energy per Si atom -5584.258151 kJ/mol
# Density = 2.420202 g / cm^3
# Si number density = 24.257234 Si / 1000 Ang^3
#
#
#
# Elastic Constant Matrix: (Units=GPa)
#
#
# Indices 1 2 3 4 5 6 
#
# 1 69.7445 35.9060 19.5615 1.3627 -14.2539 25.2016
# 2 35.9060 147.7502 50.7406 -3.5838 3.0788 13.4858
# 3 19.5615 50.7406 80.9940 10.5345 2.1956 16.2396
# 4 1.3627 -3.5838 10.5345 45.2822 7.4411 7.3189
# 5 -14.2539 3.0788 2.1956 7.4411 46.1191 1.5274
# 6 25.2016 13.4858 16.2396 7.3189 1.5274 35.8611
#
#
#
# Elastic Compliance Matrix: (Units=1/GPa)
#
#
# Indices 1 2 3 4 5 6 
#
# 1 0.023970 -0.004561 -0.000064 0.000083 0.008215 -0.015468
# 2 -0.004561 0.009740 -0.005578 0.002297 -0.002221 0.001694
# 3 -0.000064 -0.005578 0.017326 -0.003717 0.000292 -0.004957
# 4 0.000083 0.002297 -0.003717 0.024401 -0.003753 -0.004059
# 5 0.008215 -0.002221 0.000292 -0.003753 0.025140 -0.005375
# 6 -0.015468 0.001694 -0.004957 -0.004059 -0.005375 0.041421
#
#
# Mechanical properties :
#
#
# Convention : Reuss Voigt Hill
#
# Bulk Modulus (GPa) = 32.64783 56.76720 44.70752
# Shear Modulus (GPa) = 28.96642 38.27118 33.61880
#
# Velocity S-wave (km/s) = 3.45938 3.97636 3.72685
# Velocity P-wave (km/s) = 5.42629 6.67345 6.08192
#
# Compressibility (1/GPa) = 0.03062991
#
# Stress axis : x y z
#
# Youngs Moduli (GPa) = 41.71796 102.67405 57.71582
#
# Poissons Ratio (x) = 0.46825 0.00371
# Poissons Ratio (y) = 0.19026 0.32196
# Poissons Ratio (z) = 0.00268 0.57275
#
# Static dielectric constant tensor:
#      x y z
#    x 1.964490 -0.005970 -0.025520 
#    y -0.005970 1.930460 0.038750 
#    z -0.025520 0.038750 2.032040 
# 
# From -- ./inp_files/180554.got.cif
#   From: 2010.05.17/outbox.cif.g08.bks.cpg/sg2_91_cif.got.tgz:180554.got - 2010.06.03 11:33:40.
