data_PCOD9091800
_publ_section_title
;
Structure prediction by ZEFSAII (Michael W. Deem and Ramdas Pophale) SiO2 
 PCOD9091800
Probable space group: P -1
;
_chemical_formula_sum "Si O2"
_cell_formula_units_Z 16
_cell_length_a 8.231300
_cell_length_b 17.144538
_cell_length_c 7.373873
_cell_angle_alpha 64.750979
_cell_angle_beta 127.201054
_cell_angle_gamma 122.859916
_cell_volume 688.663735
_symmetry_space_group_name_H-M "P -1"
_symmetry_group_IT_number 2
_symmetry_cell_setting 'triclinic'
loop_
_space_group_symop_operation_xyz
x,y,z
-x,-y,-z
loop_
_atom_site_type_symbol
_atom_site_label
_atom_site_fract_x
_atom_site_fract_y
_atom_site_fract_z
Si Si1 0.194467 0.106782 0.827463
Si Si2 0.303839 0.805921 0.458126
Si Si3 0.799169 0.330774 0.141694
Si Si4 0.293974 0.401280 0.481544
Si Si5 0.132049 0.207285 0.009671
Si Si6 0.507274 0.257039 0.669241
Si Si7 0.571692 0.601313 0.033391
Si Si8 0.252120 0.041690 0.302774
O O1 0.241113 0.197012 0.899344
O O2 0.354502 0.148951 0.727656
O O3 0.242173 0.040844 0.075074
O O4 0.933317 0.055661 0.657511
O O5 0.230839 0.754531 0.653195
O O6 0.399436 0.743267 0.466105
O O7 0.494629 0.909065 0.516165
O O8 0.113031 0.810606 0.196689
O O9 0.060809 0.393716 0.251984
O O10 0.702123 0.293582 0.915027
O O11 0.646263 0.382480 0.065302
O O12 0.500000 0.500000 0.500000
O O13 0.366314 0.320672 0.532357
O O14 0.274194 0.390853 0.695591
O O15 0.271600 0.311057 0.068803
O O16 0.154688 0.120845 0.213982
O O17 0.500000 0.500000 0.000000
#
# Coordination Sequence:
#
# PCOD9091800 Si02
#       8
#     2   2   2   2   2   2   2   2
#     4   9  17  42  63  84 134 164 197 267 306 356
#     4  12  22  36  71  91 121 172 206 248 323 364
#     4  11  22  46  62  86 129 167 203 261 311 366
#     4  11  25  43  63  90 125 166 209 257 319 364
#     4  10  19  40  60  94 123 162 214 249 309 378
#     4  11  24  41  62  97 125 161 213 258 301 376
#     4  11  23  38  66  92 122 161 209 257 304 373
#     4   9  19  37  67  88 124 170 204 253 313 361
#
# _framework density 23.233398000000001
#
# number of rings (size 3 to 8) (size 9 to 14) (size 15 to 20)
#    0.750    0.750    6.250    0.000    1.750    6.500 
#    0.000    0.625    0.000    0.000    0.000    0.000 
#    0.000    0.000    0.000    0.000    0.000    0.000 
#
# Total GULP energy -89316.673276 kJ/mol
# GULP energy per Si atom -5582.292080 kJ/mol
# Density = 2.318052 g / cm^3
# Si number density = 23.233398 Si / 1000 Ang^3
#
#
#
# Elastic Constant Matrix: (Units=GPa)
#
#
# Indices 1 2 3 4 5 6 
#
# 1 34.2979 14.4562 27.7115 16.9576 9.9223 10.3252
# 2 14.4562 123.9282 22.6492 17.8357 8.9457 13.7539
# 3 27.7115 22.6492 110.1345 25.3547 20.5204 13.6528
# 4 16.9576 17.8357 25.3547 31.8643 6.2429 8.5500
# 5 9.9223 8.9457 20.5204 6.2429 44.3041 11.0605
# 6 10.3252 13.7539 13.6528 8.5500 11.0605 36.6996
#
#
#
# Elastic Compliance Matrix: (Units=1/GPa)
#
#
# Indices 1 2 3 4 5 6 
#
# 1 0.045264 -0.000946 -0.006066 -0.016655 -0.003494 -0.005190
# 2 -0.000946 0.009029 -0.000480 -0.003557 -0.000390 -0.001993
# 3 -0.006066 -0.000480 0.012762 -0.005851 -0.003522 -0.000437
# 4 -0.016655 -0.003557 -0.005851 0.047518 0.001276 -0.003259
# 5 -0.003494 -0.000390 -0.003522 0.001276 0.026330 -0.005793
# 6 -0.005190 -0.001993 -0.000437 -0.003259 -0.005793 0.032123
#
#
# Mechanical properties :
#
#
# Convention : Reuss Voigt Hill
#
# Bulk Modulus (GPa) = 19.20465 44.22162 31.71313
# Shear Modulus (GPa) = 24.34664 36.14319 30.24491
#
# Velocity S-wave (km/s) = 3.24066 3.94846 3.61194
# Velocity P-wave (km/s) = 4.72085 6.31364 5.57443
#
# Compressibility (1/GPa) = 0.05207073
#
# Stress axis : x y z
#
# Youngs Moduli (GPa) = 22.09249 110.76012 78.35680
#
# Poissons Ratio (x) = 0.10480 0.47530
# Poissons Ratio (y) = 0.02090 0.03762
# Poissons Ratio (z) = 0.13401 0.05317
#
# Static dielectric constant tensor:
#      x y z
#    x 1.923100 0.003340 -0.001700 
#    y 0.003340 1.931780 -0.045760 
#    z -0.001700 -0.045760 1.931280 
# 
# From -- ./inp_files/214940.got.cif
#   From: 2010.05.17/outbox.cif.g08.bks.cpg/sg2_108_cif.got.tgz:214940.got - 2010.06.03 11:33:40.
