data_PCOD9091737
_publ_section_title
;
Structure prediction by ZEFSAII (Michael W. Deem and Ramdas Pophale) SiO2 
 PCOD9091737
Probable space group: P -1
;
_chemical_formula_sum "Si O2"
_cell_formula_units_Z 16
_cell_length_a 11.456724
_cell_length_b 18.913309
_cell_length_c 13.113169
_cell_angle_alpha 30.244849
_cell_angle_beta 118.770998
_cell_angle_gamma 142.676396
_cell_volume 641.488973
_symmetry_space_group_name_H-M "P -1"
_symmetry_group_IT_number 2
_symmetry_cell_setting 'triclinic'
loop_
_space_group_symop_operation_xyz
x,y,z
-x,-y,-z
loop_
_atom_site_type_symbol
_atom_site_label
_atom_site_fract_x
_atom_site_fract_y
_atom_site_fract_z
Si Si1 0.963331 0.132942 0.311530
Si Si2 0.907538 0.758835 0.360275
Si Si3 0.849396 0.500437 0.228456
Si Si4 0.423297 0.361232 0.782631
Si Si5 0.921052 0.575174 0.817209
Si Si6 0.391395 0.967001 0.391207
Si Si7 0.836835 0.417512 0.628725
Si Si8 0.513322 0.292607 0.512133
O O1 0.977323 0.209969 0.333741
O O2 0.711408 0.930243 0.387641
O O3 0.000000 0.000000 0.500000
O O4 0.164630 0.410853 0.985087
O O5 0.688372 0.532559 0.636751
O O6 0.751413 0.742934 0.255893
O O7 0.935861 0.655281 0.421135
O O8 0.197160 0.079192 0.104177
O O9 0.645643 0.189251 0.512503
O O10 0.774755 0.524208 0.265193
O O11 0.112588 0.651651 0.175466
O O12 0.518548 0.585558 0.602598
O O13 0.609413 0.272446 0.066078
O O14 0.098506 0.742791 0.581718
O O15 0.000000 0.500000 0.000000
O O16 0.500000 0.000000 0.500000
O O17 0.563374 0.220897 0.710245
O O18 0.000000 0.500000 0.500000
#
# Coordination Sequence:
#
# PCOD9091737 Si02
#       8
#     2   2   2   2   2   2   2   2
#     4  12  27  45  68 103 141 190 244 298 364 438
#     4   9  18  39  61  98 133 184 235 280 341 426
#     4  11  23  43  71 104 142 184 240 300 363 435
#     4   9  19  37  66  90 141 184 228 284 346 423
#     4  10  20  42  70  99 136 180 240 302 362 422
#     4  10  19  39  71  98 134 181 232 303 358 413
#     4   9  21  45  69 107 139 183 233 295 360 427
#     4  10  23  44  68 100 144 187 233 292 362 431
#
# _framework density 24.941973000000001
#
# number of rings (size 3 to 8) (size 9 to 14) (size 15 to 20)
#    0.000    2.000    2.500    1.500    1.750    1.000 
#   15.750    0.000    0.000    0.000    0.000    0.000 
#    0.000    0.000    0.000    0.000    0.000    0.000 
#
# Total GULP energy -89253.028620 kJ/mol
# GULP energy per Si atom -5578.314289 kJ/mol
# Density = 2.488520 g / cm^3
# Si number density = 24.941973 Si / 1000 Ang^3
#
#
#
# Elastic Constant Matrix: (Units=GPa)
#
#
# Indices 1 2 3 4 5 6 
#
# 1 157.7258 46.1021 45.6873 -19.1352 6.0005 7.0698
# 2 46.1021 95.1358 56.1165 -13.7995 6.1113 11.9878
# 3 45.6873 56.1165 136.5691 -1.5883 -10.3827 4.7222
# 4 -19.1352 -13.7995 -1.5883 55.9487 -3.8622 -1.0507
# 5 6.0005 6.1113 -10.3827 -3.8622 35.9579 -3.5634
# 6 7.0698 11.9878 4.7222 -1.0507 -3.5634 47.6981
#
#
#
# Elastic Compliance Matrix: (Units=1/GPa)
#
#
# Indices 1 2 3 4 5 6 
#
# 1 0.007830 -0.002374 -0.001699 0.001951 -0.001228 -0.000444
# 2 -0.002374 0.016343 -0.006091 0.002693 -0.004188 -0.003406
# 3 -0.001699 -0.006091 0.010671 -0.001461 0.004344 0.001018
# 4 0.001951 0.002693 -0.001461 0.019214 0.000825 -0.000336
# 5 -0.001228 -0.004188 0.004344 0.000825 0.030376 0.003092
# 6 -0.000444 -0.003406 0.001018 -0.000336 0.003092 0.022010
#
#
# Mechanical properties :
#
#
# Convention : Reuss Voigt Hill
#
# Bulk Modulus (GPa) = 68.88621 76.13807 72.51214
# Shear Modulus (GPa) = 37.99079 44.02258 41.00668
#
# Velocity S-wave (km/s) = 3.90701 4.20575 4.05913
# Velocity P-wave (km/s) = 6.93048 7.36049 7.14872
#
# Compressibility (1/GPa) = 0.01451669
#
# Stress axis : x y z
#
# Youngs Moduli (GPa) = 127.72181 61.18759 93.70871
#
# Poissons Ratio (x) = 0.14526 0.15922
# Poissons Ratio (y) = 0.30322 0.57074
# Poissons Ratio (z) = 0.21701 0.37267
#
# Static dielectric constant tensor:
#      x y z
#    x 1.870210 -0.123710 -0.127210 
#    y -0.123710 1.726330 -0.218160 
#    z -0.127210 -0.218160 1.932240 
# 
# From -- ./inp_files/523891.got.cif
#   From: 2010.05.17/outbox.cif.g08.bks.cpg/sg2_262_cif.got.tgz:523891.got - 2010.06.03 11:33:40.
