data_PCOD9091572
_publ_section_title
;
Structure prediction by ZEFSAII (Michael W. Deem and Ramdas Pophale) SiO2 
 PCOD9091572
Probable space group: P -1
;
_chemical_formula_sum "Si O2"
_cell_formula_units_Z 15
_cell_length_a 8.690989
_cell_length_b 13.197924
_cell_length_c 8.226439
_cell_angle_alpha 105.214392
_cell_angle_beta 70.337494
_cell_angle_gamma 53.987580
_cell_volume 572.707422
_symmetry_space_group_name_H-M "P -1"
_symmetry_group_IT_number 2
_symmetry_cell_setting 'triclinic'
loop_
_space_group_symop_operation_xyz
x,y,z
-x,-y,-z
loop_
_atom_site_type_symbol
_atom_site_label
_atom_site_fract_x
_atom_site_fract_y
_atom_site_fract_z
Si Si1 0.420846 0.344872 0.732361
Si Si2 0.100289 0.767612 0.039230
Si Si3 0.255425 0.312211 0.350929
Si Si4 0.112124 0.189194 0.217125
Si Si5 0.342356 0.476797 0.492461
Si Si6 0.500000 0.500000 0.000000
Si Si7 0.022979 0.953520 0.657088
Si Si8 0.715134 0.812713 0.363779
O O1 0.254450 0.472514 0.699994
O O2 0.690562 0.211530 0.497648
O O3 0.331242 0.269017 0.762873
O O4 0.451483 0.403188 0.902146
O O5 0.376549 0.606909 0.920978
O O6 0.958394 0.760556 0.215335
O O7 0.041620 0.915972 0.157808
O O8 0.980012 0.799580 0.922597
O O9 0.297647 0.198371 0.158959
O O10 0.434754 0.326086 0.310916
O O11 0.274144 0.239056 0.481321
O O12 0.000000 0.500000 0.500000
O O13 0.879023 0.360182 0.453472
O O14 0.141538 0.068723 0.254868
O O15 0.500000 0.500000 0.500000
O O16 0.000000 0.000000 0.500000
O O17 0.500000 0.000000 0.500000
#
# Coordination Sequence:
#
# PCOD9091572 Si02
#       8
#     2   2   2   2   2   1   2   2
#     4  11  23  43  68 103 134 182 242 284 357 425
#     4  12  26  46  69 107 146 183 239 306 362 422
#     4   9  22  41  65 102 137 184 242 283 363 430
#     4  11  23  42  66 103 144 180 235 302 356 421
#     4  10  19  39  67  95 132 181 235 285 346 430
#     4  12  26  42  68 108 140 178 236 302 358 418
#     4  12  23  41  74  97 138 194 236 287 355 440
#     4  11  24  46  76  99 140 195 245 291 360 442
#
# _framework density 26.191383999999999
#
# number of rings (size 3 to 8) (size 9 to 14) (size 15 to 20)
#    0.000    1.067    5.333    1.200    0.000    0.533 
#    2.400    0.667    0.000    0.000    0.000    0.000 
#    0.000    0.000    0.000    0.000    0.000    0.000 
#
# Total GULP energy -83588.672595 kJ/mol
# GULP energy per Si atom -5572.578173 kJ/mol
# Density = 2.613177 g / cm^3
# Si number density = 26.191384 Si / 1000 Ang^3
#
#
#
# Elastic Constant Matrix: (Units=GPa)
#
#
# Indices 1 2 3 4 5 6 
#
# 1 119.4808 65.9023 54.2742 6.2365 57.8193 46.4346
# 2 65.9023 179.7305 46.6532 -9.1744 27.8827 34.7044
# 3 54.2742 46.6532 71.8250 9.3970 37.2993 12.7000
# 4 6.2365 -9.1744 9.3970 37.0818 5.6784 16.7551
# 5 57.8193 27.8827 37.2993 5.6784 75.6436 13.8057
# 6 46.4346 34.7044 12.7000 16.7551 13.8057 65.1871
#
#
#
# Elastic Compliance Matrix: (Units=1/GPa)
#
#
# Indices 1 2 3 4 5 6 
#
# 1 0.023817 -0.001666 -0.009691 0.005737 -0.010801 -0.013378
# 2 -0.001666 0.008194 -0.004447 0.005017 0.000755 -0.003759
# 3 -0.009691 -0.004447 0.026398 -0.008777 -0.004656 0.007370
# 4 0.005737 0.005017 -0.008777 0.036056 -0.002081 -0.013874
# 5 -0.010801 0.000755 -0.004656 -0.002081 0.022942 0.003875
# 6 -0.013378 -0.003759 0.007370 -0.013874 0.003875 0.028180
#
#
# Mechanical properties :
#
#
# Convention : Reuss Voigt Hill
#
# Bulk Modulus (GPa) = 37.31417 78.29951 57.80684
# Shear Modulus (GPa) = 26.86302 49.19627 38.02964
#
# Velocity S-wave (km/s) = 3.20604 4.33868 3.81463
# Velocity P-wave (km/s) = 5.28986 7.42017 6.44366
#
# Compressibility (1/GPa) = 0.02679947
#
# Stress axis : x y z
#
# Youngs Moduli (GPa) = 41.98619 122.04273 37.88229
#
# Poissons Ratio (x) = 0.20332 0.36712
# Poissons Ratio (y) = 0.06995 0.16848
# Poissons Ratio (z) = 0.40690 0.54278
#
# Static dielectric constant tensor:
#      x y z
#    x 2.083090 0.146330 -0.034100 
#    y 0.146330 1.876360 -0.045470 
#    z -0.034100 -0.045470 2.161420 
# 
# From -- ./inp_files/181449.got.cif
#   From: 2010.05.17/outbox.cif.g08.bks.cpg/sg2_91_cif.got.tgz:181449.got - 2010.06.03 11:33:40.
