data_PCOD9091542
_publ_section_title
;
Structure prediction by ZEFSAII (Michael W. Deem and Ramdas Pophale) SiO2 
 PCOD9091542
Probable space group: P -1
;
_chemical_formula_sum "Si O2"
_cell_formula_units_Z 12
_cell_length_a 9.841033
_cell_length_b 9.812363
_cell_length_c 16.056162
_cell_angle_alpha 108.099013
_cell_angle_beta 152.535971
_cell_angle_gamma 80.909890
_cell_volume 654.732041
_symmetry_space_group_name_H-M "P -1"
_symmetry_group_IT_number 2
_symmetry_cell_setting 'triclinic'
loop_
_space_group_symop_operation_xyz
x,y,z
-x,-y,-z
loop_
_atom_site_type_symbol
_atom_site_label
_atom_site_fract_x
_atom_site_fract_y
_atom_site_fract_z
Si Si1 0.234385 0.913502 0.898755
Si Si2 0.809292 0.873465 0.931569
Si Si3 0.516574 0.348699 0.934406
Si Si4 0.206802 0.643153 0.094327
Si Si5 0.164102 0.838082 0.524554
Si Si6 0.176859 0.127173 0.488050
O O1 0.944879 0.881727 0.673533
O O2 0.329480 0.767556 0.956228
O O3 0.500000 0.000000 0.000000
O O4 0.216287 0.030896 0.982592
O O5 0.475032 0.790557 0.697030
O O6 0.009859 0.759259 0.023919
O O7 0.000000 0.000000 0.000000
O O8 0.715042 0.385226 0.964439
O O9 0.159974 0.262840 0.704602
O O10 0.500000 0.500000 0.000000
O O11 0.543373 0.726077 0.326918
O O12 0.000000 0.500000 0.000000
O O13 0.077276 0.869207 0.578650
O O14 0.262404 0.981381 0.543707
#
# Coordination Sequence:
#
# PCOD9091542 Si02
#       6
#     2   2   2   2   2   2
#     4  12  22  39  70  99 121 163 222 258 303 384
#     4  12  22  42  66  96 129 164 208 267 315 368
#     4  11  25  44  64  93 130 167 211 262 312 377
#     4  11  26  44  62  93 135 167 202 264 328 364
#     4  10  19  39  67  91 124 168 211 255 312 375
#     4  10  20  39  66  94 122 168 215 252 307 383
#
# _framework density 18.328108
#
# number of rings (size 3 to 8) (size 9 to 14) (size 15 to 20)
#    0.000    1.000    6.667    1.000    2.333    2.000 
#    3.000    5.000    0.000    0.000    0.000    0.000 
#    0.000    0.000    0.000    0.000    0.000    0.000 
#
# Total GULP energy -66803.665075 kJ/mol
# GULP energy per Si atom -5566.972090 kJ/mol
# Density = 1.828639 g / cm^3
# Si number density = 18.328108 Si / 1000 Ang^3
#
#
#
# Elastic Constant Matrix: (Units=GPa)
#
#
# Indices 1 2 3 4 5 6 
#
# 1 139.0746 72.7315 52.9519 6.1296 -4.9882 3.0092
# 2 72.7315 118.8321 34.6188 13.4776 -3.7022 3.9644
# 3 52.9519 34.6188 95.6453 -2.0795 -7.1283 9.0345
# 4 6.1296 13.4776 -2.0795 26.5958 1.0448 8.7003
# 5 -4.9882 -3.7022 -7.1283 1.0448 25.7782 4.6318
# 6 3.0092 3.9644 9.0345 8.7003 4.6318 39.7117
#
#
#
# Elastic Compliance Matrix: (Units=1/GPa)
#
#
# Indices 1 2 3 4 5 6 
#
# 1 0.012106 -0.006059 -0.004586 -0.000342 0.000075 0.000797
# 2 -0.006059 0.013219 -0.001590 -0.005670 0.000391 0.000698
# 3 -0.004586 -0.001590 0.014297 0.004175 0.003397 -0.004057
# 4 -0.000342 -0.005670 0.004175 0.044160 0.000293 -0.010067
# 5 0.000075 0.000391 0.003397 0.000293 0.040804 -0.005641
# 6 0.000797 0.000698 -0.004057 -0.010067 -0.005641 0.028838
#
#
# Mechanical properties :
#
#
# Convention : Reuss Voigt Hill
#
# Bulk Modulus (GPa) = 66.00209 74.90628 70.45418
# Shear Modulus (GPa) = 27.33066 31.30047 29.31556
#
# Velocity S-wave (km/s) = 3.86578 4.13702 4.00370
# Velocity P-wave (km/s) = 7.48433 7.98613 7.73930
#
# Compressibility (1/GPa) = 0.01515104
#
# Stress axis : x y z
#
# Youngs Moduli (GPa) = 82.60685 75.65000 69.94379
#
# Poissons Ratio (x) = 0.45833 0.32078
# Poissons Ratio (y) = 0.50048 0.11124
# Poissons Ratio (z) = 0.37885 0.12031
#
# Static dielectric constant tensor:
#      x y z
#    x 1.580850 -0.019560 -0.004910 
#    y -0.019560 1.583600 0.013040 
#    z -0.004910 0.013040 1.644600 
# 
# From -- ./inp_files/146037.got.cif
#   From: 2010.05.17/outbox.cif.g08.bks.cpg/sg2_74_cif.got.tgz:146037.got - 2010.06.03 11:33:40.
