data_PCOD9091091
_publ_section_title
;
Structure prediction by ZEFSAII (Michael W. Deem and Ramdas Pophale) SiO2 
 PCOD9091091
Probable space group: P -1
;
_chemical_formula_sum "Si O2"
_cell_formula_units_Z 16
_cell_length_a 16.090762
_cell_length_b 12.872176
_cell_length_c 8.957943
_cell_angle_alpha 78.951168
_cell_angle_beta 59.522593
_cell_angle_gamma 31.005610
_cell_volume 689.248977
_symmetry_space_group_name_H-M "P -1"
_symmetry_group_IT_number 2
_symmetry_cell_setting 'triclinic'
loop_
_space_group_symop_operation_xyz
x,y,z
-x,-y,-z
loop_
_atom_site_type_symbol
_atom_site_label
_atom_site_fract_x
_atom_site_fract_y
_atom_site_fract_z
Si Si1 0.716873 0.193344 0.934799
Si Si2 0.945999 0.398888 0.013859
Si Si3 0.879335 0.886463 0.349838
Si Si4 0.731862 0.405374 0.731304
Si Si5 0.764258 0.791926 0.649505
Si Si6 0.304045 0.141585 0.963354
Si Si7 0.751514 0.222590 0.221939
Si Si8 0.202078 0.627494 0.660226
O O1 0.761836 0.249901 0.774329
O O2 0.501323 0.340293 0.046620
O O3 0.648252 0.306862 0.129891
O O4 0.939841 0.909684 0.819998
O O5 0.778345 0.505894 0.247503
O O6 0.174524 0.198874 0.945399
O O7 0.832028 0.614720 0.993403
O O8 0.996157 0.271165 0.869407
O O9 0.761483 0.899088 0.519275
O O10 0.062062 0.741950 0.341043
O O11 0.747934 0.119823 0.352518
O O12 0.725051 0.443765 0.555633
O O13 0.727995 0.862443 0.835358
O O14 0.000000 0.500000 0.500000
O O15 0.560154 0.914899 0.764532
O O16 0.697981 0.376146 0.330898
O O17 0.000000 0.000000 0.000000
#
# Coordination Sequence:
#
# PCOD9091091 Si02
#       8
#     2   2   2   2   2   2   2   2
#     4  10  21  39  58  88 126 174 209 260 314 375
#     4  11  22  44  70  95 132 172 214 274 326 382
#     4  12  22  41  66  95 128 174 213 265 325 383
#     4  11  23  37  60  92 126 166 224 255 315 382
#     4  11  24  46  71  96 130 171 214 274 332 384
#     4  10  25  47  66 100 131 163 224 273 324 393
#     4  10  19  39  63  89 133 166 211 259 315 383
#     4  11  21  40  67  90 129 173 208 266 321 382
#
# _framework density 23.213674000000001
#
# number of rings (size 3 to 8) (size 9 to 14) (size 15 to 20)
#    0.000    1.250    6.250    1.125    0.000    3.000 
#    2.250    0.000    0.000    0.000    0.000    0.000 
#    0.000    0.000    0.000    0.000    0.000    0.000 
#
# Total GULP energy -89466.952890 kJ/mol
# GULP energy per Si atom -5591.684556 kJ/mol
# Density = 2.316084 g / cm^3
# Si number density = 23.213674 Si / 1000 Ang^3
#
#
#
# Elastic Constant Matrix: (Units=GPa)
#
#
# Indices 1 2 3 4 5 6 
#
# 1 41.2333 2.0738 32.1128 -5.1272 -8.4628 -0.1211
# 2 2.0738 56.8858 32.3135 -5.9391 -21.1970 0.1541
# 3 32.1128 32.3135 104.1641 -18.9471 -18.7411 -2.6008
# 4 -5.1272 -5.9391 -18.9471 54.1898 1.3747 -4.3718
# 5 -8.4628 -21.1970 -18.7411 1.3747 22.6743 -8.7179
# 6 -0.1211 0.1541 -2.6008 -4.3718 -8.7179 23.4959
#
#
#
# Elastic Compliance Matrix: (Units=1/GPa)
#
#
# Indices 1 2 3 4 5 6 
#
# 1 0.036096 0.011440 -0.011430 0.000666 0.016660 0.005151
# 2 0.011440 0.034672 -0.007115 0.002517 0.035530 0.012695
# 3 -0.011430 -0.007115 0.017060 0.004341 0.004609 0.004394
# 4 0.000666 0.002517 0.004341 0.020694 0.007693 0.007172
# 5 0.016660 0.035530 0.004609 0.007693 0.102141 0.039693
# 6 0.005151 0.012695 0.004394 0.007172 0.039693 0.059052
#
#
# Mechanical properties :
#
#
# Convention : Reuss Voigt Hill
#
# Bulk Modulus (GPa) = 13.58370 37.25370 25.41870
# Shear Modulus (GPa) = 16.20940 29.12420 22.66680
#
# Velocity S-wave (km/s) = 2.64535 3.54590 3.12820
# Velocity P-wave (km/s) = 3.89805 5.73127 4.90114
#
# Compressibility (1/GPa) = 0.07361765
#
# Stress axis : x y z
#
# Youngs Moduli (GPa) = 27.70416 28.84207 58.61723
#
# Poissons Ratio (x) = -0.32996 0.66998
# Poissons Ratio (y) = -0.31694 0.41707
# Poissons Ratio (z) = 0.31665 0.20522
#
# Static dielectric constant tensor:
#      x y z
#    x 1.918750 -0.025520 -0.035140 
#    y -0.025520 1.905810 0.022460 
#    z -0.035140 0.022460 1.871360 
# 
# From -- ./inp_files/335697.got.cif
#   From: 2010.05.17/outbox.cif.g08.bks.cpg/sg2_168_cif.got.tgz:335697.got - 2010.06.03 11:33:40.
