data_PCOD9091823
_publ_section_title
;
Structure prediction by ZEFSAII (Michael W. Deem and Ramdas Pophale) SiO2 
 PCOD9091823
Probable space group: P -1
;
_chemical_formula_sum "Si O2"
_cell_formula_units_Z 14
_cell_length_a 11.300910
_cell_length_b 8.473968
_cell_length_c 11.654748
_cell_angle_alpha 79.660587
_cell_angle_beta 142.513294
_cell_angle_gamma 77.452346
_cell_volume 534.185842
_symmetry_space_group_name_H-M "P -1"
_symmetry_group_IT_number 2
_symmetry_cell_setting 'triclinic'
loop_
_space_group_symop_operation_xyz
x,y,z
-x,-y,-z
loop_
_atom_site_type_symbol
_atom_site_label
_atom_site_fract_x
_atom_site_fract_y
_atom_site_fract_z
Si Si1 0.271570 0.987556 0.958546
Si Si2 0.835110 0.388470 0.687644
Si Si3 0.371014 0.922421 0.795137
Si Si4 0.447295 0.640642 0.716817
Si Si5 0.087042 0.821690 0.000773
Si Si6 0.987319 0.663924 0.759416
Si Si7 0.802233 0.487279 0.287939
O O1 0.529750 0.947870 0.163214
O O2 0.261686 0.830544 0.045267
O O3 0.087490 0.200982 0.850431
O O4 0.204558 0.001489 0.770442
O O5 0.646790 0.371988 0.476040
O O6 0.828773 0.351984 0.821004
O O7 0.828502 0.582228 0.640591
O O8 0.326178 0.861090 0.647221
O O9 0.601360 0.700928 0.047022
O O10 0.345202 0.555170 0.736322
O O11 0.738801 0.513585 0.959511
O O12 0.899832 0.831953 0.766434
O O13 0.000000 0.000000 0.000000
O O14 0.056088 0.681290 0.680571
O O15 0.000000 0.500000 0.500000
#
# Coordination Sequence:
#
# PCOD9091823 Si02
#       7
#     2   2   2   2   2   2   2
#     4  10  19  40  61  87 126 164 198 247 308 356
#     4  11  22  40  63  91 119 164 208 244 293 370
#     4  10  20  35  63  90 125 161 194 255 308 356
#     4  11  21  36  63  94 121 155 205 250 306 355
#     4  10  23  40  64  85 123 166 204 247 303 356
#     4  11  21  41  64  87 124 159 201 257 303 346
#     4  11  19  35  61  96 123 150 202 251 302 366
#
# _framework density 26.208103999999999
#
# number of rings (size 3 to 8) (size 9 to 14) (size 15 to 20)
#    0.000    1.429    4.286    3.857    0.000    1.143 
#    0.000    6.429    0.000    0.000    0.000    0.000 
#    0.000    0.000    0.000    0.000    0.000    0.000 
#
# Total GULP energy -78335.872863 kJ/mol
# GULP energy per Si atom -5595.419490 kJ/mol
# Density = 2.614845 g / cm^3
# Si number density = 26.208104 Si / 1000 Ang^3
#
#
#
# Elastic Constant Matrix: (Units=GPa)
#
#
# Indices 1 2 3 4 5 6 
#
# 1 112.1932 26.3443 8.0011 3.5930 -29.4059 -18.0803
# 2 26.3443 104.0156 13.0876 36.9698 -7.9008 -21.3925
# 3 8.0011 13.0876 89.8643 25.0844 -9.2754 -17.2667
# 4 3.5930 36.9698 25.0844 48.6680 -7.6284 -12.5771
# 5 -29.4059 -7.9008 -9.2754 -7.6284 48.1612 7.5046
# 6 -18.0803 -21.3925 -17.2667 -12.5771 7.5046 52.3008
#
#
#
# Elastic Compliance Matrix: (Units=1/GPa)
#
#
# Indices 1 2 3 4 5 6 
#
# 1 0.011726 -0.003096 -0.000358 0.003375 0.006725 0.002516
# 2 -0.003096 0.014696 0.001710 -0.011261 -0.001401 0.002998
# 3 -0.000358 0.001710 0.013677 -0.007338 0.001039 0.003178
# 4 0.003375 -0.011261 -0.007338 0.033676 0.003872 0.001681
# 5 0.006725 -0.001401 0.001039 0.003872 0.025553 -0.000641
# 6 0.002516 0.002998 0.003178 0.001681 -0.000641 0.022761
#
#
# Mechanical properties :
#
#
# Convention : Reuss Voigt Hill
#
# Bulk Modulus (GPa) = 27.31409 44.54879 35.93144
# Shear Modulus (GPa) = 36.29004 47.06865 41.67935
#
# Velocity S-wave (km/s) = 3.72518 4.24247 3.99221
# Velocity P-wave (km/s) = 5.38026 6.40571 5.91525
#
# Compressibility (1/GPa) = 0.03661114
#
# Stress axis : x y z
#
# Youngs Moduli (GPa) = 85.28284 68.04780 73.11694
#
# Poissons Ratio (x) = 0.21068 0.02615
# Poissons Ratio (y) = 0.26404 -0.12505
# Poissons Ratio (z) = 0.03050 -0.11638
#
# Static dielectric constant tensor:
#      x y z
#    x 2.039130 -0.067770 0.008040 
#    y -0.067770 2.183530 -0.041140 
#    z 0.008040 -0.041140 2.136790 
# 
# From -- ./inp_files/415031.got.cif
#   From: 2010.05.17/outbox.cif.g08.bks.cpg/sg2_208_cif.got.tgz:415031.got - 2010.06.03 11:33:40.
