data_PCOD9091888
_publ_section_title
;
Structure prediction by ZEFSAII (Michael W. Deem and Ramdas Pophale) SiO2 
 PCOD9091888
Probable space group: P -1
;
_chemical_formula_sum "Si O2"
_cell_formula_units_Z 16
_cell_length_a 22.827099
_cell_length_b 6.821954
_cell_length_c 9.337217
_cell_angle_alpha 129.809569
_cell_angle_beta 43.792279
_cell_angle_gamma 121.824966
_cell_volume 767.158439
_symmetry_space_group_name_H-M "P -1"
_symmetry_group_IT_number 2
_symmetry_cell_setting 'triclinic'
loop_
_space_group_symop_operation_xyz
x,y,z
-x,-y,-z
loop_
_atom_site_type_symbol
_atom_site_label
_atom_site_fract_x
_atom_site_fract_y
_atom_site_fract_z
Si Si1 0.754244 0.180068 0.636424
Si Si2 0.374121 0.525070 0.703079
Si Si3 0.968117 0.247431 0.603802
Si Si4 0.321952 0.311228 0.005819
Si Si5 0.772307 0.213613 0.964733
Si Si6 0.471448 0.076352 0.742436
Si Si7 0.573329 0.944231 0.737032
Si Si8 0.053110 0.809803 0.728515
O O1 0.759362 0.166863 0.794263
O O2 0.845639 0.119941 0.392299
O O3 0.668514 0.012152 0.658034
O O4 0.736220 0.466085 0.754621
O O5 0.354160 0.379726 0.820038
O O6 0.417865 0.816488 0.778167
O O7 0.432552 0.355924 0.431969
O O8 0.284996 0.558771 0.798257
O O9 0.872421 0.276840 0.837265
O O10 0.965588 0.194585 0.411990
O O11 0.026083 0.508397 0.668630
O O12 0.000000 0.000000 0.500000
O O13 0.406655 0.287667 0.940041
O O14 0.266087 0.036432 0.995891
O O15 0.554397 0.114898 0.712680
O O16 0.500000 0.000000 0.500000
O O17 0.500000 0.000000 0.000000
O O18 0.000000 0.000000 0.000000
#
# Coordination Sequence:
#
# PCOD9091888 Si02
#       8
#     2   2   2   2   2   2   2   2
#     4  10  23  41  60  94 131 162 205 266 324 379
#     4  10  22  39  62  85 123 167 213 258 305 381
#     4  10  21  41  71 100 128 176 220 266 339 401
#     4  10  19  40  63  85 123 166 208 263 310 370
#     4   9  20  40  65  90 122 166 212 257 314 390
#     4  11  23  40  62  87 117 168 221 256 307 377
#     4  12  24  39  61  90 127 168 205 261 321 367
#     4  10  23  43  69  99 137 172 217 277 334 398
#
# _framework density 20.856188
#
# number of rings (size 3 to 8) (size 9 to 14) (size 15 to 20)
#    0.000    1.750    1.250    3.375    3.500    2.000 
#    2.250    0.000    0.000    0.000    0.000    0.000 
#    0.000    0.000    0.000    0.000    0.000    0.000 
#
# Total GULP energy -89306.706018 kJ/mol
# GULP energy per Si atom -5581.669126 kJ/mol
# Density = 2.080872 g / cm^3
# Si number density = 20.856188 Si / 1000 Ang^3
#
#
#
# Elastic Constant Matrix: (Units=GPa)
#
#
# Indices 1 2 3 4 5 6 
#
# 1 87.3299 30.7898 34.2550 -2.4106 -24.5723 2.9742
# 2 30.7898 113.2505 34.2285 4.4879 -8.4798 -13.4312
# 3 34.2550 34.2285 143.4049 12.7532 -30.5013 -1.7501
# 4 -2.4106 4.4879 12.7532 29.6182 0.1787 -7.9929
# 5 -24.5723 -8.4798 -30.5013 0.1787 31.8720 -0.0014
# 6 2.9742 -13.4312 -1.7501 -7.9929 -0.0014 31.6111
#
#
#
# Elastic Compliance Matrix: (Units=1/GPa)
#
#
# Indices 1 2 3 4 5 6 
#
# 1 0.016259 -0.003744 -0.000880 0.001449 0.010689 -0.002802
# 2 -0.003744 0.010908 -0.002099 0.000293 -0.001995 0.004945
# 3 -0.000880 -0.002099 0.009794 -0.004391 0.008161 -0.001377
# 4 0.001449 0.000293 -0.004391 0.038291 -0.003222 0.009427
# 5 0.010689 -0.001995 0.008161 -0.003222 0.046913 -0.002214
# 6 -0.002802 0.004945 -0.001377 0.009427 -0.002214 0.036306
#
#
# Mechanical properties :
#
#
# Convention : Reuss Voigt Hill
#
# Bulk Modulus (GPa) = 42.52611 60.28132 51.40371
# Shear Modulus (GPa) = 27.81573 34.93438 31.37506
#
# Velocity S-wave (km/s) = 3.65594 4.09713 3.88281
# Velocity P-wave (km/s) = 6.18511 7.16576 6.69342
#
# Compressibility (1/GPa) = 0.02351497
#
# Stress axis : x y z
#
# Youngs Moduli (GPa) = 61.50492 91.67800 102.10488
#
# Poissons Ratio (x) = 0.34323 0.08982
# Poissons Ratio (y) = 0.23027 0.21433
# Poissons Ratio (z) = 0.05411 0.19244
#
# Static dielectric constant tensor:
#      x y z
#    x 1.815870 0.030420 0.006040 
#    y 0.030420 1.782230 0.011100 
#    z 0.006040 0.011100 1.788630 
# 
# From -- ./inp_files/340624.got.cif
#   From: 2010.05.17/outbox.cif.g08.bks.cpg/sg2_171_cif.got.tgz:340624.got - 2010.06.03 11:33:40.
