data_PCOD9091209
_publ_section_title
;
Structure prediction by ZEFSAII (Michael W. Deem and Ramdas Pophale) SiO2 
 PCOD9091209
Probable space group: P -1
;
_chemical_formula_sum "Si O2"
_cell_formula_units_Z 16
_cell_length_a 16.080149
_cell_length_b 9.260615
_cell_length_c 9.228247
_cell_angle_alpha 106.513713
_cell_angle_beta 46.246316
_cell_angle_gamma 76.907646
_cell_volume 753.409678
_symmetry_space_group_name_H-M "P -1"
_symmetry_group_IT_number 2
_symmetry_cell_setting 'triclinic'
loop_
_space_group_symop_operation_xyz
x,y,z
-x,-y,-z
loop_
_atom_site_type_symbol
_atom_site_label
_atom_site_fract_x
_atom_site_fract_y
_atom_site_fract_z
Si Si1 0.869553 0.265034 0.490721
Si Si2 0.354789 0.959538 0.396862
Si Si3 0.568288 0.823108 0.477995
Si Si4 0.173917 0.868949 0.760919
Si Si5 0.320381 0.351411 0.985934
Si Si6 0.205980 0.947735 0.297748
Si Si7 0.895106 0.726885 0.708642
Si Si8 0.366628 0.714968 0.761736
O O1 0.784304 0.291680 0.454790
O O2 0.890310 0.091825 0.503508
O O3 0.021177 0.230325 0.268366
O O4 0.775725 0.449116 0.758843
O O5 0.242140 0.967827 0.643150
O O6 0.515644 0.770758 0.187429
O O7 0.311319 0.944990 0.284809
O O8 0.357051 0.136092 0.477105
O O9 0.673251 0.642207 0.194614
O O10 0.441600 0.818141 0.684633
O O11 0.500000 0.000000 0.500000
O O12 0.243946 0.787321 0.808904
O O13 0.000000 0.000000 0.000000
O O14 0.253248 0.239636 0.066295
O O15 0.123756 0.146985 0.369053
O O16 0.294282 0.778753 0.025034
O O17 0.000000 0.500000 0.500000
O O18 0.500000 0.500000 0.500000
#
# Coordination Sequence:
#
# PCOD9091209 Si02
#       8
#     2   2   2   2   2   2   2   2
#     4  10  23  40  66  92 128 171 214 261 326 388
#     4  10  23  39  67  95 123 173 219 262 329 381
#     4  10  19  39  64  89 129 168 212 261 320 386
#     4  11  24  41  65  93 131 174 217 263 325 394
#     4  10  20  38  68  91 128 167 214 266 317 392
#     4  11  23  39  65  93 131 166 216 271 318 393
#     4  10  22  40  63  94 126 170 212 262 329 387
#     4  12  25  40  65 101 133 168 218 273 329 380
#
# _framework density 21.236785000000001
#
# number of rings (size 3 to 8) (size 9 to 14) (size 15 to 20)
#    0.000    1.500    2.500    3.375    3.500    4.000 
#    2.250    0.000    0.000    2.250    0.000    0.000 
#    0.000    0.000    0.000    0.000    0.000    0.000 
#
# Total GULP energy -89278.153996 kJ/mol
# GULP energy per Si atom -5579.884625 kJ/mol
# Density = 2.118845 g / cm^3
# Si number density = 21.236785 Si / 1000 Ang^3
#
#
#
# Elastic Constant Matrix: (Units=GPa)
#
#
# Indices 1 2 3 4 5 6 
#
# 1 174.8878 34.6008 41.5490 -8.5486 2.3777 4.5315
# 2 34.6008 55.8185 26.7841 4.1583 -8.0159 15.9462
# 3 41.5490 26.7841 92.3387 6.2000 -2.4144 0.4962
# 4 -8.5486 4.1583 6.2000 37.4704 8.1143 -6.2789
# 5 2.3777 -8.0159 -2.4144 8.1143 49.1598 -8.5412
# 6 4.5315 15.9462 0.4962 -6.2789 -8.5412 32.0051
#
#
#
# Elastic Compliance Matrix: (Units=1/GPa)
#
#
# Indices 1 2 3 4 5 6 
#
# 1 0.007220 -0.004183 -0.002282 0.003015 -0.001413 0.001312
# 2 -0.004183 0.028039 -0.005687 -0.006090 0.003129 -0.013650
# 3 -0.002282 -0.005687 0.013630 -0.001820 0.000632 0.002757
# 4 0.003015 -0.006090 -0.001820 0.030665 -0.005019 0.007312
# 5 -0.001413 0.003129 0.000632 -0.005019 0.022410 0.003627
# 6 0.001312 -0.013650 0.002757 0.007312 0.003627 0.040220
#
#
# Mechanical properties :
#
#
# Convention : Reuss Voigt Hill
#
# Bulk Modulus (GPa) = 40.67376 58.76810 49.72093
# Shear Modulus (GPa) = 28.62318 38.40111 33.51214
#
# Velocity S-wave (km/s) = 3.67524 4.25695 3.97674
# Velocity P-wave (km/s) = 6.09950 7.20382 6.67454
#
# Compressibility (1/GPa) = 0.02458588
#
# Stress axis : x y z
#
# Youngs Moduli (GPa) = 138.49917 35.66402 73.36768
#
# Poissons Ratio (x) = 0.14918 0.16742
# Poissons Ratio (y) = 0.57933 0.41724
# Poissons Ratio (z) = 0.31605 0.20282
#
# Static dielectric constant tensor:
#      x y z
#    x 1.801440 0.033850 0.032640 
#    y 0.033850 1.794310 0.028340 
#    z 0.032640 0.028340 1.857090 
# 
# From -- ./inp_files/298700.got.cif
#   From: 2010.05.17/outbox.cif.g08.bks.cpg/sg2_150_cif.got.tgz:298700.got - 2010.06.03 11:33:40.
