data_PCOD9091456
_publ_section_title
;
Structure prediction by ZEFSAII (Michael W. Deem and Ramdas Pophale) SiO2 
 PCOD9091456
Probable space group: P -1
;
_chemical_formula_sum "Si O2"
_cell_formula_units_Z 16
_cell_length_a 8.086657
_cell_length_b 17.821623
_cell_length_c 15.540694
_cell_angle_alpha 33.873237
_cell_angle_beta 37.092701
_cell_angle_gamma 47.940643
_cell_volume 752.666522
_symmetry_space_group_name_H-M "P -1"
_symmetry_group_IT_number 2
_symmetry_cell_setting 'triclinic'
loop_
_space_group_symop_operation_xyz
x,y,z
-x,-y,-z
loop_
_atom_site_type_symbol
_atom_site_label
_atom_site_fract_x
_atom_site_fract_y
_atom_site_fract_z
Si Si1 0.912949 0.815399 0.909451
Si Si2 0.399938 0.348173 0.497559
Si Si3 0.663661 0.528844 0.819990
Si Si4 0.162886 0.616332 0.259839
Si Si5 0.845175 0.024629 0.182995
Si Si6 0.249054 0.487430 0.682401
Si Si7 0.580004 0.193398 0.415656
Si Si8 0.332424 0.867797 0.032321
O O1 0.630000 0.889021 0.927766
O O2 0.122393 0.824986 0.732654
O O3 0.835415 0.661315 0.110958
O O4 0.047215 0.880459 0.876333
O O5 0.219603 0.458636 0.411751
O O6 0.647282 0.425993 0.362642
O O7 0.522713 0.222656 0.513538
O O8 0.142333 0.321545 0.692880
O O9 0.660798 0.394580 0.889901
O O10 0.526750 0.664034 0.712171
O O11 0.981346 0.550726 0.688036
O O12 0.500000 0.500000 0.000000
O O13 0.281057 0.707794 0.198607
O O14 0.618752 0.926911 0.409499
O O15 0.711508 0.089582 0.089893
O O16 0.101428 0.937560 0.120806
O O17 0.500000 0.500000 0.500000
#
# Coordination Sequence:
#
# PCOD9091456 Si02
#       8
#     2   2   2   2   2   2   2   2
#     4  12  26  46  68 101 137 172 231 279 326 403
#     4  10  21  38  66  94 130 168 219 266 338 402
#     4  11  23  40  65 102 135 168 214 273 347 399
#     4  10  19  39  66  90 130 171 207 279 328 393
#     4  11  26  47  69  94 133 183 229 275 330 389
#     4  12  24  39  67 104 131 169 220 279 340 400
#     4  11  25  45  66  94 139 179 215 272 340 401
#     4  11  24  44  72  96 127 177 233 277 329 388
#
# _framework density 21.257753999999998
#
# number of rings (size 3 to 8) (size 9 to 14) (size 15 to 20)
#    0.000    1.000    5.000    1.500    1.750    2.000 
#    2.250    0.000    0.000    0.000    0.000    0.000 
#    0.000    0.000    0.000    0.000    0.000    0.000 
#
# Total GULP energy -89204.539341 kJ/mol
# GULP energy per Si atom -5575.283709 kJ/mol
# Density = 2.120937 g / cm^3
# Si number density = 21.257754 Si / 1000 Ang^3
#
#
#
# Elastic Constant Matrix: (Units=GPa)
#
#
# Indices 1 2 3 4 5 6 
#
# 1 58.5709 14.3462 6.1111 -4.8033 -23.1013 6.1457
# 2 14.3462 60.1646 33.5080 14.3794 -7.7199 8.0017
# 3 6.1111 33.5080 78.8909 6.8878 -16.6334 9.6074
# 4 -4.8033 14.3794 6.8878 37.4175 6.8147 -9.6638
# 5 -23.1013 -7.7199 -16.6334 6.8147 30.4609 -4.8434
# 6 6.1457 8.0017 9.6074 -9.6638 -4.8434 37.8546
#
#
#
# Elastic Compliance Matrix: (Units=1/GPa)
#
#
# Indices 1 2 3 4 5 6 
#
# 1 0.026634 -0.006598 0.005264 0.000806 0.021003 -0.001372
# 2 -0.006598 0.026359 -0.009656 -0.010077 -0.002120 -0.004894
# 3 0.005264 -0.009656 0.019463 -0.002127 0.012214 -0.002733
# 4 0.000806 -0.010077 -0.002127 0.035489 -0.009390 0.010397
# 5 0.021003 -0.002120 0.012214 -0.009390 0.056802 -0.001191
# 6 -0.001372 -0.004894 -0.002733 0.010397 -0.001191 0.030870
#
#
# Mechanical properties :
#
#
# Convention : Reuss Voigt Hill
#
# Bulk Modulus (GPa) = 19.81068 33.95076 26.88072
# Shear Modulus (GPa) = 21.32908 30.72399 26.02654
#
# Velocity S-wave (km/s) = 3.17101 3.80584 3.50284
# Velocity P-wave (km/s) = 4.76934 5.94292 5.38818
#
# Compressibility (1/GPa) = 0.05047782
#
# Stress axis : x y z
#
# Youngs Moduli (GPa) = 37.54562 37.93711 51.37940
#
# Poissons Ratio (x) = 0.25031 -0.27048
# Poissons Ratio (y) = 0.24772 0.49611
# Poissons Ratio (z) = -0.19765 0.36632
#
# Static dielectric constant tensor:
#      x y z
#    x 1.864720 0.063470 0.146670 
#    y 0.063470 1.787910 0.058920 
#    z 0.146670 0.058920 2.016290 
# 
# From -- ./inp_files/203272.got.cif
#   From: 2010.05.17/outbox.cif.g08.bks.cpg/sg2_102_cif.got.tgz:203272.got - 2010.06.03 11:33:40.
