data_PCOD9091386
_publ_section_title
;
Structure prediction by ZEFSAII (Michael W. Deem and Ramdas Pophale) SiO2 
 PCOD9091386
Probable space group: P -1
;
_chemical_formula_sum "Si O2"
_cell_formula_units_Z 16
_cell_length_a 7.580640
_cell_length_b 5.789308
_cell_length_c 21.594788
_cell_angle_alpha 68.913696
_cell_angle_beta 121.489581
_cell_angle_gamma 86.175658
_cell_volume 714.386523
_symmetry_space_group_name_H-M "P -1"
_symmetry_group_IT_number 2
_symmetry_cell_setting 'triclinic'
loop_
_space_group_symop_operation_xyz
x,y,z
-x,-y,-z
loop_
_atom_site_type_symbol
_atom_site_label
_atom_site_fract_x
_atom_site_fract_y
_atom_site_fract_z
Si Si1 0.380338 0.792389 0.476466
Si Si2 0.541256 0.098235 0.844088
Si Si3 0.397829 0.787440 0.028234
Si Si4 0.754847 0.230279 0.127148
Si Si5 0.518827 0.026748 0.284586
Si Si6 0.153200 0.169697 0.292483
Si Si7 0.192939 0.543459 0.570052
Si Si8 0.815126 0.365379 0.302175
O O1 0.500000 0.500000 0.500000
O O2 0.272482 0.740515 0.524983
O O3 0.500000 0.000000 0.500000
O O4 0.227781 0.932895 0.377767
O O5 0.687605 0.128433 0.926144
O O6 0.396141 0.386367 0.770001
O O7 0.377241 0.959806 0.856678
O O8 0.615542 0.961224 0.804963
O O9 0.597935 0.515600 0.092736
O O10 0.235782 0.761715 0.946655
O O11 0.500000 0.000000 0.000000
O O12 0.985957 0.146815 0.211194
O O13 0.363583 0.195111 0.293483
O O14 0.724233 0.123746 0.297237
O O15 0.616699 0.732862 0.357169
O O16 0.001746 0.391714 0.287998
O O17 0.110300 0.648780 0.612389
O O18 0.000000 0.500000 0.500000
#
# Coordination Sequence:
#
# PCOD9091386 Si02
#       8
#     2   2   2   2   2   2   2   2
#     4  12  28  49  69 102 148 191 241 303 367 424
#     4  10  19  39  65  95 136 178 220 277 347 412
#     4   9  18  36  66  97 135 172 219 273 344 419
#     4  10  20  38  65 102 131 174 226 277 341 419
#     4  11  23  43  63  99 138 175 232 292 345 417
#     4  12  24  42  72  98 135 181 236 287 354 417
#     4  11  26  45  69  95 138 187 242 293 363 422
#     4  11  24  43  66  98 133 183 229 289 350 427
#
# _framework density 22.396840000000001
#
# number of rings (size 3 to 8) (size 9 to 14) (size 15 to 20)
#    0.000    1.250    3.750    1.500    3.500    1.000 
#    4.500    0.625    0.000   10.500    0.000    0.000 
#    0.000    0.000    0.000    0.000    0.000    0.000 
#
# Total GULP energy -89282.263540 kJ/mol
# GULP energy per Si atom -5580.141471 kJ/mol
# Density = 2.234586 g / cm^3
# Si number density = 22.396840 Si / 1000 Ang^3
#
#
#
# Elastic Constant Matrix: (Units=GPa)
#
#
# Indices 1 2 3 4 5 6 
#
# 1 85.5460 24.4886 25.8756 18.0792 -19.6332 -8.5811
# 2 24.4886 78.5779 43.1394 20.1751 -7.5843 7.9820
# 3 25.8756 43.1394 156.8044 36.4488 -11.1502 4.2357
# 4 18.0792 20.1751 36.4488 52.6232 -7.8192 -21.5500
# 5 -19.6332 -7.5843 -11.1502 -7.8192 32.0449 6.9733
# 6 -8.5811 7.9820 4.2357 -21.5500 6.9733 31.4759
#
#
#
# Elastic Compliance Matrix: (Units=1/GPa)
#
#
# Indices 1 2 3 4 5 6 
#
# 1 0.015136 -0.003591 -0.000840 -0.000989 0.007267 0.002863
# 2 -0.003591 0.018750 -0.001908 -0.009397 0.001967 -0.012346
# 3 -0.000840 -0.001908 0.009167 -0.007819 0.001779 -0.006726
# 4 -0.000989 -0.009397 -0.007819 0.041015 -0.002461 0.031792
# 5 0.007267 0.001967 0.001779 -0.002461 0.038074 -0.008877
# 6 0.002863 -0.012346 -0.006726 0.031792 -0.008877 0.060320
#
#
# Mechanical properties :
#
#
# Convention : Reuss Voigt Hill
#
# Bulk Modulus (GPa) = 32.92450 56.43727 44.68089
# Shear Modulus (GPa) = 24.35881 38.39044 31.37463
#
# Velocity S-wave (km/s) = 3.30146 4.14466 3.74685
# Velocity P-wave (km/s) = 5.40974 6.93958 6.22186
#
# Compressibility (1/GPa) = 0.03037252
#
# Stress axis : x y z
#
# Youngs Moduli (GPa) = 66.06864 53.33445 109.09002
#
# Poissons Ratio (x) = 0.19154 0.09169
# Poissons Ratio (y) = 0.23727 0.20815
# Poissons Ratio (z) = 0.05553 0.10177
#
# Static dielectric constant tensor:
#      x y z
#    x 1.826710 -0.031870 0.004860 
#    y -0.031870 1.940490 0.034440 
#    z 0.004860 0.034440 1.838360 
# 
# From -- ./inp_files/137474.got.cif
#   From: 2010.05.17/outbox.cif.g08.bks.cpg/sg2_69_cif.got.tgz:137474.got - 2010.06.03 11:33:40.
