data_PCOD9091001
_publ_section_title
;
Structure prediction by ZEFSAII (Michael W. Deem and Ramdas Pophale) SiO2 
 PCOD9091001
Probable space group: P -1
;
_chemical_formula_sum "Si O2"
_cell_formula_units_Z 16
_cell_length_a 11.671883
_cell_length_b 12.634517
_cell_length_c 8.502190
_cell_angle_alpha 127.105874
_cell_angle_beta 124.375181
_cell_angle_gamma 59.944341
_cell_volume 800.486114
_symmetry_space_group_name_H-M "P -1"
_symmetry_group_IT_number 2
_symmetry_cell_setting 'triclinic'
loop_
_space_group_symop_operation_xyz
x,y,z
-x,-y,-z
loop_
_atom_site_type_symbol
_atom_site_label
_atom_site_fract_x
_atom_site_fract_y
_atom_site_fract_z
Si Si1 0.541225 0.525876 0.877203
Si Si2 0.121933 0.873845 0.418066
Si Si3 0.667549 0.595635 0.609955
Si Si4 0.960714 0.598547 0.706022
Si Si5 0.558579 0.798314 0.965129
Si Si6 0.005552 0.108300 0.971226
Si Si7 0.716640 0.990219 0.121645
Si Si8 0.162916 0.575951 0.124583
O O1 0.424155 0.490429 0.634803
O O2 0.557503 0.679801 0.985881
O O3 0.696000 0.425736 0.871392
O O4 0.500000 0.500000 0.000000
O O5 0.093353 0.724569 0.276375
O O6 0.123177 0.891719 0.249071
O O7 0.252939 0.891243 0.636923
O O8 0.000000 0.000000 0.500000
O O9 0.562020 0.721199 0.729863
O O10 0.763533 0.517384 0.758267
O O11 0.789943 0.631581 0.629297
O O12 0.000000 0.500000 0.500000
O O13 0.048849 0.539639 0.881885
O O14 0.004861 0.740394 0.838751
O O15 0.427022 0.929814 0.005567
O O16 0.692193 0.867420 0.103476
O O17 0.152460 0.065043 0.944789
O O18 0.000000 0.000000 0.000000
#
# Coordination Sequence:
#
# PCOD9091001 Si02
#       8
#     2   2   2   2   2   2   2   2
#     4  11  23  39  60  91 126 162 201 255 317 373
#     4   9  19  35  59  83 115 154 202 245 292 364
#     4  11  21  40  62  88 121 160 209 253 308 370
#     4  11  23  39  59  92 126 163 206 260 310 365
#     4  10  21  37  64  87 120 158 203 256 298 368
#     4  10  22  40  58  88 127 161 196 253 313 369
#     4  10  19  39  62  91 115 158 211 248 299 366
#     4  10  21  39  62  89 119 162 206 255 307 364
#
# _framework density 19.987853000000001
#
# number of rings (size 3 to 8) (size 9 to 14) (size 15 to 20)
#    0.000    1.750    1.250    4.125    0.000    5.000 
#    6.750    0.000    0.000    3.750    0.000    0.000 
#    0.000    0.000    0.000    0.000    0.000    0.000 
#
# Total GULP energy -89102.266954 kJ/mol
# GULP energy per Si atom -5568.891685 kJ/mol
# Density = 1.994236 g / cm^3
# Si number density = 19.987853 Si / 1000 Ang^3
#
#
#
# Elastic Constant Matrix: (Units=GPa)
#
#
# Indices 1 2 3 4 5 6 
#
# 1 92.1685 25.8974 31.2878 0.9871 0.9625 3.5334
# 2 25.8974 65.7498 19.6537 6.6599 -10.2656 -6.1864
# 3 31.2878 19.6537 107.8788 5.5340 -11.8143 -0.4300
# 4 0.9871 6.6599 5.5340 22.0259 -10.9169 0.6250
# 5 0.9625 -10.2656 -11.8143 -10.9169 26.2882 -2.0745
# 6 3.5334 -6.1864 -0.4300 0.6250 -2.0745 31.7283
#
#
#
# Elastic Compliance Matrix: (Units=1/GPa)
#
#
# Indices 1 2 3 4 5 6 
#
# 1 0.013682 -0.005288 -0.003492 -0.000274 -0.004477 -0.002889
# 2 -0.005288 0.019351 -0.001125 -0.002127 0.006743 0.004829
# 3 -0.003492 -0.001125 0.011003 0.000045 0.004701 0.000625
# 4 -0.000274 -0.002127 0.000045 0.057479 0.023069 -0.000008
# 5 -0.004477 0.006743 0.004701 0.023069 0.052915 0.004882
# 6 -0.002889 0.004829 0.000625 -0.000008 0.004882 0.033109
#
#
# Mechanical properties :
#
#
# Convention : Reuss Voigt Hill
#
# Bulk Modulus (GPa) = 41.28129 46.60830 43.94480
# Shear Modulus (GPa) = 23.21011 28.60571 25.90791
#
# Velocity S-wave (km/s) = 3.41135 3.78716 3.60416
# Velocity P-wave (km/s) = 6.01784 6.51862 6.27323
#
# Compressibility (1/GPa) = 0.02422405
#
# Stress axis : x y z
#
# Youngs Moduli (GPa) = 73.09126 51.67742 90.88797
#
# Poissons Ratio (x) = 0.27327 0.31742
# Poissons Ratio (y) = 0.38651 0.10224
# Poissons Ratio (z) = 0.25526 0.05813
#
# Static dielectric constant tensor:
#      x y z
#    x 1.749930 -0.038140 0.038340 
#    y -0.038140 1.844950 -0.009890 
#    z 0.038340 -0.009890 1.735520 
# 
# From -- ./inp_files/260752.got.cif
#   From: 2010.05.17/outbox.cif.g08.bks.cpg/sg2_131_cif.got.tgz:260752.got - 2010.06.03 11:33:40.
