data_PCOD9091811
_publ_section_title
;
Structure prediction by ZEFSAII (Michael W. Deem and Ramdas Pophale) SiO2 
 PCOD9091811
Probable space group: P -1
;
_chemical_formula_sum "Si O2"
_cell_formula_units_Z 12
_cell_length_a 8.560925
_cell_length_b 14.311834
_cell_length_c 13.381473
_cell_angle_alpha 32.037431
_cell_angle_beta 120.304788
_cell_angle_gamma 98.723540
_cell_volume 599.111767
_symmetry_space_group_name_H-M "P -1"
_symmetry_group_IT_number 2
_symmetry_cell_setting 'triclinic'
loop_
_space_group_symop_operation_xyz
x,y,z
-x,-y,-z
loop_
_atom_site_type_symbol
_atom_site_label
_atom_site_fract_x
_atom_site_fract_y
_atom_site_fract_z
Si Si1 0.929908 0.347025 0.648357
Si Si2 0.246872 0.769836 0.790395
Si Si3 0.457779 0.509963 0.285852
Si Si4 0.150481 0.810200 0.418624
Si Si5 0.285880 0.437350 0.962781
Si Si6 0.997168 0.730469 0.029179
O O1 0.655451 0.488187 0.432681
O O2 0.998032 0.173189 0.738326
O O3 0.000000 0.500000 0.500000
O O4 0.025711 0.253458 0.872904
O O5 0.236892 0.575002 0.922599
O O6 0.347016 0.707405 0.990845
O O7 0.444987 0.736735 0.814593
O O8 0.000000 0.000000 0.500000
O O9 0.607569 0.291624 0.463386
O O10 0.257317 0.542954 0.253439
O O11 0.189700 0.624792 0.674563
O O12 0.060037 0.038034 0.232618
O O13 0.162089 0.324729 0.017862
#
# Coordination Sequence:
#
# PCOD9091811 Si02
#       6
#     2   2   2   2   2   2
#     4  10  19  40  61  82 123 155 185 240 288 341
#     4  10  20  41  61  82 119 154 195 240 285 344
#     4   9  22  36  57  89 118 145 199 241 277 346
#     4   9  21  38  57  86 120 148 193 232 286 345
#     4  10  22  38  62  87 115 154 193 239 288 340
#     4  12  20  38  63  87 117 155 188 237 297 339
#
# _framework density 20.029653
#
# number of rings (size 3 to 8) (size 9 to 14) (size 15 to 20)
#    1.000    1.000    1.667    2.000    0.000    2.000 
#    0.000   14.167    0.000    0.000    0.000    0.000 
#    0.000    0.000    0.000    0.000    0.000    0.000 
#
# Total GULP energy -66853.151564 kJ/mol
# GULP energy per Si atom -5571.095964 kJ/mol
# Density = 1.998406 g / cm^3
# Si number density = 20.029653 Si / 1000 Ang^3
#
#
#
# Elastic Constant Matrix: (Units=GPa)
#
#
# Indices 1 2 3 4 5 6 
#
# 1 59.5091 23.3840 13.3027 -23.5756 13.9539 20.8465
# 2 23.3840 72.5548 16.2420 -11.6387 6.7791 28.5168
# 3 13.3027 16.2420 53.9268 -10.4925 18.9508 6.5071
# 4 -23.5756 -11.6387 -10.4925 30.9030 -1.4314 -4.2930
# 5 13.9539 6.7791 18.9508 -1.4314 25.9098 5.7893
# 6 20.8465 28.5168 6.5071 -4.2930 5.7893 36.9070
#
#
#
# Elastic Compliance Matrix: (Units=1/GPa)
#
#
# Indices 1 2 3 4 5 6 
#
# 1 0.035287 -0.001102 0.004329 0.025201 -0.017318 -0.014195
# 2 -0.001102 0.021437 -0.004206 0.003795 0.001625 -0.015013
# 3 0.004329 -0.004206 0.028231 0.010367 -0.021394 0.000389
# 4 0.025201 0.003795 0.010367 0.054359 -0.016906 -0.010019
# 5 -0.017318 0.001625 -0.021394 -0.016906 0.062078 0.000594
# 6 -0.014195 -0.015013 0.000389 -0.010019 0.000594 0.045386
#
#
# Mechanical properties :
#
#
# Convention : Reuss Voigt Hill
#
# Bulk Modulus (GPa) = 12.04861 32.42757 22.23809
# Shear Modulus (GPa) = 18.08973 27.61476 22.85225
#
# Velocity S-wave (km/s) = 3.00850 3.71710 3.38142
# Velocity P-wave (km/s) = 4.25400 5.88621 5.13537
#
# Compressibility (1/GPa) = 0.08299714
#
# Stress axis : x y z
#
# Youngs Moduli (GPa) = 28.33944 46.64832 35.42235
#
# Poissons Ratio (x) = 0.05141 -0.15336
# Poissons Ratio (y) = 0.03123 0.14898
# Poissons Ratio (z) = -0.12269 0.19620
#
# Static dielectric constant tensor:
#      x y z
#    x 1.688120 -0.033110 -0.007940 
#    y -0.033110 1.729740 0.034760 
#    z -0.007940 0.034760 1.738630 
# 
# From -- ./inp_files/199909.got.cif
#   From: 2010.05.17/outbox.cif.g08.bks.cpg/sg2_100_cif.got.tgz:199909.got - 2010.06.03 11:33:40.
