data_PCOD9091647
_publ_section_title
;
Structure prediction by ZEFSAII (Michael W. Deem and Ramdas Pophale) SiO2 
 PCOD9091647
Probable space group: P -1
;
_chemical_formula_sum "Si O2"
_cell_formula_units_Z 16
_cell_length_a 11.948160
_cell_length_b 8.450762
_cell_length_c 17.131903
_cell_angle_alpha 150.610128
_cell_angle_beta 120.652111
_cell_angle_gamma 69.255826
_cell_volume 713.508248
_symmetry_space_group_name_H-M "P -1"
_symmetry_group_IT_number 2
_symmetry_cell_setting 'triclinic'
loop_
_space_group_symop_operation_xyz
x,y,z
-x,-y,-z
loop_
_atom_site_type_symbol
_atom_site_label
_atom_site_fract_x
_atom_site_fract_y
_atom_site_fract_z
Si Si1 0.736835 0.520646 0.126438
Si Si2 0.449500 0.631121 0.438670
Si Si3 0.619062 0.276860 0.129207
Si Si4 0.982454 0.615033 0.846755
Si Si5 0.411218 0.665485 0.161874
Si Si6 0.713559 0.530591 0.429422
Si Si7 0.747737 0.298592 0.739055
Si Si8 0.789348 0.293030 0.510884
O O1 0.696171 0.250169 0.064962
O O2 0.876892 0.471955 0.122664
O O3 0.752799 0.894800 0.324304
O O4 0.631012 0.456556 0.991432
O O5 0.558005 0.428804 0.360643
O O6 0.376324 0.715971 0.370711
O O7 0.325420 0.549865 0.419461
O O8 0.545330 0.941680 0.647710
O O9 0.538199 0.551845 0.193045
O O10 0.716858 0.373725 0.278155
O O11 0.500000 0.000000 0.000000
O O12 0.877613 0.497278 0.828009
O O13 0.919165 0.414546 0.661346
O O14 0.000000 0.000000 0.000000
O O15 0.290634 0.546171 0.127828
O O16 0.798661 0.415204 0.477971
O O17 0.753634 0.922295 0.597978
#
# Coordination Sequence:
#
# PCOD9091647 Si02
#       8
#     2   2   2   2   2   2   2   2
#     4  12  27  46  66  96 142 181 213 276 336 395
#     4  10  19  39  68  97 137 174 210 272 329 395
#     4  12  24  38  65 101 140 170 215 269 338 398
#     4  11  28  49  70  92 128 183 233 274 323 395
#     4  11  21  40  68 100 134 167 216 268 338 393
#     4  11  21  39  67 104 131 173 219 274 334 393
#     4  10  21  44  69  95 133 174 225 277 321 384
#     4  11  24  44  68  98 134 178 224 267 339 395
#
# _framework density 22.424408
#
# number of rings (size 3 to 8) (size 9 to 14) (size 15 to 20)
#    0.000    1.000    3.750    3.375    7.000    0.500 
#    0.000    1.250    0.000    0.000    0.000    0.000 
#    0.000    0.000    0.000    0.000    0.000    0.000 
#
# Total GULP energy -89405.149121 kJ/mol
# GULP energy per Si atom -5587.821820 kJ/mol
# Density = 2.237337 g / cm^3
# Si number density = 22.424408 Si / 1000 Ang^3
#
#
#
# Elastic Constant Matrix: (Units=GPa)
#
#
# Indices 1 2 3 4 5 6 
#
# 1 91.6231 13.3515 10.6317 -14.0922 8.0116 8.9538
# 2 13.3515 76.1095 10.4121 -16.0895 -2.3115 18.8467
# 3 10.6317 10.4121 76.8749 -15.1855 -8.0858 19.4530
# 4 -14.0922 -16.0895 -15.1855 29.9483 10.6349 -9.3403
# 5 8.0116 -2.3115 -8.0858 10.6349 22.4495 1.1080
# 6 8.9538 18.8467 19.4530 -9.3403 1.1080 27.4921
#
#
#
# Elastic Compliance Matrix: (Units=1/GPa)
#
#
# Indices 1 2 3 4 5 6 
#
# 1 0.013273 -0.000679 -0.001061 0.008732 -0.009337 0.000236
# 2 -0.000679 0.016962 0.001712 0.006359 0.000109 -0.010462
# 3 -0.001061 0.001712 0.017264 0.003328 0.005796 -0.012146
# 4 0.008732 0.006359 0.003328 0.055954 -0.028293 0.010592
# 5 -0.009337 0.000109 0.005796 -0.028293 0.064036 -0.013328
# 6 0.000236 -0.010462 -0.012146 0.010592 -0.013328 0.056199
#
#
# Mechanical properties :
#
#
# Convention : Reuss Voigt Hill
#
# Bulk Modulus (GPa) = 21.07851 34.82202 27.95027
# Shear Modulus (GPa) = 20.87170 29.99213 25.43192
#
# Velocity S-wave (km/s) = 3.05414 3.66112 3.37132
# Velocity P-wave (km/s) = 4.67518 5.78222 5.25791
#
# Compressibility (1/GPa) = 0.04744168
#
# Stress axis : x y z
#
# Youngs Moduli (GPa) = 75.34259 58.95417 57.92552
#
# Poissons Ratio (x) = 0.04006 0.06143
# Poissons Ratio (y) = 0.05119 -0.09914
# Poissons Ratio (z) = 0.07991 -0.10091
#
# Static dielectric constant tensor:
#      x y z
#    x 1.885770 0.015240 -0.026780 
#    y 0.015240 1.836880 0.033280 
#    z -0.026780 0.033280 1.824670 
# 
# From -- ./inp_files/539313.got.cif
#   From: 2010.05.17/outbox.cif.g08.bks.cpg/sg2_270_cif.got.tgz:539313.got - 2010.06.03 11:33:40.
