data_PCOD9091818
_publ_section_title
;
Structure prediction by ZEFSAII (Michael W. Deem and Ramdas Pophale) SiO2 
 PCOD9091818
Probable space group: P -1
;
_chemical_formula_sum "Si O2"
_cell_formula_units_Z 16
_cell_length_a 9.931499
_cell_length_b 12.238325
_cell_length_c 7.777404
_cell_angle_alpha 91.886655
_cell_angle_beta 135.726736
_cell_angle_gamma 91.023478
_cell_volume 658.377086
_symmetry_space_group_name_H-M "P -1"
_symmetry_group_IT_number 2
_symmetry_cell_setting 'triclinic'
loop_
_space_group_symop_operation_xyz
x,y,z
-x,-y,-z
loop_
_atom_site_type_symbol
_atom_site_label
_atom_site_fract_x
_atom_site_fract_y
_atom_site_fract_z
Si Si1 0.052012 0.459815 0.240770
Si Si2 0.139205 0.686379 0.415248
Si Si3 0.933596 0.757306 0.897230
Si Si4 0.521789 0.558937 0.210235
Si Si5 0.757923 0.108870 0.288914
Si Si6 0.406443 0.345021 0.216166
Si Si7 0.096709 0.065445 0.370603
Si Si8 0.601113 0.780485 0.145362
O O1 0.016967 0.570706 0.322527
O O2 0.979183 0.331959 0.157606
O O3 0.267942 0.445804 0.513487
O O4 0.000000 0.500000 0.000000
O O5 0.152399 0.768320 0.589543
O O6 0.363195 0.667971 0.569917
O O7 0.050516 0.746468 0.177387
O O8 0.717599 0.710561 0.748762
O O9 0.928556 0.880005 0.833143
O O10 0.385347 0.476410 0.195740
O O11 0.500000 0.500000 0.000000
O O12 0.492301 0.685622 0.156515
O O13 0.542547 0.127647 0.035665
O O14 0.885278 0.050387 0.261817
O O15 0.787091 0.040664 0.486733
O O16 0.340911 0.282579 0.977525
O O17 0.221223 0.161703 0.590254
#
# Coordination Sequence:
#
# PCOD9091818 Si02
#       8
#     2   2   2   2   2   2   2   2
#     4   9  18  35  56  84 125 155 189 241 299 357
#     4   9  20  39  58  82 120 155 196 233 296 354
#     4  11  21  37  58  90 119 156 190 243 302 357
#     4   9  17  33  57  87 119 157 197 236 292 366
#     4  10  23  42  60  83 113 162 201 254 290 346
#     4   9  20  36  60  87 122 158 186 240 300 358
#     4  11  23  39  61  85 118 152 205 248 301 348
#     4  10  19  40  61  86 117 154 205 242 293 354
#
# _framework density 24.302182999999999
#
# number of rings (size 3 to 8) (size 9 to 14) (size 15 to 20)
#    0.000    2.250    1.250    1.875    0.000    3.500 
#    6.750    3.125    0.000    0.000    0.000    0.000 
#    0.000    0.000    0.000    0.000    0.000    0.000 
#
# Total GULP energy -89221.779186 kJ/mol
# GULP energy per Si atom -5576.361199 kJ/mol
# Density = 2.424687 g / cm^3
# Si number density = 24.302183 Si / 1000 Ang^3
#
#
#
# Elastic Constant Matrix: (Units=GPa)
#
#
# Indices 1 2 3 4 5 6 
#
# 1 50.9307 20.6392 6.5696 -9.8202 8.2086 6.9455
# 2 20.6392 105.7911 10.5415 -36.8780 7.5658 9.0164
# 3 6.5696 10.5415 92.5907 -4.2759 1.0150 -12.4348
# 4 -9.8202 -36.8780 -4.2759 40.6419 4.0049 -2.2136
# 5 8.2086 7.5658 1.0150 4.0049 20.1205 -6.9909
# 6 6.9455 9.0164 -12.4348 -2.2136 -6.9909 21.9044
#
#
#
# Elastic Compliance Matrix: (Units=1/GPa)
#
#
# Indices 1 2 3 4 5 6 
#
# 1 0.026183 0.000198 -0.003395 0.007024 -0.017230 -0.015100
# 2 0.000198 0.017236 -0.002605 0.016134 -0.013582 -0.011341
# 3 -0.003395 -0.002605 0.012672 -0.001834 0.005930 0.011050
# 4 0.007024 0.016134 -0.001834 0.042194 -0.021594 -0.012537
# 5 -0.017230 -0.013582 0.005930 -0.021594 0.078830 0.037397
# 6 -0.015100 -0.011341 0.011050 -0.012537 0.037397 0.072050
#
#
# Mechanical properties :
#
#
# Convention : Reuss Voigt Hill
#
# Bulk Modulus (GPa) = 22.47921 36.09035 29.28478
# Shear Modulus (GPa) = 18.14241 30.63751 24.38996
#
# Velocity S-wave (km/s) = 2.73524 3.55447 3.17142
# Velocity P-wave (km/s) = 4.38695 5.63281 5.04846
#
# Compressibility (1/GPa) = 0.04448555
#
# Stress axis : x y z
#
# Youngs Moduli (GPa) = 38.19304 58.01953 78.91400
#
# Poissons Ratio (x) = -0.01148 0.26791
# Poissons Ratio (y) = -0.00756 0.20560
# Poissons Ratio (z) = 0.12966 0.15116
#
# Static dielectric constant tensor:
#      x y z
#    x 2.050900 -0.010510 0.010700 
#    y -0.010510 1.984380 -0.008510 
#    z 0.010700 -0.008510 1.926960 
# 
# From -- ./inp_files/256032.got.cif
#   From: 2010.05.17/outbox.cif.g08.bks.cpg/sg2_129_cif.got.tgz:256032.got - 2010.06.03 11:33:40.
