data_PCOD9091034
_publ_section_title
;
Structure prediction by ZEFSAII (Michael W. Deem and Ramdas Pophale) SiO2 
 PCOD9091034
Probable space group: P -1
;
_chemical_formula_sum "Si O2"
_cell_formula_units_Z 16
_cell_length_a 11.627962
_cell_length_b 7.810136
_cell_length_c 12.234725
_cell_angle_alpha 130.340429
_cell_angle_beta 131.639236
_cell_angle_gamma 74.439075
_cell_volume 606.840589
_symmetry_space_group_name_H-M "P -1"
_symmetry_group_IT_number 2
_symmetry_cell_setting 'triclinic'
loop_
_space_group_symop_operation_xyz
x,y,z
-x,-y,-z
loop_
_atom_site_type_symbol
_atom_site_label
_atom_site_fract_x
_atom_site_fract_y
_atom_site_fract_z
Si Si1 0.592242 0.511756 0.326662
Si Si2 0.908301 0.236726 0.859136
Si Si3 0.827529 0.761102 0.811962
Si Si4 0.764202 0.207807 0.074746
Si Si5 0.082611 0.225839 0.381213
Si Si6 0.654925 0.595886 0.059471
Si Si7 0.611738 0.270664 0.575594
Si Si8 0.590124 0.033511 0.238512
O O1 0.748844 0.630146 0.399956
O O2 0.547458 0.684908 0.458969
O O3 0.623115 0.284523 0.307383
O O4 0.424755 0.442984 0.126206
O O5 0.721077 0.203793 0.710821
O O6 0.947909 0.047288 0.724376
O O7 0.000000 0.500000 0.000000
O O8 0.995031 0.203479 0.010927
O O9 0.855582 0.741369 0.692912
O O10 0.713902 0.517653 0.688515
O O11 0.770454 0.972023 0.916335
O O12 0.766571 0.430307 0.090828
O O13 0.910672 0.272543 0.281051
O O14 0.586216 0.117392 0.976047
O O15 0.709692 0.875903 0.226993
O O16 0.500000 0.500000 0.000000
O O17 0.582045 0.079223 0.382037
#
# Coordination Sequence:
#
# PCOD9091034 Si02
#       8
#     2   2   2   2   2   2   2   2
#     4  12  24  41  71 102 128 173 230 273 331 390
#     4   9  21  35  57  95 140 171 202 266 338 388
#     4  10  19  39  62  98 141 171 210 277 338 387
#     4  10  21  41  64  91 131 179 214 267 334 393
#     4  11  23  37  65 100 136 171 218 277 332 391
#     4  10  26  45  68  93 134 180 224 272 327 402
#     4  11  22  38  69 103 131 170 224 277 326 388
#     4  11  22  45  67  93 137 175 220 274 333 393
#
# _framework density 26.366069
#
# number of rings (size 3 to 8) (size 9 to 14) (size 15 to 20)
#    0.000    1.500    2.500    3.000    7.000    0.500 
#    0.000    3.125    0.000    0.000    0.000    0.000 
#    0.000    0.000    0.000    0.000    0.000    0.000 
#
# Total GULP energy -89450.493025 kJ/mol
# GULP energy per Si atom -5590.655814 kJ/mol
# Density = 2.630606 g / cm^3
# Si number density = 26.366069 Si / 1000 Ang^3
#
#
#
# Elastic Constant Matrix: (Units=GPa)
#
#
# Indices 1 2 3 4 5 6 
#
# 1 53.7635 12.4229 13.7184 4.6323 0.8831 -19.5380
# 2 12.4229 177.9087 44.1508 15.4273 3.3433 -32.9790
# 3 13.7184 44.1508 116.3458 0.5831 10.5427 -15.7922
# 4 4.6323 15.4273 0.5831 44.4276 -0.6731 4.4384
# 5 0.8831 3.3433 10.5427 -0.6731 47.3363 0.0827
# 6 -19.5380 -32.9790 -15.7922 4.4384 0.0827 43.7867
#
#
#
# Elastic Compliance Matrix: (Units=1/GPa)
#
#
# Indices 1 2 3 4 5 6 
#
# 1 0.023078 0.001173 -0.001635 -0.003893 -0.000224 0.010986
# 2 0.001173 0.007403 -0.002154 -0.003231 -0.000121 0.005650
# 3 -0.001635 -0.002154 0.009945 0.000640 -0.002025 0.001174
# 4 -0.003893 -0.003231 0.000640 0.024679 0.000521 -0.006442
# 5 -0.000224 -0.000121 -0.002025 0.000521 0.021598 -0.001015
# 6 0.010986 0.005650 0.001174 -0.006442 -0.001015 0.033074
#
#
# Mechanical properties :
#
#
# Convention : Reuss Voigt Hill
#
# Bulk Modulus (GPa) = 28.41435 54.28913 41.35174
# Shear Modulus (GPa) = 36.56550 45.62518 41.09534
#
# Velocity S-wave (km/s) = 3.72807 4.16438 3.95225
# Velocity P-wave (km/s) = 5.41586 6.61498 6.04523
#
# Compressibility (1/GPa) = 0.03519348
#
# Stress axis : x y z
#
# Youngs Moduli (GPa) = 43.33187 135.07584 100.55537
#
# Poissons Ratio (x) = -0.15838 0.16442
# Poissons Ratio (y) = -0.05081 0.21655
# Poissons Ratio (z) = 0.07085 0.29089
#
# Static dielectric constant tensor:
#      x y z
#    x 2.050430 0.012070 -0.000990 
#    y 0.012070 2.127150 0.006460 
#    z -0.000990 0.006460 2.306260 
# 
# From -- ./inp_files/529177.got.cif
#   From: 2010.05.17/outbox.cif.g08.bks.cpg/sg2_265_cif.got.tgz:529177.got - 2010.06.03 11:33:40.
