data_PCOD9091138
_publ_section_title
;
Structure prediction by ZEFSAII (Michael W. Deem and Ramdas Pophale) SiO2 
 PCOD9091138
Probable space group: P -1
;
_chemical_formula_sum "Si O2"
_cell_formula_units_Z 16
_cell_length_a 9.283653
_cell_length_b 27.149250
_cell_length_c 7.007995
_cell_angle_alpha 40.767204
_cell_angle_beta 59.353975
_cell_angle_gamma 39.479674
_cell_volume 721.314923
_symmetry_space_group_name_H-M "P -1"
_symmetry_group_IT_number 2
_symmetry_cell_setting 'triclinic'
loop_
_space_group_symop_operation_xyz
x,y,z
-x,-y,-z
loop_
_atom_site_type_symbol
_atom_site_label
_atom_site_fract_x
_atom_site_fract_y
_atom_site_fract_z
Si Si1 0.461679 0.610700 0.012205
Si Si2 0.076657 0.669198 0.832925
Si Si3 0.534247 0.759161 0.490978
Si Si4 0.766808 0.118224 0.293432
Si Si5 0.361554 0.115968 0.978663
Si Si6 0.154632 0.740287 0.192337
Si Si7 0.402820 0.111647 0.499694
Si Si8 0.966274 0.427858 0.146546
O O1 0.278653 0.619308 0.991493
O O2 0.498029 0.683069 0.676219
O O3 0.359436 0.657766 0.151660
O O4 0.706689 0.493667 0.199807
O O5 0.141857 0.689849 0.529265
O O6 0.037207 0.594992 0.007905
O O7 0.843206 0.783894 0.715337
O O8 0.344759 0.828421 0.581602
O O9 0.535517 0.837629 0.145747
O O10 0.797513 0.682655 0.616646
O O11 0.586071 0.119863 0.310704
O O12 0.814794 0.184039 0.975202
O O13 0.000000 0.000000 0.500000
O O14 0.388726 0.112057 0.740349
O O15 0.086836 0.188928 0.969158
O O16 0.505095 0.999103 0.291641
O O17 0.000000 0.500000 0.000000
#
# Coordination Sequence:
#
# PCOD9091138 Si02
#       8
#     2   2   2   2   2   2   2   2
#     4  10  23  37  59  86 116 149 195 240 279 331
#     4  11  21  40  59  86 117 151 189 235 285 344
#     4   9  18  35  57  81 119 155 186 233 290 337
#     4  10  16  28  55  87 112 146 192 234 278 336
#     4   9  15  31  55  83 111 155 188 227 282 344
#     4  10  20  34  59  85 115 147 194 236 282 334
#     4   9  17  29  56  83 114 154 187 224 291 343
#     4  10  19  37  64  82 109 158 190 229 294 338
#
# _framework density 22.181712000000001
#
# number of rings (size 3 to 8) (size 9 to 14) (size 15 to 20)
#    0.000    2.250    5.000    0.375    1.750    0.500 
#    0.000    2.500    0.000    8.250    0.000    0.000 
#    0.000    0.000    0.000    0.000    0.000    0.000 
#
# Total GULP energy -89162.906886 kJ/mol
# GULP energy per Si atom -5572.681680 kJ/mol
# Density = 2.213123 g / cm^3
# Si number density = 22.181712 Si / 1000 Ang^3
#
#
#
# Elastic Constant Matrix: (Units=GPa)
#
#
# Indices 1 2 3 4 5 6 
#
# 1 84.9437 3.6315 36.1002 0.7941 -4.6383 -11.3344
# 2 3.6315 96.1245 34.0461 -27.0966 17.3598 -24.1044
# 3 36.1002 34.0461 38.2108 -8.3493 -24.1449 7.7715
# 4 0.7941 -27.0966 -8.3493 25.1614 2.8277 0.7400
# 5 -4.6383 17.3598 -24.1449 2.8277 43.1307 -0.8352
# 6 -11.3344 -24.1044 7.7715 0.7400 -0.8352 31.4924
#
#
#
# Elastic Compliance Matrix: (Units=1/GPa)
#
#
# Indices 1 2 3 4 5 6 
#
# 1 0.006765 -0.012019 0.011990 -0.010345 0.012779 -0.009141
# 2 -0.012019 -0.002744 0.026266 0.004945 0.013946 -0.012654
# 3 0.011990 0.026266 -0.025179 0.021406 -0.024210 0.029488
# 4 -0.010345 0.004945 0.021406 0.052084 0.005344 -0.006303
# 5 0.012779 0.013946 -0.024210 0.005344 0.005455 0.021267
# 6 -0.009141 -0.012654 0.029488 -0.006303 0.021267 0.012214
#
#
# Mechanical properties :
#
#
# Convention : Reuss Voigt Hill
#
# Bulk Modulus (GPa) = 31.92995 40.75939 36.34467
# Shear Modulus (GPa) = 762.34980 29.65700 396.00340
#
# Velocity S-wave (km/s) = 18.55883 3.66047 13.37589
# Velocity P-wave (km/s) = 21.76387 6.02333 15.96788
#
# Compressibility (1/GPa) = 0.03131856
#
# Stress axis : x y z
#
# Youngs Moduli (GPa) = 147.81503 -364.49446 -39.71570
#
# Poissons Ratio (x) = -4.38072 0.47621
# Poissons Ratio (y) = 1.77653 1.04317
# Poissons Ratio (z) = -1.77237 9.57383
#
# Static dielectric constant tensor:
#      x y z
#    x 1.865810 0.021120 -0.074580 
#    y 0.021120 1.817740 0.004270 
#    z -0.074580 0.004270 1.873390 
# 
# From -- ./inp_files/227854.got.cif
#   From: 2010.05.17/outbox.cif.g08.bks.cpg/sg2_114_cif.got.tgz:227854.got - 2010.06.03 11:33:40.
