data_PCOD9091587
_publ_section_title
;
Structure prediction by ZEFSAII (Michael W. Deem and Ramdas Pophale) SiO2 
 PCOD9091587
Probable space group: P -1
;
_chemical_formula_sum "Si O2"
_cell_formula_units_Z 14
_cell_length_a 8.062578
_cell_length_b 16.056017
_cell_length_c 10.172245
_cell_angle_alpha 131.145284
_cell_angle_beta 62.763824
_cell_angle_gamma 146.602783
_cell_volume 532.318168
_symmetry_space_group_name_H-M "P -1"
_symmetry_group_IT_number 2
_symmetry_cell_setting 'triclinic'
loop_
_space_group_symop_operation_xyz
x,y,z
-x,-y,-z
loop_
_atom_site_type_symbol
_atom_site_label
_atom_site_fract_x
_atom_site_fract_y
_atom_site_fract_z
Si Si1 0.749342 0.728592 0.042907
Si Si2 0.917739 0.874794 0.676064
Si Si3 0.602334 0.994586 0.793468
Si Si4 0.147812 0.529982 0.180886
Si Si5 0.808555 0.227506 0.497641
Si Si6 0.696219 0.500584 0.633518
Si Si7 0.478802 0.167408 0.082080
O O1 0.416382 0.585088 0.078464
O O2 0.041623 0.814005 0.105147
O O3 0.697933 0.622719 0.828337
O O4 0.878693 0.916833 0.191542
O O5 0.637522 0.703844 0.503404
O O6 0.733656 0.825726 0.825378
O O7 0.132744 0.870249 0.588865
O O8 0.524032 0.913304 0.596126
O O9 0.486872 0.853489 0.798608
O O10 0.389641 0.004052 0.892571
O O11 0.181087 0.675955 0.294651
O O12 0.183142 0.521321 0.315769
O O13 0.795888 0.340980 0.076786
O O14 0.081331 0.385475 0.456299
#
# Coordination Sequence:
#
# PCOD9091587 Si02
#       7
#     2   2   2   2   2   2   2
#     4  11  26  45  67 103 135 170 221 278 340 385
#     4  11  26  44  68  98 139 175 224 267 326 407
#     4  10  20  39  67  99 128 170 221 275 327 385
#     4  12  23  42  69 101 133 168 223 282 330 388
#     4  12  24  42  70  98 133 179 224 267 328 396
#     4  12  23  43  72  99 131 173 223 283 324 387
#     4  10  19  39  67  99 127 166 225 277 319 385
#
# _framework density 26.300059999999998
#
# number of rings (size 3 to 8) (size 9 to 14) (size 15 to 20)
#    0.000    0.857    4.286    4.714    0.000    5.143 
#    0.000    0.714    0.000    0.000    0.000    0.000 
#    0.000    0.000    0.000    0.000    0.000    0.000 
#
# Total GULP energy -78165.552608 kJ/mol
# GULP energy per Si atom -5583.253758 kJ/mol
# Density = 2.624020 g / cm^3
# Si number density = 26.300060 Si / 1000 Ang^3
#
#
#
# Elastic Constant Matrix: (Units=GPa)
#
#
# Indices 1 2 3 4 5 6 
#
# 1 45.0716 10.9713 39.7513 12.3725 -22.9898 -3.8882
# 2 10.9713 124.5800 45.9047 8.9065 -0.5874 26.6395
# 3 39.7513 45.9047 130.5983 23.0459 -29.5953 1.2186
# 4 12.3725 8.9065 23.0459 42.6234 7.1095 -9.9292
# 5 -22.9898 -0.5874 -29.5953 7.1095 53.7616 8.3356
# 6 -3.8882 26.6395 1.2186 -9.9292 8.3356 27.8736
#
#
#
# Elastic Compliance Matrix: (Units=1/GPa)
#
#
# Indices 1 2 3 4 5 6 
#
# 1 0.037884 0.000577 -0.006513 -0.010756 0.014533 -0.003159
# 2 0.000577 0.012432 -0.003399 -0.004274 0.001174 -0.013526
# 3 -0.006513 -0.003399 0.013133 -0.005874 0.005490 -0.001969
# 4 -0.010756 -0.004274 -0.005874 0.038342 -0.016263 0.021363
# 5 0.014533 0.001174 0.005490 -0.016263 0.032293 -0.014785
# 6 -0.003159 -0.013526 -0.001969 0.021363 -0.014785 0.060480
#
#
# Mechanical properties :
#
#
# Convention : Reuss Voigt Hill
#
# Bulk Modulus (GPa) = 22.33199 54.83385 38.58292
# Shear Modulus (GPa) = 21.91444 38.42655 30.17049
#
# Velocity S-wave (km/s) = 2.88973 3.82656 3.39066
# Velocity P-wave (km/s) = 4.43213 6.35751 5.48004
#
# Compressibility (1/GPa) = 0.04477881
#
# Stress axis : x y z
#
# Youngs Moduli (GPa) = 26.39667 80.43721 76.14369
#
# Poissons Ratio (x) = -0.04638 0.49590
# Poissons Ratio (y) = -0.01522 0.25880
# Poissons Ratio (z) = 0.17191 0.27340
#
# Static dielectric constant tensor:
#      x y z
#    x 2.160150 -0.045440 0.011700 
#    y -0.045440 2.098530 0.003910 
#    z 0.011700 0.003910 2.036000 
# 
# From -- ./inp_files/189856.got.cif
#   From: 2010.05.17/outbox.cif.g08.bks.cpg/sg2_95_cif.got.tgz:189856.got - 2010.06.03 11:33:40.
