data_PCOD9091705
_publ_section_title
;
Structure prediction by ZEFSAII (Michael W. Deem and Ramdas Pophale) SiO2 
 PCOD9091705
Probable space group: P -1
;
_chemical_formula_sum "Si O2"
_cell_formula_units_Z 15
_cell_length_a 9.058827
_cell_length_b 8.405783
_cell_length_c 14.896724
_cell_angle_alpha 87.245638
_cell_angle_beta 118.591619
_cell_angle_gamma 49.346678
_cell_volume 635.912062
_symmetry_space_group_name_H-M "P -1"
_symmetry_group_IT_number 2
_symmetry_cell_setting 'triclinic'
loop_
_space_group_symop_operation_xyz
x,y,z
-x,-y,-z
loop_
_atom_site_type_symbol
_atom_site_label
_atom_site_fract_x
_atom_site_fract_y
_atom_site_fract_z
Si Si1 0.141836 0.564088 0.518300
Si Si2 0.204037 0.619306 0.332129
Si Si3 0.686554 0.105041 0.412157
Si Si4 0.500000 0.000000 0.500000
Si Si5 0.421822 0.285944 0.141891
Si Si6 0.125361 0.160577 0.067676
Si Si7 0.714875 0.983302 0.067663
Si Si8 0.736863 0.070674 0.698215
O O1 0.149339 0.574122 0.411707
O O2 0.440754 0.323817 0.639955
O O3 0.000000 0.500000 0.500000
O O4 0.991506 0.827652 0.506999
O O5 0.510612 0.365389 0.404939
O O6 0.160896 0.838339 0.313811
O O7 0.993057 0.712969 0.194693
O O8 0.603148 0.184560 0.282660
O O9 0.549772 0.047614 0.415995
O O10 0.287764 0.032374 0.388875
O O11 0.302108 0.193718 0.120572
O O12 0.591791 0.180226 0.104145
O O13 0.168423 0.580091 0.052751
O O14 0.119612 0.090744 0.166364
O O15 0.240748 0.981434 0.020093
O O16 0.500000 0.000000 0.000000
#
# Coordination Sequence:
#
# PCOD9091705 Si02
#       8
#     2   2   2   1   2   2   2   2
#     4  12  24  45  74 102 142 193 250 290 349 444
#     4  12  26  46  71 107 154 184 236 313 364 422
#     4  12  22  43  73 101 137 193 244 291 364 425
#     4  12  24  44  74  98 142 192 242 296 358 434
#     4  10  19  39  70 102 127 185 249 290 345 437
#     4  10  21  41  67  99 139 184 232 299 358 425
#     4  10  22  40  70 102 135 185 236 288 356 428
#     4  12  27  47  68 110 151 189 242 304 366 424
#
# _framework density 23.588170000000002
#
# number of rings (size 3 to 8) (size 9 to 14) (size 15 to 20)
#    0.000    0.800    6.667    0.400    1.867    1.067 
#    2.400    0.667    0.000    0.000    0.000    0.000 
#    0.000    0.000    0.000    0.000    0.000    0.000 
#
# Total GULP energy -83556.222382 kJ/mol
# GULP energy per Si atom -5570.414825 kJ/mol
# Density = 2.353448 g / cm^3
# Si number density = 23.588170 Si / 1000 Ang^3
#
#
#
# Elastic Constant Matrix: (Units=GPa)
#
#
# Indices 1 2 3 4 5 6 
#
# 1 73.5173 21.2895 32.1323 10.6836 -10.0123 -12.3479
# 2 21.2895 81.9600 26.9582 14.8374 -14.9489 -22.4901
# 3 32.1323 26.9582 124.1094 14.1001 -20.2457 -6.9720
# 4 10.6836 14.8374 14.1001 31.9957 -17.7175 -3.6274
# 5 -10.0123 -14.9489 -20.2457 -17.7175 42.8320 2.3798
# 6 -12.3479 -22.4901 -6.9720 -3.6274 2.3798 25.1140
#
#
#
# Elastic Compliance Matrix: (Units=1/GPa)
#
#
# Indices 1 2 3 4 5 6 
#
# 1 0.016859 -0.001035 -0.003414 -0.002675 0.000527 0.005978
# 2 -0.001035 0.018352 -0.001991 -0.004146 0.002700 0.014518
# 3 -0.003414 -0.001991 0.009877 -0.000808 0.002903 -0.001112
# 4 -0.002675 -0.004146 -0.000808 0.042837 0.015294 -0.000514
# 5 0.000527 0.002700 0.002903 0.015294 0.031963 0.002663
# 6 0.005978 0.014518 -0.001112 -0.000514 0.002663 0.055123
#
#
# Mechanical properties :
#
#
# Convention : Reuss Voigt Hill
#
# Bulk Modulus (GPa) = 31.05037 48.92740 39.98889
# Shear Modulus (GPa) = 25.17276 33.26878 29.22077
#
# Velocity S-wave (km/s) = 3.27031 3.75961 3.52346
# Velocity P-wave (km/s) = 5.23947 6.29552 5.79161
#
# Compressibility (1/GPa) = 0.03220574
#
# Stress axis : x y z
#
# Youngs Moduli (GPa) = 59.31597 54.49079 101.24793
#
# Poissons Ratio (x) = 0.05643 0.34568
# Poissons Ratio (y) = 0.06142 0.20159
# Poissons Ratio (z) = 0.20252 0.10850
#
# Static dielectric constant tensor:
#      x y z
#    x 1.890580 0.083920 0.007220 
#    y 0.083920 1.469700 0.337360 
#    z 0.007220 0.337360 1.672850 
# 
# From -- ./inp_files/202919.got.cif
#   From: 2010.05.17/outbox.cif.g08.bks.cpg/sg2_102_cif.got.tgz:202919.got - 2010.06.03 11:33:40.
