data_PCOD9091900
_publ_section_title
;
Structure prediction by ZEFSAII (Michael W. Deem and Ramdas Pophale) SiO2 
 PCOD9091900
Probable space group: P -1
;
_chemical_formula_sum "Si O2"
_cell_formula_units_Z 16
_cell_length_a 18.575024
_cell_length_b 9.805869
_cell_length_c 11.573698
_cell_angle_alpha 98.734687
_cell_angle_beta 40.384731
_cell_angle_gamma 66.448172
_cell_volume 801.713072
_symmetry_space_group_name_H-M "P -1"
_symmetry_group_IT_number 2
_symmetry_cell_setting 'triclinic'
loop_
_space_group_symop_operation_xyz
x,y,z
-x,-y,-z
loop_
_atom_site_type_symbol
_atom_site_label
_atom_site_fract_x
_atom_site_fract_y
_atom_site_fract_z
Si Si1 0.367203 0.065391 0.764203
Si Si2 0.024976 0.378841 0.065308
Si Si3 0.477757 0.595914 0.883807
Si Si4 0.695349 0.127498 0.645996
Si Si5 0.464397 0.402457 0.450944
Si Si6 0.688619 0.643139 0.671396
Si Si7 0.448292 0.106116 0.917716
Si Si8 0.984157 0.151305 0.959733
O O1 0.391927 0.123027 0.860502
O O2 0.500000 0.000000 0.500000
O O3 0.429041 0.844085 0.675368
O O4 0.167113 0.281943 0.977339
O O5 0.835240 0.544626 0.386638
O O6 0.079381 0.176992 0.921237
O O7 0.000000 0.500000 0.000000
O O8 0.537839 0.380718 0.810023
O O9 0.460658 0.635856 0.773903
O O10 0.655621 0.514183 0.689910
O O11 0.319970 0.809895 0.192700
O O12 0.619685 0.046375 0.709556
O O13 0.892922 0.965534 0.323049
O O14 0.500000 0.500000 0.500000
O O15 0.238742 0.600215 0.752072
O O16 0.503867 0.906849 0.885702
O O17 0.712743 0.666923 0.776114
O O18 0.000000 0.000000 0.000000
#
# Coordination Sequence:
#
# PCOD9091900 Si02
#       8
#     2   2   2   2   2   2   2   2
#     4  12  25  40  60  90 129 162 206 266 315 364
#     4  12  24  40  63  90 122 161 211 262 311 374
#     4  10  20  40  62  90 127 161 214 244 308 368
#     4  10  21  36  66  95 120 169 208 253 295 377
#     4  12  25  41  63  93 127 166 204 261 316 365
#     4  10  19  40  63  89 121 167 205 252 307 380
#     4  10  21  37  65  91 124 162 207 249 317 370
#     4  12  21  39  65  93 122 160 216 251 305 371
#
# _framework density 19.957263999999999
#
# number of rings (size 3 to 8) (size 9 to 14) (size 15 to 20)
#    0.000    1.000    3.750    3.750    1.750    0.500 
#    0.000    0.625    2.750    0.000    0.000    0.000 
#    0.000    0.000    0.000    0.000    0.000    0.000 
#
# Total GULP energy -89237.167138 kJ/mol
# GULP energy per Si atom -5577.322946 kJ/mol
# Density = 1.991184 g / cm^3
# Si number density = 19.957264 Si / 1000 Ang^3
#
#
#
# Elastic Constant Matrix: (Units=GPa)
#
#
# Indices 1 2 3 4 5 6 
#
# 1 126.2081 28.1132 27.4576 -10.3468 36.3424 -12.0032
# 2 28.1132 109.6206 13.5440 -17.9429 15.3591 -1.7773
# 3 27.4576 13.5440 90.8618 -29.3463 27.7629 -15.1410
# 4 -10.3468 -17.9429 -29.3463 31.4326 -10.2697 5.4534
# 5 36.3424 15.3591 27.7629 -10.2697 37.5235 -6.0344
# 6 -12.0032 -1.7773 -15.1410 5.4534 -6.0344 31.7536
#
#
#
# Elastic Compliance Matrix: (Units=1/GPa)
#
#
# Indices 1 2 3 4 5 6 
#
# 1 0.011381 -0.001594 0.000053 -0.000890 -0.010260 0.002441
# 2 -0.001594 0.010704 0.001533 0.006389 -0.002355 -0.000817
# 3 0.000053 0.001533 0.019534 0.014928 -0.010257 0.004907
# 4 -0.000890 0.006389 0.014928 0.049503 0.000548 -0.001258
# 5 -0.010260 -0.002355 -0.010257 0.000548 0.045225 -0.000401
# 6 0.002441 -0.000817 0.004907 -0.001258 -0.000401 0.034849
#
#
# Mechanical properties :
#
#
# Convention : Reuss Voigt Hill
#
# Bulk Modulus (GPa) = 24.03664 51.65778 37.84721
# Shear Modulus (GPa) = 27.01531 37.31365 32.16448
#
# Velocity S-wave (km/s) = 3.68320 4.32867 4.01891
# Velocity P-wave (km/s) = 5.49164 7.13607 6.36717
#
# Compressibility (1/GPa) = 0.04160316
#
# Stress axis : x y z
#
# Youngs Moduli (GPa) = 87.86889 93.42111 51.19193
#
# Poissons Ratio (x) = 0.14889 -0.00270
# Poissons Ratio (y) = 0.14004 -0.07848
# Poissons Ratio (z) = -0.00463 -0.14322
#
# Static dielectric constant tensor:
#      x y z
#    x 1.682130 0.042890 0.007630 
#    y 0.042890 1.684770 0.025510 
#    z 0.007630 0.025510 1.661130 
# 
# From -- ./inp_files/461350.got.cif
#   From: 2010.05.17/outbox.cif.g08.bks.cpg/sg2_231_cif.got.tgz:461350.got - 2010.06.03 11:33:40.
