data_PCOD9091898
_publ_section_title
;
Structure prediction by ZEFSAII (Michael W. Deem and Ramdas Pophale) SiO2 
 PCOD9091898
Probable space group: P -1
;
_chemical_formula_sum "Si O2"
_cell_formula_units_Z 14
_cell_length_a 7.658724
_cell_length_b 14.079835
_cell_length_c 11.277166
_cell_angle_alpha 129.170807
_cell_angle_beta 110.120123
_cell_angle_gamma 110.808799
_cell_volume 546.727923
_symmetry_space_group_name_H-M "P -1"
_symmetry_group_IT_number 2
_symmetry_cell_setting 'triclinic'
loop_
_space_group_symop_operation_xyz
x,y,z
-x,-y,-z
loop_
_atom_site_type_symbol
_atom_site_label
_atom_site_fract_x
_atom_site_fract_y
_atom_site_fract_z
Si Si1 0.516719 0.649784 0.098565
Si Si2 0.078430 0.214063 0.241877
Si Si3 0.396662 0.233885 0.525617
Si Si4 0.388074 0.633092 0.658971
Si Si5 0.969363 0.442017 0.085445
Si Si6 0.558565 0.863275 0.115883
Si Si7 0.564298 0.129836 0.305496
O O1 0.616683 0.761147 0.334027
O O2 0.708282 0.822484 0.181939
O O3 0.500000 0.500000 0.000000
O O4 0.171167 0.501018 0.858978
O O5 0.140126 0.162726 0.331821
O O6 0.182593 0.406706 0.442212
O O7 0.298076 0.262061 0.234700
O O8 0.742104 0.041812 0.978639
O O9 0.718089 0.465115 0.748372
O O10 0.470013 0.136879 0.416458
O O11 0.273645 0.672128 0.565599
O O12 0.430344 0.736179 0.867023
O O13 0.000000 0.500000 0.000000
O O14 0.698788 0.229165 0.918588
O O15 0.711220 0.073063 0.295956
#
# Coordination Sequence:
#
# PCOD9091898 Si02
#       7
#     2   2   2   2   2   2   2
#     4   9  19  37  65  93 117 155 207 260 308 362
#     4  10  23  40  63  89 123 172 208 247 306 366
#     4  10  19  40  63  88 125 163 204 251 309 367
#     4  10  21  39  60  87 124 167 203 250 306 356
#     4   8  19  38  61  92 118 160 205 246 310 371
#     4  10  22  38  61  93 126 155 207 260 304 365
#     4  11  24  40  60  92 129 166 208 249 300 373
#
# _framework density 25.606887
#
# number of rings (size 3 to 8) (size 9 to 14) (size 15 to 20)
#    0.857    1.429    0.000    3.000    6.000    1.143 
#    2.571    1.429    0.000    4.286    0.000    0.000 
#    0.000    0.000    0.000    0.000    0.000    0.000 
#
# Total GULP energy -77964.596395 kJ/mol
# GULP energy per Si atom -5568.899742 kJ/mol
# Density = 2.554860 g / cm^3
# Si number density = 25.606887 Si / 1000 Ang^3
#
#
#
# Elastic Constant Matrix: (Units=GPa)
#
#
# Indices 1 2 3 4 5 6 
#
# 1 100.4681 41.2149 27.5137 9.3004 -20.0843 -17.6733
# 2 41.2149 120.9446 38.9600 -15.5793 -41.6064 -22.7799
# 3 27.5137 38.9600 85.7322 -8.5580 -33.1873 -2.4992
# 4 9.3004 -15.5793 -8.5580 42.6669 1.2271 -13.8499
# 5 -20.0843 -41.6064 -33.1873 1.2271 63.4642 9.9553
# 6 -17.6733 -22.7799 -2.4992 -13.8499 9.9553 47.7694
#
#
#
# Elastic Compliance Matrix: (Units=1/GPa)
#
#
# Indices 1 2 3 4 5 6 
#
# 1 0.012938 -0.003736 -0.002832 -0.004221 -0.000011 0.001635
# 2 -0.003736 0.014470 -0.002086 0.007561 0.006073 0.006336
# 3 -0.002832 -0.002086 0.016196 0.002311 0.006454 -0.001870
# 4 -0.004221 0.007561 0.002311 0.030950 0.002568 0.010603
# 5 -0.000011 0.006073 0.006454 0.002568 0.023195 -0.000860
# 6 0.001635 0.006336 -0.001870 0.010603 -0.000860 0.027716
#
#
# Mechanical properties :
#
#
# Convention : Reuss Voigt Hill
#
# Bulk Modulus (GPa) = 38.03090 58.05800 48.04445
# Shear Modulus (GPa) = 32.99496 44.07717 38.53606
#
# Velocity S-wave (km/s) = 3.59349 4.15336 3.88353
# Velocity P-wave (km/s) = 5.66583 6.76184 6.23795
#
# Compressibility (1/GPa) = 0.02629441
#
# Stress axis : x y z
#
# Youngs Moduli (GPa) = 77.29217 69.10870 61.74436
#
# Poissons Ratio (x) = 0.25819 0.17487
# Poissons Ratio (y) = 0.28877 0.12882
# Poissons Ratio (z) = 0.21891 0.14419
#
# Static dielectric constant tensor:
#      x y z
#    x 2.111160 0.046180 0.074340 
#    y 0.046180 2.157190 0.099260 
#    z 0.074340 0.099260 2.397740 
# 
# From -- ./inp_files/397811.got.cif
#   From: 2010.05.17/outbox.cif.g08.bks.cpg/sg2_199_cif.got.tgz:397811.got - 2010.06.03 11:33:40.
