data_PCOD9091775
_publ_section_title
;
Structure prediction by ZEFSAII (Michael W. Deem and Ramdas Pophale) SiO2 
 PCOD9091775
Probable space group: P -1
;
_chemical_formula_sum "Si O2"
_cell_formula_units_Z 14
_cell_length_a 7.402424
_cell_length_b 11.708930
_cell_length_c 12.369881
_cell_angle_alpha 87.237141
_cell_angle_beta 86.491117
_cell_angle_gamma 35.414969
_cell_volume 620.138885
_symmetry_space_group_name_H-M "P -1"
_symmetry_group_IT_number 2
_symmetry_cell_setting 'triclinic'
loop_
_space_group_symop_operation_xyz
x,y,z
-x,-y,-z
loop_
_atom_site_type_symbol
_atom_site_label
_atom_site_fract_x
_atom_site_fract_y
_atom_site_fract_z
Si Si1 0.681007 0.020594 0.740758
Si Si2 0.705425 0.569140 0.517012
Si Si3 0.381243 0.604278 0.342448
Si Si4 0.709735 0.582152 0.177080
Si Si5 0.568103 0.838321 0.802778
Si Si6 0.833753 0.067418 0.358530
Si Si7 0.709192 0.072768 0.974394
O O1 0.567364 0.952990 0.725017
O O2 0.963861 0.922229 0.664935
O O3 0.411114 0.255734 0.743327
O O4 0.214379 0.034197 0.133666
O O5 0.642706 0.518735 0.419892
O O6 0.704587 0.480658 0.621554
O O7 0.398027 0.803627 0.538736
O O8 0.000000 0.500000 0.500000
O O9 0.523252 0.564924 0.222887
O O10 0.074818 0.838952 0.361263
O O11 0.574652 0.698114 0.063725
O O12 0.075288 0.378584 0.179945
O O13 0.377239 0.842635 0.743869
O O14 0.396116 0.945361 0.918195
O O15 0.000000 0.000000 0.000000
#
# Coordination Sequence:
#
# PCOD9091775 Si02
#       7
#     2   2   2   2   2   2   2
#     4   9  22  38  59  84 121 158 192 241 286 344
#     4  11  24  40  65  89 115 151 198 244 296 354
#     4  10  22  44  60  86 123 151 192 247 294 349
#     4   9  21  37  61  86 118 154 197 242 284 347
#     4  12  20  37  62  87 121 158 198 237 288 341
#     4  11  23  39  62  88 120 157 191 241 296 350
#     4  10  19  40  59  85 124 157 195 242 287 340
#
# _framework density 22.575590999999999
#
# number of rings (size 3 to 8) (size 9 to 14) (size 15 to 20)
#    0.857    0.857    1.429    3.000    0.000    5.143 
#    0.000    2.143    0.000    0.000    0.000    0.000 
#    0.000    0.000    0.000    0.000    0.000    0.000 
#
# Total GULP energy -78191.832271 kJ/mol
# GULP energy per Si atom -5585.130876 kJ/mol
# Density = 2.252421 g / cm^3
# Si number density = 22.575591 Si / 1000 Ang^3
#
#
#
# Elastic Constant Matrix: (Units=GPa)
#
#
# Indices 1 2 3 4 5 6 
#
# 1 97.0129 33.4313 32.7486 0.0484 -35.9240 -18.9283
# 2 33.4313 89.1108 5.7158 5.1677 -16.5265 -19.1475
# 3 32.7486 5.7158 56.5385 1.2274 -15.9602 -8.0894
# 4 0.0484 5.1677 1.2274 34.6077 1.2725 -7.6074
# 5 -35.9240 -16.5265 -15.9602 1.2725 41.0718 5.1442
# 6 -18.9283 -19.1475 -8.0894 -7.6074 5.1442 24.3591
#
#
#
# Elastic Compliance Matrix: (Units=1/GPa)
#
#
# Indices 1 2 3 4 5 6 
#
# 1 0.019887 -0.002904 -0.006441 0.002166 0.012520 0.009064
# 2 -0.002904 0.014785 0.002440 -0.000342 0.003192 0.009395
# 3 -0.006441 0.002440 0.022747 -0.000530 0.003764 0.003506
# 4 0.002166 -0.000342 -0.000530 0.031464 -0.000832 0.011240
# 5 0.012520 0.003192 0.003764 -0.000832 0.037404 0.005329
# 6 0.009064 0.009395 0.003506 0.011240 0.005329 0.059030
#
#
# Mechanical properties :
#
#
# Convention : Reuss Voigt Hill
#
# Bulk Modulus (GPa) = 22.93108 42.93930 32.93519
# Shear Modulus (GPa) = 23.40139 31.39216 27.39678
#
# Velocity S-wave (km/s) = 3.22309 3.73303 3.48739
# Velocity P-wave (km/s) = 4.90210 6.13533 5.55305
#
# Compressibility (1/GPa) = 0.04360894
#
# Stress axis : x y z
#
# Youngs Moduli (GPa) = 50.28525 67.63463 43.96164
#
# Poissons Ratio (x) = 0.19638 0.28316
# Poissons Ratio (y) = 0.14601 -0.10725
# Poissons Ratio (z) = 0.32389 -0.16501
#
# Static dielectric constant tensor:
#      x y z
#    x 1.820290 0.036320 -0.000090 
#    y 0.036320 1.841480 -0.025650 
#    z -0.000090 -0.025650 1.885940 
# 
# From -- ./inp_files/135400.got.cif
#   From: 2010.05.17/outbox.cif.g08.bks.cpg/sg2_68_cif.got.tgz:135400.got - 2010.06.03 11:33:40.
