data_PCOD9091372
_publ_section_title
;
Structure prediction by ZEFSAII (Michael W. Deem and Ramdas Pophale) SiO2 
 PCOD9091372
Probable space group: P -1
;
_chemical_formula_sum "Si O2"
_cell_formula_units_Z 16
_cell_length_a 8.911022
_cell_length_b 15.323239
_cell_length_c 7.593788
_cell_angle_alpha 76.838814
_cell_angle_beta 100.593551
_cell_angle_gamma 44.658788
_cell_volume 612.433804
_symmetry_space_group_name_H-M "P -1"
_symmetry_group_IT_number 2
_symmetry_cell_setting 'triclinic'
loop_
_space_group_symop_operation_xyz
x,y,z
-x,-y,-z
loop_
_atom_site_type_symbol
_atom_site_label
_atom_site_fract_x
_atom_site_fract_y
_atom_site_fract_z
Si Si1 0.988850 0.795324 0.668568
Si Si2 0.064128 0.913891 0.379188
Si Si3 0.575542 0.388210 0.924888
Si Si4 0.329677 0.165624 0.207479
Si Si5 0.068127 0.679922 0.198223
Si Si6 0.690627 0.019409 0.022374
Si Si7 0.560100 0.770296 0.459200
Si Si8 0.906349 0.440534 0.385422
O O1 0.737640 0.895634 0.675671
O O2 0.014648 0.837668 0.477200
O O3 0.040091 0.670109 0.678415
O O4 0.175200 0.758870 0.858450
O O5 0.342226 0.799181 0.424966
O O6 0.869145 0.015667 0.133799
O O7 0.000000 0.000000 0.500000
O O8 0.424351 0.190604 0.362960
O O9 0.369824 0.410743 0.814065
O O10 0.674007 0.397248 0.773858
O O11 0.500000 0.500000 0.000000
O O12 0.517477 0.074883 0.126446
O O13 0.066857 0.312561 0.991536
O O14 0.874849 0.851683 0.099498
O O15 0.099620 0.603145 0.406552
O O16 0.528919 0.126745 0.771758
O O17 0.846878 0.613155 0.551662
#
# Coordination Sequence:
#
# PCOD9091372 Si02
#       8
#     2   2   2   2   2   2   2   2
#     4   9  21  39  63  94 128 167 212 257 319 371
#     4  12  25  41  61  91 136 182 206 252 316 389
#     4   9  20  38  64  94 123 159 212 271 320 368
#     4  10  22  39  63  94 129 168 208 265 314 376
#     4  11  21  35  66  97 124 160 212 267 324 369
#     4  12  24  40  62  96 131 174 211 259 317 380
#     4  11  25  41  63  93 135 171 215 255 316 383
#     4  10  19  39  65  94 121 162 215 269 309 366
#
# _framework density 26.125273
#
# number of rings (size 3 to 8) (size 9 to 14) (size 15 to 20)
#    0.000    1.500    3.750    1.875    3.500    1.000 
#    0.000    0.625    0.000    0.750    0.000    0.000 
#    0.000    0.000    0.000    0.000    0.000    0.000 
#
# Total GULP energy -89378.747221 kJ/mol
# GULP energy per Si atom -5586.171701 kJ/mol
# Density = 2.606581 g / cm^3
# Si number density = 26.125273 Si / 1000 Ang^3
#
#
#
# Elastic Constant Matrix: (Units=GPa)
#
#
# Indices 1 2 3 4 5 6 
#
# 1 62.5999 40.6762 40.7174 2.1825 18.3627 -25.0504
# 2 40.6762 125.9598 45.8187 24.0650 -4.1998 -40.0099
# 3 40.7174 45.8187 167.3288 12.5193 36.3951 -20.0300
# 4 2.1825 24.0650 12.5193 41.2224 -21.9195 2.1489
# 5 18.3627 -4.1998 36.3951 -21.9195 40.6728 -6.5867
# 6 -25.0504 -40.0099 -20.0300 2.1489 -6.5867 54.5357
#
#
#
# Elastic Compliance Matrix: (Units=1/GPa)
#
#
# Indices 1 2 3 4 5 6 
#
# 1 0.027225 -0.005870 -0.000698 -0.005761 -0.014335 0.006438
# 2 -0.005870 0.014229 -0.002048 -0.005532 0.004221 0.007718
# 3 -0.000698 -0.002048 0.010735 -0.009889 -0.014713 0.000732
# 4 -0.005761 -0.005532 -0.009889 0.050899 0.037035 -0.007869
# 5 -0.014335 0.004221 -0.014713 0.037035 0.064198 -0.002597
# 6 0.006438 0.007718 0.000732 -0.007869 -0.002597 0.027222
#
#
# Mechanical properties :
#
#
# Convention : Reuss Voigt Hill
#
# Bulk Modulus (GPa) = 28.60736 67.81257 48.20996
# Shear Modulus (GPa) = 22.38221 42.53125 32.45673
#
# Velocity S-wave (km/s) = 2.93016 4.03919 3.52852
# Velocity P-wave (km/s) = 4.73515 6.91133 5.92402
#
# Compressibility (1/GPa) = 0.03495604
#
# Stress axis : x y z
#
# Youngs Moduli (GPa) = 36.73110 70.27962 93.15708
#
# Poissons Ratio (x) = 0.41256 0.06500
# Poissons Ratio (y) = 0.21562 0.19079
# Poissons Ratio (z) = 0.02563 0.14394
#
# Static dielectric constant tensor:
#      x y z
#    x 2.099420 0.019410 0.049190 
#    y 0.019410 2.217560 -0.060970 
#    z 0.049190 -0.060970 2.100590 
# 
# From -- ./inp_files/285914.got.cif
#   From: 2010.05.17/outbox.cif.g08.bks.cpg/sg2_143_cif.got.tgz:285914.got - 2010.06.03 11:33:40.
