data_PCOD9091934
_publ_section_title
;
Structure prediction by ZEFSAII (Michael W. Deem and Ramdas Pophale) SiO2 
 PCOD9091934
Probable space group: P -1
;
_chemical_formula_sum "Si O2"
_cell_formula_units_Z 14
_cell_length_a 8.024698
_cell_length_b 13.782260
_cell_length_c 9.636833
_cell_angle_alpha 48.271828
_cell_angle_beta 80.987447
_cell_angle_gamma 58.834482
_cell_volume 650.533944
_symmetry_space_group_name_H-M "P -1"
_symmetry_group_IT_number 2
_symmetry_cell_setting 'triclinic'
loop_
_space_group_symop_operation_xyz
x,y,z
-x,-y,-z
loop_
_atom_site_type_symbol
_atom_site_label
_atom_site_fract_x
_atom_site_fract_y
_atom_site_fract_z
Si Si1 0.659365 0.920835 0.180566
Si Si2 0.723849 0.624824 0.413875
Si Si3 0.759176 0.194422 0.696456
Si Si4 0.842664 0.418118 0.326588
Si Si5 0.298501 0.280937 0.393401
Si Si6 0.505303 0.636949 0.942316
Si Si7 0.151316 0.881610 0.945461
O O1 0.800821 0.740854 0.279583
O O2 0.596175 0.878657 0.375704
O O3 0.755658 0.016193 0.120263
O O4 0.500000 0.000000 0.000000
O O5 0.478600 0.731276 0.328465
O O6 0.814059 0.500167 0.400704
O O7 0.746959 0.586987 0.610415
O O8 0.790364 0.291298 0.486028
O O9 0.826442 0.208267 0.829500
O O10 0.915545 0.009795 0.818381
O O11 0.681040 0.551425 0.117326
O O12 0.075099 0.330121 0.330143
O O13 0.432224 0.280378 0.255008
O O14 0.500000 0.500000 0.000000
O O15 0.291545 0.762614 0.922375
#
# Coordination Sequence:
#
# PCOD9091934 Si02
#       7
#     2   2   2   2   2   2   2
#     4  10  19  40  63  98 129 164 219 270 326 383
#     4  10  21  38  68 100 126 167 223 272 318 384
#     4  11  21  39  68  98 128 167 221 270 328 368
#     4  12  22  43  69  96 134 176 221 271 322 388
#     4  10  24  41  66  95 135 169 220 260 335 391
#     4  12  27  46  64  97 135 179 220 265 332 396
#     4  11  23  41  65  97 133 169 215 276 326 386
#
# _framework density 21.520783000000002
#
# number of rings (size 3 to 8) (size 9 to 14) (size 15 to 20)
#    0.857    0.286    4.286    2.143    2.000    0.571 
#    2.571    4.286    0.000    0.000    0.000    0.000 
#    0.000    0.000    0.000    0.000    0.000    0.000 
#
# Total GULP energy -78038.603053 kJ/mol
# GULP energy per Si atom -5574.185932 kJ/mol
# Density = 2.147180 g / cm^3
# Si number density = 21.520783 Si / 1000 Ang^3
#
#
#
# Elastic Constant Matrix: (Units=GPa)
#
#
# Indices 1 2 3 4 5 6 
#
# 1 69.3941 37.8115 17.1697 -7.9725 -0.2618 -20.4003
# 2 37.8115 101.8414 16.1861 9.4100 0.9846 -24.0120
# 3 17.1697 16.1861 119.2370 9.8751 -3.8648 -20.8484
# 4 -7.9725 9.4100 9.8751 22.1640 -6.2704 -1.8338
# 5 -0.2618 0.9846 -3.8648 -6.2704 32.0207 -3.3363
# 6 -20.4003 -24.0120 -20.8484 -1.8338 -3.3363 40.4050
#
#
#
# Elastic Compliance Matrix: (Units=1/GPa)
#
#
# Indices 1 2 3 4 5 6 
#
# 1 0.022834 -0.007904 -0.002094 0.014083 0.003632 0.006690
# 2 -0.007904 0.014589 0.000660 -0.009481 -0.001828 0.004439
# 3 -0.002094 0.000660 0.009755 -0.004855 0.000627 0.004200
# 4 0.014083 -0.009481 -0.004855 0.059942 0.011837 0.002669
# 5 0.003632 -0.001828 0.000627 0.011837 0.034171 0.004430
# 6 0.006690 0.004439 0.004200 0.002669 0.004430 0.033419
#
#
# Mechanical properties :
#
#
# Convention : Reuss Voigt Hill
#
# Bulk Modulus (GPa) = 35.08519 48.08967 41.58743
# Shear Modulus (GPa) = 24.64440 33.53828 29.09134
#
# Velocity S-wave (km/s) = 3.38767 3.95196 3.68064
# Velocity P-wave (km/s) = 5.62495 6.57405 6.11793
#
# Compressibility (1/GPa) = 0.02850205
#
# Stress axis : x y z
#
# Youngs Moduli (GPa) = 43.79528 68.54467 102.50774
#
# Poissons Ratio (x) = 0.54176 0.21464
# Poissons Ratio (y) = 0.34615 -0.06763
# Poissons Ratio (z) = 0.09170 -0.04522
#
# Static dielectric constant tensor:
#      x y z
#    x 1.867180 0.012810 -0.006470 
#    y 0.012810 1.783150 -0.022680 
#    z -0.006470 -0.022680 1.840410 
# 
# From -- ./inp_files/199376.got.cif
#   From: 2010.05.17/outbox.cif.g08.bks.cpg/sg2_100_cif.got.tgz:199376.got - 2010.06.03 11:33:40.
