data_PCOD9091213
_publ_section_title
;
Structure prediction by ZEFSAII (Michael W. Deem and Ramdas Pophale) SiO2 
 PCOD9091213
Probable space group: P -1
;
_chemical_formula_sum "Si O2"
_cell_formula_units_Z 16
_cell_length_a 15.039850
_cell_length_b 9.677010
_cell_length_c 9.639459
_cell_angle_alpha 68.662571
_cell_angle_beta 140.664366
_cell_angle_gamma 93.778387
_cell_volume 771.148469
_symmetry_space_group_name_H-M "P -1"
_symmetry_group_IT_number 2
_symmetry_cell_setting 'triclinic'
loop_
_space_group_symop_operation_xyz
x,y,z
-x,-y,-z
loop_
_atom_site_type_symbol
_atom_site_label
_atom_site_fract_x
_atom_site_fract_y
_atom_site_fract_z
Si Si1 0.688361 0.309272 0.793518
Si Si2 0.847444 0.131199 0.325713
Si Si3 0.771307 0.928230 0.533531
Si Si4 0.039183 0.338037 0.523359
Si Si5 0.964129 0.378888 0.099032
Si Si6 0.568160 0.797423 0.496676
Si Si7 0.832615 0.050864 0.832888
Si Si8 0.299197 0.140004 0.086969
O O1 0.514169 0.328766 0.575382
O O2 0.754556 0.208194 0.769913
O O3 0.749518 0.209395 0.045109
O O4 0.784898 0.422640 0.871508
O O5 0.915005 0.255227 0.431709
O O6 0.762825 0.043385 0.351446
O O7 0.000000 0.000000 0.500000
O O8 0.942290 0.799533 0.778960
O O9 0.672251 0.820087 0.489013
O O10 0.739514 0.042385 0.587426
O O11 0.024463 0.374072 0.329064
O O12 0.000000 0.500000 0.500000
O O13 0.211370 0.234201 0.813296
O O14 0.000000 0.500000 0.000000
O O15 0.646953 0.775138 0.752383
O O16 0.434224 0.973960 0.277899
O O17 0.829363 0.909767 0.978848
O O18 0.000000 0.000000 0.000000
#
# Coordination Sequence:
#
# PCOD9091213 Si02
#       8
#     2   2   2   2   2   2   2   2
#     4  10  20  37  59  86 126 156 195 261 313 366
#     4  11  19  38  60  94 124 152 210 273 309 344
#     4  11  21  35  61  94 120 160 208 262 305 365
#     4  11  24  39  66  88 126 172 203 258 315 371
#     4  11  25  40  58  91 124 159 215 265 307 361
#     4   9  20  35  62  94 123 162 196 260 315 371
#     4  10  16  28  57  88 110 149 194 250 302 343
#     4   9  19  36  56  90 127 153 207 245 306 374
#
# _framework density 20.748275
#
# number of rings (size 3 to 8) (size 9 to 14) (size 15 to 20)
#    0.000    1.750    3.750    3.000    3.500    1.500 
#    0.000    0.625    0.000    1.500    0.000    0.000 
#    0.000    0.000    0.000    0.000    0.000    0.000 
#
# Total GULP energy -89123.419277 kJ/mol
# GULP energy per Si atom -5570.213705 kJ/mol
# Density = 2.070105 g / cm^3
# Si number density = 20.748275 Si / 1000 Ang^3
#
#
#
# Elastic Constant Matrix: (Units=GPa)
#
#
# Indices 1 2 3 4 5 6 
#
# 1 124.3706 25.9650 44.0592 4.4634 -3.5513 29.1786
# 2 25.9650 66.4007 26.0013 14.6044 -7.9996 7.9691
# 3 44.0592 26.0013 105.2453 12.6846 -1.5555 7.2259
# 4 4.4634 14.6044 12.6846 20.9817 1.5714 -0.4639
# 5 -3.5513 -7.9996 -1.5555 1.5714 37.8758 2.0750
# 6 29.1786 7.9691 7.2259 -0.4639 2.0750 42.9570
#
#
#
# Elastic Compliance Matrix: (Units=1/GPa)
#
#
# Indices 1 2 3 4 5 6 
#
# 1 0.011465 -0.002359 -0.003909 0.001364 0.000727 -0.006712
# 2 -0.002359 0.020527 -0.002325 -0.012778 0.004668 -0.002178
# 3 -0.003909 -0.002325 0.012234 -0.004909 -0.000206 0.000986
# 4 0.001364 -0.012778 -0.004909 0.059709 -0.005424 0.003177
# 5 0.000727 0.004668 -0.000206 -0.005424 0.027822 -0.002728
# 6 -0.006712 -0.002178 0.000986 0.003177 -0.002728 0.028243
#
#
# Mechanical properties :
#
#
# Convention : Reuss Voigt Hill
#
# Bulk Modulus (GPa) = 36.98435 54.22975 45.60705
# Shear Modulus (GPa) = 26.85294 33.69565 30.27429
#
# Velocity S-wave (km/s) = 3.60144 4.03429 3.82399
# Velocity P-wave (km/s) = 5.92940 6.92058 6.44407
#
# Compressibility (1/GPa) = 0.02703846
#
# Stress axis : x y z
#
# Youngs Moduli (GPa) = 87.22555 48.71544 81.74243
#
# Poissons Ratio (x) = 0.11491 0.31956
# Poissons Ratio (y) = 0.20575 0.19007
# Poissons Ratio (z) = 0.34100 0.11327
#
# Static dielectric constant tensor:
#      x y z
#    x 1.758740 0.021300 0.010700 
#    y 0.021300 1.857880 0.024510 
#    z 0.010700 0.024510 1.780690 
# 
# From -- ./inp_files/298033.got.cif
#   From: 2010.05.17/outbox.cif.g08.bks.cpg/sg2_150_cif.got.tgz:298033.got - 2010.06.03 11:33:40.
