data_PCOD9091919
_publ_section_title
;
Structure prediction by ZEFSAII (Michael W. Deem and Ramdas Pophale) SiO2 
 PCOD9091919
Probable space group: P -1
;
_chemical_formula_sum "Si O2"
_cell_formula_units_Z 14
_cell_length_a 11.464812
_cell_length_b 9.136368
_cell_length_c 9.081966
_cell_angle_alpha 53.182814
_cell_angle_beta 63.405651
_cell_angle_gamma 69.341750
_cell_volume 676.231238
_symmetry_space_group_name_H-M "P -1"
_symmetry_group_IT_number 2
_symmetry_cell_setting 'triclinic'
loop_
_space_group_symop_operation_xyz
x,y,z
-x,-y,-z
loop_
_atom_site_type_symbol
_atom_site_label
_atom_site_fract_x
_atom_site_fract_y
_atom_site_fract_z
Si Si1 0.899654 0.499440 0.425011
Si Si2 0.669239 0.900847 0.822126
Si Si3 0.571824 0.980041 0.311612
Si Si4 0.876763 0.917829 0.193361
Si Si5 0.618355 0.654007 0.263776
Si Si6 0.066492 0.157362 0.450974
Si Si7 0.670934 0.330141 0.617578
O O1 0.870486 0.709081 0.262681
O O2 0.774641 0.410609 0.614143
O O3 0.000000 0.500000 0.500000
O O4 0.972120 0.346717 0.368775
O O5 0.788562 0.822881 0.699738
O O6 0.528335 0.907081 0.815764
O O7 0.690681 0.112873 0.715416
O O8 0.677816 0.786275 0.036336
O O9 0.725537 0.017244 0.205933
O O10 0.581256 0.773640 0.360935
O O11 0.500000 0.000000 0.500000
O O12 0.914396 0.897144 0.356279
O O13 0.000000 0.000000 0.000000
O O14 0.691257 0.456278 0.385548
O O15 0.480291 0.619553 0.290044
O O16 0.000000 0.000000 0.500000
#
# Coordination Sequence:
#
# PCOD9091919 Si02
#       7
#     2   2   2   2   2   2   2
#     4  10  22  40  64  89 134 179 215 269 339 400
#     4  11  23  41  67 100 132 175 222 279 336 397
#     4  11  21  40  67  94 131 171 223 278 332 396
#     4  11  25  44  67  96 132 181 221 271 344 402
#     4  10  23  38  67  97 129 175 221 271 339 400
#     4  11  23  41  65  96 134 172 224 279 329 396
#     4  10  19  40  63  92 129 173 219 271 328 397
#
# _framework density 20.702976
#
# number of rings (size 3 to 8) (size 9 to 14) (size 15 to 20)
#    0.000    1.429    4.286    1.714    2.000    2.286 
#    2.571    1.429    0.000   16.286    0.000    0.000 
#    0.000    0.000    0.000    0.000    0.000    0.000 
#
# Total GULP energy -78007.172863 kJ/mol
# GULP energy per Si atom -5571.940919 kJ/mol
# Density = 2.065586 g / cm^3
# Si number density = 20.702976 Si / 1000 Ang^3
#
#
#
# Elastic Constant Matrix: (Units=GPa)
#
#
# Indices 1 2 3 4 5 6 
#
# 1 137.5838 33.2846 37.2975 0.2627 -19.9719 -5.7180
# 2 33.2846 77.1988 58.4214 -2.7118 -7.7540 -4.4291
# 3 37.2975 58.4214 144.9657 -2.5408 -4.4023 -5.1326
# 4 0.2627 -2.7118 -2.5408 27.2221 -2.0570 -1.3781
# 5 -19.9719 -7.7540 -4.4023 -2.0570 33.7431 -0.1706
# 6 -5.7180 -4.4291 -5.1326 -1.3781 -0.1706 36.5150
#
#
#
# Elastic Compliance Matrix: (Units=1/GPa)
#
#
# Indices 1 2 3 4 5 6 
#
# 1 0.008866 -0.002470 -0.001115 -0.000045 0.004537 0.000952
# 2 -0.002470 0.019825 -0.007220 0.001549 0.002251 0.001072
# 3 -0.001115 -0.007220 0.010081 0.000176 -0.000991 0.000369
# 4 -0.000045 0.001549 0.000176 0.037187 0.002628 0.001621
# 5 0.004537 0.002251 -0.000991 0.002628 0.032875 0.001097
# 6 0.000952 0.001072 0.000369 0.001621 0.001097 0.027783
#
#
# Mechanical properties :
#
#
# Convention : Reuss Voigt Hill
#
# Bulk Modulus (GPa) = 58.27231 68.63947 63.45589
# Shear Modulus (GPa) = 30.49741 34.87902 32.68822
#
# Velocity S-wave (km/s) = 3.84225 4.10900 3.97787
# Velocity P-wave (km/s) = 6.92039 7.46581 7.19827
#
# Compressibility (1/GPa) = 0.01716081
#
# Stress axis : x y z
#
# Youngs Moduli (GPa) = 112.78568 50.44173 99.19728
#
# Poissons Ratio (x) = 0.12461 0.11060
# Poissons Ratio (y) = 0.27861 0.71624
# Poissons Ratio (z) = 0.12575 0.36421
#
# Static dielectric constant tensor:
#      x y z
#    x 1.858430 0.018370 -0.017220 
#    y 0.018370 1.752760 0.011140 
#    z -0.017220 0.011140 1.701240 
# 
# From -- ./inp_files/226798.got.cif
#   From: 2010.05.17/outbox.cif.g08.bks.cpg/sg2_114_cif.got.tgz:226798.got - 2010.06.03 11:33:40.
