data_PCOD9091706
_publ_section_title
;
Structure prediction by ZEFSAII (Michael W. Deem and Ramdas Pophale) SiO2 
 PCOD9091706
Probable space group: P -1
;
_chemical_formula_sum "Si O2"
_cell_formula_units_Z 16
_cell_length_a 9.812652
_cell_length_b 23.792006
_cell_length_c 27.300307
_cell_angle_alpha 164.420075
_cell_angle_beta 154.788382
_cell_angle_gamma 21.649303
_cell_volume 628.670493
_symmetry_space_group_name_H-M "P -1"
_symmetry_group_IT_number 2
_symmetry_cell_setting 'triclinic'
loop_
_space_group_symop_operation_xyz
x,y,z
-x,-y,-z
loop_
_atom_site_type_symbol
_atom_site_label
_atom_site_fract_x
_atom_site_fract_y
_atom_site_fract_z
Si Si1 0.632643 0.255721 0.869057
Si Si2 0.215329 0.514788 0.195638
Si Si3 0.700401 0.293663 0.710999
Si Si4 0.428519 0.371318 0.323397
Si Si5 0.549351 0.941481 0.180509
Si Si6 0.348547 0.472277 0.559942
Si Si7 0.093354 0.815416 0.993019
Si Si8 0.756608 0.869181 0.518768
O O1 0.224930 0.321020 0.808446
O O2 0.871402 0.040480 0.727546
O O3 0.500000 0.500000 0.000000
O O4 0.862778 0.184279 0.933953
O O5 0.333157 0.657387 0.316129
O O6 0.387035 0.501036 0.292568
O O7 0.350599 0.255609 0.995610
O O8 0.441364 0.553540 0.870355
O O9 0.504326 0.147817 0.539723
O O10 0.108562 0.173447 0.765928
O O11 0.500000 0.500000 0.500000
O O12 0.714859 0.343362 0.350512
O O13 0.291459 0.187164 0.140507
O O14 0.053513 0.602935 0.374747
O O15 0.514827 0.191809 0.360732
O O16 0.185013 0.978162 0.122637
O O17 0.000000 0.500000 0.500000
O O18 0.500000 0.000000 0.500000
#
# Coordination Sequence:
#
# PCOD9091706 Si02
#       8
#     2   2   2   2   2   2   2   2
#     4  12  22  35  65 104 139 170 228 292 353 423
#     4  11  23  42  69 106 142 173 226 297 354 413
#     4  10  19  39  70 102 136 174 217 283 365 416
#     4  11  27  52  70  95 147 192 231 291 364 430
#     4  11  22  43  75 103 140 180 228 292 360 408
#     4  12  30  47  70  99 138 191 250 285 337 429
#     4  10  21  41  68 105 135 175 228 286 355 424
#     4  11  24  40  69 102 137 184 231 287 360 416
#
# _framework density 25.450533
#
# number of rings (size 3 to 8) (size 9 to 14) (size 15 to 20)
#    0.000    1.000    2.500    5.250    8.750    1.500 
#    0.000    1.250    0.000    0.000    0.000    0.000 
#    0.000    0.000    0.000    0.000    0.000    0.000 
#
# Total GULP energy -89456.856097 kJ/mol
# GULP energy per Si atom -5591.053506 kJ/mol
# Density = 2.539261 g / cm^3
# Si number density = 25.450533 Si / 1000 Ang^3
#
#
#
# Elastic Constant Matrix: (Units=GPa)
#
#
# Indices 1 2 3 4 5 6 
#
# 1 120.3645 6.1687 22.8294 8.4969 3.5953 1.3805
# 2 6.1687 41.7197 13.4188 -5.2772 3.7673 -1.2678
# 3 22.8294 13.4188 83.4011 7.2367 -2.1347 2.4231
# 4 8.4969 -5.2772 7.2367 40.8662 6.0704 -0.1254
# 5 3.5953 3.7673 -2.1347 6.0704 51.0945 -0.0081
# 6 1.3805 -1.2678 2.4231 -0.1254 -0.0081 43.7654
#
#
#
# Elastic Compliance Matrix: (Units=1/GPa)
#
#
# Indices 1 2 3 4 5 6 
#
# 1 0.008883 -0.000760 -0.002187 -0.001487 -0.000484 -0.000185
# 2 -0.000760 0.026423 -0.004556 0.004774 -0.002652 0.001055
# 3 -0.002187 -0.004556 0.013620 -0.002754 0.001386 -0.000825
# 4 -0.001487 0.004774 -0.002754 0.026404 -0.003499 0.000413
# 5 -0.000484 -0.002652 0.001386 -0.003499 0.020275 -0.000145
# 6 -0.000185 0.001055 -0.000825 0.000413 -0.000145 0.022932
#
#
# Mechanical properties :
#
#
# Convention : Reuss Voigt Hill
#
# Bulk Modulus (GPa) = 29.48129 36.70213 33.09171
# Shear Modulus (GPa) = 34.51811 40.68310 37.60060
#
# Velocity S-wave (km/s) = 3.68677 4.00248 3.84787
# Velocity P-wave (km/s) = 5.45270 5.98432 5.72468
#
# Compressibility (1/GPa) = 0.03391982
#
# Stress axis : x y z
#
# Youngs Moduli (GPa) = 112.56892 37.84629 73.41900
#
# Poissons Ratio (x) = 0.02876 0.16060
# Poissons Ratio (y) = 0.08554 0.33450
# Poissons Ratio (z) = 0.24623 0.17243
#
# Static dielectric constant tensor:
#      x y z
#    x 3.983070 0.040370 -0.013730 
#    y 0.040370 2.024510 0.022540 
#    z -0.013730 0.022540 2.098170 
# 
# From -- ./inp_files/608675.got.cif
#   From: 2010.05.17/outbox.cif.g08.bks.cpg/sg2_305_cif.got.tgz:608675.got - 2010.06.03 11:33:40.
