data_PCOD9091685
_publ_section_title
;
Structure prediction by ZEFSAII (Michael W. Deem and Ramdas Pophale) SiO2 
 PCOD9091685
Probable space group: P -1
;
_chemical_formula_sum "Si O2"
_cell_formula_units_Z 14
_cell_length_a 17.191403
_cell_length_b 6.277553
_cell_length_c 17.968684
_cell_angle_alpha 73.382293
_cell_angle_beta 16.870635
_cell_angle_gamma 71.532611
_cell_volume 532.755481
_symmetry_space_group_name_H-M "P -1"
_symmetry_group_IT_number 2
_symmetry_cell_setting 'triclinic'
loop_
_space_group_symop_operation_xyz
x,y,z
-x,-y,-z
loop_
_atom_site_type_symbol
_atom_site_label
_atom_site_fract_x
_atom_site_fract_y
_atom_site_fract_z
Si Si1 0.048438 0.869304 0.582676
Si Si2 0.040047 0.842734 0.052426
Si Si3 0.782561 0.717404 0.700164
Si Si4 0.683025 0.879413 0.119894
Si Si5 0.317255 0.481297 0.739519
Si Si6 0.314281 0.769853 0.020367
Si Si7 0.963053 0.493413 0.266532
O O1 0.839236 0.766395 0.729574
O O2 0.198511 0.656811 0.515266
O O3 0.196551 0.033334 0.379183
O O4 0.890725 0.044397 0.767168
O O5 0.291281 0.666150 0.809615
O O6 0.092575 0.010661 0.051815
O O7 0.861789 0.676805 0.275737
O O8 0.000000 0.000000 0.000000
O O9 0.512022 0.660917 0.914160
O O10 0.000000 0.500000 0.500000
O O11 0.554971 0.751576 0.315068
O O12 0.525825 0.090486 0.198572
O O13 0.835723 0.693412 0.944247
O O14 0.500000 0.500000 0.500000
O O15 0.000000 0.500000 0.000000
O O16 0.145968 0.617371 0.142069
#
# Coordination Sequence:
#
# PCOD9091685 Si02
#       7
#     2   2   2   2   2   2   2
#     4  10  22  41  62  92 125 167 217 267 332 401
#     4  10  19  39  69  96 131 171 223 279 340 408
#     4  11  24  39  62  95 127 163 219 272 338 400
#     4   9  20  41  63  93 127 169 219 273 335 407
#     4  11  23  42  67 101 136 180 231 288 348 418
#     4  10  21  42  64  88 127 171 215 269 333 397
#     4   9  20  37  67  90 128 170 220 269 332 397
#
# _framework density 26.278473000000002
#
# number of rings (size 3 to 8) (size 9 to 14) (size 15 to 20)
#    0.000    2.000    1.429    1.286    0.000    7.429 
#    7.714    1.429   22.000    0.000    0.000    0.000 
#    0.000    0.000    0.000    0.000    0.000    0.000 
#
# Total GULP energy -78057.088392 kJ/mol
# GULP energy per Si atom -5575.506314 kJ/mol
# Density = 2.621866 g / cm^3
# Si number density = 26.278473 Si / 1000 Ang^3
#
#
#
# Elastic Constant Matrix: (Units=GPa)
#
#
# Indices 1 2 3 4 5 6 
#
# 1 168.1480 60.2909 34.8877 -7.8028 9.6446 1.7022
# 2 60.2909 137.5176 23.5902 -17.3193 19.8445 -12.0817
# 3 34.8877 23.5902 76.0460 -4.8651 9.9808 -5.5312
# 4 -7.8028 -17.3193 -4.8651 24.9880 -19.0623 36.2283
# 5 9.6446 19.8445 9.9808 -19.0623 41.8384 -13.3551
# 6 1.7022 -12.0817 -5.5312 36.2283 -13.3551 93.3512
#
#
#
# Elastic Compliance Matrix: (Units=1/GPa)
#
#
# Indices 1 2 3 4 5 6 
#
# 1 0.007615 -0.002765 -0.002705 0.003613 0.001247 -0.001881
# 2 -0.002765 0.009613 -0.001265 0.007797 -0.000676 -0.001903
# 3 -0.002705 -0.001265 0.015141 -0.004720 -0.003882 0.002059
# 4 0.003613 0.007797 -0.004720 0.175270 0.057580 -0.059119
# 5 0.001247 -0.000676 -0.003882 0.057580 0.045952 -0.016112
# 6 -0.001881 -0.001903 0.002059 -0.059119 -0.016112 0.031260
#
#
# Mechanical properties :
#
#
# Convention : Reuss Voigt Hill
#
# Bulk Modulus (GPa) = 52.91128 68.80547 60.85838
# Shear Modulus (GPa) = 16.41392 49.56504 32.98948
#
# Velocity S-wave (km/s) = 2.50194 4.34769 3.54698
# Velocity P-wave (km/s) = 5.34086 7.17240 6.32329
#
# Compressibility (1/GPa) = 0.01889956
#
# Stress axis : x y z
#
# Youngs Moduli (GPa) = 131.32201 104.02488 66.04778
#
# Poissons Ratio (x) = 0.28759 0.17867
# Poissons Ratio (y) = 0.36306 0.08353
# Poissons Ratio (z) = 0.35525 0.13155
#
# Static dielectric constant tensor:
#      x y z
#    x 2.180840 -0.124770 -0.045060 
#    y -0.124770 2.168140 -0.157160 
#    z -0.045060 -0.157160 2.145930 
# 
# From -- ./inp_files/115865.got.cif
#   From: 2010.05.17/outbox.cif.g08.bks.cpg/sg2_58_cif.got.tgz:115865.got - 2010.06.03 11:33:40.
