data_PCOD9091477
_publ_section_title
;
Structure prediction by ZEFSAII (Michael W. Deem and Ramdas Pophale) SiO2 
 PCOD9091477
Probable space group: P -1
;
_chemical_formula_sum "Si O2"
_cell_formula_units_Z 15
_cell_length_a 11.333778
_cell_length_b 8.708895
_cell_length_c 17.690707
_cell_angle_alpha 54.979228
_cell_angle_beta 156.987827
_cell_angle_gamma 121.212592
_cell_volume 558.754366
_symmetry_space_group_name_H-M "P -1"
_symmetry_group_IT_number 2
_symmetry_cell_setting 'triclinic'
loop_
_space_group_symop_operation_xyz
x,y,z
-x,-y,-z
loop_
_atom_site_type_symbol
_atom_site_label
_atom_site_fract_x
_atom_site_fract_y
_atom_site_fract_z
Si Si1 0.230192 0.843274 0.329152
Si Si2 0.000000 0.000000 0.000000
Si Si3 0.973554 0.058383 0.381439
Si Si4 0.351191 0.896501 0.051843
Si Si5 0.567259 0.582132 0.162794
Si Si6 0.775038 0.263816 0.489207
Si Si7 0.023117 0.468027 0.244377
Si Si8 0.135246 0.620148 0.114817
O O1 0.400779 0.812834 0.519290
O O2 0.135965 0.631806 0.316285
O O3 0.256734 0.916098 0.237755
O O4 0.954418 0.984236 0.152918
O O5 0.941222 0.786736 0.995209
O O6 0.078525 0.264504 0.369010
O O7 0.616278 0.039732 0.163189
O O8 0.133570 0.904875 0.465369
O O9 0.000000 0.000000 0.500000
O O10 0.380443 0.759388 0.037547
O O11 0.376510 0.755430 0.178851
O O12 0.899692 0.649754 0.320333
O O13 0.614001 0.428671 0.299973
O O14 0.339923 0.505313 0.988960
O O15 0.186246 0.481737 0.254549
O O16 0.000000 0.500000 0.000000
#
# Coordination Sequence:
#
# PCOD9091477 Si02
#       8
#     2   1   2   2   2   2   2   2
#     4  10  21  38  66  92 125 167 209 269 314 385
#     4   8  20  36  60  94 124 162 220 256 312 384
#     4  11  26  42  62  96 131 167 216 275 320 389
#     4  10  21  40  66  89 129 166 213 259 329 383
#     4  10  21  38  60  94 121 167 211 258 317 396
#     4  10  23  38  60  88 135 164 204 266 330 366
#     4  11  23  38  68  97 121 168 224 255 329 393
#     4  10  19  39  66  93 126 169 215 271 315 390
#
# _framework density 26.845428999999999
#
# number of rings (size 3 to 8) (size 9 to 14) (size 15 to 20)
#    0.000    1.867    1.333    1.600    9.333    3.200 
#    0.000    0.667    2.933    8.000    0.000    0.000 
#    0.000    0.000    0.000    0.000    0.000    0.000 
#
# Total GULP energy -83625.636620 kJ/mol
# GULP energy per Si atom -5575.042441 kJ/mol
# Density = 2.678433 g / cm^3
# Si number density = 26.845429 Si / 1000 Ang^3
#
#
#
# Elastic Constant Matrix: (Units=GPa)
#
#
# Indices 1 2 3 4 5 6 
#
# 1 133.4536 40.3554 45.7109 -4.9740 -41.3151 14.4019
# 2 40.3554 75.0364 43.4911 -16.2886 -0.7640 16.9624
# 3 45.7109 43.4911 101.7767 -8.8632 -15.3162 4.6936
# 4 -4.9740 -16.2886 -8.8632 33.7775 12.0613 -15.0453
# 5 -41.3151 -0.7640 -15.3162 12.0613 61.8475 -10.9877
# 6 14.4019 16.9624 4.6936 -15.0453 -10.9877 49.2684
#
#
#
# Elastic Compliance Matrix: (Units=1/GPa)
#
#
# Indices 1 2 3 4 5 6 
#
# 1 0.012833 -0.006586 -0.002042 -0.005420 0.008871 -0.000966
# 2 -0.006586 0.024467 -0.007744 0.009828 -0.008769 -0.004715
# 3 -0.002042 -0.007744 0.014312 -0.000101 0.002537 0.002434
# 4 -0.005420 0.009828 -0.000101 0.040855 -0.009989 0.008459
# 5 0.008871 -0.008769 0.002537 -0.009989 0.025046 0.002720
# 6 -0.000966 -0.004715 0.002434 0.008459 0.002720 0.025160
#
#
# Mechanical properties :
#
#
# Convention : Reuss Voigt Hill
#
# Bulk Modulus (GPa) = 52.99623 63.26463 58.13043
# Shear Modulus (GPa) = 27.51705 41.02595 34.27150
#
# Velocity S-wave (km/s) = 3.20506 3.91350 3.57686
# Velocity P-wave (km/s) = 5.78625 6.63612 6.22570
#
# Compressibility (1/GPa) = 0.01886927
#
# Stress axis : x y z
#
# Youngs Moduli (GPa) = 77.92652 40.87099 69.87076
#
# Poissons Ratio (x) = 0.26918 0.14265
# Poissons Ratio (y) = 0.51323 0.54106
# Poissons Ratio (z) = 0.15910 0.31649
#
# Static dielectric constant tensor:
#      x y z
#    x 2.308780 0.049620 -0.054150 
#    y 0.049620 2.077840 0.057430 
#    z -0.054150 0.057430 2.200360 
# 
# From -- ./inp_files/181156.got.cif
#   From: 2010.05.17/outbox.cif.g08.bks.cpg/sg2_91_cif.got.tgz:181156.got - 2010.06.03 11:33:40.
