data_PCOD9091803
_publ_section_title
;
Structure prediction by ZEFSAII (Michael W. Deem and Ramdas Pophale) SiO2 
 PCOD9091803
Probable space group: P -1
;
_chemical_formula_sum "Si O2"
_cell_formula_units_Z 16
_cell_length_a 9.408917
_cell_length_b 11.781313
_cell_length_c 12.415759
_cell_angle_alpha 66.381928
_cell_angle_beta 83.999403
_cell_angle_gamma 41.431554
_cell_volume 789.704654
_symmetry_space_group_name_H-M "P -1"
_symmetry_group_IT_number 2
_symmetry_cell_setting 'triclinic'
loop_
_space_group_symop_operation_xyz
x,y,z
-x,-y,-z
loop_
_atom_site_type_symbol
_atom_site_label
_atom_site_fract_x
_atom_site_fract_y
_atom_site_fract_z
Si Si1 0.820765 0.147667 0.573573
Si Si2 0.788423 0.785828 0.273238
Si Si3 0.500271 0.239112 0.723991
Si Si4 0.521307 0.207208 0.170762
Si Si5 0.076730 0.405357 0.247771
Si Si6 0.637967 0.585128 0.116866
Si Si7 0.700891 0.269558 0.314239
Si Si8 0.974826 0.324415 0.482588
O O1 0.699651 0.179895 0.676469
O O2 0.641460 0.274289 0.440437
O O3 0.934615 0.206055 0.548966
O O4 0.025922 0.914354 0.627692
O O5 0.555557 0.862650 0.267546
O O6 0.947198 0.611428 0.236662
O O7 0.926886 0.686773 0.411271
O O8 0.701311 0.985134 0.196380
O O9 0.509964 0.238306 0.852173
O O10 0.270967 0.461187 0.616488
O O11 0.300657 0.292999 0.209762
O O12 0.627360 0.218935 0.252311
O O13 0.441511 0.343059 0.024833
O O14 0.892305 0.465755 0.160879
O O15 0.125175 0.274031 0.390268
O O16 0.622553 0.455382 0.209911
#
# Coordination Sequence:
#
# PCOD9091803 Si02
#       8
#     2   2   2   2   2   2   2   2
#     4  11  22  39  64  93 122 164 202 258 320 367
#     4  10  23  40  60 100 126 154 217 254 306 387
#     4  10  22  38  68  89 123 166 196 264 321 357
#     4  12  25  41  67  88 129 174 203 255 311 362
#     4  10  23  41  66  92 124 169 199 266 312 361
#     4  10  23  46  60  91 125 163 216 252 298 379
#     4  11  24  40  60  94 128 155 216 258 301 379
#     4  10  19  40  60  94 129 148 212 262 306 380
#
# _framework density 20.260739999999998
#
# number of rings (size 3 to 8) (size 9 to 14) (size 15 to 20)
#    0.000    1.750    3.750    2.625    5.250    2.500 
#    2.250    0.625    0.000    0.000    0.000    0.000 
#    0.000    0.000    0.000    0.000    0.000    0.000 
#
# Total GULP energy -89210.922052 kJ/mol
# GULP energy per Si atom -5575.682628 kJ/mol
# Density = 2.021463 g / cm^3
# Si number density = 20.260740 Si / 1000 Ang^3
#
#
#
# Elastic Constant Matrix: (Units=GPa)
#
#
# Indices 1 2 3 4 5 6 
#
# 1 64.6602 14.8253 14.7691 15.3596 6.3784 18.3762
# 2 14.8253 31.2983 -4.9338 5.6236 -0.4535 5.8227
# 3 14.7691 -4.9338 61.6853 13.4619 13.1124 -3.2944
# 4 15.3596 5.6236 13.4619 23.5254 -1.7444 -6.5108
# 5 6.3784 -0.4535 13.1124 -1.7444 20.7956 6.7706
# 6 18.3762 5.8227 -3.2944 -6.5108 6.7706 33.5133
#
#
#
# Elastic Compliance Matrix: (Units=1/GPa)
#
#
# Indices 1 2 3 4 5 6 
#
# 1 0.027720 -0.006883 -0.003328 -0.019614 -0.002454 -0.017645
# 2 -0.006883 0.038817 0.006893 -0.009913 -0.000907 -0.004035
# 3 -0.003328 0.006893 0.024198 -0.013516 -0.016424 0.003698
# 4 -0.019614 -0.009913 -0.013516 0.072647 0.013050 0.022626
# 5 -0.002454 -0.000907 -0.016424 0.013050 0.063670 -0.010439
# 6 -0.017645 -0.004035 0.003698 0.022626 -0.010439 0.047083
#
#
# Mechanical properties :
#
#
# Convention : Reuss Voigt Hill
#
# Bulk Modulus (GPa) = 11.89075 22.99610 17.44342
# Shear Modulus (GPa) = 16.19160 24.43242 20.31201
#
# Velocity S-wave (km/s) = 2.83001 3.47637 3.16971
# Velocity P-wave (km/s) = 4.06943 5.24293 4.69300
#
# Compressibility (1/GPa) = 0.08409897
#
# Stress axis : x y z
#
# Youngs Moduli (GPa) = 36.07535 25.76221 41.32580
#
# Poissons Ratio (x) = 0.17733 0.13752
# Poissons Ratio (y) = 0.24832 -0.28488
# Poissons Ratio (z) = 0.12004 -0.17759
#
# Static dielectric constant tensor:
#      x y z
#    x 1.726830 0.028300 -0.021830 
#    y 0.028300 1.776690 0.017180 
#    z -0.021830 0.017180 1.726010 
# 
# From -- ./inp_files/392337.got.cif
#   From: 2010.05.17/outbox.cif.g08.bks.cpg/sg2_197_cif.got.tgz:392337.got - 2010.06.03 11:33:40.
