data_PCOD9091791
_publ_section_title
;
Structure prediction by ZEFSAII (Michael W. Deem and Ramdas Pophale) SiO2 
 PCOD9091791
Probable space group: P -1
;
_chemical_formula_sum "Si O2"
_cell_formula_units_Z 16
_cell_length_a 17.249122
_cell_length_b 11.843679
_cell_length_c 9.502303
_cell_angle_alpha 71.803250
_cell_angle_beta 48.800674
_cell_angle_gamma 112.425530
_cell_volume 791.296039
_symmetry_space_group_name_H-M "P -1"
_symmetry_group_IT_number 2
_symmetry_cell_setting 'triclinic'
loop_
_space_group_symop_operation_xyz
x,y,z
-x,-y,-z
loop_
_atom_site_type_symbol
_atom_site_label
_atom_site_fract_x
_atom_site_fract_y
_atom_site_fract_z
Si Si1 0.807010 0.375789 0.232524
Si Si2 0.458136 0.600758 0.824532
Si Si3 0.273111 0.317723 0.425155
Si Si4 0.889470 0.502576 0.567665
Si Si5 0.822510 0.012826 0.484040
Si Si6 0.124951 0.370446 0.186324
Si Si7 0.919750 0.656941 0.196959
Si Si8 0.463181 0.098728 0.238962
O O1 0.771371 0.443345 0.367404
O O2 0.652828 0.129875 0.509371
O O3 0.831508 0.471493 0.020915
O O4 0.000000 0.500000 0.000000
O O5 0.606154 0.638693 0.622095
O O6 0.535466 0.807565 0.666683
O O7 0.382027 0.501850 0.112155
O O8 0.300899 0.453523 0.955336
O O9 0.142535 0.280142 0.680716
O O10 0.202996 0.146215 0.473886
O O11 0.904823 0.618810 0.622119
O O12 0.973607 0.623571 0.273523
O O13 0.000000 0.500000 0.500000
O O14 0.675155 0.274466 0.889687
O O15 0.951736 0.146631 0.410700
O O16 0.642587 0.922979 0.744451
O O17 0.928204 0.171855 0.164802
#
# Coordination Sequence:
#
# PCOD9091791 Si02
#       8
#     2   2   2   2   2   2   2   2
#     4  11  21  38  64  91 124 160 204 249 305 374
#     4   9  20  37  61  88 122 157 207 249 304 367
#     4  10  19  40  60  88 117 167 204 249 305 365
#     4  11  24  39  59  91 131 155 201 261 301 361
#     4  10  22  37  68  84 116 165 210 242 305 369
#     4  10  20  40  59  91 120 158 205 254 299 361
#     4  11  21  40  61  91 123 155 204 258 299 361
#     4  10  20  41  61  87 115 175 194 234 316 383
#
# _framework density 20.219992999999999
#
# number of rings (size 3 to 8) (size 9 to 14) (size 15 to 20)
#    0.000    1.750    5.000    1.125    0.000    3.000 
#    2.250    2.500    0.000    0.000    0.000    0.000 
#    0.000    0.000    0.000    0.000    0.000    0.000 
#
# Total GULP energy -89179.456663 kJ/mol
# GULP energy per Si atom -5573.716041 kJ/mol
# Density = 2.017397 g / cm^3
# Si number density = 20.219993 Si / 1000 Ang^3
#
#
#
# Elastic Constant Matrix: (Units=GPa)
#
#
# Indices 1 2 3 4 5 6 
#
# 1 96.6170 25.8837 16.8000 -16.1259 -19.9093 5.1889
# 2 25.8837 96.7129 31.5633 -25.6464 -2.9351 1.0149
# 3 16.8000 31.5633 47.4960 -19.4873 -2.4854 3.8029
# 4 -16.1259 -25.6464 -19.4873 27.5429 9.9069 -0.4849
# 5 -19.9093 -2.9351 -2.4854 9.9069 40.4895 -1.6048
# 6 5.1889 1.0149 3.8029 -0.4849 -1.6048 38.1296
#
#
#
# Elastic Compliance Matrix: (Units=1/GPa)
#
#
# Indices 1 2 3 4 5 6 
#
# 1 0.012782 -0.002026 -0.001835 0.002332 0.005406 -0.001245
# 2 -0.002026 0.015263 -0.005434 0.010156 -0.002692 0.000427
# 3 -0.001835 -0.005434 0.032938 0.018531 -0.003920 -0.002820
# 4 0.002332 0.010156 0.018531 0.064855 -0.012933 -0.002155
# 5 0.005406 -0.002692 -0.003920 -0.012933 0.030117 0.000830
# 6 -0.001245 0.000427 -0.002820 -0.002155 0.000830 0.026673
#
#
# Mechanical properties :
#
#
# Convention : Reuss Voigt Hill
#
# Bulk Modulus (GPa) = 23.58924 43.25776 33.42350
# Shear Modulus (GPa) = 23.21794 32.33765 27.77780
#
# Velocity S-wave (km/s) = 3.39228 4.00345 3.71047
# Velocity P-wave (km/s) = 5.19953 6.54295 5.90954
#
# Compressibility (1/GPa) = 0.04239221
#
# Stress axis : x y z
#
# Youngs Moduli (GPa) = 78.23393 65.51888 30.35965
#
# Poissons Ratio (x) = 0.13277 0.05571
# Poissons Ratio (y) = 0.15854 0.16497
# Poissons Ratio (z) = 0.14357 0.35603
#
# Static dielectric constant tensor:
#      x y z
#    x 1.751060 -0.038050 -0.056010 
#    y -0.038050 1.761370 -0.016280 
#    z -0.056010 -0.016280 1.784730 
# 
# From -- ./inp_files/241005.got.cif
#   From: 2010.05.17/outbox.cif.g08.bks.cpg/sg2_121_cif.got.tgz:241005.got - 2010.06.03 11:33:40.
