data_PCOD9091346
_publ_section_title
;
Structure prediction by ZEFSAII (Michael W. Deem and Ramdas Pophale) SiO2 
 PCOD9091346
Probable space group: P -1
;
_chemical_formula_sum "Si O2"
_cell_formula_units_Z 14
_cell_length_a 11.623302
_cell_length_b 7.309538
_cell_length_c 7.310425
_cell_angle_alpha 74.591657
_cell_angle_beta 89.421593
_cell_angle_gamma 108.283216
_cell_volume 565.578309
_symmetry_space_group_name_H-M "P -1"
_symmetry_group_IT_number 2
_symmetry_cell_setting 'triclinic'
loop_
_space_group_symop_operation_xyz
x,y,z
-x,-y,-z
loop_
_atom_site_type_symbol
_atom_site_label
_atom_site_fract_x
_atom_site_fract_y
_atom_site_fract_z
Si Si1 0.367426 0.187557 0.586596
Si Si2 0.802859 0.251884 0.272852
Si Si3 0.056877 0.214992 0.346799
Si Si4 0.275436 0.169562 0.177648
Si Si5 0.284354 0.536798 0.446984
Si Si6 0.541938 0.992375 0.797835
Si Si7 0.352616 0.596751 0.001689
O O1 0.264441 0.984456 0.711743
O O2 0.331196 0.184424 0.376821
O O3 0.356685 0.402258 0.583236
O O4 0.490666 0.133223 0.633789
O O5 0.747129 0.314430 0.445084
O O6 0.944883 0.287633 0.279784
O O7 0.861034 0.832446 0.803470
O O8 0.770869 0.377314 0.078177
O O9 0.153425 0.376154 0.431367
O O10 0.000000 0.000000 0.500000
O O11 0.316819 0.984124 0.173027
O O12 0.347974 0.371429 0.017711
O O13 0.346438 0.604593 0.224055
O O14 0.455224 0.758722 0.837002
O O15 0.500000 0.000000 0.000000
#
# Coordination Sequence:
#
# PCOD9091346 Si02
#       7
#     2   2   2   2   2   2   2
#     4   9  21  41  60  92 122 161 210 254 311 370
#     4  11  20  39  70  89 126 172 202 255 319 364
#     4  10  19  39  65  91 125 162 209 255 307 373
#     4  10  21  40  61  85 125 163 204 256 307 366
#     4  10  22  39  66  96 126 161 213 253 311 379
#     4  11  23  37  63  89 126 161 207 259 318 368
#     4   9  23  41  60  95 126 156 214 260 306 371
#
# _framework density 24.753423000000002
#
# number of rings (size 3 to 8) (size 9 to 14) (size 15 to 20)
#    0.000    2.286    2.857    1.286    4.000    2.286 
#    0.000    1.429    0.000    6.000    0.000    0.000 
#    0.000    0.000    0.000    0.000    0.000    0.000 
#
# Total GULP energy -77966.521146 kJ/mol
# GULP energy per Si atom -5569.037225 kJ/mol
# Density = 2.469708 g / cm^3
# Si number density = 24.753423 Si / 1000 Ang^3
#
#
#
# Elastic Constant Matrix: (Units=GPa)
#
#
# Indices 1 2 3 4 5 6 
#
# 1 176.1981 30.6415 37.0417 -10.4555 27.2708 -36.2476
# 2 30.6415 66.6128 24.3664 -24.3013 9.0546 -16.3188
# 3 37.0417 24.3664 120.5255 -22.7317 23.6603 -15.1360
# 4 -10.4555 -24.3013 -22.7317 46.5426 -13.7226 4.9371
# 5 27.2708 9.0546 23.6603 -13.7226 37.8520 -6.5874
# 6 -36.2476 -16.3188 -15.1360 4.9371 -6.5874 48.3018
#
#
#
# Elastic Compliance Matrix: (Units=1/GPa)
#
#
# Indices 1 2 3 4 5 6 
#
# 1 0.007695 -0.002140 -0.000826 -0.001525 -0.004310 0.004361
# 2 -0.002140 0.020916 -0.001549 0.009760 0.001780 0.004220
# 3 -0.000826 -0.001549 0.010374 0.002661 -0.004337 0.001244
# 4 -0.001525 0.009760 0.002661 0.029814 0.008091 0.001043
# 5 -0.004310 0.001780 -0.004337 0.008091 0.034728 -0.000083
# 6 0.004361 0.004220 0.001244 0.001043 -0.000083 0.025673
#
#
# Mechanical properties :
#
#
# Convention : Reuss Voigt Hill
#
# Bulk Modulus (GPa) = 33.38510 60.82616 47.10563
# Shear Modulus (GPa) = 33.73486 44.62506 39.17996
#
# Velocity S-wave (km/s) = 3.69567 4.25053 3.98277
# Velocity P-wave (km/s) = 5.63267 6.97965 6.34202
#
# Compressibility (1/GPa) = 0.02995348
#
# Stress axis : x y z
#
# Youngs Moduli (GPa) = 129.95688 47.81069 96.39724
#
# Poissons Ratio (x) = 0.10230 0.07966
# Poissons Ratio (y) = 0.27807 0.14936
# Poissons Ratio (z) = 0.10739 0.07408
#
# Static dielectric constant tensor:
#      x y z
#    x 2.285440 -0.203530 -0.057950 
#    y -0.203530 2.545220 0.072390 
#    z -0.057950 0.072390 1.950260 
# 
# From -- ./inp_files/233602.got.cif
#   From: 2010.05.17/outbox.cif.g08.bks.cpg/sg2_117_cif.got.tgz:233602.got - 2010.06.03 11:33:40.
