data_PCOD9091201
_publ_section_title
;
Structure prediction by ZEFSAII (Michael W. Deem and Ramdas Pophale) SiO2 
 PCOD9091201
Probable space group: P -1
;
_chemical_formula_sum "Si O2"
_cell_formula_units_Z 16
_cell_length_a 18.905780
_cell_length_b 9.276430
_cell_length_c 15.663354
_cell_angle_alpha 37.679447
_cell_angle_beta 142.887713
_cell_angle_gamma 150.226669
_cell_volume 776.585838
_symmetry_space_group_name_H-M "P -1"
_symmetry_group_IT_number 2
_symmetry_cell_setting 'triclinic'
loop_
_space_group_symop_operation_xyz
x,y,z
-x,-y,-z
loop_
_atom_site_type_symbol
_atom_site_label
_atom_site_fract_x
_atom_site_fract_y
_atom_site_fract_z
Si Si1 0.220148 0.994578 0.978888
Si Si2 0.098396 0.589765 0.465605
Si Si3 0.547801 0.387144 0.399788
Si Si4 0.099119 0.341091 0.096396
Si Si5 0.325452 0.888456 0.283085
Si Si6 0.360148 0.305126 0.391090
Si Si7 0.988642 0.502153 0.215186
Si Si8 0.799188 0.799230 0.306731
O O1 0.154100 0.658392 0.041306
O O2 0.340526 0.077172 0.128155
O O3 0.071394 0.933070 0.904448
O O4 0.275886 0.202939 0.851927
O O5 0.122231 0.345633 0.576900
O O6 0.000000 0.500000 0.500000
O O7 0.014982 0.582510 0.303101
O O8 0.264254 0.933499 0.473201
O O9 0.616268 0.303627 0.578093
O O10 0.453774 0.468926 0.316740
O O11 0.681805 0.609033 0.359265
O O12 0.419246 0.097955 0.355402
O O13 0.222052 0.311060 0.258702
O O14 0.090568 0.387303 0.965328
O O15 0.150439 0.675495 0.242475
O O16 0.500000 0.500000 0.500000
O O17 0.906045 0.147393 0.281569
#
# Coordination Sequence:
#
# PCOD9091201 Si02
#       8
#     2   2   2   2   2   2   2   2
#     4   9  19  39  67  95 120 165 220 273 314 374
#     4  12  25  41  65 103 130 164 221 277 328 367
#     4  11  22  38  62  91 132 174 213 252 324 397
#     4   9  20  40  66  93 124 169 221 260 323 380
#     4  10  19  39  64  88 124 171 219 257 307 389
#     4  12  26  43  63  94 135 175 213 265 328 392
#     4  10  21  43  70  93 126 172 220 271 314 387
#     4  11  23  40  66 101 130 166 217 266 328 387
#
# _framework density 20.603003000000001
#
# number of rings (size 3 to 8) (size 9 to 14) (size 15 to 20)
#    0.000    1.500    2.500    3.375    1.750    1.000 
#    2.250    3.750    0.000    0.000    0.000    0.000 
#    0.000    0.000    0.000    0.000    0.000    0.000 
#
# Total GULP energy -89186.515156 kJ/mol
# GULP energy per Si atom -5574.157197 kJ/mol
# Density = 2.055611 g / cm^3
# Si number density = 20.603003 Si / 1000 Ang^3
#
#
#
# Elastic Constant Matrix: (Units=GPa)
#
#
# Indices 1 2 3 4 5 6 
#
# 1 103.8582 22.3502 32.5223 0.3618 -16.8135 11.9599
# 2 22.3502 85.6762 30.3774 13.4086 -6.5423 -0.1352
# 3 32.5223 30.3774 117.6918 24.1165 -13.4577 -0.3200
# 4 0.3618 13.4086 24.1165 26.7785 -7.5657 -4.4876
# 5 -16.8135 -6.5423 -13.4577 -7.5657 28.9658 12.1742
# 6 11.9599 -0.1352 -0.3200 -4.4876 12.1742 23.2479
#
#
#
# Elastic Compliance Matrix: (Units=1/GPa)
#
#
# Indices 1 2 3 4 5 6 
#
# 1 0.015027 -0.002652 -0.003014 0.005452 0.014077 -0.014107
# 2 -0.002652 0.013774 -0.001849 -0.005342 -0.001085 0.000956
# 3 -0.003014 -0.001849 0.011895 -0.009538 0.001187 -0.000759
# 4 0.005452 -0.005342 -0.009538 0.051731 0.010372 0.001587
# 5 0.014077 -0.001085 0.001187 0.010372 0.061428 -0.037398
# 6 -0.014107 0.000956 -0.000759 0.001587 -0.037398 0.070157
#
#
# Mechanical properties :
#
#
# Convention : Reuss Voigt Hill
#
# Bulk Modulus (GPa) = 38.96223 53.08066 46.02144
# Shear Modulus (GPa) = 20.19397 30.59686 25.39541
#
# Velocity S-wave (km/s) = 3.13413 3.85784 3.51466
# Velocity P-wave (km/s) = 5.66118 6.75747 6.23347
#
# Compressibility (1/GPa) = 0.02566588
#
# Stress axis : x y z
#
# Youngs Moduli (GPa) = 66.54504 72.60001 84.06874
#
# Poissons Ratio (x) = 0.19255 0.25339
# Poissons Ratio (y) = 0.17649 0.15545
# Poissons Ratio (z) = 0.20057 0.13424
#
# Static dielectric constant tensor:
#      x y z
#    x 1.725250 -0.129390 -0.027340 
#    y -0.129390 1.610780 -0.052900 
#    z -0.027340 -0.052900 1.799740 
# 
# From -- ./inp_files/537585.got.cif
#   From: 2010.05.17/outbox.cif.g08.bks.cpg/sg2_269_cif.got.tgz:537585.got - 2010.06.03 11:33:40.
