data_PCOD9091269
_publ_section_title
;
Structure prediction by ZEFSAII (Michael W. Deem and Ramdas Pophale) SiO2 
 PCOD9091269
Probable space group: P -1
;
_chemical_formula_sum "Si O2"
_cell_formula_units_Z 14
_cell_length_a 14.655159
_cell_length_b 24.174105
_cell_length_c 7.948694
_cell_angle_alpha 35.678760
_cell_angle_beta 146.059850
_cell_angle_gamma 158.543029
_cell_volume 563.899024
_symmetry_space_group_name_H-M "P -1"
_symmetry_group_IT_number 2
_symmetry_cell_setting 'triclinic'
loop_
_space_group_symop_operation_xyz
x,y,z
-x,-y,-z
loop_
_atom_site_type_symbol
_atom_site_label
_atom_site_fract_x
_atom_site_fract_y
_atom_site_fract_z
Si Si1 0.609726 0.357846 0.602776
Si Si2 0.436903 0.322091 0.909867
Si Si3 0.308526 0.873353 0.168059
Si Si4 0.968954 0.878771 0.818605
Si Si5 0.631571 0.886297 0.872162
Si Si6 0.033779 0.616228 0.125719
Si Si7 0.744010 0.575048 0.499198
O O1 0.762159 0.365282 0.681698
O O2 0.340365 0.276732 0.315141
O O3 0.542071 0.253549 0.910717
O O4 0.782741 0.525892 0.520083
O O5 0.299154 0.162493 0.040572
O O6 0.740469 0.437908 0.136931
O O7 0.481356 0.406936 0.599697
O O8 0.317021 0.342688 0.804457
O O9 0.124292 0.712860 0.188455
O O10 0.500000 0.000000 0.000000
O O11 0.138095 0.880464 0.967243
O O12 0.470854 0.894355 0.510756
O O13 0.000000 0.000000 0.500000
O O14 0.121597 0.957521 0.035860
O O15 0.979797 0.666005 0.767383
#
# Coordination Sequence:
#
# PCOD9091269 Si02
#       7
#     2   2   2   2   2   2   2
#     4  10  19  39  64  95 127 167 196 244 314 374
#     4   8  17  34  63  93 123 159 201 246 311 356
#     4  12  25  42  62  90 120 165 217 259 307 357
#     4  10  22  39  65  85 126 163 201 250 314 372
#     4  10  22  39  65  90 125 163 208 253 308 366
#     4  10  20  35  64  94 124 160 204 248 302 375
#     4   8  16  32  62  93 125 162 195 244 308 366
#
# _framework density 24.827138999999999
#
# number of rings (size 3 to 8) (size 9 to 14) (size 15 to 20)
#    0.857    1.429    0.000    3.429    4.000    0.571 
#    0.000    6.429    6.286    1.714    0.000    0.000 
#    0.000    0.000    0.000    0.000    0.000    0.000 
#
# Total GULP energy -78255.012380 kJ/mol
# GULP energy per Si atom -5589.643741 kJ/mol
# Density = 2.477063 g / cm^3
# Si number density = 24.827139 Si / 1000 Ang^3
#
#
#
# Elastic Constant Matrix: (Units=GPa)
#
#
# Indices 1 2 3 4 5 6 
#
# 1 87.5115 63.9801 105.8985 -6.2958 7.2697 -16.4773
# 2 63.9801 141.6908 72.4847 14.2723 13.3538 -21.1729
# 3 105.8985 72.4847 201.0740 7.7479 21.8867 -27.8062
# 4 -6.2958 14.2723 7.7479 47.5011 -16.9474 2.2066
# 5 7.2697 13.3538 21.8867 -16.9474 42.8674 -0.4050
# 6 -16.4773 -21.1729 -27.8062 2.2066 -0.4050 28.7623
#
#
#
# Elastic Compliance Matrix: (Units=1/GPa)
#
#
# Indices 1 2 3 4 5 6 
#
# 1 0.054403 -0.016179 -0.026923 0.023554 0.018793 -0.008314
# 2 -0.016179 0.014530 0.005753 -0.011019 -0.009004 0.007708
# 3 -0.026923 0.005753 0.020292 -0.013638 -0.012891 0.009295
# 4 0.023554 -0.011019 -0.013638 0.037768 0.021234 -0.010401
# 5 0.018793 -0.009004 -0.012891 0.021234 0.037833 -0.009421
# 6 -0.008314 0.007708 0.009295 -0.010401 -0.009421 0.045330
#
#
# Mechanical properties :
#
#
# Convention : Reuss Voigt Hill
#
# Bulk Modulus (GPa) = 68.82563 101.66701 85.24632
# Shear Modulus (GPa) = 17.25950 36.35369 26.80660
#
# Velocity S-wave (km/s) = 2.63950 3.83073 3.28949
# Velocity P-wave (km/s) = 6.08863 7.78491 6.98843
#
# Compressibility (1/GPa) = 0.01452947
#
# Stress axis : x y z
#
# Youngs Moduli (GPa) = 18.38149 68.82270 49.27943
#
# Poissons Ratio (x) = 1.11345 1.32673
# Poissons Ratio (y) = 0.29739 -0.28352
# Poissons Ratio (z) = 0.49488 -0.39596
#
# Static dielectric constant tensor:
#      x y z
#    x 2.109400 -0.002400 -0.080160 
#    y -0.002400 1.948470 0.012360 
#    z -0.080160 0.012360 1.951730 
# 
# From -- ./inp_files/310160.got.cif
#   From: 2010.05.17/outbox.cif.g08.bks.cpg/sg2_156_cif.got.tgz:310160.got - 2010.06.03 11:33:40.
