data_PCOD9091662
_publ_section_title
;
Structure prediction by ZEFSAII (Michael W. Deem and Ramdas Pophale) SiO2 
 PCOD9091662
Probable space group: P -1
;
_chemical_formula_sum "Si O2"
_cell_formula_units_Z 16
_cell_length_a 9.298447
_cell_length_b 11.356251
_cell_length_c 17.164656
_cell_angle_alpha 43.153405
_cell_angle_beta 47.927041
_cell_angle_gamma 79.800723
_cell_volume 726.261395
_symmetry_space_group_name_H-M "P -1"
_symmetry_group_IT_number 2
_symmetry_cell_setting 'triclinic'
loop_
_space_group_symop_operation_xyz
x,y,z
-x,-y,-z
loop_
_atom_site_type_symbol
_atom_site_label
_atom_site_fract_x
_atom_site_fract_y
_atom_site_fract_z
Si Si1 0.930487 0.078995 0.690145
Si Si2 0.405665 0.642082 0.066257
Si Si3 0.233908 0.180638 0.378431
Si Si4 0.207580 0.318718 0.707336
Si Si5 0.010023 0.582333 0.125419
Si Si6 0.223394 0.762307 0.209642
Si Si7 0.393311 0.909207 0.498261
Si Si8 0.849717 0.024540 0.200739
O O1 0.001335 0.997178 0.777387
O O2 0.877997 0.242433 0.664854
O O3 0.679295 0.861828 0.854278
O O4 0.134398 0.174158 0.504003
O O5 0.374066 0.420755 0.177308
O O6 0.298657 0.634338 0.194993
O O7 0.246694 0.656516 0.053087
O O8 0.384403 0.087931 0.374057
O O9 0.000000 0.000000 0.500000
O O10 0.500000 0.500000 0.500000
O O11 0.148516 0.377766 0.781077
O O12 0.007471 0.295386 0.731604
O O13 0.152994 0.087128 0.823870
O O14 0.864775 0.327645 0.285826
O O15 0.063042 0.733094 0.960277
O O16 0.500000 0.000000 0.000000
O O17 0.500000 0.000000 0.500000
O O18 0.572232 0.883191 0.398861
#
# Coordination Sequence:
#
# PCOD9091662 Si02
#       8
#     2   2   2   2   2   2   2   2
#     4  10  23  43  67  95 128 167 214 265 327 389
#     4  10  23  43  67  94 128 168 215 263 324 389
#     4  12  26  43  64  91 128 173 223 268 312 378
#     4  10  19  39  69 101 132 167 215 273 333 396
#     4  11  24  42  69  99 131 169 215 272 330 391
#     4   8  18  40  65  94 132 164 208 266 330 398
#     4  12  26  45  62  93 132 171 227 270 319 384
#     4  11  24  42  69  98 131 171 213 271 334 389
#
# _framework density 22.030635
#
# number of rings (size 3 to 8) (size 9 to 14) (size 15 to 20)
#    0.000    1.500    3.750    0.375    3.500    2.500 
#    0.000    0.000    0.000    0.000    0.000    0.000 
#    0.000    0.000    0.000    0.000    0.000    0.000 
#
# Total GULP energy -89210.346651 kJ/mol
# GULP energy per Si atom -5575.646666 kJ/mol
# Density = 2.198049 g / cm^3
# Si number density = 22.030635 Si / 1000 Ang^3
#
#
#
# Elastic Constant Matrix: (Units=GPa)
#
#
# Indices 1 2 3 4 5 6 
#
# 1 82.3367 20.4656 31.4831 -7.0101 -12.5057 -11.1197
# 2 20.4656 68.7667 9.5701 -15.5558 0.7768 -1.0063
# 3 31.4831 9.5701 69.3090 -9.9330 -9.7989 -8.1530
# 4 -7.0101 -15.5558 -9.9330 36.5712 -4.2469 7.9836
# 5 -12.5057 0.7768 -9.7989 -4.2469 33.4732 2.7479
# 6 -11.1197 -1.0063 -8.1530 7.9836 2.7479 30.4399
#
#
#
# Elastic Compliance Matrix: (Units=1/GPa)
#
#
# Indices 1 2 3 4 5 6 
#
# 1 0.016620 -0.004251 -0.005989 -0.000671 0.004131 0.004130
# 2 -0.004251 0.017368 0.000111 0.007104 -0.000833 -0.002737
# 3 -0.005989 0.000111 0.018367 0.003999 0.003532 0.001368
# 4 -0.000671 0.007104 0.003999 0.033805 0.005728 -0.008322
# 5 0.004131 -0.000833 0.003532 0.005728 0.033369 -0.002087
# 6 0.004130 -0.002737 0.001368 -0.008322 -0.002087 0.037007
#
#
# Mechanical properties :
#
#
# Convention : Reuss Voigt Hill
#
# Bulk Modulus (GPa) = 31.15534 38.16112 34.65823
# Shear Modulus (GPa) = 26.66791 30.68975 28.67883
#
# Velocity S-wave (km/s) = 3.48299 3.73641 3.61192
# Velocity P-wave (km/s) = 5.50885 5.99781 5.75852
#
# Compressibility (1/GPa) = 0.03209722
#
# Stress axis : x y z
#
# Youngs Moduli (GPa) = 60.16942 57.57786 54.44684
#
# Poissons Ratio (x) = 0.24475 0.32607
# Poissons Ratio (y) = 0.25576 -0.00605
# Poissons Ratio (z) = 0.36034 -0.00640
#
# Static dielectric constant tensor:
#      x y z
#    x 0.971610 -0.290430 0.186360 
#    y -0.290430 1.721660 0.082530 
#    z 0.186360 0.082530 1.774350 
# 
# From -- ./inp_files/279466.got.cif
#   From: 2010.05.17/outbox.cif.g08.bks.cpg/sg2_140_cif.got.tgz:279466.got - 2010.06.03 11:33:40.
