data_PCOD9091901
_publ_section_title
;
Structure prediction by ZEFSAII (Michael W. Deem and Ramdas Pophale) SiO2 
 PCOD9091901
Probable space group: P -1
;
_chemical_formula_sum "Si O2"
_cell_formula_units_Z 15
_cell_length_a 7.195761
_cell_length_b 13.177997
_cell_length_c 8.532889
_cell_angle_alpha 51.277444
_cell_angle_beta 103.538780
_cell_angle_gamma 85.266589
_cell_volume 585.104507
_symmetry_space_group_name_H-M "P -1"
_symmetry_group_IT_number 2
_symmetry_cell_setting 'triclinic'
loop_
_space_group_symop_operation_xyz
x,y,z
-x,-y,-z
loop_
_atom_site_type_symbol
_atom_site_label
_atom_site_fract_x
_atom_site_fract_y
_atom_site_fract_z
Si Si1 0.876845 0.752846 0.903513
Si Si2 0.500000 0.500000 0.000000
Si Si3 0.420645 0.771217 0.862822
Si Si4 0.631477 0.993054 0.185358
Si Si5 0.690550 0.335065 0.460801
Si Si6 0.286489 0.941632 0.363254
Si Si7 0.099325 0.289109 0.423535
Si Si8 0.165383 0.520297 0.390385
O O1 0.660703 0.742645 0.925970
O O2 0.892195 0.723452 0.749437
O O3 0.865775 0.907749 0.796141
O O4 0.046772 0.640199 0.135862
O O5 0.399562 0.623259 0.985963
O O6 0.487354 0.613505 0.748467
O O7 0.306647 0.869680 0.605298
O O8 0.345003 0.860383 0.915552
O O9 0.497628 0.961878 0.332435
O O10 0.826391 0.863940 0.345821
O O11 0.500000 0.000000 0.000000
O O12 0.741471 0.173164 0.650135
O O13 0.686830 0.423763 0.527828
O O14 0.870945 0.358731 0.365519
O O15 0.226910 0.377737 0.445513
O O16 0.000000 0.500000 0.500000
#
# Coordination Sequence:
#
# PCOD9091901 Si02
#       8
#     2   1   2   2   2   2   2   2
#     4  11  20  39  66  87 125 163 209 250 306 369
#     4  10  22  40  64  84 124 166 196 246 318 366
#     4  10  19  40  63  89 121 169 200 242 311 374
#     4  11  23  38  65  95 123 160 207 255 301 365
#     4  10  24  42  63  90 125 164 205 256 310 368
#     4  10  21  42  62  87 125 169 196 251 313 370
#     4  11  22  41  64  95 121 161 214 254 298 367
#     4  10  23  38  60  91 123 163 204 258 306 361
#
# _framework density 25.636445999999999
#
# number of rings (size 3 to 8) (size 9 to 14) (size 15 to 20)
#    0.000    1.600    2.667    2.800    9.333    1.067 
#    0.000    2.000    0.000    0.000    0.000    0.000 
#    0.000    0.000    0.000    0.000    0.000    0.000 
#
# Total GULP energy -83683.704181 kJ/mol
# GULP energy per Si atom -5578.913612 kJ/mol
# Density = 2.557810 g / cm^3
# Si number density = 25.636446 Si / 1000 Ang^3
#
#
#
# Elastic Constant Matrix: (Units=GPa)
#
#
# Indices 1 2 3 4 5 6 
#
# 1 57.8860 15.9497 -16.1588 -1.0812 -9.7289 -7.8604
# 2 15.9497 237.2883 60.7652 -27.8651 -7.5739 16.3938
# 3 -16.1588 60.7652 99.4553 -9.8820 -6.3563 -2.0603
# 4 -1.0812 -27.8651 -9.8820 39.6163 3.2009 -0.1498
# 5 -9.7289 -7.5739 -6.3563 3.2009 -3.2159 4.1653
# 6 -7.8604 16.3938 -2.0603 -0.1498 4.1653 33.1542
#
#
#
# Elastic Compliance Matrix: (Units=1/GPa)
#
#
# Indices 1 2 3 4 5 6 
#
# 1 0.015072 -0.003162 0.002762 0.001368 -0.030414 0.009135
# 2 -0.003162 0.006125 -0.003976 0.003149 0.000807 -0.004112
# 3 0.002762 -0.003976 0.012247 0.001553 -0.014846 0.005254
# 4 0.001368 0.003149 0.001553 0.027106 0.009496 -0.002207
# 5 -0.030414 0.000807 -0.014846 0.009496 -0.166029 0.012369
# 6 0.009135 -0.004112 0.005254 -0.002207 0.012369 0.033124
#
#
# Mechanical properties :
#
#
# Convention : Reuss Voigt Hill
#
# Bulk Modulus (GPa) = 40.49994 57.30465 48.90229
# Shear Modulus (GPa) = -90.29901 36.18247 -27.05827
#
# Velocity S-wave (km/s) = -5.94133 3.76089 -3.25231
# Velocity P-wave (km/s) = 5.58871 6.42343 2.23905
#
# Compressibility (1/GPa) = 0.02469140
#
# Stress axis : x y z
#
# Youngs Moduli (GPa) = 66.34939 163.27121 81.65034
#
# Poissons Ratio (x) = 0.51619 -0.22550
# Poissons Ratio (y) = 0.20977 0.32468
# Poissons Ratio (z) = -0.18324 0.64924
#
# Static dielectric constant tensor:
#      x y z
#    x 2.125470 0.051020 0.016990 
#    y 0.051020 2.017230 0.042050 
#    z 0.016990 0.042050 1.968860 
# 
# From -- ./inp_files/175459.got.cif
#   From: 2010.05.17/outbox.cif.g08.bks.cpg/sg2_88_cif.got.tgz:175459.got - 2010.06.03 11:33:40.
