data_PCOD9091988
_publ_section_title
;
Structure prediction by ZEFSAII (Michael W. Deem and Ramdas Pophale) SiO2 
 PCOD9091988
Probable space group: P -1
;
_chemical_formula_sum "Si O2"
_cell_formula_units_Z 14
_cell_length_a 11.616232
_cell_length_b 7.300077
_cell_length_c 12.062984
_cell_angle_alpha 120.146015
_cell_angle_beta 46.951525
_cell_angle_gamma 98.083751
_cell_volume 612.448691
_symmetry_space_group_name_H-M "P -1"
_symmetry_group_IT_number 2
_symmetry_cell_setting 'triclinic'
loop_
_space_group_symop_operation_xyz
x,y,z
-x,-y,-z
loop_
_atom_site_type_symbol
_atom_site_label
_atom_site_fract_x
_atom_site_fract_y
_atom_site_fract_z
Si Si1 0.694166 0.927998 0.874353
Si Si2 0.599449 0.594066 0.145528
Si Si3 0.743385 0.960026 0.110779
Si Si4 0.940406 0.322109 0.919049
Si Si5 0.772984 0.420347 0.610442
Si Si6 0.835258 0.261744 0.750575
Si Si7 0.094320 0.826310 0.770222
O O1 0.772335 0.666021 0.718653
O O2 0.776921 0.065386 0.781368
O O3 0.704035 0.988187 0.015301
O O4 0.500000 0.000000 0.000000
O O5 0.624791 0.835471 0.205184
O O6 0.737932 0.430852 0.085977
O O7 0.415146 0.589385 0.277752
O O8 0.675633 0.485551 0.944303
O O9 0.762152 0.161336 0.235160
O O10 0.936419 0.799726 0.930298
O O11 0.970830 0.294930 0.757446
O O12 0.022842 0.074863 0.838026
O O13 0.000000 0.500000 0.000000
O O14 0.864541 0.254679 0.599373
O O15 0.852397 0.344340 0.416283
#
# Coordination Sequence:
#
# PCOD9091988 Si02
#       7
#     2   2   2   2   2   2   2
#     4  12  21  41  72  94 132 178 220 264 330 400
#     4  10  20  40  71  89 129 174 220 263 323 400
#     4  11  22  44  68  92 131 186 214 256 348 397
#     4  10  19  40  64  93 123 184 213 252 328 409
#     4  12  25  43  66 106 131 164 228 284 318 374
#     4  10  21  39  68  94 129 174 220 260 330 392
#     4  11  25  43  66  97 138 168 219 282 324 387
#
# _framework density 22.859058000000001
#
# number of rings (size 3 to 8) (size 9 to 14) (size 15 to 20)
#    0.857    0.286    5.714    1.286    0.000    1.714 
#    2.571    0.714    0.000    0.000    0.000    0.000 
#    0.000    0.000    0.000    0.000    0.000    0.000 
#
# Total GULP energy -78151.469374 kJ/mol
# GULP energy per Si atom -5582.247812 kJ/mol
# Density = 2.280703 g / cm^3
# Si number density = 22.859058 Si / 1000 Ang^3
#
#
#
# Elastic Constant Matrix: (Units=GPa)
#
#
# Indices 1 2 3 4 5 6 
#
# 1 138.6320 35.5204 34.3691 8.2483 36.4871 8.3019
# 2 35.5204 112.9340 5.5699 11.9289 20.7817 5.4097
# 3 34.3691 5.5699 72.6586 0.3117 30.2274 -2.8267
# 4 8.2483 11.9289 0.3117 17.8015 3.7884 1.8011
# 5 36.4871 20.7817 30.2274 3.7884 38.1909 -4.3109
# 6 8.3019 5.4097 -2.8267 1.8011 -4.3109 35.1753
#
#
#
# Elastic Compliance Matrix: (Units=1/GPa)
#
#
# Indices 1 2 3 4 5 6 
#
# 1 0.010393 -0.001339 -0.001531 -0.001819 -0.008179 -0.003279
# 2 -0.001339 0.010933 0.002321 -0.005264 -0.006173 -0.001666
# 3 -0.001531 0.002321 0.021351 0.002447 -0.016997 -0.000488
# 4 -0.001819 -0.005264 0.002447 0.061505 -0.003679 -0.002165
# 5 -0.008179 -0.006173 -0.016997 -0.003679 0.052088 0.008086
# 6 -0.003279 -0.001666 -0.000488 -0.002165 0.008086 0.030522
#
#
# Mechanical properties :
#
#
# Convention : Reuss Voigt Hill
#
# Bulk Modulus (GPa) = 24.05008 52.79371 38.42190
# Shear Modulus (GPa) = 24.78325 34.81789 29.80057
#
# Velocity S-wave (km/s) = 3.29626 3.90700 3.61455
# Velocity P-wave (km/s) = 5.00309 6.59532 5.85360
#
# Compressibility (1/GPa) = 0.04157991
#
# Stress axis : x y z
#
# Youngs Moduli (GPa) = 96.21653 91.46462 46.83662
#
# Poissons Ratio (x) = 0.12248 0.07169
# Poissons Ratio (y) = 0.12884 -0.10871
# Poissons Ratio (z) = 0.14728 -0.21230
#
# Static dielectric constant tensor:
#      x y z
#    x 1.901840 -0.001080 0.029750 
#    y -0.001080 1.907950 0.020850 
#    z 0.029750 0.020850 1.870680 
# 
# From -- ./inp_files/419889.got.cif
#   From: 2010.05.17/outbox.cif.g08.bks.cpg/sg2_210_cif.got.tgz:419889.got - 2010.06.03 11:33:40.
