data_PCOD9091557
_publ_section_title
;
Structure prediction by ZEFSAII (Michael W. Deem and Ramdas Pophale) SiO2 
 PCOD9091557
Probable space group: P -1
;
_chemical_formula_sum "Si O2"
_cell_formula_units_Z 14
_cell_length_a 14.327002
_cell_length_b 9.016505
_cell_length_c 15.292970
_cell_angle_alpha 67.546873
_cell_angle_beta 151.973042
_cell_angle_gamma 128.113410
_cell_volume 655.630632
_symmetry_space_group_name_H-M "P -1"
_symmetry_group_IT_number 2
_symmetry_cell_setting 'triclinic'
loop_
_space_group_symop_operation_xyz
x,y,z
-x,-y,-z
loop_
_atom_site_type_symbol
_atom_site_label
_atom_site_fract_x
_atom_site_fract_y
_atom_site_fract_z
Si Si1 0.243276 0.966493 0.266766
Si Si2 0.780502 0.821747 0.294836
Si Si3 0.220608 0.032073 0.913186
Si Si4 0.422190 0.945008 0.246891
Si Si5 0.633309 0.739644 0.549966
Si Si6 0.725883 0.610239 0.020133
Si Si7 0.996496 0.351507 0.596041
O O1 0.248814 0.955320 0.169801
O O2 0.971197 0.759280 0.125785
O O3 0.500000 0.000000 0.500000
O O4 0.297393 0.160125 0.318022
O O5 0.911496 0.752761 0.359533
O O6 0.702220 0.912162 0.136487
O O7 0.532612 0.605932 0.182351
O O8 0.000000 0.000000 0.500000
O O9 0.908359 0.875442 0.697200
O O10 0.322405 0.241372 0.005919
O O11 0.318703 0.926031 0.068884
O O12 0.454425 0.779666 0.344245
O O13 0.711152 0.168150 0.438051
O O14 0.500000 0.500000 0.500000
O O15 0.817682 0.543679 0.190502
O O16 0.000000 0.500000 0.500000
#
# Coordination Sequence:
#
# PCOD9091557 Si02
#       7
#     2   2   2   2   2   2   2
#     4   9  18  39  65  96 128 163 225 263 310 396
#     4  11  23  43  63  94 134 168 219 280 327 385
#     4  10  21  42  64  93 130 177 218 265 329 394
#     4  11  20  40  68  95 129 169 226 269 312 399
#     4  10  21  40  62  94 141 172 208 271 330 383
#     4  10  19  39  67  93 129 173 216 263 327 395
#     4  11  20  39  67  93 127 171 219 265 326 388
#
# _framework density 21.353487999999999
#
# number of rings (size 3 to 8) (size 9 to 14) (size 15 to 20)
#    0.000    1.714    5.714    3.429    0.000    2.857 
#    7.714    5.714    0.000    0.000    0.000    0.000 
#    0.000    0.000    0.000    0.000    0.000    0.000 
#
# Total GULP energy -78177.573753 kJ/mol
# GULP energy per Si atom -5584.112411 kJ/mol
# Density = 2.130489 g / cm^3
# Si number density = 21.353488 Si / 1000 Ang^3
#
#
#
# Elastic Constant Matrix: (Units=GPa)
#
#
# Indices 1 2 3 4 5 6 
#
# 1 58.4381 32.6330 38.2618 23.2451 9.9426 18.7247
# 2 32.6330 144.6316 57.1605 5.9407 -7.2447 19.6422
# 3 38.2618 57.1605 102.6915 10.9955 1.5373 5.4282
# 4 23.2451 5.9407 10.9955 50.4146 12.8271 2.8278
# 5 9.9426 -7.2447 1.5373 12.8271 24.1849 -2.8432
# 6 18.7247 19.6422 5.4282 2.8278 -2.8432 15.5304
#
#
#
# Elastic Compliance Matrix: (Units=1/GPa)
#
#
# Indices 1 2 3 4 5 6 
#
# 1 0.059801 0.002733 -0.018205 -0.013951 -0.023552 -0.070966
# 2 0.002733 0.010801 -0.006213 -0.000662 0.001159 -0.014451
# 3 -0.018205 -0.006213 0.018377 0.002210 0.006116 0.024101
# 4 -0.013951 -0.000662 0.002210 0.027269 -0.007833 0.010487
# 5 -0.023552 0.001159 0.006116 -0.007833 0.059506 0.037113
# 6 -0.070966 -0.014451 0.024101 0.010487 0.037113 0.164690
#
#
# Mechanical properties :
#
#
# Convention : Reuss Voigt Hill
#
# Bulk Modulus (GPa) = 21.92541 62.43020 42.17780
# Shear Modulus (GPa) = 12.53084 29.87303 21.20193
#
# Velocity S-wave (km/s) = 2.42508 3.74435 3.15445
# Velocity P-wave (km/s) = 4.25811 6.92774 5.75000
#
# Compressibility (1/GPa) = 0.04560918
#
# Stress axis : x y z
#
# Youngs Moduli (GPa) = 16.72223 92.58654 54.41617
#
# Poissons Ratio (x) = -0.25305 0.99064
# Poissons Ratio (y) = -0.04570 0.33808
# Poissons Ratio (z) = 0.30443 0.57522
#
# Static dielectric constant tensor:
#      x y z
#    x 1.796060 0.018730 -0.005320 
#    y 0.018730 1.810150 -0.054690 
#    z -0.005320 -0.054690 1.818030 
# 
# From -- ./inp_files/201590.got.cif
#   From: 2010.05.17/outbox.cif.g08.bks.cpg/sg2_101_cif.got.tgz:201590.got - 2010.06.03 11:33:40.
