data_PCOD9091590
_publ_section_title
;
Structure prediction by ZEFSAII (Michael W. Deem and Ramdas Pophale) SiO2 
 PCOD9091590
Probable space group: P -1
;
_chemical_formula_sum "Si O2"
_cell_formula_units_Z 14
_cell_length_a 8.337787
_cell_length_b 9.612734
_cell_length_c 11.295899
_cell_angle_alpha 40.423473
_cell_angle_beta 108.014744
_cell_angle_gamma 112.803015
_cell_volume 541.024310
_symmetry_space_group_name_H-M "P -1"
_symmetry_group_IT_number 2
_symmetry_cell_setting 'triclinic'
loop_
_space_group_symop_operation_xyz
x,y,z
-x,-y,-z
loop_
_atom_site_type_symbol
_atom_site_label
_atom_site_fract_x
_atom_site_fract_y
_atom_site_fract_z
Si Si1 0.287975 0.578102 0.552872
Si Si2 0.618422 0.938678 0.464174
Si Si3 0.252611 0.114366 0.985074
Si Si4 0.578752 0.319518 0.061723
Si Si5 0.953033 0.667537 0.534881
Si Si6 0.950339 0.098325 0.120602
Si Si7 0.131389 0.344819 0.213918
O O1 0.482315 0.734300 0.499673
O O2 0.274659 0.349633 0.770000
O O3 0.197573 0.518856 0.442977
O O4 0.143941 0.678310 0.520796
O O5 0.778888 0.859120 0.605993
O O6 0.500000 0.000000 0.500000
O O7 0.673539 0.167054 0.257605
O O8 0.425488 0.140061 0.081424
O O9 0.104057 0.084291 0.071938
O O10 0.206330 0.932461 0.988831
O O11 0.500000 0.500000 0.000000
O O12 0.704656 0.456285 0.905659
O O13 0.953572 0.626704 0.699738
O O14 0.907811 0.891348 0.334831
O O15 0.023317 0.295686 0.099491
#
# Coordination Sequence:
#
# PCOD9091590 Si02
#       7
#     2   2   2   2   2   2   2
#     4  10  21  42  68  94 130 186 228 276 343 414
#     4  12  23  40  73  98 133 184 230 271 346 408
#     4  10  19  39  67  99 130 181 231 270 328 414
#     4  12  22  41  69 101 138 179 229 278 338 407
#     4  10  23  42  66  96 138 178 229 283 341 402
#     4  10  21  38  65  95 134 179 219 275 336 396
#     4  12  24  43  69 103 141 174 227 292 333 399
#
# _framework density 25.876842
#
# number of rings (size 3 to 8) (size 9 to 14) (size 15 to 20)
#    0.000    1.143    4.286    2.143    0.000    1.714 
#    2.571    1.429    0.000    0.000    0.000    0.000 
#    0.000    0.000    0.000    0.000    0.000    0.000 
#
# Total GULP energy -78437.490059 kJ/mol
# GULP energy per Si atom -5602.677861 kJ/mol
# Density = 2.581795 g / cm^3
# Si number density = 25.876842 Si / 1000 Ang^3
#
#
#
# Elastic Constant Matrix: (Units=GPa)
#
#
# Indices 1 2 3 4 5 6 
#
# 1 60.8280 51.1784 11.2983 12.0768 -2.7884 9.1137
# 2 51.1784 192.0676 31.2700 31.6513 -15.4984 15.9615
# 3 11.2983 31.2700 155.1646 12.9832 -12.3818 -10.5992
# 4 12.0768 31.6513 12.9832 42.4221 -1.9995 3.7745
# 5 -2.7884 -15.4984 -12.3818 -1.9995 39.2506 -0.4987
# 6 9.1137 15.9615 -10.5992 3.7745 -0.4987 37.3143
#
#
#
# Elastic Compliance Matrix: (Units=1/GPa)
#
#
# Indices 1 2 3 4 5 6 
#
# 1 0.021720 -0.005181 -0.000659 -0.001880 -0.000846 -0.003097
# 2 -0.005181 0.007662 -0.000805 -0.003729 0.002190 -0.001834
# 3 -0.000659 -0.000805 0.007116 -0.001544 0.001836 0.002707
# 4 -0.001880 -0.003729 -0.001544 0.027433 -0.000710 -0.001169
# 5 -0.000846 0.002190 0.001836 -0.000710 0.026828 0.000222
# 6 -0.003097 -0.001834 0.002707 -0.001169 0.000222 0.029231
#
#
# Mechanical properties :
#
#
# Convention : Reuss Voigt Hill
#
# Bulk Modulus (GPa) = 43.09224 66.17264 54.63244
# Shear Modulus (GPa) = 35.45714 44.75163 40.10439
#
# Velocity S-wave (km/s) = 3.70567 4.16313 3.94104
# Velocity P-wave (km/s) = 5.91594 6.98115 6.47050
#
# Compressibility (1/GPa) = 0.02320603
#
# Stress axis : x y z
#
# Youngs Moduli (GPa) = 46.04034 130.51740 140.53558
#
# Poissons Ratio (x) = 0.67625 0.09263
# Poissons Ratio (y) = 0.23855 0.11318
# Poissons Ratio (z) = 0.03035 0.10511
#
# Static dielectric constant tensor:
#      x y z
#    x 2.101590 0.011320 0.006550 
#    y 0.011320 2.082420 -0.043200 
#    z 0.006550 -0.043200 2.080550 
# 
# From -- ./inp_files/377740.got.cif
#   From: 2010.05.17/outbox.cif.g08.bks.cpg/sg2_189_cif.got.tgz:377740.got - 2010.06.03 11:33:40.
