data_PCOD9091130
_publ_section_title
;
Structure prediction by ZEFSAII (Michael W. Deem and Ramdas Pophale) SiO2 
 PCOD9091130
Probable space group: P -1
;
_chemical_formula_sum "Si O2"
_cell_formula_units_Z 16
_cell_length_a 8.170448
_cell_length_b 12.962189
_cell_length_c 10.986841
_cell_angle_alpha 36.055655
_cell_angle_beta 104.751954
_cell_angle_gamma 107.476880
_cell_volume 653.091259
_symmetry_space_group_name_H-M "P -1"
_symmetry_group_IT_number 2
_symmetry_cell_setting 'triclinic'
loop_
_space_group_symop_operation_xyz
x,y,z
-x,-y,-z
loop_
_atom_site_type_symbol
_atom_site_label
_atom_site_fract_x
_atom_site_fract_y
_atom_site_fract_z
Si Si1 0.498201 0.801577 0.461208
Si Si2 0.431815 0.532515 0.112134
Si Si3 0.323183 0.138888 0.090720
Si Si4 0.054709 0.920584 0.959602
Si Si5 0.827752 0.070424 0.362145
Si Si6 0.610954 0.842751 0.190487
Si Si7 0.145969 0.573920 0.854437
Si Si8 0.142449 0.632397 0.128148
O O1 0.456330 0.619718 0.699197
O O2 0.522464 0.737682 0.387744
O O3 0.370799 0.943340 0.294433
O O4 0.670191 0.914544 0.449297
O O5 0.301291 0.546004 0.190409
O O6 0.544418 0.725423 0.936917
O O7 0.304631 0.490341 0.014737
O O8 0.125649 0.128043 0.096741
O O9 0.356985 0.214737 0.885898
O O10 0.202902 0.076279 0.797131
O O11 0.141820 0.742231 0.148489
O O12 0.000000 0.000000 0.000000
O O13 0.801768 0.214149 0.324371
O O14 0.852607 0.200701 0.124533
O O15 0.000000 0.000000 0.500000
O O16 0.500000 0.000000 0.000000
O O17 0.035360 0.504342 0.783037
O O18 0.000000 0.500000 0.000000
#
# Coordination Sequence:
#
# PCOD9091130 Si02
#       8
#     2   2   2   2   2   2   2   2
#     4  11  18  33  59  82 113 146 189 243 281 324
#     4  10  19  34  57  86 112 144 190 236 287 327
#     4  10  20  36  54  77 120 151 187 226 282 343
#     4  10  20  36  59  80 113 159 184 224 285 340
#     4  10  16  28  55  86 110 140 183 243 289 318
#     4   9  18  34  57  84 102 142 191 235 277 323
#     4   8  16  29  49  80 116 134 181 239 279 329
#     4  10  17  34  54  85 113 141 196 238 275 334
#
# _framework density 24.498871999999999
#
# number of rings (size 3 to 8) (size 9 to 14) (size 15 to 20)
#    0.000    2.500    3.750    3.000    0.000    0.500 
#    0.000    1.875    0.000   10.500    0.000    0.000 
#    0.000    0.000    0.000    0.000    0.000    0.000 
#
# Total GULP energy -89209.378850 kJ/mol
# GULP energy per Si atom -5575.586178 kJ/mol
# Density = 2.444311 g / cm^3
# Si number density = 24.498872 Si / 1000 Ang^3
#
#
#
# Elastic Constant Matrix: (Units=GPa)
#
#
# Indices 1 2 3 4 5 6 
#
# 1 78.1091 25.7912 16.0256 5.6507 9.6363 3.2703
# 2 25.7912 72.1162 -3.1546 -12.8364 4.3534 -3.1671
# 3 16.0256 -3.1546 90.4994 4.4000 14.4365 -11.1713
# 4 5.6507 -12.8364 4.4000 21.1205 -4.3506 9.3202
# 5 9.6363 4.3534 14.4365 -4.3506 28.3866 -0.3770
# 6 3.2703 -3.1671 -11.1713 9.3202 -0.3770 51.6421
#
#
#
# Elastic Compliance Matrix: (Units=1/GPa)
#
#
# Indices 1 2 3 4 5 6 
#
# 1 0.017083 -0.007632 -0.002043 -0.009708 -0.005081 -0.000277
# 2 -0.007632 0.019015 0.001060 0.013912 0.001259 -0.000623
# 3 -0.002043 0.001060 0.013249 -0.004687 -0.006874 0.003856
# 4 -0.009708 0.013912 -0.004687 0.067317 0.013709 -0.011595
# 5 -0.005081 0.001259 -0.006874 0.013709 0.042314 -0.003253
# 6 -0.000277 -0.000623 0.003856 -0.011595 -0.003253 0.022246
#
#
# Mechanical properties :
#
#
# Convention : Reuss Voigt Hill
#
# Bulk Modulus (GPa) = 31.13545 35.33877 33.23711
# Shear Modulus (GPa) = 23.90526 33.70066 28.80296
#
# Velocity S-wave (km/s) = 3.12712 3.71293 3.43255
# Velocity P-wave (km/s) = 5.07691 5.73037 5.41351
#
# Compressibility (1/GPa) = 0.03211773
#
# Stress axis : x y z
#
# Youngs Moduli (GPa) = 58.53940 52.58921 75.47782
#
# Poissons Ratio (x) = 0.40136 0.15417
# Poissons Ratio (y) = 0.44677 -0.08002
# Poissons Ratio (z) = 0.11957 -0.05575
#
# Static dielectric constant tensor:
#      x y z
#    x 2.057570 -0.095020 -0.006230 
#    y -0.095020 2.151110 0.037130 
#    z -0.006230 0.037130 1.901380 
# 
# From -- ./inp_files/350267.got.cif
#   From: 2010.05.17/outbox.cif.g08.bks.cpg/sg2_176_cif.got.tgz:350267.got - 2010.06.03 11:33:40.
