data_PCOD9091657
_publ_section_title
;
Structure prediction by ZEFSAII (Michael W. Deem and Ramdas Pophale) SiO2 
 PCOD9091657
Probable space group: P -1
;
_chemical_formula_sum "Si O2"
_cell_formula_units_Z 15
_cell_length_a 12.058154
_cell_length_b 7.700652
_cell_length_c 12.226558
_cell_angle_alpha 73.135433
_cell_angle_beta 58.443298
_cell_angle_gamma 34.748433
_cell_volume 528.033723
_symmetry_space_group_name_H-M "P -1"
_symmetry_group_IT_number 2
_symmetry_cell_setting 'triclinic'
loop_
_space_group_symop_operation_xyz
x,y,z
-x,-y,-z
loop_
_atom_site_type_symbol
_atom_site_label
_atom_site_fract_x
_atom_site_fract_y
_atom_site_fract_z
Si Si1 0.280146 0.822009 0.802963
Si Si2 0.982394 0.291575 0.227225
Si Si3 0.621507 0.658242 0.805774
Si Si4 0.755082 0.491500 0.011111
Si Si5 0.916455 0.017941 0.422109
Si Si6 0.728317 0.846157 0.387664
Si Si7 0.000000 0.500000 0.000000
Si Si8 0.200618 0.158902 0.346448
O O1 0.432491 0.763022 0.819524
O O2 0.315781 0.891777 0.658735
O O3 0.333305 0.552103 0.846985
O O4 0.010586 0.148150 0.900947
O O5 0.829750 0.649988 0.255565
O O6 0.184151 0.083900 0.248845
O O7 0.843244 0.276479 0.342158
O O8 0.044147 0.244480 0.079759
O O9 0.620057 0.635899 0.940535
O O10 0.638454 0.852669 0.733629
O O11 0.862931 0.306807 0.697413
O O12 0.788660 0.654087 0.010685
O O13 0.762736 0.028377 0.543238
O O14 0.000000 0.000000 0.500000
O O15 0.934908 0.540254 0.414050
O O16 0.500000 0.000000 0.500000
#
# Coordination Sequence:
#
# PCOD9091657 Si02
#       8
#     2   2   2   2   2   2   1   2
#     4  11  24  42  71 101 132 182 232 288 342 415
#     4   9  21  37  68  98 136 189 219 285 354 394
#     4  12  22  43  73 101 133 185 240 274 350 422
#     4  11  25  46  69 100 138 180 236 285 345 414
#     4  10  22  38  64 102 140 183 223 286 346 408
#     4  10  19  39  68  99 135 180 235 278 345 418
#     4  12  20  46  72  92 146 176 228 288 354 402
#     4   9  19  41  63  98 132 182 227 275 343 410
#
# _framework density 28.407278000000002
#
# number of rings (size 3 to 8) (size 9 to 14) (size 15 to 20)
#    0.800    0.800    4.000    1.600    3.733    0.000 
#    0.000    3.333    2.933    3.200    0.000    0.000 
#    0.000    0.000    0.000    0.000    0.000    0.000 
#
# Total GULP energy -83758.560886 kJ/mol
# GULP energy per Si atom -5583.904059 kJ/mol
# Density = 2.834262 g / cm^3
# Si number density = 28.407278 Si / 1000 Ang^3
#
#
#
# Elastic Constant Matrix: (Units=GPa)
#
#
# Indices 1 2 3 4 5 6 
#
# 1 148.6080 43.7661 52.1782 -35.4285 -20.5749 -5.0159
# 2 43.7661 92.7085 57.6831 -20.8622 -17.9928 -13.4670
# 3 52.1782 57.6831 178.1307 -57.9465 -26.4106 4.0575
# 4 -35.4285 -20.8622 -57.9465 73.5054 8.1314 -12.1935
# 5 -20.5749 -17.9928 -26.4106 8.1314 66.3726 -19.0826
# 6 -5.0159 -13.4670 4.0575 -12.1935 -19.0826 54.1543
#
#
#
# Elastic Compliance Matrix: (Units=1/GPa)
#
#
# Indices 1 2 3 4 5 6 
#
# 1 0.008704 -0.002505 -0.000458 0.003178 0.001909 0.001606
# 2 -0.002505 0.015983 -0.003756 0.000885 0.003525 0.005465
# 3 -0.000458 -0.003756 0.009092 0.005724 0.001836 0.000278
# 4 0.003178 0.000885 0.005724 0.020546 0.002604 0.005629
# 5 0.001909 0.003525 0.001836 0.002604 0.019425 0.008347
# 6 0.001606 0.005465 0.000278 0.005629 0.008347 0.024162
#
#
# Mechanical properties :
#
#
# Convention : Reuss Voigt Hill
#
# Bulk Modulus (GPa) = 49.16137 80.74469 64.95303
# Shear Modulus (GPa) = 42.32617 56.52777 49.42697
#
# Velocity S-wave (km/s) = 3.86421 4.46567 4.17578
# Velocity P-wave (km/s) = 6.10352 7.42127 6.79442
#
# Compressibility (1/GPa) = 0.02034118
#
# Stress axis : x y z
#
# Youngs Moduli (GPa) = 114.89097 62.56599 109.98329
#
# Poissons Ratio (x) = 0.15673 0.05037
# Poissons Ratio (y) = 0.28780 0.41311
# Poissons Ratio (z) = 0.05262 0.23501
#
# Static dielectric constant tensor:
#      x y z
#    x 1.567510 -0.669300 -3.213900 
#    y -0.669300 1.425660 -3.492180 
#    z -3.213900 -3.492180 -13.690030 
# 
# From -- ./inp_files/416818.got.cif
#   From: 2010.05.17/outbox.cif.g08.bks.cpg/sg2_209_cif.got.tgz:416818.got - 2010.06.03 11:33:40.
