data_PCOD9091540
_publ_section_title
;
Structure prediction by ZEFSAII (Michael W. Deem and Ramdas Pophale) SiO2 
 PCOD9091540
Probable space group: P -1
;
_chemical_formula_sum "Si O2"
_cell_formula_units_Z 16
_cell_length_a 11.432816
_cell_length_b 14.489779
_cell_length_c 14.699374
_cell_angle_alpha 151.114897
_cell_angle_beta 44.413082
_cell_angle_gamma 138.347913
_cell_volume 767.951494
_symmetry_space_group_name_H-M "P -1"
_symmetry_group_IT_number 2
_symmetry_cell_setting 'triclinic'
loop_
_space_group_symop_operation_xyz
x,y,z
-x,-y,-z
loop_
_atom_site_type_symbol
_atom_site_label
_atom_site_fract_x
_atom_site_fract_y
_atom_site_fract_z
Si Si1 0.125552 0.172084 0.803177
Si Si2 0.700639 0.317019 0.446787
Si Si3 0.191297 0.011675 0.800903
Si Si4 0.176830 0.677029 0.822953
Si Si5 0.841351 0.777361 0.530750
Si Si6 0.677964 0.698607 0.374587
Si Si7 0.231070 0.208913 0.136983
Si Si8 0.490592 0.252168 0.183610
O O1 0.247178 0.123362 0.770457
O O2 0.236529 0.305904 0.774064
O O3 0.999023 0.956935 0.645275
O O4 0.991579 0.268238 0.006067
O O5 0.780814 0.299114 0.287656
O O6 0.486272 0.224593 0.478638
O O7 0.749942 0.556402 0.651746
O O8 0.763177 0.188315 0.374301
O O9 0.264944 0.166379 0.977484
O O10 0.974337 0.931494 0.851708
O O11 0.130921 0.436549 0.659459
O O12 0.350973 0.795641 0.893195
O O13 0.818052 0.826780 0.481969
O O14 0.653089 0.744389 0.657593
O O15 0.594041 0.476715 0.277036
O O16 0.364011 0.148741 0.078633
#
# Coordination Sequence:
#
# PCOD9091540 Si02
#       8
#     2   2   2   2   2   2   2   2
#     4  12  26  39  59  95 131 157 199 254 305 356
#     4  11  21  39  66  85 116 170 205 244 301 355
#     4  11  23  37  56  90 127 155 209 250 289 357
#     4  11  21  38  68  92 120 160 202 251 309 357
#     4  11  20  42  66  92 121 159 200 252 303 370
#     4  10  22  42  63  92 126 157 198 256 309 363
#     4  10  20  38  60  93 120 152 205 262 289 350
#     4  10  19  39  67  91 118 155 206 248 298 367
#
# _framework density 20.834648999999999
#
# number of rings (size 3 to 8) (size 9 to 14) (size 15 to 20)
#    0.000    1.250    5.000    3.000    0.000    5.000 
#    0.000    5.000    0.000    0.000    0.000    0.000 
#    0.000    0.000    0.000    0.000    0.000    0.000 
#
# Total GULP energy -89379.208424 kJ/mol
# GULP energy per Si atom -5586.200526 kJ/mol
# Density = 2.078723 g / cm^3
# Si number density = 20.834649 Si / 1000 Ang^3
#
#
#
# Elastic Constant Matrix: (Units=GPa)
#
#
# Indices 1 2 3 4 5 6 
#
# 1 94.2563 33.8642 15.2287 -9.7022 9.3432 -14.8652
# 2 33.8642 38.2760 24.6327 -3.6614 -5.4146 -21.3207
# 3 15.2287 24.6327 71.9971 -3.1169 12.9198 -0.0831
# 4 -9.7022 -3.6614 -3.1169 23.4535 4.4092 12.4902
# 5 9.3432 -5.4146 12.9198 4.4092 31.6619 -4.0934
# 6 -14.8652 -21.3207 -0.0831 12.4902 -4.0934 21.6873
#
#
#
# Elastic Compliance Matrix: (Units=1/GPa)
#
#
# Indices 1 2 3 4 5 6 
#
# 1 0.009081 0.015710 -0.009622 -0.013617 0.009881 0.031339
# 2 0.015710 -0.072878 0.034363 0.069141 -0.055096 -0.110966
# 3 -0.009622 0.034363 -0.000246 -0.026621 0.018471 0.046004
# 4 -0.013617 0.069141 -0.026621 0.004684 0.034104 0.062277
# 5 0.009881 -0.055096 0.018471 0.034104 -0.001740 -0.067291
# 6 0.031339 -0.110966 0.046004 0.062277 -0.067291 -0.089891
#
#
# Mechanical properties :
#
#
# Convention : Reuss Voigt Hill
#
# Bulk Modulus (GPa) = 59.31795 39.10896 49.21346
# Shear Modulus (GPa) = -22.09723 24.08081 0.99179
#
# Velocity S-wave (km/s) = -3.26022 3.40340 0.69070
# Velocity P-wave (km/s) = 3.78954 5.85287 4.93035
#
# Compressibility (1/GPa) = 0.01685830
#
# Stress axis : x y z
#
# Youngs Moduli (GPa) = 110.11665 -13.72149 -4062.46602
#
# Poissons Ratio (x) = 0.21556 -39.08914
# Poissons Ratio (y) = -1.72988 139.59978
# Poissons Ratio (z) = 1.05954 0.47152
#
# Static dielectric constant tensor:
#      x y z
#    x 1.793080 -0.000350 0.017820 
#    y -0.000350 1.765180 0.038320 
#    z 0.017820 0.038320 1.750120 
# 
# From -- ./inp_files/521872.got.cif
#   From: 2010.05.17/outbox.cif.g08.bks.cpg/sg2_261_cif.got.tgz:521872.got - 2010.06.03 11:33:40.
