data_PCOD9091108
_publ_section_title
;
Structure prediction by ZEFSAII (Michael W. Deem and Ramdas Pophale) SiO2 
 PCOD9091108
Probable space group: P -1
;
_chemical_formula_sum "Si O2"
_cell_formula_units_Z 16
_cell_length_a 10.917204
_cell_length_b 11.616038
_cell_length_c 8.650817
_cell_angle_alpha 57.082337
_cell_angle_beta 102.052419
_cell_angle_gamma 129.303629
_cell_volume 696.951139
_symmetry_space_group_name_H-M "P -1"
_symmetry_group_IT_number 2
_symmetry_cell_setting 'triclinic'
loop_
_space_group_symop_operation_xyz
x,y,z
-x,-y,-z
loop_
_atom_site_type_symbol
_atom_site_label
_atom_site_fract_x
_atom_site_fract_y
_atom_site_fract_z
Si Si1 0.686500 0.262174 0.753464
Si Si2 0.934674 0.248082 0.991878
Si Si3 0.488005 0.879498 0.880281
Si Si4 0.178930 0.778205 0.705271
Si Si5 0.625868 0.699144 0.950678
Si Si6 0.844835 0.884630 0.153356
Si Si7 0.075801 0.981476 0.385863
Si Si8 0.861884 0.478788 0.375699
O O1 0.838320 0.313928 0.855048
O O2 0.723740 0.396197 0.530772
O O3 0.634179 0.086946 0.780006
O O4 0.557439 0.201039 0.898622
O O5 0.080844 0.349513 0.832096
O O6 0.959817 0.299037 0.141995
O O7 0.837564 0.037237 0.105976
O O8 0.341530 0.866085 0.781243
O O9 0.532838 0.780078 0.864368
O O10 0.175549 0.652022 0.676803
O O11 0.167342 0.907515 0.509752
O O12 0.789888 0.828087 0.798180
O O13 0.500000 0.500000 0.000000
O O14 0.692148 0.736160 0.118515
O O15 0.918347 0.842839 0.339197
O O16 0.000000 0.000000 0.000000
O O17 0.000000 0.000000 0.500000
O O18 0.000000 0.500000 0.500000
#
# Coordination Sequence:
#
# PCOD9091108 Si02
#       8
#     2   2   2   2   2   2   2   2
#     4   9  19  37  64  97 125 167 214 272 334 404
#     4  10  19  39  63  91 129 170 217 275 342 399
#     4  10  21  41  68  94 134 176 217 272 347 409
#     4  11  23  39  66  97 136 173 222 279 341 412
#     4  11  25  47  70 101 139 184 232 285 348 412
#     4  10  22  41  69  92 131 187 229 275 340 411
#     4  11  24  45  71 100 134 183 236 277 337 419
#     4  10  22  36  57  96 133 161 212 279 329 400
#
# _framework density 22.957132999999999
#
# number of rings (size 3 to 8) (size 9 to 14) (size 15 to 20)
#    0.000    1.750    2.500    1.125    5.250    4.000 
#    6.750    0.625    0.000    0.000    0.000    0.000 
#    0.000    0.000    0.000    0.000    0.000    0.000 
#
# Total GULP energy -89208.245371 kJ/mol
# GULP energy per Si atom -5575.515336 kJ/mol
# Density = 2.290488 g / cm^3
# Si number density = 22.957133 Si / 1000 Ang^3
#
#
#
# Elastic Constant Matrix: (Units=GPa)
#
#
# Indices 1 2 3 4 5 6 
#
# 1 71.4992 15.5358 20.2172 0.7661 6.5552 -6.2597
# 2 15.5358 120.2114 49.9699 9.7166 4.3030 -0.1739
# 3 20.2172 49.9699 128.7723 9.0404 -5.1635 9.0736
# 4 0.7661 9.7166 9.0404 32.8031 2.7434 0.9552
# 5 6.5552 4.3030 -5.1635 2.7434 31.6234 5.7110
# 6 -6.2597 -0.1739 9.0736 0.9552 5.7110 26.9173
#
#
#
# Elastic Compliance Matrix: (Units=1/GPa)
#
#
# Indices 1 2 3 4 5 6 
#
# 1 0.015873 -0.000762 -0.002844 0.000872 -0.004742 0.005620
# 2 -0.000762 0.010279 -0.003944 -0.001820 -0.002037 0.001715
# 3 -0.002844 -0.003944 0.010372 -0.001804 0.003868 -0.004940
# 4 0.000872 -0.001820 -0.001804 0.031746 -0.003039 0.000317
# 5 -0.004742 -0.002037 0.003868 -0.003039 0.035557 -0.009856
# 6 0.005620 0.001715 -0.004940 0.000317 -0.009856 0.042214
#
#
# Mechanical properties :
#
#
# Convention : Reuss Voigt Hill
#
# Bulk Modulus (GPa) = 46.67345 54.65874 50.66609
# Shear Modulus (GPa) = 29.71193 33.91943 31.81568
#
# Velocity S-wave (km/s) = 3.60145 3.84801 3.72677
# Velocity P-wave (km/s) = 6.13749 6.60331 6.37465
#
# Compressibility (1/GPa) = 0.02142546
#
# Stress axis : x y z
#
# Youngs Moduli (GPa) = 62.99906 97.28534 96.41001
#
# Poissons Ratio (x) = 0.07412 0.27417
# Poissons Ratio (y) = 0.04800 0.38023
# Poissons Ratio (z) = 0.17915 0.38369
#
# Static dielectric constant tensor:
#      x y z
#    x 1.997140 0.058580 0.019740 
#    y 0.058580 1.903940 0.005530 
#    z 0.019740 0.005530 1.992920 
# 
# From -- ./inp_files/256970.got.cif
#   From: 2010.05.17/outbox.cif.g08.bks.cpg/sg2_129_cif.got.tgz:256970.got - 2010.06.03 11:33:40.
