data_PCOD9091584
_publ_section_title
;
Structure prediction by ZEFSAII (Michael W. Deem and Ramdas Pophale) SiO2 
 PCOD9091584
Probable space group: P -1
;
_chemical_formula_sum "Si O2"
_cell_formula_units_Z 16
_cell_length_a 26.877339
_cell_length_b 18.980808
_cell_length_c 5.499862
_cell_angle_alpha 114.777524
_cell_angle_beta 64.949651
_cell_angle_gamma 158.645782
_cell_volume 922.962812
_symmetry_space_group_name_H-M "P -1"
_symmetry_group_IT_number 2
_symmetry_cell_setting 'triclinic'
loop_
_space_group_symop_operation_xyz
x,y,z
-x,-y,-z
loop_
_atom_site_type_symbol
_atom_site_label
_atom_site_fract_x
_atom_site_fract_y
_atom_site_fract_z
Si Si1 0.512983 0.899688 0.405957
Si Si2 0.703420 0.947326 0.735743
Si Si3 0.196575 0.690196 0.347654
Si Si4 0.616981 0.130104 0.136709
Si Si5 0.462594 0.236003 0.685490
Si Si6 0.631141 0.610850 0.883365
Si Si7 0.953688 0.374989 0.721590
Si Si8 0.667466 0.718605 0.464082
O O1 0.656941 0.104328 0.538302
O O2 0.565660 0.981999 0.141762
O O3 0.399439 0.819566 0.570010
O O4 0.471385 0.762155 0.389378
O O5 0.617469 0.864421 0.553690
O O6 0.711148 0.864481 0.576371
O O7 0.851333 0.179744 0.761096
O O8 0.632961 0.873844 0.036264
O O9 0.134562 0.691046 0.388475
O O10 0.087279 0.515373 0.510449
O O11 0.236517 0.690238 0.032158
O O12 0.500000 0.000000 0.000000
O O13 0.570264 0.445880 0.761283
O O14 0.710135 0.734106 0.650916
O O15 0.500000 0.500000 0.000000
O O16 0.707665 0.726921 0.145636
O O17 0.000000 0.500000 0.000000
O O18 0.500000 0.500000 0.500000
#
# Coordination Sequence:
#
# PCOD9091584 Si02
#       8
#     2   2   2   2   2   2   2   2
#     4  10  20  33  51  73  95 133 173 215 259 305
#     4  12  21  31  49  70 103 142 172 207 249 309
#     4  10  19  35  49  65  98 133 170 213 255 294
#     4   9  19  35  52  68  94 130 170 219 262 300
#     4  12  20  30  50  74 102 133 174 207 253 314
#     4  10  16  29  44  67  98 134 156 206 256 302
#     4  11  23  33  47  72 102 139 178 213 249 296
#     4  10  16  30  44  66  96 136 164 198 256 303
#
# _framework density 17.335474999999999
#
# number of rings (size 3 to 8) (size 9 to 14) (size 15 to 20)
#    0.000    1.500    6.250    2.250    3.500    0.000 
#    0.000    0.000    0.000    0.000    0.000    0.000 
#    0.000    2.000    0.000    0.000    0.000    0.000 
#
# Total GULP energy -89093.820020 kJ/mol
# GULP energy per Si atom -5568.363751 kJ/mol
# Density = 1.729602 g / cm^3
# Si number density = 17.335475 Si / 1000 Ang^3
#
#
#
# Elastic Constant Matrix: (Units=GPa)
#
#
# Indices 1 2 3 4 5 6 
#
# 1 78.8031 30.3722 26.7643 -2.9849 3.5861 -28.8648
# 2 30.3722 73.7339 31.4840 -0.2177 -11.1756 -28.0468
# 3 26.7643 31.4840 91.3106 -15.3116 14.4834 -10.2296
# 4 -2.9849 -0.2177 -15.3116 26.9415 -3.6482 -4.0398
# 5 3.5861 -11.1756 14.4834 -3.6482 34.1194 -1.7261
# 6 -28.8648 -28.0468 -10.2296 -4.0398 -1.7261 33.1818
#
#
#
# Elastic Compliance Matrix: (Units=1/GPa)
#
#
# Indices 1 2 3 4 5 6 
#
# 1 0.020162 -0.000546 -0.003476 0.002747 0.000299 0.016356
# 2 -0.000546 0.027937 -0.009401 -0.000104 0.014248 0.020968
# 3 -0.003476 -0.009401 0.017375 0.007336 -0.009569 -0.005218
# 4 0.002747 -0.000104 0.007336 0.043308 0.001696 0.009924
# 5 0.000299 0.014248 -0.009569 0.001696 0.038773 0.011576
# 6 0.016356 0.020968 -0.005218 0.009924 0.011576 0.062290
#
#
# Mechanical properties :
#
#
# Convention : Reuss Voigt Hill
#
# Bulk Modulus (GPa) = 25.88768 46.78760 36.33764
# Shear Modulus (GPa) = 20.03468 29.19701 24.61584
#
# Velocity S-wave (km/s) = 3.40325 4.10839 3.77234
# Velocity P-wave (km/s) = 5.51440 7.03941 6.32305
#
# Compressibility (1/GPa) = 0.03862842
#
# Stress axis : x y z
#
# Youngs Moduli (GPa) = 49.59731 35.79542 57.55339
#
# Poissons Ratio (x) = 0.01955 0.20005
# Poissons Ratio (y) = 0.02709 0.54104
# Poissons Ratio (z) = 0.17239 0.33650
#
# Static dielectric constant tensor:
#      x y z
#    x 1.617120 -0.018290 0.048440 
#    y -0.018290 1.565090 -0.016290 
#    z 0.048440 -0.016290 1.744340 
# 
# From -- ./inp_files/74704.got.cif
#   From: 2010.05.17/outbox.cif.g08.bks.cpg/sg2_38_cif.got.tgz:74704.got - 2010.06.03 11:33:40.
