data_PCOD9091643
_publ_section_title
;
Structure prediction by ZEFSAII (Michael W. Deem and Ramdas Pophale) SiO2 
 PCOD9091643
Probable space group: P -1
;
_chemical_formula_sum "Si O2"
_cell_formula_units_Z 16
_cell_length_a 13.774455
_cell_length_b 11.349697
_cell_length_c 19.183968
_cell_angle_alpha 146.835739
_cell_angle_beta 144.805770
_cell_angle_gamma 32.042598
_cell_volume 808.386167
_symmetry_space_group_name_H-M "P -1"
_symmetry_group_IT_number 2
_symmetry_cell_setting 'triclinic'
loop_
_space_group_symop_operation_xyz
x,y,z
-x,-y,-z
loop_
_atom_site_type_symbol
_atom_site_label
_atom_site_fract_x
_atom_site_fract_y
_atom_site_fract_z
Si Si1 0.710056 0.988262 0.434513
Si Si2 0.738173 0.334061 0.857561
Si Si3 0.394443 0.050482 0.388798
Si Si4 0.587095 0.176726 0.157126
Si Si5 0.687811 0.133137 0.343107
Si Si6 0.105045 0.548793 0.395819
Si Si7 0.055962 0.802448 0.238584
Si Si8 0.034616 0.455046 0.828491
O O1 0.885958 0.714484 0.379079
O O2 0.555040 0.972968 0.384286
O O3 0.616350 0.145056 0.385780
O O4 0.816241 0.108052 0.599405
O O5 0.525787 0.575730 0.833269
O O6 0.861579 0.265643 0.824344
O O7 0.713507 0.106538 0.754330
O O8 0.843934 0.416194 0.016064
O O9 0.242728 0.344041 0.431172
O O10 0.500000 0.000000 0.500000
O O11 0.545577 0.249595 0.250930
O O12 0.823506 0.021485 0.209007
O O13 0.500000 0.000000 0.000000
O O14 0.819828 0.260221 0.482034
O O15 0.819242 0.836831 0.253817
O O16 0.103044 0.424761 0.259727
O O17 0.065094 0.575178 0.175556
#
# Coordination Sequence:
#
# PCOD9091643 Si02
#       8
#     2   2   2   2   2   2   2   2
#     4  11  22  42  68  95 122 165 219 260 312 366
#     4  12  25  43  59  93 141 160 212 257 307 391
#     4  12  28  42  60  94 130 177 209 252 308 387
#     4  11  22  38  65  99 127 159 201 261 326 364
#     4  10  19  39  68  97 122 157 210 271 311 363
#     4  11  22  43  67  91 126 163 213 264 315 367
#     4  11  21  39  68  97 122 164 205 265 326 358
#     4  10  20  40  69  93 122 161 205 271 322 360
#
# _framework density 19.792521000000001
#
# number of rings (size 3 to 8) (size 9 to 14) (size 15 to 20)
#    0.000    1.000    7.500    1.875    0.000    3.500 
#    0.000    2.500    0.000    0.000    0.000    0.000 
#    0.000    0.000    0.000    0.000    0.000    0.000 
#
# Total GULP energy -89400.113026 kJ/mol
# GULP energy per Si atom -5587.507064 kJ/mol
# Density = 1.974747 g / cm^3
# Si number density = 19.792521 Si / 1000 Ang^3
#
#
#
# Elastic Constant Matrix: (Units=GPa)
#
#
# Indices 1 2 3 4 5 6 
#
# 1 ****************************** -49.2797 -668.1410 4361.9627
# 2 **********-2671.4881-4126.3818 -7.2720 -105.3265 663.3591
# 3 **********-4126.3818-6138.7359 -17.7389 -158.7068 1007.3072
# 4 -49.2797 -7.2720 -17.7389 24.7025 10.6803 2.4941
# 5 -668.1410 -105.3265 -158.7068 10.6803 20.7487 21.3655
# 6 4361.9627 663.3591 1007.3072 2.4941 21.3655 -133.7586
#
#
#
# Elastic Compliance Matrix: (Units=1/GPa)
#
#
# Indices 1 2 3 4 5 6 
#
# 1 0.001081 -0.003324 -0.002066 -0.000225 -0.000902 0.003074
# 2 -0.003324 0.020737 0.000029 -0.001868 0.004245 -0.004678
# 3 -0.002066 0.000029 0.008435 0.001966 0.000778 -0.003542
# 4 -0.000225 -0.001868 0.001966 0.051510 -0.023482 -0.004585
# 5 -0.000902 0.004245 0.000778 -0.023482 0.053042 0.005519
# 6 0.003074 -0.004678 -0.003542 -0.004585 0.005519 0.043677
#
#
# Mechanical properties :
#
#
# Convention : Reuss Voigt Hill
#
# Bulk Modulus (GPa) = 51.19514 -25330.38792 -12639.59639
# Shear Modulus (GPa) = 25.54763 -5294.56455 -2634.50846
#
# Velocity S-wave (km/s) = 3.59663 -51.77683 -36.52331
# Velocity P-wave (km/s) = 6.57037 128.06325 90.43513
#
# Compressibility (1/GPa) = 0.01953310
#
# Stress axis : x y z
#
# Youngs Moduli (GPa) = 924.78476 48.22338 118.55284
#
# Poissons Ratio (x) = 0.16027 0.24492
# Poissons Ratio (y) = 3.07360 -0.00349
# Poissons Ratio (z) = 1.91056 -0.00142
#
# Static dielectric constant tensor:
#      x y z
#    x 1.696580 -0.009880 -0.032810 
#    y -0.009880 1.743260 -0.016520 
#    z -0.032810 -0.016520 1.693270 
# 
# From -- ./inp_files/302673.got.cif
#   From: 2010.05.17/outbox.cif.g08.bks.cpg/sg2_152_cif.got.tgz:302673.got - 2010.06.03 11:33:40.
