data_PCOD9091710
_publ_section_title
;
Structure prediction by ZEFSAII (Michael W. Deem and Ramdas Pophale) SiO2 
 PCOD9091710
Probable space group: P -1
;
_chemical_formula_sum "Si O2"
_cell_formula_units_Z 13
_cell_length_a 11.289580
_cell_length_b 9.153646
_cell_length_c 11.945038
_cell_angle_alpha 57.613355
_cell_angle_beta 45.247588
_cell_angle_gamma 39.928170
_cell_volume 562.615656
_symmetry_space_group_name_H-M "P -1"
_symmetry_group_IT_number 2
_symmetry_cell_setting 'triclinic'
loop_
_space_group_symop_operation_xyz
x,y,z
-x,-y,-z
loop_
_atom_site_type_symbol
_atom_site_label
_atom_site_fract_x
_atom_site_fract_y
_atom_site_fract_z
Si Si1 0.050017 0.634366 0.483531
Si Si2 0.578790 0.378822 0.875628
Si Si3 0.323680 0.849204 0.481445
Si Si4 0.805975 0.447257 0.338750
Si Si5 0.211134 0.026117 0.963530
Si Si6 0.740419 0.180632 0.208378
Si Si7 0.000000 0.500000 0.000000
O O1 0.216470 0.650991 0.299425
O O2 0.153643 0.507911 0.583872
O O3 0.000000 0.500000 0.500000
O O4 0.825856 0.888169 0.556160
O O5 0.380339 0.557143 0.850368
O O6 0.638730 0.142389 0.964838
O O7 0.500000 0.500000 0.000000
O O8 0.573839 0.665968 0.351659
O O9 0.212142 0.747944 0.555398
O O10 0.333730 0.832918 0.616454
O O11 0.991091 0.360469 0.161585
O O12 0.124177 0.277013 0.925703
O O13 0.998547 0.042879 0.101273
O O14 0.312128 0.914345 0.819570
#
# Coordination Sequence:
#
# PCOD9091710 Si02
#       7
#     2   2   2   2   2   2   1
#     4  12  26  42  66 103 135 167 218 280 329 382
#     4  10  21  40  66  98 127 172 222 263 321 389
#     4  11  23  46  69  94 127 183 217 265 332 392
#     4  11  26  45  67  94 138 173 222 268 325 399
#     4  10  22  38  66  96 133 168 216 272 317 391
#     4  10  19  39  70  90 124 174 223 255 317 395
#     4  12  24  44  64 100 132 176 208 276 338 370
#
# _framework density 23.106361
#
# number of rings (size 3 to 8) (size 9 to 14) (size 15 to 20)
#    0.000    1.231    4.615    0.462    2.154    3.077 
#    0.000    1.538    0.000    0.000    0.000    0.000 
#    0.000    0.000    0.000    0.000    0.000    0.000 
#
# Total GULP energy -72406.530108 kJ/mol
# GULP energy per Si atom -5569.733085 kJ/mol
# Density = 2.305377 g / cm^3
# Si number density = 23.106361 Si / 1000 Ang^3
#
#
#
# Elastic Constant Matrix: (Units=GPa)
#
#
# Indices 1 2 3 4 5 6 
#
# 1 58.9553 9.9941 22.1504 -1.9231 17.1341 6.4655
# 2 9.9941 83.2973 -34.2462 16.8585 -5.8547 -1.4114
# 3 22.1504 -34.2462 57.8899 0.7914 12.5021 8.2204
# 4 -1.9231 16.8585 0.7914 12.6916 6.3582 12.4426
# 5 17.1341 -5.8547 12.5021 6.3582 14.3391 -4.4606
# 6 6.4655 -1.4114 8.2204 12.4426 -4.4606 38.4754
#
#
#
# Elastic Compliance Matrix: (Units=1/GPa)
#
#
# Indices 1 2 3 4 5 6 
#
# 1 0.003346 0.010613 -0.004355 -0.050132 0.032825 0.020776
# 2 0.010613 0.004600 0.009718 0.034320 -0.040559 -0.019492
# 3 -0.004355 0.009718 0.031964 0.009304 -0.026500 -0.011822
# 4 -0.050132 0.034320 0.009304 -0.077370 0.114416 0.045981
# 5 0.032825 -0.040559 -0.026500 0.114416 -0.026558 -0.041422
# 6 0.020776 -0.019492 -0.011822 0.045981 -0.041422 0.004638
#
#
# Mechanical properties :
#
#
# Convention : Reuss Voigt Hill
#
# Bulk Modulus (GPa) = 13.91541 21.77102 17.84321
# Shear Modulus (GPa) = -74.20723 26.58417 -23.81153
#
# Velocity S-wave (km/s) = -5.67320 3.39560 -3.21365
# Velocity P-wave (km/s) = 6.07274 4.98157 2.45583
#
# Compressibility (1/GPa) = 0.07186280
#
# Stress axis : x y z
#
# Youngs Moduli (GPa) = 298.90271 217.37923 31.28494
#
# Poissons Ratio (x) = -2.30714 0.13626
# Poissons Ratio (y) = -3.17239 -0.30403
# Poissons Ratio (z) = 1.30182 -2.11254
#
# Static dielectric constant tensor:
#      x y z
#    x 1.843390 -0.016590 0.020900 
#    y -0.016590 1.922260 0.029480 
#    z 0.020900 0.029480 1.778300 
# 
# From -- ./inp_files/164081.got.cif
#   From: 2010.05.17/outbox.cif.g08.bks.cpg/sg2_83_cif.got.tgz:164081.got - 2010.06.03 11:33:40.
