data_PCOD9091364
_publ_section_title
;
Structure prediction by ZEFSAII (Michael W. Deem and Ramdas Pophale) SiO2 
 PCOD9091364
Probable space group: P -1
;
_chemical_formula_sum "Si O2"
_cell_formula_units_Z 14
_cell_length_a 11.595321
_cell_length_b 8.289307
_cell_length_c 9.090167
_cell_angle_alpha 75.145270
_cell_angle_beta 127.235790
_cell_angle_gamma 98.691426
_cell_volume 672.357608
_symmetry_space_group_name_H-M "P -1"
_symmetry_group_IT_number 2
_symmetry_cell_setting 'triclinic'
loop_
_space_group_symop_operation_xyz
x,y,z
-x,-y,-z
loop_
_atom_site_type_symbol
_atom_site_label
_atom_site_fract_x
_atom_site_fract_y
_atom_site_fract_z
Si Si1 0.467737 0.537824 0.793697
Si Si2 0.776753 0.257444 0.349266
Si Si3 0.920491 0.849988 0.386061
Si Si4 0.397680 0.160259 0.352119
Si Si5 0.638882 0.218812 0.925233
Si Si6 0.855112 0.001551 0.982950
Si Si7 0.654077 0.898497 0.362937
O O1 0.299672 0.589757 0.661896
O O2 0.534342 0.701383 0.731836
O O3 0.543326 0.386801 0.800514
O O4 0.500000 0.500000 0.000000
O O5 0.948639 0.281117 0.479976
O O6 0.723961 0.078679 0.417193
O O7 0.715131 0.232859 0.140568
O O8 0.767648 0.819975 0.353907
O O9 0.887550 0.911370 0.183002
O O10 0.000000 0.000000 0.500000
O O11 0.356859 0.212771 0.473534
O O12 0.500000 0.000000 0.500000
O O13 0.257028 0.100508 0.174884
O O14 0.508659 0.084198 0.833314
O O15 0.766836 0.170980 0.921572
O O16 0.000000 0.000000 0.000000
#
# Coordination Sequence:
#
# PCOD9091364 Si02
#       7
#     2   2   2   2   2   2   2
#     4  10  24  41  67  93 137 167 211 268 332 378
#     4  10  19  39  65  93 128 170 215 261 320 387
#     4  10  21  36  64  93 126 167 219 265 312 373
#     4  12  24  41  67  97 128 170 222 268 312 383
#     4  11  22  38  65  93 129 170 213 264 328 374
#     4  12  24  39  66  98 132 168 222 266 320 382
#     4  11  21  37  65  96 121 165 225 263 306 381
#
# _framework density 20.822251999999999
#
# number of rings (size 3 to 8) (size 9 to 14) (size 15 to 20)
#    0.000    1.143    5.714    2.143    4.000    0.571 
#    0.000    1.429    0.000    0.000    0.000    0.000 
#    0.000    0.000    0.000    0.000    0.000    0.000 
#
# Total GULP energy -77996.322141 kJ/mol
# GULP energy per Si atom -5571.165867 kJ/mol
# Density = 2.077486 g / cm^3
# Si number density = 20.822252 Si / 1000 Ang^3
#
#
#
# Elastic Constant Matrix: (Units=GPa)
#
#
# Indices 1 2 3 4 5 6 
#
# 1 214.5047 41.7838 67.0752 -14.1101 9.7588 -27.8908
# 2 41.7838 45.3135 21.9033 -11.7759 -2.7057 -17.6514
# 3 67.0752 21.9033 131.4388 10.3776 -4.3318 1.0318
# 4 -14.1101 -11.7759 10.3776 27.5605 -2.6588 3.7314
# 5 9.7588 -2.7057 -4.3318 -2.6588 48.6278 -13.2243
# 6 -27.8908 -17.6514 1.0318 3.7314 -13.2243 29.6621
#
#
#
# Elastic Compliance Matrix: (Units=1/GPa)
#
#
# Indices 1 2 3 4 5 6 
#
# 1 0.007060 -0.001918 -0.003604 0.003439 -0.000279 0.005065
# 2 -0.001918 0.042827 -0.007412 0.017534 0.010215 0.026289
# 3 -0.003604 -0.007412 0.011363 -0.008368 -0.001225 -0.007688
# 4 0.003439 0.017534 -0.008368 0.047789 0.004910 0.010136
# 5 -0.000279 0.010215 -0.001225 0.004910 0.025916 0.016796
# 6 0.005065 0.026289 -0.007688 0.010136 0.016796 0.060600
#
#
# Mechanical properties :
#
#
# Convention : Reuss Voigt Hill
#
# Bulk Modulus (GPa) = 28.26256 72.53127 50.39692
# Shear Modulus (GPa) = 21.43938 38.53641 29.98789
#
# Velocity S-wave (km/s) = 3.21228 4.30668 3.79909
# Velocity P-wave (km/s) = 5.23078 7.72264 6.59546
#
# Compressibility (1/GPa) = 0.03538249
#
# Stress axis : x y z
#
# Youngs Moduli (GPa) = 141.64567 23.34980 88.00534
#
# Poissons Ratio (x) = 0.04478 0.31714
# Poissons Ratio (y) = 0.27164 0.65232
# Poissons Ratio (z) = 0.51045 0.17307
#
# Static dielectric constant tensor:
#      x y z
#    x 1.900160 0.016540 -0.046500 
#    y 0.016540 1.927090 -0.078730 
#    z -0.046500 -0.078730 1.802980 
# 
# From -- ./inp_files/214999.got.cif
#   From: 2010.05.17/outbox.cif.g08.bks.cpg/sg2_108_cif.got.tgz:214999.got - 2010.06.03 11:33:40.
