data_PCOD9091849
_publ_section_title
;
Structure prediction by ZEFSAII (Michael W. Deem and Ramdas Pophale) SiO2 
 PCOD9091849
Probable space group: P -1
;
_chemical_formula_sum "Si O2"
_cell_formula_units_Z 16
_cell_length_a 7.736775
_cell_length_b 10.797514
_cell_length_c 23.618044
_cell_angle_alpha 26.288163
_cell_angle_beta 52.940784
_cell_angle_gamma 46.546467
_cell_volume 633.729430
_symmetry_space_group_name_H-M "P -1"
_symmetry_group_IT_number 2
_symmetry_cell_setting 'triclinic'
loop_
_space_group_symop_operation_xyz
x,y,z
-x,-y,-z
loop_
_atom_site_type_symbol
_atom_site_label
_atom_site_fract_x
_atom_site_fract_y
_atom_site_fract_z
Si Si1 0.000649 0.139334 0.587526
Si Si2 0.214616 0.428554 0.132149
Si Si3 0.102332 0.670933 0.228130
Si Si4 0.044570 0.192997 0.682124
Si Si5 0.765665 0.025125 0.502317
Si Si6 0.423773 0.886175 0.385635
Si Si7 0.393096 0.970812 0.864491
Si Si8 0.706693 0.915120 0.037910
O O1 0.056009 0.439169 0.455395
O O2 0.733629 0.243738 0.569322
O O3 0.020139 0.046468 0.687541
O O4 0.189088 0.916376 0.595691
O O5 0.369843 0.170899 0.161471
O O6 0.257868 0.247528 0.256883
O O7 0.312537 0.689738 0.002048
O O8 0.933609 0.600768 0.108691
O O9 0.080017 0.852477 0.217741
O O10 0.241465 0.309353 0.358340
O O11 0.196650 0.821139 0.098940
O O12 0.827329 0.750049 0.235142
O O13 0.320293 0.110063 0.676105
O O14 0.569353 0.221845 0.506219
O O15 0.000000 0.000000 0.500000
O O16 0.400145 0.079666 0.881577
O O17 0.500000 0.000000 0.000000
#
# Coordination Sequence:
#
# PCOD9091849 Si02
#       8
#     2   2   2   2   2   2   2   2
#     4   9  21  37  55  87 121 154 204 254 299 379
#     4  10  21  38  62  92 116 159 214 250 305 382
#     4  10  19  40  62  84 119 163 204 249 313 372
#     4  10  20  37  61  84 120 159 201 253 311 363
#     4   9  19  35  61  87 119 157 203 254 305 371
#     4  11  19  36  60  88 118 159 202 251 312 364
#     4  10  20  39  64  86 119 162 205 255 306 371
#     4  11  24  40  60  91 130 162 202 258 313 370
#
# _framework density 25.247366
#
# number of rings (size 3 to 8) (size 9 to 14) (size 15 to 20)
#    0.000    2.000    1.250    3.375    0.000    2.000 
#    4.500    0.000   11.000    0.000    0.000    0.000 
#    0.000    0.000    0.000    0.000    0.000    0.000 
#
# Total GULP energy -89270.705202 kJ/mol
# GULP energy per Si atom -5579.419075 kJ/mol
# Density = 2.518990 g / cm^3
# Si number density = 25.247366 Si / 1000 Ang^3
#
#
#
# Elastic Constant Matrix: (Units=GPa)
#
#
# Indices 1 2 3 4 5 6 
#
# 1 118.7710 61.8880 11.1839 11.2776 23.4300 6.2489
# 2 61.8880 127.8616 1.2339 31.6159 16.1869 24.0250
# 3 11.1839 1.2339 49.4044 12.2420 -5.1764 9.2179
# 4 11.2776 31.6159 12.2420 39.0174 11.6399 15.7092
# 5 23.4300 16.1869 -5.1764 11.6399 39.3634 11.3668
# 6 6.2489 24.0250 9.2179 15.7092 11.3668 40.1227
#
#
#
# Elastic Compliance Matrix: (Units=1/GPa)
#
#
# Indices 1 2 3 4 5 6 
#
# 1 0.013945 -0.007597 -0.005858 0.004807 -0.008604 0.004278
# 2 -0.007597 0.014552 0.005370 -0.010064 0.003934 -0.005939
# 3 -0.005858 0.005370 0.026551 -0.011232 0.010072 -0.006859
# 4 0.004807 -0.010064 -0.011232 0.041269 -0.010898 -0.005213
# 5 -0.008604 0.003934 0.010072 -0.010898 0.036141 -0.009302
# 6 0.004278 -0.005939 -0.006859 -0.005213 -0.009302 0.034065
#
#
# Mechanical properties :
#
#
# Convention : Reuss Voigt Hill
#
# Bulk Modulus (GPa) = 25.71994 49.40540 37.56267
# Shear Modulus (GPa) = 25.55553 38.48279 32.01916
#
# Velocity S-wave (km/s) = 3.18497 3.90837 3.56507
# Velocity P-wave (km/s) = 4.87182 6.32283 5.64415
#
# Compressibility (1/GPa) = 0.03888034
#
# Stress axis : x y z
#
# Youngs Moduli (GPa) = 71.70904 68.71806 37.66275
#
# Poissons Ratio (x) = 0.52202 0.22063
# Poissons Ratio (y) = 0.54474 -0.20226
# Poissons Ratio (z) = 0.42007 -0.36903
#
# Static dielectric constant tensor:
#      x y z
#    x 2.224280 -0.030020 -0.214800 
#    y -0.030020 2.115120 0.069670 
#    z -0.214800 0.069670 2.189310 
# 
# From -- ./inp_files/607449.got.cif
#   From: 2010.05.17/outbox.cif.g08.bks.cpg/sg2_304_cif.got.tgz:607449.got - 2010.06.03 11:33:40.
