data_PCOD9091588
_publ_section_title
;
Structure prediction by ZEFSAII (Michael W. Deem and Ramdas Pophale) SiO2 
 PCOD9091588
Probable space group: P -1
;
_chemical_formula_sum "Si O2"
_cell_formula_units_Z 14
_cell_length_a 14.096784
_cell_length_b 7.822278
_cell_length_c 11.100459
_cell_angle_alpha 77.666651
_cell_angle_beta 59.799275
_cell_angle_gamma 40.423093
_cell_volume 653.899301
_symmetry_space_group_name_H-M "P -1"
_symmetry_group_IT_number 2
_symmetry_cell_setting 'triclinic'
loop_
_space_group_symop_operation_xyz
x,y,z
-x,-y,-z
loop_
_atom_site_type_symbol
_atom_site_label
_atom_site_fract_x
_atom_site_fract_y
_atom_site_fract_z
Si Si1 0.364300 0.012142 0.577139
Si Si2 0.302531 0.750843 0.042928
Si Si3 0.977822 0.869988 0.628302
Si Si4 0.255060 0.019369 0.411036
Si Si5 0.205891 0.232064 0.904985
Si Si6 0.297722 0.604454 0.584172
Si Si7 0.651690 0.561558 0.156065
O O1 0.259593 0.149374 0.498553
O O2 0.502708 0.681370 0.532282
O O3 0.500000 0.000000 0.500000
O O4 0.257636 0.139592 0.747176
O O5 0.166003 0.897775 0.216214
O O6 0.500000 0.500000 0.000000
O O7 0.281276 0.627393 0.973418
O O8 0.268599 0.984145 0.973891
O O9 0.162287 0.629162 0.613302
O O10 0.896362 0.807724 0.616267
O O11 0.000000 0.000000 0.500000
O O12 0.248626 0.845094 0.515614
O O13 0.441649 0.808024 0.258561
O O14 0.290262 0.307648 0.890253
O O15 0.000000 0.500000 0.000000
O O16 0.281919 0.611315 0.736960
#
# Coordination Sequence:
#
# PCOD9091588 Si02
#       7
#     2   2   2   2   2   2   2
#     4  11  21  39  68  92 132 179 223 275 345 398
#     4  12  26  45  72 100 142 189 226 283 363 408
#     4  10  23  41  67  98 134 171 234 285 336 412
#     4  10  19  39  67  99 129 179 229 278 340 415
#     4  12  27  44  71 108 141 175 239 297 335 411
#     4  10  20  38  69  97 132 174 232 287 332 410
#     4  11  22  44  70 100 137 184 232 280 349 414
#
# _framework density 21.410025000000001
#
# number of rings (size 3 to 8) (size 9 to 14) (size 15 to 20)
#    0.000    1.143    4.286    4.286    2.000    5.143 
#    0.000    0.714    3.143    0.000    0.000    0.000 
#    0.000    0.000    0.000    0.000    0.000    0.000 
#
# Total GULP energy -78225.305287 kJ/mol
# GULP energy per Si atom -5587.521806 kJ/mol
# Density = 2.136130 g / cm^3
# Si number density = 21.410025 Si / 1000 Ang^3
#
#
#
# Elastic Constant Matrix: (Units=GPa)
#
#
# Indices 1 2 3 4 5 6 
#
# 1 183.2448 32.8068 60.8274 13.9348 18.0304 -21.0007
# 2 32.8068 74.6507 40.7102 13.9245 5.9165 -13.9858
# 3 60.8274 40.7102 179.8245 13.0639 18.1826 -3.0870
# 4 13.9348 13.9245 13.0639 21.4704 1.8126 -8.8900
# 5 18.0304 5.9165 18.1826 1.8126 38.9759 4.6286
# 6 -21.0007 -13.9858 -3.0870 -8.8900 4.6286 48.0845
#
#
#
# Elastic Compliance Matrix: (Units=1/GPa)
#
#
# Indices 1 2 3 4 5 6 
#
# 1 0.006857 -0.001177 -0.001658 -0.001429 -0.002452 0.002518
# 2 -0.001177 0.017530 -0.002893 -0.007500 -0.000785 0.003088
# 3 -0.001658 -0.002893 0.007068 -0.001707 -0.001863 -0.001248
# 4 -0.001429 -0.007500 -0.001707 0.056654 -0.000947 0.007650
# 5 -0.002452 -0.000785 -0.001863 -0.000947 0.028337 -0.004322
# 6 0.002518 0.003088 -0.001248 0.007650 -0.004322 0.024545
#
#
# Mechanical properties :
#
#
# Convention : Reuss Voigt Hill
#
# Bulk Modulus (GPa) = 50.00240 78.48987 64.24613
# Shear Modulus (GPa) = 31.42415 41.93118 36.67767
#
# Velocity S-wave (km/s) = 3.83525 4.43028 4.14346
# Velocity P-wave (km/s) = 6.55878 7.93157 7.27761
#
# Compressibility (1/GPa) = 0.01999904
#
# Stress axis : x y z
#
# Youngs Moduli (GPa) = 145.84249 57.04344 141.48501
#
# Poissons Ratio (x) = 0.06712 0.23458
# Poissons Ratio (y) = 0.17159 0.40938
# Poissons Ratio (z) = 0.24181 0.16505
#
# Static dielectric constant tensor:
#      x y z
#    x 1.840170 0.013220 0.018390 
#    y 0.013220 1.767860 0.003220 
#    z 0.018390 0.003220 1.735790 
# 
# From -- ./inp_files/445850.got.cif
#   From: 2010.05.17/outbox.cif.g08.bks.cpg/sg2_223_cif.got.tgz:445850.got - 2010.06.03 11:33:40.
