data_PCOD9091782
_publ_section_title
;
Structure prediction by ZEFSAII (Michael W. Deem and Ramdas Pophale) SiO2 
 PCOD9091782
Probable space group: P -1
;
_chemical_formula_sum "Si O2"
_cell_formula_units_Z 16
_cell_length_a 11.159067
_cell_length_b 12.234757
_cell_length_c 8.229104
_cell_angle_alpha 78.775906
_cell_angle_beta 64.342284
_cell_angle_gamma 45.862994
_cell_volume 716.821346
_symmetry_space_group_name_H-M "P -1"
_symmetry_group_IT_number 2
_symmetry_cell_setting 'triclinic'
loop_
_space_group_symop_operation_xyz
x,y,z
-x,-y,-z
loop_
_atom_site_type_symbol
_atom_site_label
_atom_site_fract_x
_atom_site_fract_y
_atom_site_fract_z
Si Si1 0.149612 0.995292 0.631414
Si Si2 0.855729 0.460777 0.424432
Si Si3 0.810762 0.882593 0.176502
Si Si4 0.772793 0.172298 0.662491
Si Si5 0.540189 0.041947 0.721139
Si Si6 0.098723 0.543590 0.233939
Si Si7 0.854251 0.865960 0.787337
Si Si8 0.631281 0.624527 0.183563
O O1 0.170714 0.001044 0.807639
O O2 0.936872 0.138746 0.666763
O O3 0.197718 0.856633 0.541977
O O4 0.304482 0.993909 0.478001
O O5 0.802531 0.498637 0.635698
O O6 0.706836 0.548889 0.340531
O O7 0.989529 0.489771 0.312140
O O8 0.979047 0.281491 0.367576
O O9 0.601644 0.960946 0.271842
O O10 0.940096 0.729038 0.254091
O O11 0.884480 0.828010 0.967849
O O12 0.560943 0.324832 0.764289
O O13 0.807264 0.023481 0.742812
O O14 0.422546 0.214098 0.807989
O O15 0.668832 0.913241 0.819918
O O16 0.228552 0.471893 0.019787
#
# Coordination Sequence:
#
# PCOD9091782 Si02
#       8
#     2   2   2   2   2   2   2   2
#     4   9  20  38  63  81 118 156 203 254 293 347
#     4  11  21  37  59  89 125 161 195 246 304 363
#     4  12  20  35  61  94 120 156 196 250 303 363
#     4   9  21  43  59  83 117 161 204 251 291 349
#     4  10  21  38  59  91 121 154 195 253 306 353
#     4  11  22  34  60  91 126 157 198 240 308 365
#     4  10  21  36  60  87 126 156 196 244 304 353
#     4  10  19  40  60  84 124 159 196 243 303 352
#
# _framework density 22.320764
#
# number of rings (size 3 to 8) (size 9 to 14) (size 15 to 20)
#    0.000    2.000    2.500    3.375    0.000    1.500 
#   11.250    0.625    0.000   12.750    0.000    0.000 
#    0.000    0.000    0.000    0.000    0.000    0.000 
#
# Total GULP energy -89190.508879 kJ/mol
# GULP energy per Si atom -5574.406805 kJ/mol
# Density = 2.226996 g / cm^3
# Si number density = 22.320764 Si / 1000 Ang^3
#
#
#
# Elastic Constant Matrix: (Units=GPa)
#
#
# Indices 1 2 3 4 5 6 
#
# 1 117.4414 25.9491 43.2160 16.3950 19.5119 -16.1163
# 2 25.9491 88.2608 28.3712 -1.1998 3.4622 -13.4351
# 3 43.2160 28.3712 84.2144 5.7830 23.6022 -21.8373
# 4 16.3950 -1.1998 5.7830 24.0580 -3.2428 -8.1153
# 5 19.5119 3.4622 23.6022 -3.2428 29.1691 -1.0487
# 6 -16.1163 -13.4351 -21.8373 -8.1153 -1.0487 21.6821
#
#
#
# Elastic Compliance Matrix: (Units=1/GPa)
#
#
# Indices 1 2 3 4 5 6 
#
# 1 0.012581 -0.002419 -0.002744 -0.008405 -0.006785 0.001615
# 2 -0.002419 0.013918 -0.003315 0.005540 0.003471 0.005729
# 3 -0.002744 -0.003315 0.024040 0.000251 -0.016497 0.019414
# 4 -0.008405 0.005540 0.000251 0.055391 0.011593 0.018731
# 5 -0.006785 0.003471 -0.016497 0.011593 0.052593 -0.012625
# 6 0.001615 0.005729 0.019414 0.018731 -0.012625 0.076825
#
#
# Mechanical properties :
#
#
# Convention : Reuss Voigt Hill
#
# Bulk Modulus (GPa) = 29.77661 53.88770 41.83216
# Shear Modulus (GPa) = 18.97543 27.80717 23.39130
#
# Velocity S-wave (km/s) = 2.91885 3.53342 3.24074
# Velocity P-wave (km/s) = 4.97281 6.39074 5.72584
#
# Compressibility (1/GPa) = 0.03358340
#
# Stress axis : x y z
#
# Youngs Moduli (GPa) = 79.48311 71.84879 41.59758
#
# Poissons Ratio (x) = 0.17382 0.11413
# Poissons Ratio (y) = 0.19229 0.13790
# Poissons Ratio (z) = 0.21807 0.23819
#
# Static dielectric constant tensor:
#      x y z
#    x 1.885540 0.002540 0.006610 
#    y 0.002540 1.807040 -0.030500 
#    z 0.006610 -0.030500 1.925510 
# 
# From -- ./inp_files/267578.got.cif
#   From: 2010.05.17/outbox.cif.g08.bks.cpg/sg2_134_cif.got.tgz:267578.got - 2010.06.03 11:33:40.
