data_PCOD9091314
_publ_section_title
;
Structure prediction by ZEFSAII (Michael W. Deem and Ramdas Pophale) SiO2 
 PCOD9091314
Probable space group: P -1
;
_chemical_formula_sum "Si O2"
_cell_formula_units_Z 14
_cell_length_a 9.537175
_cell_length_b 20.332992
_cell_length_c 6.772588
_cell_angle_alpha 127.432784
_cell_angle_beta 47.476934
_cell_angle_gamma 135.603078
_cell_volume 657.023555
_symmetry_space_group_name_H-M "P -1"
_symmetry_group_IT_number 2
_symmetry_cell_setting 'triclinic'
loop_
_space_group_symop_operation_xyz
x,y,z
-x,-y,-z
loop_
_atom_site_type_symbol
_atom_site_label
_atom_site_fract_x
_atom_site_fract_y
_atom_site_fract_z
Si Si1 0.768329 0.220223 0.850087
Si Si2 0.608251 0.108114 0.185334
Si Si3 0.262953 0.561891 0.300826
Si Si4 0.084788 0.887429 0.751904
Si Si5 0.434121 0.499749 0.336506
Si Si6 0.337173 0.111642 0.792403
Si Si7 0.044213 0.597353 0.246980
O O1 0.896771 0.169448 0.552851
O O2 0.538489 0.170514 0.857186
O O3 0.900870 0.329122 0.849410
O O4 0.713155 0.191507 0.075290
O O5 0.791853 0.123712 0.199075
O O6 0.421734 0.113280 0.496094
O O7 0.500000 0.000000 0.000000
O O8 0.404658 0.583819 0.410797
O O9 0.244823 0.629076 0.272602
O O10 0.000000 0.500000 0.500000
O O11 0.382968 0.512680 0.980095
O O12 0.215589 0.000545 0.778215
O O13 0.834293 0.853014 0.974219
O O14 0.500000 0.500000 0.500000
O O15 0.169967 0.416736 0.452862
O O16 0.000000 0.500000 0.000000
#
# Coordination Sequence:
#
# PCOD9091314 Si02
#       7
#     2   2   2   2   2   2   2
#     4  11  23  41  61  88 129 165 210 257 310 375
#     4  11  19  38  64  94 126 161 199 258 319 378
#     4   9  20  38  63  88 113 154 205 262 319 365
#     4  10  21  39  63  92 125 164 203 254 320 380
#     4  10  19  39  65  87 113 155 212 262 314 369
#     4  10  21  39  64  91 125 164 203 254 319 382
#     4  11  23  42  63  87 127 175 216 264 314 370
#
# _framework density 21.308216999999999
#
# number of rings (size 3 to 8) (size 9 to 14) (size 15 to 20)
#    0.000    1.714    4.286    0.857    0.000    2.857 
#   15.429    1.429    0.000    0.000    0.000    0.000 
#    0.000    0.000    0.000    0.000    0.000    0.000 
#
# Total GULP energy -78011.036003 kJ/mol
# GULP energy per Si atom -5572.216857 kJ/mol
# Density = 2.125972 g / cm^3
# Si number density = 21.308217 Si / 1000 Ang^3
#
#
#
# Elastic Constant Matrix: (Units=GPa)
#
#
# Indices 1 2 3 4 5 6 
#
# 1 89.5902 -1.3148 32.5629 -20.7664 -12.4932 -11.6045
# 2 -1.3148 41.9832 -28.1110 -37.9998 -4.1199 21.4038
# 3 32.5629 -28.1110 54.0926 -63.2227 -27.3261 65.1972
# 4 -20.7664 -37.9998 -63.2227 17.3392 -3.6778 35.6409
# 5 -12.4932 -4.1199 -27.3261 -3.6778 44.8946 -11.7203
# 6 -11.6045 21.4038 65.1972 35.6409 -11.7203 -22.6001
#
#
#
# Elastic Compliance Matrix: (Units=1/GPa)
#
#
# Indices 1 2 3 4 5 6 
#
# 1 0.016993 0.006716 -0.000695 0.012419 0.008729 0.010687
# 2 0.006716 0.021172 -0.002235 0.008455 0.008170 0.019252
# 3 -0.000695 -0.002235 0.006253 -0.002109 0.005827 0.009931
# 4 0.012419 0.008455 -0.002109 0.025652 0.012725 0.029400
# 5 0.008729 0.008170 0.005827 0.012725 0.035688 0.021626
# 6 0.010687 0.019252 0.009931 0.029400 0.021626 0.032298
#
#
# Mechanical properties :
#
#
# Convention : Reuss Voigt Hill
#
# Bulk Modulus (GPa) = 19.23481 21.32669 20.28075
# Shear Modulus (GPa) = 33.82604 20.09534 26.96069
#
# Velocity S-wave (km/s) = 3.98862 3.07429 3.56093
# Velocity P-wave (km/s) = 5.50079 4.75732 5.14251
#
# Compressibility (1/GPa) = 0.05198907
#
# Stress axis : x y z
#
# Youngs Moduli (GPa) = 58.84618 47.23190 159.92514
#
# Poissons Ratio (x) = -0.31719 0.11121
# Poissons Ratio (y) = -0.39519 0.35743
# Poissons Ratio (z) = 0.04092 0.10556
#
# Static dielectric constant tensor:
#      x y z
#    x 1.787720 -0.006990 0.013340 
#    y -0.006990 1.823770 -0.001650 
#    z 0.013340 -0.001650 1.786240 
# 
# From -- ./inp_files/44815.got.cif
#   From: 2010.05.17/outbox.cif.g08.bks.cpg/sg2_23_cif.got.tgz:44815.got - 2010.06.03 11:33:40.
