data_PCOD9091229
_publ_section_title
;
Structure prediction by ZEFSAII (Michael W. Deem and Ramdas Pophale) SiO2 
 PCOD9091229
Probable space group: P -1
;
_chemical_formula_sum "Si O2"
_cell_formula_units_Z 16
_cell_length_a 6.243076
_cell_length_b 15.825235
_cell_length_c 18.067148
_cell_angle_alpha 153.368739
_cell_angle_beta 62.188881
_cell_angle_gamma 123.859887
_cell_volume 662.039701
_symmetry_space_group_name_H-M "P -1"
_symmetry_group_IT_number 2
_symmetry_cell_setting 'triclinic'
loop_
_space_group_symop_operation_xyz
x,y,z
-x,-y,-z
loop_
_atom_site_type_symbol
_atom_site_label
_atom_site_fract_x
_atom_site_fract_y
_atom_site_fract_z
Si Si1 0.671773 0.349333 0.190658
Si Si2 0.462970 0.915233 0.131889
Si Si3 0.875811 0.111027 0.322682
Si Si4 0.517844 0.687713 0.413299
Si Si5 0.910556 0.644338 0.074622
Si Si6 0.074010 0.959187 0.568400
Si Si7 0.444779 0.265877 0.314417
Si Si8 0.247243 0.587874 0.229091
O O1 0.578769 0.536783 0.340911
O O2 0.607231 0.255469 0.208002
O O3 0.972709 0.441153 0.193020
O O4 0.516464 0.193687 0.031919
O O5 0.178614 0.794006 0.113005
O O6 0.666637 0.922656 0.168495
O O7 0.501778 0.140720 0.274722
O O8 0.725299 0.264957 0.479381
O O9 0.942672 0.082925 0.374032
O O10 0.134787 0.172187 0.281401
O O11 0.785392 0.881353 0.519193
O O12 0.445302 0.603089 0.276010
O O13 0.807708 0.797229 0.257569
O O14 0.000000 0.500000 0.000000
O O15 0.742836 0.514258 0.931650
O O16 0.217417 0.809825 0.397657
O O17 0.500000 0.500000 0.500000
#
# Coordination Sequence:
#
# PCOD9091229 Si02
#       8
#     2   2   2   2   2   2   2   2
#     4  10  23  37  60  94 130 167 210 263 316 381
#     4  11  24  42  62  90 133 165 213 267 320 379
#     4  11  21  37  66  87 126 174 207 262 321 372
#     4  10  19  39  64  91 125 173 212 256 322 375
#     4  11  23  44  70  95 128 170 216 269 326 385
#     4  10  20  41  65  90 131 167 212 268 318 378
#     4  12  23  38  61  93 125 170 217 258 312 386
#     4   9  22  40  67  94 131 172 210 268 322 379
#
# _framework density 24.167732999999998
#
# number of rings (size 3 to 8) (size 9 to 14) (size 15 to 20)
#    0.000    1.500    2.500    3.375    1.750    4.000 
#    0.000    1.250    0.000    0.000    0.000    0.000 
#    0.000    0.000    0.000    0.000    0.000    0.000 
#
# Total GULP energy -89443.246537 kJ/mol
# GULP energy per Si atom -5590.202909 kJ/mol
# Density = 2.411273 g / cm^3
# Si number density = 24.167733 Si / 1000 Ang^3
#
#
#
# Elastic Constant Matrix: (Units=GPa)
#
#
# Indices 1 2 3 4 5 6 
#
# 1 79.4423 30.5900 27.6594 -7.2187 28.7547 -9.3384
# 2 30.5900 108.2315 33.5985 -7.7592 -5.7871 -8.2313
# 3 27.6594 33.5985 140.9645 -0.9081 28.4845 -13.9952
# 4 -7.2187 -7.7592 -0.9081 31.5286 -13.3008 -3.2245
# 5 28.7547 -5.7871 28.4845 -13.3008 47.3801 -8.6393
# 6 -9.3384 -8.2313 -13.9952 -3.2245 -8.6393 30.9185
#
#
#
# Elastic Compliance Matrix: (Units=1/GPa)
#
#
# Indices 1 2 3 4 5 6 
#
# 1 0.019782 -0.006696 0.000534 -0.002957 -0.013932 0.000232
# 2 -0.006696 0.013529 -0.003608 0.006404 0.010321 0.003498
# 3 0.000534 -0.003608 0.009383 -0.003405 -0.007162 0.001091
# 4 -0.002957 0.006404 -0.003405 0.040817 0.017624 0.008452
# 5 -0.013932 0.010321 -0.007162 0.017624 0.041676 0.008781
# 6 0.000232 0.003498 0.001091 0.008452 0.008781 0.037174
#
#
# Mechanical properties :
#
#
# Convention : Reuss Voigt Hill
#
# Bulk Modulus (GPa) = 43.18983 56.92600 50.05792
# Shear Modulus (GPa) = 26.36881 37.75146 32.06013
#
# Velocity S-wave (km/s) = 3.30673 3.95658 3.64616
# Velocity P-wave (km/s) = 5.69990 6.66921 6.20352
#
# Compressibility (1/GPa) = 0.02315360
#
# Stress axis : x y z
#
# Youngs Moduli (GPa) = 50.55216 73.91595 106.57737
#
# Poissons Ratio (x) = 0.49493 -0.05688
# Poissons Ratio (y) = 0.33849 0.38450
# Poissons Ratio (z) = -0.02698 0.26666
#
# Static dielectric constant tensor:
#      x y z
#    x 1.942090 0.050610 -0.046910 
#    y 0.050610 1.916880 0.001180 
#    z -0.046910 0.001180 2.020320 
# 
# From -- ./inp_files/116221.got.cif
#   From: 2010.05.17/outbox.cif.g08.bks.cpg/sg2_59_cif.got.tgz:116221.got - 2010.06.03 11:33:40.
