data_PCOD9091810
_publ_section_title
;
Structure prediction by ZEFSAII (Michael W. Deem and Ramdas Pophale) SiO2 
 PCOD9091810
Probable space group: P -1
;
_chemical_formula_sum "Si O2"
_cell_formula_units_Z 14
_cell_length_a 8.433992
_cell_length_b 12.907025
_cell_length_c 11.033675
_cell_angle_alpha 134.864922
_cell_angle_beta 139.121555
_cell_angle_gamma 69.043567
_cell_volume 515.617517
_symmetry_space_group_name_H-M "P -1"
_symmetry_group_IT_number 2
_symmetry_cell_setting 'triclinic'
loop_
_space_group_symop_operation_xyz
x,y,z
-x,-y,-z
loop_
_atom_site_type_symbol
_atom_site_label
_atom_site_fract_x
_atom_site_fract_y
_atom_site_fract_z
Si Si1 0.816813 0.235900 0.991859
Si Si2 0.252165 0.398391 0.553216
Si Si3 0.927564 0.831158 0.254029
Si Si4 0.721054 0.718106 0.285062
Si Si5 0.428960 0.787366 0.543895
Si Si6 0.736613 0.455759 0.551788
Si Si7 0.099664 0.033106 0.884243
O O1 0.525890 0.228716 0.812273
O O2 0.878622 0.086560 0.860068
O O3 0.965043 0.282202 0.245474
O O4 0.999826 0.390308 0.148049
O O5 0.291925 0.415997 0.734014
O O6 0.444327 0.314305 0.544938
O O7 0.289289 0.547614 0.611571
O O8 0.780043 0.703673 0.165988
O O9 0.784797 0.843388 0.058577
O O10 0.206755 0.823949 0.376758
O O11 0.000000 0.000000 0.500000
O O12 0.960599 0.864411 0.604337
O O13 0.280161 0.688525 0.494388
O O14 0.667314 0.934048 0.858936
O O15 0.500000 0.500000 0.500000
#
# Coordination Sequence:
#
# PCOD9091810 Si02
#       7
#     2   2   2   2   2   2   2
#     4   9  19  35  59  86 113 138 185 238 282 319
#     4   8  19  35  60  85 107 143 182 236 282 316
#     4  10  24  38  53  81 118 155 189 218 274 344
#     4  11  21  35  53  85 120 146 181 229 287 330
#     4  10  19  40  61  82 108 148 194 229 273 329
#     4   8  16  38  60  85 109 139 190 234 274 330
#     4  10  21  36  60  84 108 150 191 231 275 331
#
# _framework density 27.151909
#
# number of rings (size 3 to 8) (size 9 to 14) (size 15 to 20)
#    0.857    1.714    1.429    1.286    0.000    9.143 
#    2.571    3.571    0.000    0.000    0.000    0.000 
#    0.000    0.000    0.000    0.000    0.000    0.000 
#
# Total GULP energy -78328.810699 kJ/mol
# GULP energy per Si atom -5594.915050 kJ/mol
# Density = 2.709011 g / cm^3
# Si number density = 27.151909 Si / 1000 Ang^3
#
#
#
# Elastic Constant Matrix: (Units=GPa)
#
#
# Indices 1 2 3 4 5 6 
#
# 1 93.0201 24.9648 14.2789 0.0049 -7.1972 7.2360
# 2 24.9648 69.8117 17.8465 -7.4078 0.4709 33.2046
# 3 14.2789 17.8465 95.9317 -11.3175 -8.2544 11.9253
# 4 0.0049 -7.4078 -11.3175 33.1498 9.2818 -11.3842
# 5 -7.1972 0.4709 -8.2544 9.2818 42.0105 -7.9662
# 6 7.2360 33.2046 11.9253 -11.3842 -7.9662 58.5889
#
#
#
# Elastic Compliance Matrix: (Units=1/GPa)
#
#
# Indices 1 2 3 4 5 6 
#
# 1 0.012366 -0.005120 -0.001062 -0.001693 0.002649 0.001621
# 2 -0.005120 0.022600 -0.002143 0.001341 -0.004131 -0.012041
# 3 -0.001062 -0.002143 0.011479 0.002972 0.001399 -0.000223
# 4 -0.001693 0.001341 0.002972 0.034942 -0.006542 0.004744
# 5 0.002649 -0.004131 0.001399 -0.006542 0.026802 0.004102
# 6 0.001621 -0.012041 -0.000223 0.004744 0.004102 0.025217
#
#
# Mechanical properties :
#
#
# Convention : Reuss Voigt Hill
#
# Bulk Modulus (GPa) = 33.55942 41.43821 37.49882
# Shear Modulus (GPa) = 31.25264 40.19470 35.72367
#
# Velocity S-wave (km/s) = 3.39636 3.85172 3.63119
# Velocity P-wave (km/s) = 5.26945 5.92248 5.60548
#
# Compressibility (1/GPa) = 0.02979789
#
# Stress axis : x y z
#
# Youngs Moduli (GPa) = 80.86540 44.24773 87.11195
#
# Poissons Ratio (x) = 0.22653 0.09248
# Poissons Ratio (y) = 0.41399 0.18666
# Poissons Ratio (z) = 0.08585 0.09481
#
# Static dielectric constant tensor:
#      x y z
#    x 2.141910 0.111840 0.050030 
#    y 0.111840 2.190720 0.076070 
#    z 0.050030 0.076070 2.076110 
# 
# From -- ./inp_files/397691.got.cif
#   From: 2010.05.17/outbox.cif.g08.bks.cpg/sg2_199_cif.got.tgz:397691.got - 2010.06.03 11:33:40.
