data_PCOD9091035
_publ_section_title
;
Structure prediction by ZEFSAII (Michael W. Deem and Ramdas Pophale) SiO2 
 PCOD9091035
Probable space group: P -1
;
_chemical_formula_sum "Si O2"
_cell_formula_units_Z 15
_cell_length_a 11.391656
_cell_length_b 8.102001
_cell_length_c 11.176437
_cell_angle_alpha 87.374104
_cell_angle_beta 53.142245
_cell_angle_gamma 123.488962
_cell_volume 568.111473
_symmetry_space_group_name_H-M "P -1"
_symmetry_group_IT_number 2
_symmetry_cell_setting 'triclinic'
loop_
_space_group_symop_operation_xyz
x,y,z
-x,-y,-z
loop_
_atom_site_type_symbol
_atom_site_label
_atom_site_fract_x
_atom_site_fract_y
_atom_site_fract_z
Si Si1 0.496547 0.933546 0.278313
Si Si2 0.060577 0.801440 0.731763
Si Si3 0.607315 0.769489 0.620868
Si Si4 0.378086 0.234026 0.113874
Si Si5 0.770975 0.367870 0.770708
Si Si6 0.898381 0.183789 0.860880
Si Si7 0.500000 0.000000 0.500000
Si Si8 0.834128 0.713071 0.107492
O O1 0.306940 0.733449 0.311785
O O2 0.492926 0.840566 0.409051
O O3 0.488656 0.116474 0.334816
O O4 0.713047 0.084330 0.071107
O O5 0.233116 0.804783 0.662458
O O6 0.930368 0.645322 0.696728
O O7 0.205957 0.075201 0.594154
O O8 0.897550 0.678898 0.944671
O O9 0.686304 0.824521 0.707139
O O10 0.420171 0.484732 0.732478
O O11 0.190628 0.053642 0.140418
O O12 0.500000 0.500000 0.000000
O O13 0.552541 0.232187 0.981175
O O14 0.886214 0.304896 0.758459
O O15 0.103496 0.333408 0.810091
O O16 0.000000 0.000000 0.000000
#
# Coordination Sequence:
#
# PCOD9091035 Si02
#       8
#     2   2   2   2   2   2   1   2
#     4  10  19  39  63 100 132 170 218 281 337 400
#     4  11  25  42  69 102 137 176 232 288 344 413
#     4  11  23  43  68  99 134 174 230 288 341 405
#     4  11  21  41  69  97 133 181 232 284 345 411
#     4  11  22  41  69  98 138 178 230 284 345 411
#     4  11  21  38  68  99 132 180 234 280 340 413
#     4  10  22  36  62  98 136 166 216 282 342 386
#     4  12  26  45  69  97 139 190 230 281 351 411
#
# _framework density 26.403271
#
# number of rings (size 3 to 8) (size 9 to 14) (size 15 to 20)
#    0.000    1.067    5.333    1.600    3.733    3.733 
#    0.000    0.667    0.000    0.000    0.000    0.000 
#    0.000    0.000    0.000    0.000    0.000    0.000 
#
# Total GULP energy -83732.144443 kJ/mol
# GULP energy per Si atom -5582.142963 kJ/mol
# Density = 2.634318 g / cm^3
# Si number density = 26.403271 Si / 1000 Ang^3
#
#
#
# Elastic Constant Matrix: (Units=GPa)
#
#
# Indices 1 2 3 4 5 6 
#
# 1 69.0289 34.9606 22.7089 12.6862 3.4706 31.8606
# 2 34.9606 135.4409 36.9626 0.0645 15.5720 38.0048
# 3 22.7089 36.9626 84.9981 -12.1821 8.2563 16.8622
# 4 12.6862 0.0645 -12.1821 31.0011 -0.4939 12.6004
# 5 3.4706 15.5720 8.2563 -0.4939 31.0738 4.3789
# 6 31.8606 38.0048 16.8622 12.6004 4.3789 59.6059
#
#
#
# Elastic Compliance Matrix: (Units=1/GPa)
#
#
# Indices 1 2 3 4 5 6 
#
# 1 0.022006 -0.002488 -0.004555 -0.007807 0.000904 -0.007304
# 2 -0.002488 0.010415 -0.002266 0.002011 -0.003627 -0.004828
# 3 -0.004555 -0.002266 0.015948 0.009076 -0.002111 -0.002396
# 4 -0.007807 0.002011 0.009076 0.042504 -0.000658 -0.008613
# 5 0.000904 -0.003627 -0.002111 -0.000658 0.034443 0.000035
# 6 -0.007304 -0.004828 -0.002396 -0.008613 0.000035 0.026255
#
#
# Mechanical properties :
#
#
# Convention : Reuss Voigt Hill
#
# Bulk Modulus (GPa) = 33.61274 53.19243 43.40259
# Shear Modulus (GPa) = 27.76130 37.32523 32.54327
#
# Velocity S-wave (km/s) = 3.24610 3.76395 3.51457
# Velocity P-wave (km/s) = 5.17762 6.25137 5.73966
#
# Compressibility (1/GPa) = 0.02975062
#
# Stress axis : x y z
#
# Youngs Moduli (GPa) = 45.44302 96.01819 62.70186
#
# Poissons Ratio (x) = 0.23888 0.28562
# Poissons Ratio (y) = 0.11306 0.14208
# Poissons Ratio (z) = 0.20700 0.21758
#
# Static dielectric constant tensor:
#      x y z
#    x 1.662850 -0.062310 -0.345080 
#    y -0.062310 2.170140 -0.027880 
#    z -0.345080 -0.027880 1.764940 
# 
# From -- ./inp_files/419454.got.cif
#   From: 2010.05.17/outbox.cif.g08.bks.cpg/sg2_210_cif.got.tgz:419454.got - 2010.06.03 11:33:40.
