data_PCOD9091989
_publ_section_title
;
Structure prediction by ZEFSAII (Michael W. Deem and Ramdas Pophale) SiO2 
 PCOD9091989
Probable space group: P -1
;
_chemical_formula_sum "Si O2"
_cell_formula_units_Z 16
_cell_length_a 10.917495
_cell_length_b 7.607179
_cell_length_c 12.130130
_cell_angle_alpha 52.161101
_cell_angle_beta 117.341611
_cell_angle_gamma 129.440887
_cell_volume 610.415187
_symmetry_space_group_name_H-M "P -1"
_symmetry_group_IT_number 2
_symmetry_cell_setting 'triclinic'
loop_
_space_group_symop_operation_xyz
x,y,z
-x,-y,-z
loop_
_atom_site_type_symbol
_atom_site_label
_atom_site_fract_x
_atom_site_fract_y
_atom_site_fract_z
Si Si1 0.529408 0.293870 0.520815
Si Si2 0.326014 0.357206 0.263444
Si Si3 0.346002 0.510095 0.973484
Si Si4 0.894288 0.228161 0.940240
Si Si5 0.943181 0.789335 0.195606
Si Si6 0.000460 0.243114 0.289227
Si Si7 0.118584 0.324272 0.545773
Si Si8 0.466074 0.912552 0.173170
O O1 0.500000 0.500000 0.500000
O O2 0.402186 0.197629 0.406780
O O3 0.705336 0.440288 0.487418
O O4 0.517556 0.097502 0.684235
O O5 0.172462 0.287466 0.302195
O O6 0.461019 0.660321 0.218911
O O7 0.287886 0.344405 0.124792
O O8 0.217694 0.402972 0.863865
O O9 0.400636 0.804033 0.913851
O O10 0.500000 0.500000 0.000000
O O11 0.009927 0.538130 0.868982
O O12 0.710345 0.142162 0.908779
O O13 0.919458 0.164280 0.850109
O O14 0.936166 0.052661 0.099894
O O15 0.953089 0.691878 0.357246
O O16 0.020281 0.311662 0.401268
O O17 0.874449 0.942206 0.351041
#
# Coordination Sequence:
#
# PCOD9091989 Si02
#       8
#     2   2   2   2   2   2   2   2
#     4  10  19  40  64  93 126 157 204 265 313 360
#     4  10  22  42  67  94 126 166 210 268 311 367
#     4  12  24  42  63  95 130 172 210 253 321 378
#     4  10  22  45  59  94 128 169 206 262 315 373
#     4  11  26  41  64  90 133 170 210 254 319 383
#     4  10  23  43  68  94 124 164 215 266 314 364
#     4  11  22  42  66  95 124 164 212 262 313 375
#     4  10  21  43  65  91 129 163 216 264 308 368
#
# _framework density 26.211670000000002
#
# number of rings (size 3 to 8) (size 9 to 14) (size 15 to 20)
#    0.000    1.500    5.000    1.125    3.500    3.000 
#    4.500    3.750    0.000    0.000    0.000    0.000 
#    0.000    0.000    0.000    0.000    0.000    0.000 
#
# Total GULP energy -89600.537989 kJ/mol
# GULP energy per Si atom -5600.033624 kJ/mol
# Density = 2.615201 g / cm^3
# Si number density = 26.211670 Si / 1000 Ang^3
#
#
#
# Elastic Constant Matrix: (Units=GPa)
#
#
# Indices 1 2 3 4 5 6 
#
# 1 46.1343 2.6975 14.4774 8.9036 -16.7370 -0.3369
# 2 2.6975 107.8143 15.0681 -3.9888 2.5346 7.6529
# 3 14.4774 15.0681 174.6985 0.7319 -34.2841 3.5059
# 4 8.9036 -3.9888 0.7319 36.9094 -10.1250 0.3041
# 5 -16.7370 2.5346 -34.2841 -10.1250 43.9245 1.8945
# 6 -0.3369 7.6529 3.5059 0.3041 1.8945 27.2818
#
#
#
# Elastic Compliance Matrix: (Units=1/GPa)
#
#
# Indices 1 2 3 4 5 6 
#
# 1 0.025749 -0.000953 -0.000329 -0.003921 0.008703 0.000067
# 2 -0.000953 0.009681 -0.000976 0.000944 -0.001357 -0.002518
# 3 -0.000329 -0.000976 0.006979 0.001422 0.005751 -0.001042
# 4 -0.003921 0.000944 0.001422 0.029910 0.006511 -0.001281
# 5 0.008703 -0.001357 0.005751 0.006511 0.032261 -0.002564
# 6 0.000067 -0.002518 -0.001042 -0.001281 -0.002564 0.037688
#
#
# Mechanical properties :
#
#
# Convention : Reuss Voigt Hill
#
# Bulk Modulus (GPa) = 26.38853 43.68145 35.03499
# Shear Modulus (GPa) = 31.36481 41.38343 36.37412
#
# Velocity S-wave (km/s) = 3.46294 3.97774 3.72924
# Velocity P-wave (km/s) = 5.10672 6.14798 5.65138
#
# Compressibility (1/GPa) = 0.03789525
#
# Stress axis : x y z
#
# Youngs Moduli (GPa) = 38.83592 103.29516 143.28386
#
# Poissons Ratio (x) = 0.09841 0.04709
# Poissons Ratio (y) = 0.03700 0.13981
# Poissons Ratio (z) = 0.01276 0.10079
#
# Static dielectric constant tensor:
#      x y z
#    x 2.021290 -0.096210 0.013670 
#    y -0.096210 2.107870 0.015830 
#    z 0.013670 0.015830 2.070290 
# 
# From -- ./inp_files/418991.got.cif
#   From: 2010.05.17/outbox.cif.g08.bks.cpg/sg2_210_cif.got.tgz:418991.got - 2010.06.03 11:33:40.
