data_PCOD9091021
_publ_section_title
;
Structure prediction by ZEFSAII (Michael W. Deem and Ramdas Pophale) SiO2 
 PCOD9091021
Probable space group: P -1
;
_chemical_formula_sum "Si O2"
_cell_formula_units_Z 16
_cell_length_a 9.847050
_cell_length_b 15.794735
_cell_length_c 7.860741
_cell_angle_alpha 98.056734
_cell_angle_beta 116.859042
_cell_angle_gamma 35.621166
_cell_volume 571.356277
_symmetry_space_group_name_H-M "P -1"
_symmetry_group_IT_number 2
_symmetry_cell_setting 'triclinic'
loop_
_space_group_symop_operation_xyz
x,y,z
-x,-y,-z
loop_
_atom_site_type_symbol
_atom_site_label
_atom_site_fract_x
_atom_site_fract_y
_atom_site_fract_z
Si Si1 0.589962 0.710335 0.865356
Si Si2 0.419656 0.927145 0.567216
Si Si3 0.579352 0.365613 0.109057
Si Si4 0.206246 0.093570 0.806003
Si Si5 0.026967 0.355816 0.366580
Si Si6 0.073906 0.519803 0.320185
Si Si7 0.305878 0.647411 0.186968
Si Si8 0.106455 0.916508 0.218420
O O1 0.569354 0.805731 0.774363
O O2 0.347145 0.759508 0.801312
O O3 0.761006 0.564167 0.790891
O O4 0.748137 0.662549 0.111799
O O5 0.691053 0.831274 0.585536
O O6 0.243470 0.934074 0.385412
O O7 0.209060 0.088396 0.601550
O O8 0.535278 0.462538 0.244913
O O9 0.781515 0.292912 0.044130
O O10 0.260384 0.512476 0.876911
O O11 0.947830 0.263127 0.808800
O O12 0.136905 0.028213 0.814785
O O13 0.500000 0.000000 0.000000
O O14 0.938037 0.399925 0.525859
O O15 0.145152 0.396043 0.416268
O O16 0.353735 0.723003 0.295196
O O17 0.000000 0.000000 0.000000
#
# Coordination Sequence:
#
# PCOD9091021 Si02
#       8
#     2   2   2   2   2   2   2   2
#     4   9  19  31  59  91 129 162 212 255 322 380
#     4  11  22  38  67  99 128 171 220 272 318 392
#     4  10  19  39  62  93 130 171 206 266 324 400
#     4  10  23  43  68  92 133 172 216 275 328 376
#     4   9  18  30  60  87 133 157 210 251 321 372
#     4   8  16  29  46  91 122 166 192 253 301 379
#     4   9  23  38  66  88 130 175 209 264 335 379
#     4  10  25  45  69  92 125 176 227 270 324 380
#
# _framework density 28.003541999999999
#
# number of rings (size 3 to 8) (size 9 to 14) (size 15 to 20)
#    0.750    1.750    0.000    1.875    8.750    0.000 
#    0.000    1.250    5.500    0.000    0.000    0.000 
#    0.000    0.000    0.000    0.000    0.000    0.000 
#
# Total GULP energy -89257.372723 kJ/mol
# GULP energy per Si atom -5578.585795 kJ/mol
# Density = 2.793980 g / cm^3
# Si number density = 28.003542 Si / 1000 Ang^3
#
#
#
# Elastic Constant Matrix: (Units=GPa)
#
#
# Indices 1 2 3 4 5 6 
#
# 1 135.3192 27.7288 45.8997 9.4715 1.5572 -12.7513
# 2 27.7288 151.7349 52.9791 21.6273 3.1308 -27.1112
# 3 45.8997 52.9791 130.3056 32.4322 34.3114 -16.0170
# 4 9.4715 21.6273 32.4322 35.9839 -1.0999 -5.9596
# 5 1.5572 3.1308 34.3114 -1.0999 47.1071 3.0569
# 6 -12.7513 -27.1112 -16.0170 -5.9596 3.0569 51.6466
#
#
#
# Elastic Compliance Matrix: (Units=1/GPa)
#
#
# Indices 1 2 3 4 5 6 
#
# 1 0.008723 -0.000378 -0.003918 0.001670 0.002579 0.000780
# 2 -0.000378 0.008437 -0.002735 -0.001941 0.001192 0.003193
# 3 -0.003918 -0.002735 0.016777 -0.012476 -0.012335 0.002090
# 4 0.001670 -0.001941 -0.012476 0.039995 0.010125 -0.000460
# 5 0.002579 0.001192 -0.012335 0.010125 0.030492 -0.003200
# 6 0.000780 0.003193 0.002090 -0.000460 -0.003200 0.022016
#
#
# Mechanical properties :
#
#
# Convention : Reuss Voigt Hill
#
# Bulk Modulus (GPa) = 50.31595 74.50831 62.41213
# Shear Modulus (GPa) = 33.98394 46.33100 40.15747
#
# Velocity S-wave (km/s) = 3.48740 4.07193 3.79095
# Velocity P-wave (km/s) = 5.85001 6.98369 6.44184
#
# Compressibility (1/GPa) = 0.01987441
#
# Stress axis : x y z
#
# Youngs Moduli (GPa) = 114.63579 118.52360 59.60605
#
# Poissons Ratio (x) = 0.04481 0.23353
# Poissons Ratio (y) = 0.04334 0.16305
# Poissons Ratio (z) = 0.44913 0.32422
#
# Static dielectric constant tensor:
#      x y z
#    x 2.187100 -0.037710 0.054560 
#    y -0.037710 2.584190 -0.102410 
#    z 0.054560 -0.102410 2.274530 
# 
# From -- ./inp_files/281166.got.cif
#   From: 2010.05.17/outbox.cif.g08.bks.cpg/sg2_141_cif.got.tgz:281166.got - 2010.06.03 11:33:40.
