data_PCOD9091453
_publ_section_title
;
Structure prediction by ZEFSAII (Michael W. Deem and Ramdas Pophale) SiO2 
 PCOD9091453
Probable space group: P -1
;
_chemical_formula_sum "Si O2"
_cell_formula_units_Z 16
_cell_length_a 12.215972
_cell_length_b 17.345803
_cell_length_c 7.918289
_cell_angle_alpha 110.784668
_cell_angle_beta 147.605564
_cell_angle_gamma 54.282893
_cell_volume 692.078300
_symmetry_space_group_name_H-M "P -1"
_symmetry_group_IT_number 2
_symmetry_cell_setting 'triclinic'
loop_
_space_group_symop_operation_xyz
x,y,z
-x,-y,-z
loop_
_atom_site_type_symbol
_atom_site_label
_atom_site_fract_x
_atom_site_fract_y
_atom_site_fract_z
Si Si1 0.185894 0.801157 0.236940
Si Si2 0.654087 0.660565 0.506077
Si Si3 0.442521 0.818311 0.090149
Si Si4 0.875439 0.475327 0.168050
Si Si5 0.647111 0.331124 0.353758
Si Si6 0.066882 0.002343 0.394649
Si Si7 0.238409 0.641235 0.808066
Si Si8 0.810126 0.863756 0.492474
O O1 0.461648 0.725915 0.456293
O O2 0.172504 0.732919 0.308428
O O3 0.166518 0.896342 0.363406
O O4 0.952949 0.848734 0.843407
O O5 0.636557 0.742094 0.420174
O O6 0.942855 0.572837 0.794365
O O7 0.499501 0.622982 0.183448
O O8 0.563343 0.866823 0.189689
O O9 0.386716 0.750840 0.848604
O O10 0.203195 0.904196 0.947248
O O11 0.822304 0.404852 0.152676
O O12 0.000000 0.500000 0.500000
O O13 0.620618 0.577028 0.862308
O O14 0.728799 0.383421 0.367700
O O15 0.229974 0.043606 0.590951
O O16 0.000000 0.000000 0.500000
O O17 0.015714 0.757762 0.595117
#
# Coordination Sequence:
#
# PCOD9091453 Si02
#       8
#     2   2   2   2   2   2   2   2
#     4  11  24  44  63  95 137 170 208 268 334 380
#     4  10  22  40  64  91 132 169 210 266 320 385
#     4  11  21  42  67  94 126 167 221 260 312 389
#     4  12  21  37  70  97 122 173 226 261 315 380
#     4  11  22  41  66  98 131 169 216 273 317 379
#     4  12  23  44  69  93 130 170 216 267 320 383
#     4  10  19  39  66  90 127 169 213 264 315 377
#     4  11  22  40  68  92 130 172 209 263 327 381
#
# _framework density 23.118772
#
# number of rings (size 3 to 8) (size 9 to 14) (size 15 to 20)
#    0.000    1.000    8.750    0.750    0.000    1.500 
#    0.000    5.000    0.000    0.000    0.000    0.000 
#    0.000    0.000    0.000    0.000    0.000    0.000 
#
# Total GULP energy -89203.638493 kJ/mol
# GULP energy per Si atom -5575.227406 kJ/mol
# Density = 2.306615 g / cm^3
# Si number density = 23.118772 Si / 1000 Ang^3
#
#
#
# Elastic Constant Matrix: (Units=GPa)
#
#
# Indices 1 2 3 4 5 6 
#
# 1 102.8334 40.1705 26.4158 10.5228 5.5600 15.7001
# 2 40.1705 65.2106 18.7224 -11.6804 -0.3125 10.9739
# 3 26.4158 18.7224 46.1838 -8.9576 0.6580 7.5605
# 4 10.5228 -11.6804 -8.9576 25.1228 7.0955 6.3957
# 5 5.5600 -0.3125 0.6580 7.0955 26.4422 6.3198
# 6 15.7001 10.9739 7.5605 6.3957 6.3198 38.6085
#
#
#
# Elastic Compliance Matrix: (Units=1/GPa)
#
#
# Indices 1 2 3 4 5 6 
#
# 1 0.018156 -0.011611 -0.008919 -0.016427 0.000607 0.000286
# 2 -0.011611 0.026812 0.000526 0.019337 -0.001000 -0.006042
# 3 -0.008919 0.000526 0.030637 0.016784 -0.002204 -0.004942
# 4 -0.016427 0.019337 0.016784 0.068018 -0.012272 -0.011362
# 5 0.000607 -0.001000 -0.002204 -0.012272 0.042075 -0.004386
# 6 0.000286 -0.006042 -0.004942 -0.011362 -0.004386 0.031070
#
#
# Mechanical properties :
#
#
# Convention : Reuss Voigt Hill
#
# Bulk Modulus (GPa) = 28.09331 42.76056 35.42693
# Shear Modulus (GPa) = 18.61211 26.62931 22.62071
#
# Velocity S-wave (km/s) = 2.84044 3.39757 3.13142
# Velocity P-wave (km/s) = 4.78911 5.82473 5.33212
#
# Compressibility (1/GPa) = 0.03559567
#
# Stress axis : x y z
#
# Youngs Moduli (GPa) = 55.07857 37.29649 32.64048
#
# Poissons Ratio (x) = 0.43305 0.29113
# Poissons Ratio (y) = 0.63952 -0.01716
# Poissons Ratio (z) = 0.49126 -0.01961
#
# Static dielectric constant tensor:
#      x y z
#    x 1.993130 0.027500 -0.005450 
#    y 0.027500 1.926860 0.005110 
#    z -0.005450 0.005110 1.913570 
# 
# From -- ./inp_files/270578.got.cif
#   From: 2010.05.17/outbox.cif.g08.bks.cpg/sg2_136_cif.got.tgz:270578.got - 2010.06.03 11:33:40.
