data_PCOD9091633
_publ_section_title
;
Structure prediction by ZEFSAII (Michael W. Deem and Ramdas Pophale) SiO2 
 PCOD9091633
Probable space group: P -1
;
_chemical_formula_sum "Si O2"
_cell_formula_units_Z 12
_cell_length_a 5.206611
_cell_length_b 10.096259
_cell_length_c 18.036253
_cell_angle_alpha 137.751818
_cell_angle_beta 104.932413
_cell_angle_gamma 61.465024
_cell_volume 552.590072
_symmetry_space_group_name_H-M "P -1"
_symmetry_group_IT_number 2
_symmetry_cell_setting 'triclinic'
loop_
_space_group_symop_operation_xyz
x,y,z
-x,-y,-z
loop_
_atom_site_type_symbol
_atom_site_label
_atom_site_fract_x
_atom_site_fract_y
_atom_site_fract_z
Si Si1 0.933315 0.604141 0.152369
Si Si2 0.281545 0.766002 0.140641
Si Si3 0.968462 0.074885 0.113596
Si Si4 0.289394 0.348037 0.207567
Si Si5 0.521465 0.040293 0.641552
Si Si6 0.683049 0.208741 0.575078
O O1 0.091722 0.657671 0.118939
O O2 0.629919 0.600377 0.102950
O O3 0.439769 0.819454 0.365508
O O4 0.261148 0.960666 0.277398
O O5 0.167144 0.878805 0.101064
O O6 0.088666 0.259669 0.200391
O O7 0.847176 0.590482 0.860362
O O8 0.628374 0.169672 0.152370
O O9 0.000000 0.000000 0.000000
O O10 0.291523 0.565898 0.332232
O O11 0.527196 0.824147 0.516095
O O12 0.202589 0.184343 0.715255
O O13 0.000000 0.000000 0.500000
#
# Coordination Sequence:
#
# PCOD9091633 Si02
#       6
#     2   2   2   2   2   2
#     4  10  19  39  68  95 126 165 215 263 317 367
#     4  10  20  42  64  91 132 174 203 272 327 373
#     4  12  28  47  65  89 134 179 216 268 335 377
#     4  12  23  43  68 101 125 170 221 268 314 395
#     4   9  19  32  65  95 134 163 201 251 334 366
#     4  11  18  34  66 104 130 163 208 266 322 382
#
# _framework density 21.715917999999999
#
# number of rings (size 3 to 8) (size 9 to 14) (size 15 to 20)
#    1.000    0.333    3.333    3.500    2.333    0.000 
#    0.000    6.667    0.000    0.000    0.000    0.000 
#    0.000    0.000    0.000    0.000    0.000    0.000 
#
# Total GULP energy -67053.645206 kJ/mol
# GULP energy per Si atom -5587.803767 kJ/mol
# Density = 2.166649 g / cm^3
# Si number density = 21.715918 Si / 1000 Ang^3
#
#
#
# Elastic Constant Matrix: (Units=GPa)
#
#
# Indices 1 2 3 4 5 6 
#
# 1 111.2443 31.9715 21.8046 -5.4756 14.6827 11.9831
# 2 31.9715 118.9631 36.9341 -12.3426 15.7100 6.4285
# 3 21.8046 36.9341 108.9808 -10.4762 11.8616 0.0807
# 4 -5.4756 -12.3426 -10.4762 28.5992 3.6910 -0.2056
# 5 14.6827 15.7100 11.8616 3.6910 39.1507 -3.0316
# 6 11.9831 6.4285 0.0807 -0.2056 -3.0316 37.2904
#
#
#
# Elastic Compliance Matrix: (Units=1/GPa)
#
#
# Indices 1 2 3 4 5 6 
#
# 1 0.010561 -0.001766 -0.001027 0.001288 -0.003322 -0.003350
# 2 -0.001766 0.010559 -0.002510 0.003712 -0.003280 -0.001493
# 3 -0.001027 -0.002510 0.010741 0.002929 -0.002093 0.000585
# 4 0.001288 0.003712 0.002929 0.038732 -0.006619 -0.001385
# 5 -0.003322 -0.003280 -0.002093 -0.006619 0.029673 0.004013
# 6 -0.003350 -0.001493 0.000585 -0.001385 0.004013 0.028468
#
#
# Mechanical properties :
#
#
# Convention : Reuss Voigt Hill
#
# Bulk Modulus (GPa) = 47.04836 57.84540 52.44688
# Shear Modulus (GPa) = 34.14748 37.57326 35.86037
#
# Velocity S-wave (km/s) = 3.96973 4.16410 4.06808
# Velocity P-wave (km/s) = 6.53637 7.05796 6.80217
#
# Compressibility (1/GPa) = 0.02125473
#
# Stress axis : x y z
#
# Youngs Moduli (GPa) = 94.69067 94.70713 93.10170
#
# Poissons Ratio (x) = 0.16727 0.09557
# Poissons Ratio (y) = 0.16724 0.23370
# Poissons Ratio (z) = 0.09720 0.23773
#
# Static dielectric constant tensor:
#      x y z
#    x 1.788020 -0.015390 0.045230 
#    y -0.015390 1.719930 0.005820 
#    z 0.045230 0.005820 1.924080 
# 
# From -- ./inp_files/548744.got.cif
#   From: 2010.05.17/outbox.cif.g08.bks.cpg/sg2_275_cif.got.tgz:548744.got - 2010.06.03 11:33:40.
