data_PCOD9091798
_publ_section_title
;
Structure prediction by ZEFSAII (Michael W. Deem and Ramdas Pophale) SiO2 
 PCOD9091798
Probable space group: P -1
;
_chemical_formula_sum "Si O2"
_cell_formula_units_Z 14
_cell_length_a 7.830728
_cell_length_b 14.621899
_cell_length_c 16.321731
_cell_angle_alpha 153.174092
_cell_angle_beta 84.183923
_cell_angle_gamma 110.761067
_cell_volume 678.585299
_symmetry_space_group_name_H-M "P -1"
_symmetry_group_IT_number 2
_symmetry_cell_setting 'triclinic'
loop_
_space_group_symop_operation_xyz
x,y,z
-x,-y,-z
loop_
_atom_site_type_symbol
_atom_site_label
_atom_site_fract_x
_atom_site_fract_y
_atom_site_fract_z
Si Si1 0.248868 0.044789 0.388476
Si Si2 0.609849 0.779911 0.748584
Si Si3 0.792895 0.779290 0.151708
Si Si4 0.056672 0.176428 0.987919
Si Si5 0.556241 0.807921 0.328430
Si Si6 0.312603 0.830102 0.066611
Si Si7 0.494315 0.589171 0.775132
O O1 0.322931 0.152348 0.561252
O O2 0.328702 0.293650 0.531190
O O3 0.333265 0.911968 0.225592
O O4 0.998348 0.844840 0.242070
O O5 0.500000 0.500000 0.500000
O O6 0.532698 0.750170 0.821287
O O7 0.561092 0.925871 0.803649
O O8 0.867143 0.945193 0.864130
O O9 0.879221 0.910102 0.164132
O O10 0.686174 0.867268 0.286246
O O11 0.635847 0.484061 0.904634
O O12 0.932052 0.287975 0.045258
O O13 0.278395 0.352196 0.164755
O O14 0.500000 0.000000 0.500000
O O15 0.395730 0.666192 0.910993
#
# Coordination Sequence:
#
# PCOD9091798 Si02
#       7
#     2   2   2   2   2   2   2
#     4  11  23  42  64  93 126 167 208 260 316 376
#     4  10  19  40  60  91 131 168 207 259 306 368
#     4  10  22  44  59  93 127 155 211 264 309 378
#     4   9  21  38  61  92 126 161 212 258 299 379
#     4  11  25  40  68  92 122 161 210 260 322 386
#     4   9  23  37  62  92 127 166 211 254 307 374
#     4  12  20  40  67  88 132 172 205 260 314 364
#
# _framework density 20.631157000000002
#
# number of rings (size 3 to 8) (size 9 to 14) (size 15 to 20)
#    0.857    0.857    2.857    1.286    2.000    2.857 
#    0.000    2.143    0.000    0.000    0.000    0.000 
#    0.000    0.000    0.000    0.000    0.000    0.000 
#
# Total GULP energy -77954.152472 kJ/mol
# GULP energy per Si atom -5568.153748 kJ/mol
# Density = 2.058420 g / cm^3
# Si number density = 20.631157 Si / 1000 Ang^3
#
#
#
# Elastic Constant Matrix: (Units=GPa)
#
#
# Indices 1 2 3 4 5 6 
#
# 1 -4.3474 -107.5583 -50.0826 -73.5113 0.7938 -9.9725
# 2 -107.5583 -161.6820 -149.3709 -139.8659 -0.9276 -27.3026
# 3 -50.0826 -149.3709 -23.5486 -119.2627 7.4247 -16.5452
# 4 -73.5113 -139.8659 -119.2627 -52.6853 8.8757 -31.7417
# 5 0.7938 -0.9276 7.4247 8.8757 41.3047 -9.8348
# 6 -9.9725 -27.3026 -16.5452 -31.7417 -9.8348 22.7627
#
#
#
# Elastic Compliance Matrix: (Units=1/GPa)
#
#
# Indices 1 2 3 4 5 6 
#
# 1 0.024508 -0.000835 -0.009648 -0.006465 0.001266 -0.005745
# 2 -0.000835 0.012270 -0.006277 -0.012677 0.002525 -0.006798
# 3 -0.009648 -0.006277 0.013179 0.001024 -0.003035 -0.002061
# 4 -0.006465 -0.012677 0.001024 0.017414 -0.002700 0.005823
# 5 0.001266 0.002525 -0.003035 -0.002700 0.027644 0.009556
# 6 -0.005745 -0.006798 -0.002061 0.005823 0.009556 0.044011
#
#
# Mechanical properties :
#
#
# Convention : Reuss Voigt Hill
#
# Bulk Modulus (GPa) = 60.83948 -89.28908 -14.22480
# Shear Modulus (GPa) = 28.08593 10.10534 19.09564
#
# Velocity S-wave (km/s) = 3.69363 2.21557 3.04562
# Velocity P-wave (km/s) = 6.90968 6.06859 2.33623
#
# Compressibility (1/GPa) = 0.01643670
#
# Stress axis : x y z
#
# Youngs Moduli (GPa) = 40.80341 81.50082 75.87789
#
# Poissons Ratio (x) = 0.06804 0.73204
# Poissons Ratio (y) = 0.03407 0.47632
# Poissons Ratio (z) = 0.39366 0.51162
#
# Static dielectric constant tensor:
#      x y z
#    x 2.149330 -0.235500 -0.110640 
#    y -0.235500 1.936810 0.051660 
#    z -0.110640 0.051660 1.762190 
# 
# From -- ./inp_files/340674.got.cif
#   From: 2010.05.17/outbox.cif.g08.bks.cpg/sg2_171_cif.got.tgz:340674.got - 2010.06.03 11:33:40.
