data_PCOD9091640
_publ_section_title
;
Structure prediction by ZEFSAII (Michael W. Deem and Ramdas Pophale) SiO2 
 PCOD9091640
Probable space group: P -1
;
_chemical_formula_sum "Si O2"
_cell_formula_units_Z 14
_cell_length_a 15.455155
_cell_length_b 9.621892
_cell_length_c 15.799791
_cell_angle_alpha 140.342958
_cell_angle_beta 39.123868
_cell_angle_gamma 150.947467
_cell_volume 686.950209
_symmetry_space_group_name_H-M "P -1"
_symmetry_group_IT_number 2
_symmetry_cell_setting 'triclinic'
loop_
_space_group_symop_operation_xyz
x,y,z
-x,-y,-z
loop_
_atom_site_type_symbol
_atom_site_label
_atom_site_fract_x
_atom_site_fract_y
_atom_site_fract_z
Si Si1 0.692324 0.220857 0.903219
Si Si2 0.166227 0.165742 0.204991
Si Si3 0.089282 0.162847 0.917858
Si Si4 0.430116 0.227438 0.639642
Si Si5 0.525907 0.771225 0.066981
Si Si6 0.838794 0.900930 0.638098
Si Si7 0.446594 0.879056 0.343523
O O1 0.639487 0.311900 0.904251
O O2 0.768461 0.067624 0.750695
O O3 0.855119 0.524790 0.972117
O O4 0.500000 0.000000 0.000000
O O5 0.073293 0.031094 0.303015
O O6 0.280010 0.518955 0.290078
O O7 0.302367 0.102519 0.065051
O O8 0.047598 0.036777 0.149442
O O9 0.284227 0.254007 0.789093
O O10 0.000000 0.000000 0.000000
O O11 0.643894 0.548477 0.618815
O O12 0.426705 0.067674 0.649797
O O13 0.379177 0.038003 0.504398
O O14 0.554921 0.971207 0.215665
O O15 0.500000 0.500000 0.000000
O O16 0.000000 0.000000 0.500000
#
# Coordination Sequence:
#
# PCOD9091640 Si02
#       7
#     2   2   2   2   2   2   2
#     4  12  23  45  69  94 137 183 218 279 343 393
#     4  10  21  38  62  95 132 167 228 280 322 400
#     4  12  24  39  69 101 131 172 231 280 334 405
#     4  10  21  41  63  93 135 176 223 278 333 398
#     4  10  19  39  68  96 128 175 226 272 332 400
#     4  11  25  45  65  94 138 184 226 275 339 404
#     4   9  19  37  65  90 127 176 218 275 341 388
#
# _framework density 20.379933000000001
#
# number of rings (size 3 to 8) (size 9 to 14) (size 15 to 20)
#    0.000    1.429    2.857    4.286    0.000    6.857 
#    2.571    1.429    0.000    0.000    0.000    0.000 
#    0.000    0.000    0.000    0.000    0.000    0.000 
#
# Total GULP energy -78052.986441 kJ/mol
# GULP energy per Si atom -5575.213317 kJ/mol
# Density = 2.033355 g / cm^3
# Si number density = 20.379933 Si / 1000 Ang^3
#
#
#
# Elastic Constant Matrix: (Units=GPa)
#
#
# Indices 1 2 3 4 5 6 
#
# 1 89.9457 25.3776 38.5389 -0.8791 16.4842 -0.9274
# 2 25.3776 71.7310 55.0812 -5.3202 6.8673 1.3536
# 3 38.5389 55.0812 167.6952 -13.4953 18.5702 -3.4394
# 4 -0.8791 -5.3202 -13.4953 36.9293 2.4814 3.6100
# 5 16.4842 6.8673 18.5702 2.4814 42.5294 3.0061
# 6 -0.9274 1.3536 -3.4394 3.6100 3.0061 23.5516
#
#
#
# Elastic Compliance Matrix: (Units=1/GPa)
#
#
# Indices 1 2 3 4 5 6 
#
# 1 0.013458 -0.003193 -0.001621 -0.000566 -0.004036 0.001079
# 2 -0.003193 0.019510 -0.005734 0.000817 0.000706 -0.002300
# 3 -0.001621 -0.005734 0.008714 0.002341 -0.002493 0.001498
# 4 -0.000566 0.000817 0.002341 0.028567 -0.002332 -0.003809
# 5 -0.004036 0.000706 -0.002493 -0.002332 0.026442 -0.003581
# 6 0.001079 -0.002300 0.001498 -0.003809 -0.003581 0.043894
#
#
# Mechanical properties :
#
#
# Convention : Reuss Voigt Hill
#
# Bulk Modulus (GPa) = 48.57312 63.04081 55.80697
# Shear Modulus (GPa) = 29.66584 34.62698 32.14641
#
# Velocity S-wave (km/s) = 3.81942 4.12645 3.97590
# Velocity P-wave (km/s) = 6.58302 7.32826 6.96562
#
# Compressibility (1/GPa) = 0.02058752
#
# Stress axis : x y z
#
# Youngs Moduli (GPa) = 74.30298 51.25544 114.75357
#
# Poissons Ratio (x) = 0.16365 0.18598
# Poissons Ratio (y) = 0.23724 0.65801
# Poissons Ratio (z) = 0.12042 0.29391
#
# Static dielectric constant tensor:
#      x y z
#    x 1.746180 -0.010980 0.005080 
#    y -0.010980 1.777800 -0.011200 
#    z 0.005080 -0.011200 1.790820 
# 
# From -- ./inp_files/209162.got.cif
#   From: 2010.05.17/outbox.cif.g08.bks.cpg/sg2_105_cif.got.tgz:209162.got - 2010.06.03 11:33:40.
