data_PCOD9091194
_publ_section_title
;
Structure prediction by ZEFSAII (Michael W. Deem and Ramdas Pophale) SiO2 
 PCOD9091194
Probable space group: P -1
;
_chemical_formula_sum "Si O2"
_cell_formula_units_Z 13
_cell_length_a 16.188121
_cell_length_b 11.859190
_cell_length_c 9.503135
_cell_angle_alpha 126.308007
_cell_angle_beta 132.869858
_cell_angle_gamma 24.772219
_cell_volume 558.309502
_symmetry_space_group_name_H-M "P -1"
_symmetry_group_IT_number 2
_symmetry_cell_setting 'triclinic'
loop_
_space_group_symop_operation_xyz
x,y,z
-x,-y,-z
loop_
_atom_site_type_symbol
_atom_site_label
_atom_site_fract_x
_atom_site_fract_y
_atom_site_fract_z
Si Si1 0.186694 0.061753 0.588226
Si Si2 0.306840 0.496416 0.274242
Si Si3 0.221522 0.491078 0.730739
Si Si4 0.249493 0.291488 0.887657
Si Si5 0.349636 0.509535 0.647755
Si Si6 0.255011 0.721734 0.114395
Si Si7 0.000000 0.000000 0.500000
O O1 0.131481 0.269198 0.752529
O O2 0.029864 0.220791 0.389080
O O3 0.436657 0.806400 0.641318
O O4 0.147618 0.976226 0.584448
O O5 0.232189 0.616818 0.434130
O O6 0.290598 0.643222 0.259447
O O7 0.187555 0.490874 0.059970
O O8 0.237330 0.347096 0.750227
O O9 0.335091 0.386063 0.632157
O O10 0.324026 0.511634 0.950282
O O11 0.500000 0.000000 0.000000
O O12 0.586747 0.320402 0.773295
O O13 0.168011 0.815259 0.706102
O O14 0.000000 0.000000 0.000000
#
# Coordination Sequence:
#
# PCOD9091194 Si02
#       7
#     2   2   2   2   2   2   1
#     4  10  19  39  64  87 123 160 208 250 303 368
#     4  10  21  38  62  89 120 164 211 244 306 368
#     4  10  22  37  58  93 120 160 209 251 307 358
#     4   9  20  40  63  85 119 169 207 246 303 371
#     4  11  22  38  59  92 129 155 205 258 308 357
#     4  11  22  36  58  90 128 165 205 251 306 367
#     4  10  22  34  62  92 118 158 196 254 310 346
#
# _framework density 23.284575
#
# number of rings (size 3 to 8) (size 9 to 14) (size 15 to 20)
#    0.000    1.846    1.538    2.308    4.308    0.000 
#    0.000    6.154    0.000    5.538    0.000    0.000 
#    0.000    0.000    0.000    0.000    0.000    0.000 
#
# Total GULP energy -72382.507562 kJ/mol
# GULP energy per Si atom -5567.885197 kJ/mol
# Density = 2.323158 g / cm^3
# Si number density = 23.284575 Si / 1000 Ang^3
#
#
#
# Elastic Constant Matrix: (Units=GPa)
#
#
# Indices 1 2 3 4 5 6 
#
# 1 125.7873 30.6859 58.1472 8.7979 0.6037 20.5883
# 2 30.6859 55.7627 18.9517 -18.5217 1.9419 -2.6541
# 3 58.1472 18.9517 98.9492 -2.6091 7.2591 -1.0409
# 4 8.7979 -18.5217 -2.6091 40.1915 12.3673 1.9336
# 5 0.6037 1.9419 7.2591 12.3673 40.8020 -9.7479
# 6 20.5883 -2.6541 -1.0409 1.9336 -9.7479 39.5522
#
#
#
# Elastic Compliance Matrix: (Units=1/GPa)
#
#
# Indices 1 2 3 4 5 6 
#
# 1 0.015837 -0.009317 -0.008003 -0.008601 0.002307 -0.008091
# 2 -0.009317 0.028747 0.000853 0.016764 -0.005349 0.004664
# 3 -0.008003 0.000853 0.014995 0.003818 -0.002857 0.003727
# 4 -0.008601 0.016764 0.003818 0.038684 -0.012926 0.000626
# 5 0.002307 -0.005349 -0.002857 -0.012926 0.030725 0.006569
# 6 -0.008091 0.004664 0.003727 0.000626 0.006569 0.031494
#
#
# Mechanical properties :
#
#
# Convention : Reuss Voigt Hill
#
# Bulk Modulus (GPa) = 37.53141 55.11875 46.32508
# Shear Modulus (GPa) = 24.71578 35.62342 30.16960
#
# Velocity S-wave (km/s) = 3.26155 3.91566 3.60348
# Velocity P-wave (km/s) = 5.50792 6.64578 6.10342
#
# Compressibility (1/GPa) = 0.02664435
#
# Stress axis : x y z
#
# Youngs Moduli (GPa) = 63.14205 34.78610 66.68687
#
# Poissons Ratio (x) = 0.32411 0.53372
# Poissons Ratio (y) = 0.58832 -0.05688
# Poissons Ratio (z) = 0.50535 -0.02967
#
# Static dielectric constant tensor:
#      x y z
#    x 1.862040 -0.044060 -0.077700 
#    y -0.044060 2.383620 0.204740 
#    z -0.077700 0.204740 2.047370 
# 
# From -- ./inp_files/162636.got.cif
#   From: 2010.05.17/outbox.cif.g08.bks.cpg/sg2_82_cif.got.tgz:162636.got - 2010.06.03 11:33:40.
