data_PCOD9091418
_publ_section_title
;
Structure prediction by ZEFSAII (Michael W. Deem and Ramdas Pophale) SiO2 
 PCOD9091418
Probable space group: P -1
;
_chemical_formula_sum "Si O2"
_cell_formula_units_Z 16
_cell_length_a 9.275198
_cell_length_b 21.664341
_cell_length_c 15.475018
_cell_angle_alpha 19.565091
_cell_angle_beta 123.342977
_cell_angle_gamma 126.083689
_cell_volume 841.391780
_symmetry_space_group_name_H-M "P -1"
_symmetry_group_IT_number 2
_symmetry_cell_setting 'triclinic'
loop_
_space_group_symop_operation_xyz
x,y,z
-x,-y,-z
loop_
_atom_site_type_symbol
_atom_site_label
_atom_site_fract_x
_atom_site_fract_y
_atom_site_fract_z
Si Si1 0.458037 0.849921 0.106332
Si Si2 0.819944 0.004621 0.291382
Si Si3 0.192735 0.605541 0.461708
Si Si4 0.694897 0.975135 0.484626
Si Si5 0.049921 0.722701 0.704978
Si Si6 0.286546 0.949818 0.346255
Si Si7 0.196329 0.974122 0.088554
Si Si8 0.805530 0.740487 0.972069
O O1 0.335432 0.659650 0.359539
O O2 0.345575 0.941904 0.880006
O O3 0.500000 0.000000 0.000000
O O4 0.648932 0.849016 0.130189
O O5 0.780756 0.973136 0.421429
O O6 0.989368 0.181737 0.092973
O O7 0.883131 0.820936 0.519599
O O8 0.183196 0.800109 0.248194
O O9 0.000000 0.500000 0.500000
O O10 0.242515 0.470893 0.728909
O O11 0.815829 0.154573 0.340607
O O12 0.491844 0.981294 0.398399
O O13 0.698768 0.793973 0.784982
O O14 0.159597 0.770063 0.589883
O O15 0.000000 0.500000 0.000000
O O16 0.261487 0.931821 0.260201
O O17 0.222980 0.127286 0.131517
O O18 0.000000 0.000000 0.000000
#
# Coordination Sequence:
#
# PCOD9091418 Si02
#       8
#     2   2   2   2   2   2   2   2
#     4  10  22  40  62  88 119 161 205 244 313 360
#     4  10  19  39  66  85 122 163 199 248 297 370
#     4  11  22  41  65  89 121 159 208 251 302 369
#     4  10  20  40  63  89 121 164 201 244 302 363
#     4  10  22  38  60  91 126 157 196 245 307 364
#     4  10  21  41  60  87 124 159 198 251 306 361
#     4  11  24  41  63  87 119 162 207 257 308 358
#     4  10  20  37  64  88 122 160 199 242 306 363
#
# _framework density 19.016110999999999
#
# number of rings (size 3 to 8) (size 9 to 14) (size 15 to 20)
#    0.000    2.000    2.500    3.750    5.250    2.000 
#    9.000    5.000    0.000    0.000    0.000    0.000 
#    0.000    0.000    0.000    0.000    0.000    0.000 
#
# Total GULP energy -89246.795656 kJ/mol
# GULP energy per Si atom -5577.924729 kJ/mol
# Density = 1.897283 g / cm^3
# Si number density = 19.016111 Si / 1000 Ang^3
#
#
#
# Elastic Constant Matrix: (Units=GPa)
#
#
# Indices 1 2 3 4 5 6 
#
# 1 145.3718 31.8483 48.6292 0.2469 -23.0580 11.4802
# 2 31.8483 70.3686 18.3199 22.6491 -8.0286 3.6339
# 3 48.6292 18.3199 105.4003 0.4899 -22.1408 12.6265
# 4 0.2469 22.6491 0.4899 22.5108 2.4908 -3.1336
# 5 -23.0580 -8.0286 -22.1408 2.4908 28.8877 7.1977
# 6 11.4802 3.6339 12.6265 -3.1336 7.1977 29.8659
#
#
#
# Elastic Compliance Matrix: (Units=1/GPa)
#
#
# Indices 1 2 3 4 5 6 
#
# 1 0.009590 -0.003855 -0.002224 0.002757 0.005465 -0.003305
# 2 -0.003855 0.026404 -0.000155 -0.028355 0.008239 -0.006626
# 3 -0.002224 -0.000155 0.013781 -0.002417 0.010905 -0.007834
# 4 0.002757 -0.028355 -0.002417 0.077194 -0.018147 0.015885
# 5 0.005465 0.008239 0.010905 -0.018147 0.057011 -0.023357
# 6 -0.003305 -0.006626 -0.007834 0.015885 -0.023357 0.046168
#
#
# Mechanical properties :
#
#
# Convention : Reuss Voigt Hill
#
# Bulk Modulus (GPa) = 26.80251 57.63727 42.21989
# Shear Modulus (GPa) = 19.60387 31.07575 25.33981
#
# Velocity S-wave (km/s) = 3.21426 4.04689 3.65436
# Velocity P-wave (km/s) = 5.28209 7.22578 6.32900
#
# Compressibility (1/GPa) = 0.03730994
#
# Stress axis : x y z
#
# Youngs Moduli (GPa) = 104.27032 37.87243 72.56408
#
# Poissons Ratio (x) = 0.14599 0.16135
# Poissons Ratio (y) = 0.40193 0.01122
# Poissons Ratio (z) = 0.23186 0.00585
#
# Static dielectric constant tensor:
#      x y z
#    x 1.705280 -0.022820 -0.072340 
#    y -0.022820 1.754200 0.189010 
#    z -0.072340 0.189010 1.967620 
# 
# From -- ./inp_files/218540.got.cif
#   From: 2010.05.17/outbox.cif.g08.bks.cpg/sg2_110_cif.got.tgz:218540.got - 2010.06.03 11:33:40.
