data_PCOD9091568
_publ_section_title
;
Structure prediction by ZEFSAII (Michael W. Deem and Ramdas Pophale) SiO2 
 PCOD9091568
Probable space group: P -1
;
_chemical_formula_sum "Si O2"
_cell_formula_units_Z 16
_cell_length_a 8.460549
_cell_length_b 14.322218
_cell_length_c 10.037068
_cell_angle_alpha 68.648194
_cell_angle_beta 130.819168
_cell_angle_gamma 134.018322
_cell_volume 652.744217
_symmetry_space_group_name_H-M "P -1"
_symmetry_group_IT_number 2
_symmetry_cell_setting 'triclinic'
loop_
_space_group_symop_operation_xyz
x,y,z
-x,-y,-z
loop_
_atom_site_type_symbol
_atom_site_label
_atom_site_fract_x
_atom_site_fract_y
_atom_site_fract_z
Si Si1 0.821029 0.883151 0.360583
Si Si2 0.732218 0.345844 0.426330
Si Si3 0.158158 0.124332 0.919926
Si Si4 0.424042 0.929201 0.134175
Si Si5 0.728697 0.202284 0.256328
Si Si6 0.545971 0.361057 0.577214
Si Si7 0.800759 0.705676 0.959439
Si Si8 0.215027 0.421304 0.220209
O O1 0.944110 0.920808 0.262668
O O2 0.528717 0.849179 0.222760
O O3 0.737636 0.752628 0.445467
O O4 0.000000 0.000000 0.500000
O O5 0.793411 0.271243 0.400858
O O6 0.649717 0.309863 0.555695
O O7 0.460873 0.313674 0.228892
O O8 0.000000 0.500000 0.500000
O O9 0.466738 0.181683 0.067908
O O10 0.176472 0.249192 0.899716
O O11 0.000000 0.000000 0.000000
O O12 0.604610 0.050760 0.274681
O O13 0.100110 0.837893 0.012859
O O14 0.500000 0.000000 0.000000
O O15 0.955794 0.292665 0.220886
O O16 0.474798 0.434767 0.406213
O O17 0.747866 0.459088 0.754479
O O18 0.787334 0.595394 0.932274
#
# Coordination Sequence:
#
# PCOD9091568 Si02
#       8
#     2   2   2   2   2   2   2   2
#     4  12  27  42  67 103 137 172 224 296 332 385
#     4  10  21  38  65 102 128 172 230 278 327 392
#     4  11  22  40  64  97 133 178 223 263 338 408
#     4  12  21  40  65  97 131 180 226 260 342 417
#     4  11  20  34  69  92 127 175 234 253 322 420
#     4  10  23  40  62  95 139 160 226 275 344 378
#     4  10  21  36  68  90 128 179 228 261 322 415
#     4  10  19  39  67  95 122 184 211 272 327 416
#
# _framework density 24.511897999999999
#
# number of rings (size 3 to 8) (size 9 to 14) (size 15 to 20)
#    0.000    1.250    5.000    0.750    7.000    0.000 
#    0.000    6.875    0.000    0.000    0.000    0.000 
#    0.000    0.000    0.000    0.000    0.000    0.000 
#
# Total GULP energy -89162.987527 kJ/mol
# GULP energy per Si atom -5572.686720 kJ/mol
# Density = 2.445611 g / cm^3
# Si number density = 24.511898 Si / 1000 Ang^3
#
#
#
# Elastic Constant Matrix: (Units=GPa)
#
#
# Indices 1 2 3 4 5 6 
#
# 1 115.1398 4.9452 43.4360 12.0111 -39.1960 -13.0251
# 2 4.9452 52.6918 30.9659 21.7128 -15.6491 4.5190
# 3 43.4360 30.9659 90.1259 26.6140 -37.6832 -2.3211
# 4 12.0111 21.7128 26.6140 38.7969 -4.3811 -6.9936
# 5 -39.1960 -15.6491 -37.6832 -4.3811 75.5931 19.7606
# 6 -13.0251 4.5190 -2.3211 -6.9936 19.7606 38.3323
#
#
#
# Elastic Compliance Matrix: (Units=1/GPa)
#
#
# Indices 1 2 3 4 5 6 
#
# 1 0.012058 0.003629 -0.004630 -0.001953 0.004380 0.000775
# 2 0.003629 0.031153 -0.004797 -0.016141 0.007498 -0.009540
# 3 -0.004630 -0.004797 0.021415 -0.010708 0.008201 -0.005893
# 4 -0.001953 -0.016141 -0.010708 0.044098 -0.010857 0.014233
# 5 0.004380 0.007498 0.008201 -0.010857 0.023971 -0.013237
# 6 0.000775 -0.009540 -0.005893 0.014233 -0.013237 0.036540
#
#
# Mechanical properties :
#
#
# Convention : Reuss Voigt Hill
#
# Bulk Modulus (GPa) = 18.85773 46.29463 32.57618
# Shear Modulus (GPa) = 25.18786 42.45182 33.81984
#
# Velocity S-wave (km/s) = 3.20906 4.16611 3.71850
# Velocity P-wave (km/s) = 4.63042 6.48610 5.63517
#
# Compressibility (1/GPa) = 0.05302865
#
# Stress axis : x y z
#
# Youngs Moduli (GPa) = 82.93007 32.09984 46.69709
#
# Poissons Ratio (x) = -0.11648 0.21622
# Poissons Ratio (y) = -0.30092 0.22400
# Poissons Ratio (z) = 0.38399 0.15398
#
# Static dielectric constant tensor:
#      x y z
#    x 1.973480 -0.124680 -0.000960 
#    y -0.124680 2.114920 -0.058670 
#    z -0.000960 -0.058670 2.031940 
# 
# From -- ./inp_files/397382.got.cif
#   From: 2010.05.17/outbox.cif.g08.bks.cpg/sg2_199_cif.got.tgz:397382.got - 2010.06.03 11:33:40.
