data_PCOD9091155
_publ_section_title
;
Structure prediction by ZEFSAII (Michael W. Deem and Ramdas Pophale) SiO2 
 PCOD9091155
Probable space group: P -1
;
_chemical_formula_sum "Si O2"
_cell_formula_units_Z 16
_cell_length_a 17.092903
_cell_length_b 16.609538
_cell_length_c 9.659618
_cell_angle_alpha 135.589746
_cell_angle_beta 31.092811
_cell_angle_gamma 147.697044
_cell_volume 756.396564
_symmetry_space_group_name_H-M "P -1"
_symmetry_group_IT_number 2
_symmetry_cell_setting 'triclinic'
loop_
_space_group_symop_operation_xyz
x,y,z
-x,-y,-z
loop_
_atom_site_type_symbol
_atom_site_label
_atom_site_fract_x
_atom_site_fract_y
_atom_site_fract_z
Si Si1 0.575179 0.122259 0.919043
Si Si2 0.802814 0.691709 0.777451
Si Si3 0.847763 0.371334 0.467381
Si Si4 0.558215 0.427682 0.022645
Si Si5 0.978524 0.424730 0.797086
Si Si6 0.704111 0.805098 0.659195
Si Si7 0.686467 0.061741 0.391540
Si Si8 0.937879 0.977588 0.801370
O O1 0.760954 0.284836 0.898985
O O2 0.632448 0.068263 0.637659
O O3 0.415813 0.137568 0.126756
O O4 0.500000 0.000000 0.000000
O O5 0.608309 0.635378 0.919160
O O6 0.950974 0.872864 0.755040
O O7 0.898747 0.632874 0.476390
O O8 0.729018 0.603029 0.928864
O O9 0.843397 0.235518 0.327328
O O10 0.000000 0.500000 0.500000
O O11 0.919244 0.436324 0.289215
O O12 0.646484 0.342587 0.765542
O O13 0.452435 0.369441 0.262596
O O14 0.000000 0.500000 0.000000
O O15 0.834174 0.888354 0.703880
O O16 0.855924 0.864873 0.373062
O O17 0.500000 0.000000 0.500000
O O18 0.788049 0.991294 0.120228
#
# Coordination Sequence:
#
# PCOD9091155 Si02
#       8
#     2   2   2   2   2   2   2   2
#     4  12  25  44  66 101 143 173 222 293 336 398
#     4   9  19  38  60  95 130 174 217 277 330 397
#     4  11  21  41  68  95 130 175 228 277 329 398
#     4   9  17  35  64  87 125 176 214 266 337 389
#     4  11  25  42  67  98 131 179 227 280 340 397
#     4  10  19  39  63  97 135 172 217 277 339 392
#     4  12  23  42  72 104 127 181 233 268 336 416
#     4  10  21  37  70 101 132 175 223 274 341 409
#
# _framework density 21.152923000000001
#
# number of rings (size 3 to 8) (size 9 to 14) (size 15 to 20)
#    0.000    1.500    3.750    1.500    1.750    3.000 
#    0.000    3.750    0.000    5.250    0.000    0.000 
#    0.000    0.000    0.000    0.000    0.000    0.000 
#
# Total GULP energy -89192.841763 kJ/mol
# GULP energy per Si atom -5574.552610 kJ/mol
# Density = 2.110478 g / cm^3
# Si number density = 21.152923 Si / 1000 Ang^3
#
#
#
# Elastic Constant Matrix: (Units=GPa)
#
#
# Indices 1 2 3 4 5 6 
#
# 1 64.9747 24.6537 42.0717 -4.3844 8.5948 -23.8789
# 2 24.6537 76.3686 42.9698 -7.7129 14.5556 -26.0236
# 3 42.0717 42.9698 115.4582 -14.0556 25.4908 -17.2185
# 4 -4.3844 -7.7129 -14.0556 23.4648 6.0850 -0.1534
# 5 8.5948 14.5556 25.4908 6.0850 22.9073 2.3610
# 6 -23.8789 -26.0236 -17.2185 -0.1534 2.3610 40.9896
#
#
#
# Elastic Compliance Matrix: (Units=1/GPa)
#
#
# Indices 1 2 3 4 5 6 
#
# 1 0.024351 0.001095 -0.005819 0.002920 -0.005447 0.012761
# 2 0.001095 0.023990 -0.000939 0.012749 -0.019713 0.016658
# 3 -0.005819 -0.000939 0.019007 0.016037 -0.023186 0.005393
# 4 0.002920 0.012749 0.016037 0.069403 -0.047491 0.019527
# 5 -0.005447 -0.019713 -0.023186 -0.047491 0.099873 -0.031359
# 6 0.012761 0.016658 0.005393 0.019527 -0.031359 0.046551
#
#
# Mechanical properties :
#
#
# Convention : Reuss Voigt Hill
#
# Bulk Modulus (GPa) = 17.85030 52.91021 35.38025
# Shear Modulus (GPa) = 15.96545 27.27941 21.62243
#
# Velocity S-wave (km/s) = 2.75028 3.59504 3.20065
# Velocity P-wave (km/s) = 4.30608 6.50383 5.51553
#
# Compressibility (1/GPa) = 0.05602148
#
# Stress axis : x y z
#
# Youngs Moduli (GPa) = 41.06654 41.68321 52.61248
#
# Poissons Ratio (x) = -0.04565 0.30617
# Poissons Ratio (y) = -0.04497 0.04940
# Poissons Ratio (z) = 0.23898 0.03914
#
# Static dielectric constant tensor:
#      x y z
#    x 1.754810 -0.025870 -0.059820 
#    y -0.025870 1.835110 -0.079240 
#    z -0.059820 -0.079240 1.874930 
# 
# From -- ./inp_files/336784.got.cif
#   From: 2010.05.17/outbox.cif.g08.bks.cpg/sg2_169_cif.got.tgz:336784.got - 2010.06.03 11:33:40.
