data_PCOD9091139
_publ_section_title
;
Structure prediction by ZEFSAII (Michael W. Deem and Ramdas Pophale) SiO2 
 PCOD9091139
Probable space group: P -1
;
_chemical_formula_sum "Si O2"
_cell_formula_units_Z 16
_cell_length_a 12.068420
_cell_length_b 10.457025
_cell_length_c 9.066831
_cell_angle_alpha 66.362881
_cell_angle_beta 65.406922
_cell_angle_gamma 106.709959
_cell_volume 798.851849
_symmetry_space_group_name_H-M "P -1"
_symmetry_group_IT_number 2
_symmetry_cell_setting 'triclinic'
loop_
_space_group_symop_operation_xyz
x,y,z
-x,-y,-z
loop_
_atom_site_type_symbol
_atom_site_label
_atom_site_fract_x
_atom_site_fract_y
_atom_site_fract_z
Si Si1 0.361068 0.983824 0.421188
Si Si2 0.000235 0.107723 0.087482
Si Si3 0.680511 0.746923 0.162068
Si Si4 0.659914 0.237587 0.019212
Si Si5 0.727036 0.800989 0.462741
Si Si6 0.559853 0.463389 0.838272
Si Si7 0.135996 0.679599 0.888038
Si Si8 0.336485 0.964212 0.110357
O O1 0.257081 0.807304 0.641843
O O2 0.295737 0.960031 0.303935
O O3 0.533044 0.066945 0.251934
O O4 0.362565 0.129137 0.444826
O O5 0.926910 0.213359 0.060252
O O6 0.167410 0.227616 0.981835
O O7 0.891168 0.956873 0.323676
O O8 0.000000 0.000000 0.000000
O O9 0.683339 0.756683 0.334440
O O10 0.548696 0.595618 0.214600
O O11 0.676863 0.901810 0.032168
O O12 0.772929 0.348878 0.029310
O O13 0.588535 0.323397 0.936310
O O14 0.744092 0.200718 0.866538
O O15 0.699654 0.637363 0.630829
O O16 0.500000 0.500000 0.000000
O O17 0.000000 0.500000 0.000000
O O18 0.500000 0.000000 0.000000
#
# Coordination Sequence:
#
# PCOD9091139 Si02
#       8
#     2   2   2   2   2   2   2   2
#     4  10  20  42  66  90 120 164 208 253 309 376
#     4   9  21  42  64  87 122 166 209 249 303 382
#     4  11  21  40  68  89 123 165 212 258 301 373
#     4  11  22  42  64  87 132 163 199 265 310 373
#     4  10  21  40  63  94 124 165 210 250 309 370
#     4  12  23  40  59  96 128 158 212 261 311 355
#     4  11  25  43  63  95 124 163 214 257 314 370
#     4  10  19  39  63  95 122 156 207 254 313 368
#
# _framework density 20.028746999999999
#
# number of rings (size 3 to 8) (size 9 to 14) (size 15 to 20)
#    0.000    1.500    3.750    3.000    1.750    1.000 
#    6.750    2.500    0.000    0.000    0.000    0.000 
#    0.000    0.000    0.000    0.000    0.000    0.000 
#
# Total GULP energy -89079.113468 kJ/mol
# GULP energy per Si atom -5567.444592 kJ/mol
# Density = 1.998316 g / cm^3
# Si number density = 20.028747 Si / 1000 Ang^3
#
#
#
# Elastic Constant Matrix: (Units=GPa)
#
#
# Indices 1 2 3 4 5 6 
#
# 1 60.2711 6.5254 35.9059 0.3705 0.3287 9.0918
# 2 6.5254 89.2879 40.3326 4.1884 -0.7251 9.8569
# 3 35.9059 40.3326 82.6422 2.9924 15.5122 12.2270
# 4 0.3705 4.1884 2.9924 34.9218 1.2225 -2.9318
# 5 0.3287 -0.7251 15.5122 1.2225 24.2476 -2.1875
# 6 9.0918 9.8569 12.2270 -2.9318 -2.1875 32.1418
#
#
#
# Elastic Compliance Matrix: (Units=1/GPa)
#
#
# Indices 1 2 3 4 5 6 
#
# 1 0.025176 0.005204 -0.014808 -0.000148 0.009071 -0.002480
# 2 0.005204 0.016245 -0.011291 -0.001450 0.007552 -0.001777
# 3 -0.014808 -0.011291 0.028198 -0.000625 -0.018541 -0.004394
# 4 -0.000148 -0.001450 -0.000625 0.029172 -0.000812 0.003330
# 5 0.009071 0.007552 -0.018541 -0.000812 0.053766 0.005756
# 6 -0.002480 -0.001777 -0.004394 0.003330 0.005756 0.034726
#
#
# Mechanical properties :
#
#
# Convention : Reuss Voigt Hill
#
# Bulk Modulus (GPa) = 35.93641 44.19213 40.06427
# Shear Modulus (GPa) = 20.97761 28.22474 24.60117
#
# Velocity S-wave (km/s) = 3.23983 3.75802 3.50850
# Velocity P-wave (km/s) = 5.65479 6.39863 6.03818
#
# Compressibility (1/GPa) = 0.02782693
#
# Stress axis : x y z
#
# Youngs Moduli (GPa) = 39.72089 61.55620 35.46403
#
# Poissons Ratio (x) = -0.32031 0.52516
# Poissons Ratio (y) = -0.20669 0.40043
# Poissons Ratio (z) = 0.58819 0.69504
#
# Static dielectric constant tensor:
#      x y z
#    x 1.727840 0.032520 -0.032440 
#    y 0.032520 1.781610 0.031270 
#    z -0.032440 0.031270 1.756330 
# 
# From -- ./inp_files/256834.got.cif
#   From: 2010.05.17/outbox.cif.g08.bks.cpg/sg2_129_cif.got.tgz:256834.got - 2010.06.03 11:33:40.
