data_PCOD9091550
_publ_section_title
;
Structure prediction by ZEFSAII (Michael W. Deem and Ramdas Pophale) SiO2 
 PCOD9091550
Probable space group: P -1
;
_chemical_formula_sum "Si O2"
_cell_formula_units_Z 14
_cell_length_a 14.285912
_cell_length_b 19.376916
_cell_length_c 8.050650
_cell_angle_alpha 34.586170
_cell_angle_beta 140.283016
_cell_angle_gamma 147.437916
_cell_volume 659.823806
_symmetry_space_group_name_H-M "P -1"
_symmetry_group_IT_number 2
_symmetry_cell_setting 'triclinic'
loop_
_space_group_symop_operation_xyz
x,y,z
-x,-y,-z
loop_
_atom_site_type_symbol
_atom_site_label
_atom_site_fract_x
_atom_site_fract_y
_atom_site_fract_z
Si Si1 0.013241 0.877496 0.354735
Si Si2 0.297762 0.705253 0.482675
Si Si3 0.921848 0.618695 0.190764
Si Si4 0.588276 0.015142 0.272043
Si Si5 0.098896 0.430719 0.350737
Si Si6 0.838440 0.838281 0.538456
Si Si7 0.561542 0.270623 0.741836
O O1 0.959117 0.728906 0.477624
O O2 0.883106 0.825597 0.436457
O O3 0.219771 0.955978 0.535876
O O4 0.000000 0.000000 0.000000
O O5 0.212657 0.541135 0.763789
O O6 0.444872 0.856696 0.476780
O O7 0.392290 0.711564 0.427338
O O8 0.119805 0.702233 0.215947
O O9 0.938376 0.586880 0.467842
O O10 0.846483 0.716682 0.890103
O O11 0.500000 0.000000 0.000000
O O12 0.609506 0.158756 0.095100
O O13 0.308674 0.561930 0.346097
O O14 0.000000 0.500000 0.000000
O O15 0.646340 0.806821 0.359148
O O16 0.000000 0.000000 0.500000
#
# Coordination Sequence:
#
# PCOD9091550 Si02
#       7
#     2   2   2   2   2   2   2
#     4  12  27  45  68  99 141 177 218 287 349 392
#     4   9  19  36  65  97 122 164 234 270 316 388
#     4  10  22  39  67  97 127 176 223 275 333 398
#     4  10  19  39  67  92 126 175 226 267 323 399
#     4  11  24  44  66  95 143 176 222 275 337 401
#     4  12  24  42  69  98 136 172 226 280 337 401
#     4  10  21  39  67  97 129 178 219 274 332 399
#
# _framework density 21.217784999999999
#
# number of rings (size 3 to 8) (size 9 to 14) (size 15 to 20)
#    0.000    1.429    1.429    5.143    4.000    4.000 
#    2.571    1.429    0.000    0.000    0.000    0.000 
#    0.000    0.000    0.000    0.000    0.000    0.000 
#
# Total GULP energy -78162.089874 kJ/mol
# GULP energy per Si atom -5583.006420 kJ/mol
# Density = 2.116949 g / cm^3
# Si number density = 21.217785 Si / 1000 Ang^3
#
#
#
# Elastic Constant Matrix: (Units=GPa)
#
#
# Indices 1 2 3 4 5 6 
#
# 1 90.3683 35.8503 36.3973 9.5585 17.1411 19.6813
# 2 35.8503 149.6409 36.0025 -15.4490 15.5047 16.9884
# 3 36.3973 36.0025 134.0171 -6.4918 12.6847 6.1853
# 4 9.5585 -15.4490 -6.4918 36.8336 4.1778 16.9540
# 5 17.1411 15.5047 12.6847 4.1778 33.1701 7.8916
# 6 19.6813 16.9884 6.1853 16.9540 7.8916 40.6180
#
#
#
# Elastic Compliance Matrix: (Units=1/GPa)
#
#
# Indices 1 2 3 4 5 6 
#
# 1 0.015217 -0.002383 -0.003077 -0.003303 -0.004277 -0.003698
# 2 -0.002383 0.008960 -0.001001 0.006657 -0.002276 -0.004776
# 3 -0.003077 -0.001001 0.008819 0.002116 -0.001579 -0.000010
# 4 -0.003303 0.006657 0.002116 0.039533 -0.003050 -0.017414
# 5 -0.004277 -0.002276 -0.001579 -0.003050 0.034945 -0.002252
# 6 -0.003698 -0.004776 -0.000010 -0.017414 -0.002252 0.036117
#
#
# Mechanical properties :
#
#
# Convention : Reuss Voigt Hill
#
# Bulk Modulus (GPa) = 49.82089 65.61405 57.71747
# Shear Modulus (GPa) = 30.63653 39.84275 35.23964
#
# Velocity S-wave (km/s) = 3.80400 4.33806 4.07978
# Velocity P-wave (km/s) = 6.54413 7.48885 7.03237
#
# Compressibility (1/GPa) = 0.02007190
#
# Stress axis : x y z
#
# Youngs Moduli (GPa) = 65.71751 111.60883 113.39438
#
# Poissons Ratio (x) = 0.26600 0.34891
# Poissons Ratio (y) = 0.15663 0.11356
# Poissons Ratio (z) = 0.20221 0.11177
#
# Static dielectric constant tensor:
#      x y z
#    x 1.815010 -0.043160 -0.129470 
#    y -0.043160 1.851820 -0.011240 
#    z -0.129470 -0.011240 2.098400 
# 
# From -- ./inp_files/319198.got.cif
#   From: 2010.05.17/outbox.cif.g08.bks.cpg/sg2_160_cif.got.tgz:319198.got - 2010.06.03 11:33:40.
