data_PCOD9091359
_publ_section_title
;
Structure prediction by ZEFSAII (Michael W. Deem and Ramdas Pophale) SiO2 
 PCOD9091359
Probable space group: P -1
;
_chemical_formula_sum "Si O2"
_cell_formula_units_Z 14
_cell_length_a 14.963459
_cell_length_b 18.147199
_cell_length_c 9.095536
_cell_angle_alpha 35.279911
_cell_angle_beta 145.559027
_cell_angle_gamma 156.753579
_cell_volume 531.986826
_symmetry_space_group_name_H-M "P -1"
_symmetry_group_IT_number 2
_symmetry_cell_setting 'triclinic'
loop_
_space_group_symop_operation_xyz
x,y,z
-x,-y,-z
loop_
_atom_site_type_symbol
_atom_site_label
_atom_site_fract_x
_atom_site_fract_y
_atom_site_fract_z
Si Si1 0.187764 0.451458 0.576539
Si Si2 0.033203 0.726428 0.150871
Si Si3 0.655056 0.733619 0.955893
Si Si4 0.298264 0.954443 0.879848
Si Si5 0.577452 0.692950 0.252957
Si Si6 0.110520 0.086410 0.314396
Si Si7 0.076945 0.470720 0.963247
O O1 0.411085 0.611352 0.729987
O O2 0.092418 0.512767 0.254369
O O3 0.272312 0.371396 0.750037
O O4 0.962860 0.292203 0.641236
O O5 0.274009 0.911185 0.090597
O O6 0.939236 0.558115 0.191488
O O7 0.863829 0.750142 0.874017
O O8 0.854586 0.901383 0.835002
O O9 0.599799 0.744721 0.026057
O O10 0.302727 0.104679 0.605492
O O11 0.055727 0.742353 0.827979
O O12 0.500000 0.000000 0.000000
O O13 0.500000 0.500000 0.500000
O O14 0.853723 0.886084 0.352857
O O15 0.354687 0.638391 0.103318
#
# Coordination Sequence:
#
# PCOD9091359 Si02
#       7
#     2   2   2   2   2   2   2
#     4  10  19  39  65  93 114 152 209 256 290 342
#     4   9  20  36  59  89 116 160 198 245 292 349
#     4  10  22  38  65  91 118 156 202 250 298 349
#     4  10  20  34  58  90 116 153 202 251 291 338
#     4  12  23  42  59  87 126 166 192 236 308 371
#     4  11  22  39  59  88 124 156 201 240 302 359
#     4  10  21  37  62  88 117 158 203 243 298 346
#
# _framework density 26.316441000000001
#
# number of rings (size 3 to 8) (size 9 to 14) (size 15 to 20)
#    0.857    0.857    2.857    2.143    0.000    0.000 
#    2.571    5.000    0.000    0.000    0.000    0.000 
#    0.000    0.000    0.000    0.000    0.000    0.000 
#
# Total GULP energy -78131.033133 kJ/mol
# GULP energy per Si atom -5580.788081 kJ/mol
# Density = 2.625654 g / cm^3
# Si number density = 26.316441 Si / 1000 Ang^3
#
#
#
# Elastic Constant Matrix: (Units=GPa)
#
#
# Indices 1 2 3 4 5 6 
#
# 1 108.8063 25.6576 28.2415 10.6466 0.8560 42.1613
# 2 25.6576 104.6166 29.8851 11.3830 3.9003 21.7932
# 3 28.2415 29.8851 129.7089 10.3668 24.9531 10.3083
# 4 10.6466 11.3830 10.3668 34.1919 12.1088 -1.2586
# 5 0.8560 3.9003 24.9531 12.1088 48.3074 4.9040
# 6 42.1613 21.7932 10.3083 -1.2586 4.9040 44.5245
#
#
#
# Elastic Compliance Matrix: (Units=1/GPa)
#
#
# Indices 1 2 3 4 5 6 
#
# 1 0.016614 0.000636 -0.002800 -0.006689 0.004409 -0.016070
# 2 0.000636 0.011763 -0.002397 -0.004316 0.001983 -0.006146
# 3 -0.002800 -0.002397 0.009631 0.000641 -0.005113 0.002177
# 4 -0.006689 -0.004316 0.000641 0.036526 -0.010080 0.010441
# 5 0.004409 0.001983 -0.005113 -0.010080 0.026356 -0.007149
# 6 -0.016070 -0.006146 0.002177 0.010441 -0.007149 0.041264
#
#
# Mechanical properties :
#
#
# Convention : Reuss Voigt Hill
#
# Bulk Modulus (GPa) = 34.61791 56.74447 45.68119
# Shear Modulus (GPa) = 31.07410 42.69460 36.88435
#
# Velocity S-wave (km/s) = 3.43999 4.03222 3.74782
# Velocity P-wave (km/s) = 5.38155 6.57933 6.01035
#
# Compressibility (1/GPa) = 0.02888678
#
# Stress axis : x y z
#
# Youngs Moduli (GPa) = 60.18875 85.01018 103.83067
#
# Poissons Ratio (x) = -0.05410 0.29077
# Poissons Ratio (y) = -0.03830 0.24887
# Poissons Ratio (z) = 0.16856 0.20376
#
# Static dielectric constant tensor:
#      x y z
#    x 2.145030 -0.075530 -0.070060 
#    y -0.075530 2.177320 0.000530 
#    z -0.070060 0.000530 2.047080 
# 
# From -- ./inp_files/467278.got.cif
#   From: 2010.05.17/outbox.cif.g08.bks.cpg/sg2_234_cif.got.tgz:467278.got - 2010.06.03 11:33:40.
