data_PCOD9091285
_publ_section_title
;
Structure prediction by ZEFSAII (Michael W. Deem and Ramdas Pophale) SiO2 
 PCOD9091285
Probable space group: P -1
;
_chemical_formula_sum "Si O2"
_cell_formula_units_Z 16
_cell_length_a 7.083263
_cell_length_b 12.144101
_cell_length_c 18.009535
_cell_angle_alpha 29.695581
_cell_angle_beta 107.579318
_cell_angle_gamma 112.471950
_cell_volume 707.649602
_symmetry_space_group_name_H-M "P -1"
_symmetry_group_IT_number 2
_symmetry_cell_setting 'triclinic'
loop_
_space_group_symop_operation_xyz
x,y,z
-x,-y,-z
loop_
_atom_site_type_symbol
_atom_site_label
_atom_site_fract_x
_atom_site_fract_y
_atom_site_fract_z
Si Si1 0.733726 0.998171 0.501234
Si Si2 0.956117 0.920538 0.234902
Si Si3 0.414026 0.746925 0.783487
Si Si4 0.800056 0.315516 0.054961
Si Si5 0.223080 0.514116 0.210121
Si Si6 0.213656 0.832782 0.442259
Si Si7 0.817114 0.687590 0.076000
Si Si8 0.647491 0.627378 0.254049
O O1 0.776656 0.752262 0.641375
O O2 0.500000 0.000000 0.500000
O O3 0.738428 0.116780 0.352834
O O4 0.869290 0.137583 0.502356
O O5 0.061677 0.778837 0.386624
O O6 0.776688 0.773601 0.248898
O O7 0.865207 0.082850 0.182902
O O8 0.115370 0.087782 0.099524
O O9 0.361230 0.707461 0.885588
O O10 0.354026 0.511123 0.868787
O O11 0.639512 0.913005 0.705565
O O12 0.732675 0.389443 0.924548
O O13 0.000000 0.500000 0.000000
O O14 0.017911 0.586477 0.164484
O O15 0.410239 0.624709 0.222083
O O16 0.332290 0.633740 0.580646
O O17 0.744846 0.718950 0.132069
#
# Coordination Sequence:
#
# PCOD9091285 Si02
#       8
#     2   2   2   2   2   2   2   2
#     4  10  19  39  64  97 130 165 217 269 331 388
#     4  11  26  44  67  94 134 182 221 274 326 396
#     4  11  21  41  64  99 132 158 222 273 339 391
#     4  11  23  43  63 102 135 166 221 277 342 387
#     4  11  23  42  69  99 135 176 219 275 331 397
#     4  11  23  42  66  98 131 177 220 274 333 385
#     4  11  25  42  68 104 127 176 223 274 339 390
#     4  12  24  49  65  94 139 181 228 265 324 400
#
# _framework density 22.610061000000002
#
# number of rings (size 3 to 8) (size 9 to 14) (size 15 to 20)
#    0.000    1.000    6.250    2.250    1.750    4.000 
#    2.250    0.625    0.000    0.000    0.000    0.000 
#    0.000    0.000    0.000    0.000    0.000    0.000 
#
# Total GULP energy -89494.118768 kJ/mol
# GULP energy per Si atom -5593.382423 kJ/mol
# Density = 2.255860 g / cm^3
# Si number density = 22.610061 Si / 1000 Ang^3
#
#
#
# Elastic Constant Matrix: (Units=GPa)
#
#
# Indices 1 2 3 4 5 6 
#
# 1 68.8596 16.8782 0.8710 7.7994 11.6228 2.8747
# 2 16.8782 126.8863 2.7603 13.4799 -10.2812 14.5324
# 3 0.8710 2.7603 68.1187 27.0496 12.4847 15.4167
# 4 7.7994 13.4799 27.0496 39.4302 3.8843 2.3296
# 5 11.6228 -10.2812 12.4847 3.8843 18.9562 -3.6849
# 6 2.8747 14.5324 15.4167 2.3296 -3.6849 23.2952
#
#
#
# Elastic Compliance Matrix: (Units=1/GPa)
#
#
# Indices 1 2 3 4 5 6 
#
# 1 0.019131 -0.002710 0.007160 -0.005510 -0.018294 -0.007752
# 2 -0.002710 0.009713 0.001350 -0.003971 0.005823 -0.005300
# 3 0.007160 0.001350 0.033521 -0.020720 -0.026551 -0.026038
# 4 -0.005510 -0.003971 -0.020720 0.040249 0.009409 0.014333
# 5 -0.018294 0.005823 -0.026551 0.009409 0.088369 0.029233
# 6 -0.007752 -0.005300 -0.026038 0.014333 0.029233 0.067613
#
#
# Mechanical properties :
#
#
# Convention : Reuss Voigt Hill
#
# Bulk Modulus (GPa) = 13.51952 33.87594 23.69773
# Shear Modulus (GPa) = 18.40604 32.56000 25.48302
#
# Velocity S-wave (km/s) = 2.85628 3.79894 3.36082
# Velocity P-wave (km/s) = 4.10733 5.85302 5.05608
#
# Compressibility (1/GPa) = 0.07396713
#
# Stress axis : x y z
#
# Youngs Moduli (GPa) = 52.27020 102.95543 29.83226
#
# Poissons Ratio (x) = 0.27897 -0.21361
# Poissons Ratio (y) = 0.14163 -0.04028
# Poissons Ratio (z) = -0.37427 -0.13902
#
# Static dielectric constant tensor:
#      x y z
#    x 1.905250 0.044090 -0.035120 
#    y 0.044090 1.827430 0.015750 
#    z -0.035120 0.015750 1.899490 
# 
# From -- ./inp_files/558904.got.cif
#   From: 2010.05.17/outbox.cif.g08.bks.cpg/sg2_280_cif.got.tgz:558904.got - 2010.06.03 11:33:40.
