data_PCOD9091768
_publ_section_title
;
Structure prediction by ZEFSAII (Michael W. Deem and Ramdas Pophale) SiO2 
 PCOD9091768
Probable space group: P -1
;
_chemical_formula_sum "Si O2"
_cell_formula_units_Z 16
_cell_length_a 13.680757
_cell_length_b 7.590022
_cell_length_c 11.584532
_cell_angle_alpha 142.948984
_cell_angle_beta 117.385893
_cell_angle_gamma 60.061938
_cell_volume 623.673310
_symmetry_space_group_name_H-M "P -1"
_symmetry_group_IT_number 2
_symmetry_cell_setting 'triclinic'
loop_
_space_group_symop_operation_xyz
x,y,z
-x,-y,-z
loop_
_atom_site_type_symbol
_atom_site_label
_atom_site_fract_x
_atom_site_fract_y
_atom_site_fract_z
Si Si1 0.603140 0.200325 0.897848
Si Si2 0.270529 0.622902 0.504140
Si Si3 0.723620 0.279405 0.779434
Si Si4 0.858401 0.647445 0.900807
Si Si5 0.092329 0.293104 0.522115
Si Si6 0.288857 0.514628 0.728536
Si Si7 0.066610 0.097039 0.716072
Si Si8 0.432814 0.863357 0.555352
O O1 0.691808 0.257674 0.882026
O O2 0.553455 0.917021 0.687800
O O3 0.500000 0.500000 0.000000
O O4 0.663155 0.206553 0.056487
O O5 0.214376 0.403080 0.278886
O O6 0.283272 0.518430 0.589077
O O7 0.179144 0.950010 0.630213
O O8 0.376563 0.722187 0.556020
O O9 0.786363 0.526006 0.898288
O O10 0.815058 0.973900 0.630992
O O11 0.602229 0.319183 0.667156
O O12 0.983257 0.426185 0.828493
O O13 0.893087 0.913406 0.131434
O O14 0.171251 0.500016 0.718524
O O15 0.000000 0.500000 0.500000
O O16 0.015486 0.125479 0.464441
O O17 0.371243 0.201222 0.654386
#
# Coordination Sequence:
#
# PCOD9091768 Si02
#       8
#     2   2   2   2   2   2   2   2
#     4  10  21  39  65  93 124 171 218 277 329 382
#     4  11  21  40  65  92 133 168 212 277 321 391
#     4   9  19  38  65  92 128 168 218 269 321 398
#     4   9  21  37  60  96 128 171 223 260 326 392
#     4  10  19  40  58  90 132 169 206 258 325 389
#     4  10  22  39  60  95 131 161 221 262 325 391
#     4  10  20  38  62  93 130 175 218 261 325 391
#     4   9  21  40  67  90 121 173 215 266 339 369
#
# _framework density 25.654456
#
# number of rings (size 3 to 8) (size 9 to 14) (size 15 to 20)
#    0.000    2.250    1.250    1.500    3.500    0.500 
#    9.000    1.250    0.000    9.000    0.000    0.000 
#    0.000    0.000    0.000    0.000    0.000    0.000 
#
# Total GULP energy -89274.251747 kJ/mol
# GULP energy per Si atom -5579.640734 kJ/mol
# Density = 2.559607 g / cm^3
# Si number density = 25.654456 Si / 1000 Ang^3
#
#
#
# Elastic Constant Matrix: (Units=GPa)
#
#
# Indices 1 2 3 4 5 6 
#
# 1 120.2331 36.6401 52.2843 -13.1720 0.0480 4.9039
# 2 36.6401 75.7601 29.0005 -15.5583 18.2813 18.0451
# 3 52.2843 29.0005 131.1031 -22.2348 19.6337 1.0184
# 4 -13.1720 -15.5583 -22.2348 47.4263 -11.7766 4.9659
# 5 0.0480 18.2813 19.6337 -11.7766 39.5592 -5.9652
# 6 4.9039 18.0451 1.0184 4.9659 -5.9652 40.2889
#
#
#
# Elastic Compliance Matrix: (Units=1/GPa)
#
#
# Indices 1 2 3 4 5 6 
#
# 1 0.011847 -0.005729 -0.004151 0.000541 0.005145 0.001924
# 2 -0.005729 0.022154 -0.000244 0.004115 -0.010588 -0.011294
# 3 -0.004151 -0.000244 0.010445 0.002643 -0.004373 -0.000623
# 4 0.000541 0.004115 0.002643 0.025195 0.003600 -0.004548
# 5 0.005145 -0.010588 -0.004373 0.003600 0.034754 0.008928
# 6 0.001924 -0.011294 -0.000623 -0.004548 0.008928 0.031543
#
#
# Mechanical properties :
#
#
# Convention : Reuss Voigt Hill
#
# Bulk Modulus (GPa) = 41.32777 62.54954 51.93865
# Shear Modulus (GPa) = 30.44089 39.39965 34.92027
#
# Velocity S-wave (km/s) = 3.44840 3.92316 3.69342
# Velocity P-wave (km/s) = 5.65683 6.70493 6.20305
#
# Compressibility (1/GPa) = 0.02419681
#
# Stress axis : x y z
#
# Youngs Moduli (GPa) = 84.41038 45.13845 95.73896
#
# Poissons Ratio (x) = 0.25861 0.39740
# Poissons Ratio (y) = 0.48361 0.02340
# Poissons Ratio (z) = 0.35038 0.01103
#
# Static dielectric constant tensor:
#      x y z
#    x 2.019070 0.014690 -0.028500 
#    y 0.014690 1.703130 0.331380 
#    z -0.028500 0.331380 1.832060 
# 
# From -- ./inp_files/448381.got.cif
#   From: 2010.05.17/outbox.cif.g08.bks.cpg/sg2_225_cif.got.tgz:448381.got - 2010.06.03 11:33:40.
