data_PCOD9091558
_publ_section_title
;
Structure prediction by ZEFSAII (Michael W. Deem and Ramdas Pophale) SiO2 
 PCOD9091558
Probable space group: P -1
;
_chemical_formula_sum "Si O2"
_cell_formula_units_Z 14
_cell_length_a 8.532058
_cell_length_b 18.451006
_cell_length_c 7.156654
_cell_angle_alpha 41.988810
_cell_angle_beta 107.434129
_cell_angle_gamma 131.378904
_cell_volume 522.670360
_symmetry_space_group_name_H-M "P -1"
_symmetry_group_IT_number 2
_symmetry_cell_setting 'triclinic'
loop_
_space_group_symop_operation_xyz
x,y,z
-x,-y,-z
loop_
_atom_site_type_symbol
_atom_site_label
_atom_site_fract_x
_atom_site_fract_y
_atom_site_fract_z
Si Si1 0.047238 0.656408 0.522256
Si Si2 0.789876 0.563295 0.270987
Si Si3 0.302740 0.553928 0.916993
Si Si4 0.396767 0.238221 0.658833
Si Si5 0.207025 0.206656 0.013649
Si Si6 0.731042 0.993413 0.457603
Si Si7 0.674316 0.039904 0.758501
O O1 0.013873 0.639414 0.321245
O O2 0.192743 0.621827 0.712585
O O3 0.166180 0.817055 0.329236
O O4 0.795489 0.531017 0.760910
O O5 0.814725 0.576430 0.031846
O O6 0.611003 0.384778 0.568259
O O7 0.704904 0.638028 0.181490
O O8 0.555740 0.683735 0.673801
O O9 0.199871 0.187484 0.823489
O O10 0.390718 0.106353 0.899160
O O11 0.955640 0.088240 0.234423
O O12 0.341547 0.163399 0.224089
O O13 0.779238 0.062368 0.549237
O O14 0.543193 0.983606 0.316908
#
# Coordination Sequence:
#
# PCOD9091558 Si02
#       7
#     2   2   2   2   2   2   2
#     4  11  22  41  69  99 137 174 222 275 340 387
#     4  10  22  40  68  97 134 176 217 274 330 405
#     4   9  23  39  63  98 140 168 223 273 327 400
#     4   9  22  41  65  97 137 171 224 274 331 396
#     4  10  19  39  67  93 133 183 218 266 338 399
#     4   9  21  38  66 101 134 172 225 276 332 394
#     4  10  21  40  69 100 132 172 226 282 326 392
#
# _framework density 26.785525
#
# number of rings (size 3 to 8) (size 9 to 14) (size 15 to 20)
#    0.857    1.429    0.000    1.714    2.000    7.429 
#    0.000    3.571    9.429    0.000    0.000    0.000 
#    0.000    0.000    0.000    0.000    0.000    0.000 
#
# Total GULP energy -78357.473097 kJ/mol
# GULP energy per Si atom -5596.962364 kJ/mol
# Density = 2.672456 g / cm^3
# Si number density = 26.785525 Si / 1000 Ang^3
#
#
#
# Elastic Constant Matrix: (Units=GPa)
#
#
# Indices 1 2 3 4 5 6 
#
# 1 90.1798 67.9262 69.7178 -9.3822 -11.0004 -27.4349
# 2 67.9262 -2.8422 12.2827 -1.4748 52.2315 -18.7636
# 3 69.7178 12.2827 134.5158 -22.9429 22.8188 -9.5151
# 4 -9.3822 -1.4748 -22.9429 47.6374 -27.7585 0.5840
# 5 -11.0004 52.2315 22.8188 -27.7585 47.5231 3.2502
# 6 -27.4349 -18.7636 -9.5151 0.5840 3.2502 40.4610
#
#
#
# Elastic Compliance Matrix: (Units=1/GPa)
#
#
# Indices 1 2 3 4 5 6 
#
# 1 0.010154 0.008322 -0.004752 -0.004852 -0.008056 0.010344
# 2 0.008322 -0.002878 -0.004738 0.005214 0.010253 0.002295
# 3 -0.004752 -0.004738 0.010628 0.005491 0.002430 -0.003194
# 4 -0.004852 0.005214 0.005491 0.026279 0.005889 -0.000433
# 5 -0.008056 0.010253 0.002430 0.005889 0.010254 -0.001045
# 6 0.010344 0.002295 -0.003194 -0.000433 -0.001045 0.032132
#
#
# Mechanical properties :
#
#
# Convention : Reuss Voigt Hill
#
# Bulk Modulus (GPa) = 64.23381 57.96741 61.10061
# Shear Modulus (GPa) = 53.13842 31.91943 42.52892
#
# Velocity S-wave (km/s) = 4.45887 3.45580 3.98899
# Velocity P-wave (km/s) = 7.10926 6.13284 6.63902
#
# Compressibility (1/GPa) = 0.01556813
#
# Stress axis : x y z
#
# Youngs Moduli (GPa) = 98.48609 -347.50350 94.09260
#
# Poissons Ratio (x) = 2.89180 0.44710
# Poissons Ratio (y) = -0.81957 0.44579
# Poissons Ratio (z) = 0.46798 -1.64640
#
# Static dielectric constant tensor:
#      x y z
#    x 2.140460 0.013920 -0.046270 
#    y 0.013920 2.095010 0.024600 
#    z -0.046270 0.024600 2.100260 
# 
# From -- ./inp_files/209787.got.cif
#   From: 2010.05.17/outbox.cif.g08.bks.cpg/sg2_105_cif.got.tgz:209787.got - 2010.06.03 11:33:40.
