data_PCOD9091452
_publ_section_title
;
Structure prediction by ZEFSAII (Michael W. Deem and Ramdas Pophale) SiO2 
 PCOD9091452
Probable space group: P -1
;
_chemical_formula_sum "Si O2"
_cell_formula_units_Z 16
_cell_length_a 8.959429
_cell_length_b 12.391527
_cell_length_c 12.326982
_cell_angle_alpha 65.704379
_cell_angle_beta 86.203759
_cell_angle_gamma 138.677498
_cell_volume 643.955128
_symmetry_space_group_name_H-M "P -1"
_symmetry_group_IT_number 2
_symmetry_cell_setting 'triclinic'
loop_
_space_group_symop_operation_xyz
x,y,z
-x,-y,-z
loop_
_atom_site_type_symbol
_atom_site_label
_atom_site_fract_x
_atom_site_fract_y
_atom_site_fract_z
Si Si1 0.197360 0.610293 0.830215
Si Si2 0.427332 0.663063 0.576387
Si Si3 0.724427 0.583900 0.028029
Si Si4 0.271410 0.593458 0.309859
Si Si5 0.556201 0.148544 0.016130
Si Si6 0.580931 0.531569 0.716609
Si Si7 0.864322 0.252261 0.638718
Si Si8 0.129901 0.840841 0.719131
O O1 0.242902 0.589440 0.715591
O O2 0.358757 0.611909 0.884345
O O3 0.239631 0.779311 0.743093
O O4 0.860890 0.357761 0.977389
O O5 0.624871 0.685570 0.590960
O O6 0.183516 0.459233 0.588668
O O7 0.627599 0.904357 0.430406
O O8 0.692739 0.622955 0.129962
O O9 0.500000 0.500000 0.000000
O O10 0.024267 0.798040 0.863647
O O11 0.466562 0.608429 0.305114
O O12 0.951804 0.325782 0.476626
O O13 0.275354 0.718265 0.325710
O O14 0.377915 0.704664 0.137096
O O15 0.320729 0.973766 0.196392
O O16 0.500000 0.000000 0.000000
O O17 0.855469 0.680490 0.717942
#
# Coordination Sequence:
#
# PCOD9091452 Si02
#       8
#     2   2   2   2   2   2   2   2
#     4  11  20  39  66  90 125 170 213 258 323 379
#     4  11  22  38  60  92 130 164 206 268 324 382
#     4   9  22  39  60  91 129 164 207 264 318 389
#     4  10  20  40  65  90 125 166 212 271 312 385
#     4  10  19  39  66  90 127 164 212 274 308 368
#     4  10  21  41  60  85 131 168 206 260 333 380
#     4  10  22  40  64  95 125 164 220 267 318 376
#     4  11  21  39  63  93 124 163 219 261 315 390
#
# _framework density 24.846450999999998
#
# number of rings (size 3 to 8) (size 9 to 14) (size 15 to 20)
#    0.000    1.750    3.750    1.125    0.000    3.500 
#    2.250    3.125    0.000    0.000    0.000    0.000 
#    0.000    0.000    0.000    0.000    0.000    0.000 
#
# Total GULP energy -89156.964823 kJ/mol
# GULP energy per Si atom -5572.310301 kJ/mol
# Density = 2.478990 g / cm^3
# Si number density = 24.846451 Si / 1000 Ang^3
#
#
#
# Elastic Constant Matrix: (Units=GPa)
#
#
# Indices 1 2 3 4 5 6 
#
# 1 170.3478 38.1725 48.2780 7.5771 21.8006 -19.2685
# 2 38.1725 48.1319 31.3694 -15.5919 9.2349 -3.7786
# 3 48.2780 31.3694 172.7564 -8.9156 19.6197 -7.6453
# 4 7.5771 -15.5919 -8.9156 35.0594 -5.5179 1.3956
# 5 21.8006 9.2349 19.6197 -5.5179 43.3634 12.2252
# 6 -19.2685 -3.7786 -7.6453 1.3956 12.2252 30.7723
#
#
#
# Elastic Compliance Matrix: (Units=1/GPa)
#
#
# Indices 1 2 3 4 5 6 
#
# 1 0.009759 -0.007834 -0.000644 -0.007008 -0.006007 0.007693
# 2 -0.007834 0.034048 -0.003396 0.016247 0.001060 -0.002726
# 3 -0.000644 -0.003396 0.006972 -0.000099 -0.002678 0.001981
# 4 -0.007008 0.016247 -0.000099 0.038613 0.006978 -0.006941
# 5 -0.006007 0.001060 -0.002678 0.006978 0.032946 -0.017702
# 6 0.007693 -0.002726 0.001981 -0.006941 -0.017702 0.044819
#
#
# Mechanical properties :
#
#
# Convention : Reuss Voigt Hill
#
# Bulk Modulus (GPa) = 36.99318 69.65287 53.32303
# Shear Modulus (GPa) = 25.01079 40.06675 32.53877
#
# Velocity S-wave (km/s) = 3.17616 4.02004 3.62276
# Velocity P-wave (km/s) = 5.32651 7.04570 6.24554
#
# Compressibility (1/GPa) = 0.02703201
#
# Stress axis : x y z
#
# Youngs Moduli (GPa) = 102.46958 29.37033 143.43588
#
# Poissons Ratio (x) = 0.23008 0.09233
# Poissons Ratio (y) = 0.80273 0.48708
# Poissons Ratio (z) = 0.06596 0.09973
#
# Static dielectric constant tensor:
#      x y z
#    x 1.963130 0.008650 -0.003160 
#    y 0.008650 2.121240 0.113750 
#    z -0.003160 0.113750 2.079520 
# 
# From -- ./inp_files/505366.got.cif
#   From: 2010.05.17/outbox.cif.g08.bks.cpg/sg2_253_cif.got.tgz:505366.got - 2010.06.03 11:33:40.
