data_PCOD9091691
_publ_section_title
;
Structure prediction by ZEFSAII (Michael W. Deem and Ramdas Pophale) SiO2 
 PCOD9091691
Probable space group: P -1
;
_chemical_formula_sum "Si O2"
_cell_formula_units_Z 16
_cell_length_a 12.070244
_cell_length_b 9.314283
_cell_length_c 14.761777
_cell_angle_alpha 100.838894
_cell_angle_beta 48.576675
_cell_angle_gamma 62.034820
_cell_volume 724.003146
_symmetry_space_group_name_H-M "P -1"
_symmetry_group_IT_number 2
_symmetry_cell_setting 'triclinic'
loop_
_space_group_symop_operation_xyz
x,y,z
-x,-y,-z
loop_
_atom_site_type_symbol
_atom_site_label
_atom_site_fract_x
_atom_site_fract_y
_atom_site_fract_z
Si Si1 0.085299 0.491916 0.129599
Si Si2 0.961929 0.187764 0.996577
Si Si3 0.638892 0.877277 0.211744
Si Si4 0.798963 0.434994 0.296475
Si Si5 0.536811 0.187603 0.976782
Si Si6 0.275528 0.236365 0.285321
Si Si7 0.971240 0.030025 0.785253
Si Si8 0.353204 0.942650 0.533443
O O1 0.010917 0.388595 0.191916
O O2 0.185898 0.382916 0.962371
O O3 0.298471 0.391764 0.064280
O O4 0.835511 0.782199 0.299574
O O5 0.786913 0.402754 0.192278
O O6 0.897992 0.194082 0.929071
O O7 0.201077 0.103723 0.857797
O O8 0.000000 0.000000 0.000000
O O9 0.434299 0.080217 0.270810
O O10 0.507393 0.900543 0.367725
O O11 0.534253 0.726093 0.485402
O O12 0.878361 0.230051 0.285729
O O13 0.724268 0.171235 0.886890
O O14 0.700049 0.927422 0.810940
O O15 0.418984 0.238924 0.144248
O O16 0.000000 0.500000 0.500000
O O17 0.164619 0.963493 0.610248
#
# Coordination Sequence:
#
# PCOD9091691 Si02
#       8
#     2   2   2   2   2   2   2   2
#     4  10  23  43  70  92 126 170 219 269 327 376
#     4   9  20  40  64  93 128 169 208 264 333 373
#     4  10  23  40  65  96 130 168 220 269 318 391
#     4  10  22  42  66  96 126 165 224 273 318 384
#     4  10  21  43  66  93 132 168 217 269 317 389
#     4  10  19  39  69  98 122 166 224 273 318 375
#     4  11  24  42  64  96 134 176 210 267 329 384
#     4  12  26  40  65  98 132 175 211 267 329 388
#
# _framework density 22.099352
#
# number of rings (size 3 to 8) (size 9 to 14) (size 15 to 20)
#    0.000    1.750    0.000    5.250    5.250    1.500 
#    6.750    2.500    0.000    0.000    0.000    0.000 
#    0.000    0.000    0.000    0.000    0.000    0.000 
#
# Total GULP energy -89374.827385 kJ/mol
# GULP energy per Si atom -5585.926712 kJ/mol
# Density = 2.204905 g / cm^3
# Si number density = 22.099352 Si / 1000 Ang^3
#
#
#
# Elastic Constant Matrix: (Units=GPa)
#
#
# Indices 1 2 3 4 5 6 
#
# 1 146.9520 53.6647 51.0528 -4.7125 -29.4728 14.9034
# 2 53.6647 109.4256 55.4247 -15.0184 -4.4180 8.3823
# 3 51.0528 55.4247 166.8920 6.2253 2.3578 7.1638
# 4 -4.7125 -15.0184 6.2253 40.1134 9.1717 -12.9107
# 5 -29.4728 -4.4180 2.3578 9.1717 28.1519 -5.4990
# 6 14.9034 8.3823 7.1638 -12.9107 -5.4990 34.4665
#
#
#
# Elastic Compliance Matrix: (Units=1/GPa)
#
#
# Indices 1 2 3 4 5 6 
#
# 1 0.011887 -0.004602 -0.002010 -0.003866 0.012555 -0.003048
# 2 -0.004602 0.013739 -0.003382 0.006454 -0.004268 0.001088
# 3 -0.002010 -0.003382 0.007921 -0.002538 -0.002734 -0.001342
# 4 -0.003866 0.006454 -0.002538 0.033583 -0.011543 0.011368
# 5 0.012555 -0.004268 -0.002734 -0.011543 0.052015 0.000153
# 6 -0.003048 0.001088 -0.001342 0.011368 0.000153 0.034628
#
#
# Mechanical properties :
#
#
# Convention : Reuss Voigt Hill
#
# Bulk Modulus (GPa) = 73.75513 82.61711 78.18612
# Shear Modulus (GPa) = 28.04553 38.08817 33.06685
#
# Velocity S-wave (km/s) = 3.56626 4.15601 3.87238
# Velocity P-wave (km/s) = 7.09961 7.77788 7.44647
#
# Compressibility (1/GPa) = 0.01355838
#
# Stress axis : x y z
#
# Youngs Moduli (GPa) = 84.12513 72.78814 126.24707
#
# Poissons Ratio (x) = 0.33494 0.25381
# Poissons Ratio (y) = 0.38711 0.42697
# Poissons Ratio (z) = 0.16913 0.24617
#
# Static dielectric constant tensor:
#      x y z
#    x 1.835890 0.007550 0.041990 
#    y 0.007550 1.841580 0.012630 
#    z 0.041990 0.012630 1.872750 
# 
# From -- ./inp_files/390696.got.cif
#   From: 2010.05.17/outbox.cif.g08.bks.cpg/sg2_196_cif.got.tgz:390696.got - 2010.06.03 11:33:40.
