data_PCOD9091106
_publ_section_title
;
Structure prediction by ZEFSAII (Michael W. Deem and Ramdas Pophale) SiO2 
 PCOD9091106
Probable space group: P -1
;
_chemical_formula_sum "Si O2"
_cell_formula_units_Z 16
_cell_length_a 18.842569
_cell_length_b 5.479663
_cell_length_c 23.087617
_cell_angle_alpha 136.036335
_cell_angle_beta 157.685459
_cell_angle_gamma 51.314405
_cell_volume 620.747075
_symmetry_space_group_name_H-M "P -1"
_symmetry_group_IT_number 2
_symmetry_cell_setting 'triclinic'
loop_
_space_group_symop_operation_xyz
x,y,z
-x,-y,-z
loop_
_atom_site_type_symbol
_atom_site_label
_atom_site_fract_x
_atom_site_fract_y
_atom_site_fract_z
Si Si1 0.080001 0.160569 0.973780
Si Si2 0.841436 0.192481 0.444044
Si Si3 0.475030 0.599203 0.348922
Si Si4 0.274242 0.264813 0.321445
Si Si5 0.822850 0.048211 0.650601
Si Si6 0.668375 0.874821 0.069531
Si Si7 0.553534 0.240690 0.944842
Si Si8 0.074053 0.069608 0.418176
O O1 0.990749 0.066050 0.826562
O O2 0.309508 0.255414 0.163793
O O3 0.953081 0.846855 0.860556
O O4 0.000000 0.500000 0.000000
O O5 0.818419 0.530184 0.443664
O O6 0.645316 0.936323 0.258854
O O7 0.000000 0.000000 0.500000
O O8 0.904134 0.202536 0.560358
O O9 0.597166 0.631876 0.506374
O O10 0.352827 0.917450 0.299846
O O11 0.656175 0.705796 0.462104
O O12 0.284418 0.625068 0.354678
O O13 0.899108 0.108478 0.653724
O O14 0.673466 0.478700 0.028196
O O15 0.642897 0.936099 0.993056
O O16 0.500000 0.000000 0.000000
O O17 0.858615 0.129449 0.272385
O O18 0.500000 0.500000 0.000000
#
# Coordination Sequence:
#
# PCOD9091106 Si02
#       8
#     2   2   2   2   2   2   2   2
#     4   9  20  39  65  96 127 174 228 272 328 405
#     4  12  24  45  72  97 129 176 230 279 340 426
#     4   9  19  38  64  93 128 174 228 269 327 407
#     4   9  19  37  65  93 129 176 221 278 326 396
#     4  11  24  40  61  95 143 171 220 287 342 402
#     4  10  19  39  63  91 126 165 217 271 328 402
#     4  10  20  38  66  95 120 156 215 276 322 392
#     4  12  27  43  68 101 137 179 221 287 358 399
#
# _framework density 25.775395
#
# number of rings (size 3 to 8) (size 9 to 14) (size 15 to 20)
#    0.000    1.750    0.000    6.000    3.500    3.000 
#    4.500    0.000    0.000    0.000    0.000    0.000 
#    0.000    0.000    0.000    0.000    0.000    0.000 
#
# Total GULP energy -89226.588480 kJ/mol
# GULP energy per Si atom -5576.661780 kJ/mol
# Density = 2.571673 g / cm^3
# Si number density = 25.775395 Si / 1000 Ang^3
#
#
#
# Elastic Constant Matrix: (Units=GPa)
#
#
# Indices 1 2 3 4 5 6 
#
# 1 90.9457 16.0978 28.6649 1.7591 15.3577 16.4793
# 2 16.0978 81.9376 5.2461 5.5062 14.8100 9.7593
# 3 28.6649 5.2461 176.0108 13.8125 22.4326 8.3665
# 4 1.7591 5.5062 13.8125 37.2372 7.2988 1.2206
# 5 15.3577 14.8100 22.4326 7.2988 29.0008 12.9579
# 6 16.4793 9.7593 8.3665 1.2206 12.9579 35.2967
#
#
#
# Elastic Compliance Matrix: (Units=1/GPa)
#
#
# Indices 1 2 3 4 5 6 
#
# 1 0.013029 -0.001423 -0.001527 0.000962 -0.003396 -0.004114
# 2 -0.001423 0.013732 0.000729 -0.001002 -0.006112 -0.001027
# 3 -0.001527 0.000729 0.006583 -0.001607 -0.004554 0.000678
# 4 0.000962 -0.001002 -0.001607 0.028824 -0.006767 0.001696
# 5 -0.003396 -0.006112 -0.004554 -0.006767 0.050931 -0.014109
# 6 -0.004114 -0.001027 0.000678 0.001696 -0.014109 0.035496
#
#
# Mechanical properties :
#
#
# Convention : Reuss Voigt Hill
#
# Bulk Modulus (GPa) = 34.59947 49.87909 42.23928
# Shear Modulus (GPa) = 30.73712 40.23263 35.48488
#
# Velocity S-wave (km/s) = 3.45700 3.95510 3.71441
# Velocity P-wave (km/s) = 5.42099 6.34433 5.90075
#
# Compressibility (1/GPa) = 0.02890217
#
# Stress axis : x y z
#
# Youngs Moduli (GPa) = 76.75238 72.82485 151.91424
#
# Poissons Ratio (x) = 0.10361 0.23190
# Poissons Ratio (y) = 0.10920 -0.11072
# Poissons Ratio (z) = 0.11717 -0.05308
#
# Static dielectric constant tensor:
#      x y z
#    x 2.114250 -0.009760 -0.026250 
#    y -0.009760 2.022240 0.032090 
#    z -0.026250 0.032090 1.992570 
# 
# From -- ./inp_files/620590.got.cif
#   From: 2010.05.17/outbox.cif.g08.bks.cpg/sg2_311_cif.got.tgz:620590.got - 2010.06.03 11:33:40.
