data_PCOD9091788
_publ_section_title
;
Structure prediction by ZEFSAII (Michael W. Deem and Ramdas Pophale) SiO2 
 PCOD9091788
Probable space group: P -1
;
_chemical_formula_sum "Si O2"
_cell_formula_units_Z 16
_cell_length_a 7.393402
_cell_length_b 9.681147
_cell_length_c 17.060909
_cell_angle_alpha 43.363842
_cell_angle_beta 130.435620
_cell_angle_gamma 113.507946
_cell_volume 632.003005
_symmetry_space_group_name_H-M "P -1"
_symmetry_group_IT_number 2
_symmetry_cell_setting 'triclinic'
loop_
_space_group_symop_operation_xyz
x,y,z
-x,-y,-z
loop_
_atom_site_type_symbol
_atom_site_label
_atom_site_fract_x
_atom_site_fract_y
_atom_site_fract_z
Si Si1 0.506472 0.390483 0.271892
Si Si2 0.585546 0.164508 0.016677
Si Si3 0.431813 0.206760 0.635298
Si Si4 0.985929 0.744945 0.805981
Si Si5 0.230662 0.386386 0.652477
Si Si6 0.756286 0.189676 0.296134
Si Si7 0.893171 0.400037 0.692280
Si Si8 0.754272 0.590796 0.068323
O O1 0.434639 0.617936 0.123775
O O2 0.583743 0.449561 0.355433
O O3 0.746711 0.267889 0.349985
O O4 0.290912 0.262478 0.254424
O O5 0.410022 0.212169 0.024288
O O6 0.857307 0.141771 0.136819
O O7 0.500000 0.000000 0.000000
O O8 0.347268 0.213511 0.699397
O O9 0.707044 0.239637 0.700440
O O10 0.266859 0.391916 0.468106
O O11 0.378173 0.001059 0.667455
O O12 0.021411 0.837508 0.690017
O O13 0.110822 0.505866 0.931750
O O14 0.000000 0.500000 0.500000
O O15 0.116475 0.334950 0.723813
O O16 0.616291 0.396276 0.133160
O O17 0.014373 0.419173 0.802834
#
# Coordination Sequence:
#
# PCOD9091788 Si02
#       8
#     2   2   2   2   2   2   2   2
#     4  11  22  41  64  87 123 162 197 244 308 346
#     4  11  23  39  64  90 118 156 201 252 304 350
#     4  10  22  34  64  90 115 162 203 233 299 354
#     4  10  22  41  62  87 120 162 198 249 295 358
#     4  10  20  37  61  87 120 159 193 245 297 350
#     4   9  22  38  59  89 121 153 200 247 290 353
#     4  10  19  40  60  86 125 154 197 248 291 355
#     4   9  20  40  61  78 126 156 188 251 301 341
#
# _framework density 25.316333
#
# number of rings (size 3 to 8) (size 9 to 14) (size 15 to 20)
#    0.750    1.250    2.500    1.500    1.750    2.500 
#    0.000    0.625    0.000    4.500    0.000    0.000 
#    0.000    0.000    0.000    0.000    0.000    0.000 
#
# Total GULP energy -89168.458258 kJ/mol
# GULP energy per Si atom -5573.028641 kJ/mol
# Density = 2.525871 g / cm^3
# Si number density = 25.316333 Si / 1000 Ang^3
#
#
#
# Elastic Constant Matrix: (Units=GPa)
#
#
# Indices 1 2 3 4 5 6 
#
# 1 85.6910 45.8540 17.5895 3.7674 23.2571 13.0652
# 2 45.8540 181.9625 31.8567 2.2627 5.8095 -2.9690
# 3 17.5895 31.8567 56.7060 7.5143 11.2968 10.4963
# 4 3.7674 2.2627 7.5143 27.4348 8.0533 -0.1170
# 5 23.2571 5.8095 11.2968 8.0533 21.0962 7.5648
# 6 13.0652 -2.9690 10.4963 -0.1170 7.5648 47.0067
#
#
#
# Elastic Compliance Matrix: (Units=1/GPa)
#
#
# Indices 1 2 3 4 5 6 
#
# 1 0.020126 -0.004574 0.000630 0.003840 -0.021835 -0.002500
# 2 -0.004574 0.007210 -0.003849 -0.000238 0.004544 0.001854
# 3 0.000630 -0.003849 0.022582 -0.003324 -0.009018 -0.004018
# 4 0.003840 -0.000238 -0.003324 0.042656 -0.019725 0.002941
# 5 -0.021835 0.004544 -0.009018 -0.019725 0.084473 -0.005274
# 6 -0.002500 0.001854 -0.004018 0.002941 -0.005274 0.023839
#
#
# Mechanical properties :
#
#
# Convention : Reuss Voigt Hill
#
# Bulk Modulus (GPa) = 29.12492 57.21777 43.17134
# Shear Modulus (GPa) = 21.93800 34.37814 28.15807
#
# Velocity S-wave (km/s) = 2.94692 3.68903 3.33866
# Velocity P-wave (km/s) = 4.80713 6.38713 5.65261
#
# Compressibility (1/GPa) = 0.03433486
#
# Stress axis : x y z
#
# Youngs Moduli (GPa) = 49.68587 138.69407 44.28279
#
# Poissons Ratio (x) = 0.63433 -0.02791
# Poissons Ratio (y) = 0.22724 0.17043
# Poissons Ratio (z) = -0.03132 0.53379
#
# Static dielectric constant tensor:
#      x y z
#    x 2.063950 -0.039010 -0.116260 
#    y -0.039010 1.996510 0.074030 
#    z -0.116260 0.074030 2.155920 
# 
# From -- ./inp_files/587255.got.cif
#   From: 2010.05.17/outbox.cif.g08.bks.cpg/sg2_294_cif.got.tgz:587255.got - 2010.06.03 11:33:40.
