data_PCOD9091468
_publ_section_title
;
Structure prediction by ZEFSAII (Michael W. Deem and Ramdas Pophale) SiO2 
 PCOD9091468
Probable space group: P -1
;
_chemical_formula_sum "Si O2"
_cell_formula_units_Z 16
_cell_length_a 15.375441
_cell_length_b 8.866747
_cell_length_c 15.351609
_cell_angle_alpha 101.772348
_cell_angle_beta 37.660522
_cell_angle_gamma 72.898687
_cell_volume 811.138846
_symmetry_space_group_name_H-M "P -1"
_symmetry_group_IT_number 2
_symmetry_cell_setting 'triclinic'
loop_
_space_group_symop_operation_xyz
x,y,z
-x,-y,-z
loop_
_atom_site_type_symbol
_atom_site_label
_atom_site_fract_x
_atom_site_fract_y
_atom_site_fract_z
Si Si1 0.255411 0.796182 0.460249
Si Si2 0.989025 0.497884 0.792373
Si Si3 0.416866 0.336325 0.960601
Si Si4 0.062473 0.812377 0.362871
Si Si5 0.128168 0.551671 0.518204
Si Si6 0.325495 0.984158 0.561536
Si Si7 0.760383 0.835931 0.708148
Si Si8 0.201674 0.244006 0.854720
O O1 0.419759 0.728992 0.248874
O O2 0.236808 0.628942 0.447905
O O3 0.311910 0.827595 0.510745
O O4 0.020307 0.059183 0.648847
O O5 0.109634 0.492796 0.620817
O O6 0.785518 0.575177 0.919395
O O7 0.881576 0.699163 0.973772
O O8 0.160987 0.236384 0.669483
O O9 0.540349 0.110980 0.896671
O O10 0.310568 0.556686 0.129339
O O11 0.929076 0.774453 0.497652
O O12 0.000000 0.000000 0.500000
O O13 0.253572 0.329739 0.328585
O O14 0.884716 0.759885 0.691621
O O15 0.573423 0.842464 0.336526
O O16 0.256136 0.055515 0.726215
O O17 0.000000 0.500000 0.000000
#
# Coordination Sequence:
#
# PCOD9091468 Si02
#       8
#     2   2   2   2   2   2   2   2
#     4  11  22  38  62  91 125 160 207 259 310 353
#     4  11  20  38  63  92 121 160 209 248 308 371
#     4  11  22  39  66  87 117 171 221 249 290 370
#     4  11  21  42  59  86 123 163 210 261 293 349
#     4  11  23  42  55  89 136 166 201 266 308 351
#     4  10  19  39  66  92 123 152 200 261 306 366
#     4  10  23  41  58  82 130 173 214 249 305 354
#     4   9  20  36  67  96 114 152 205 249 309 378
#
# _framework density 19.725352999999998
#
# number of rings (size 3 to 8) (size 9 to 14) (size 15 to 20)
#    0.000    1.500    5.000    0.750    0.000    2.500 
#    2.250    0.625    0.000    6.750    0.000    0.000 
#    0.000    0.000    0.000    0.000    0.000    0.000 
#
# Total GULP energy -89295.780652 kJ/mol
# GULP energy per Si atom -5580.986291 kJ/mol
# Density = 1.968046 g / cm^3
# Si number density = 19.725353 Si / 1000 Ang^3
#
#
#
# Elastic Constant Matrix: (Units=GPa)
#
#
# Indices 1 2 3 4 5 6 
#
# 1 130.0398 38.0578 38.7995 10.4174 12.4400 20.9684
# 2 38.0578 72.4969 25.8586 6.8547 -1.5182 18.2082
# 3 38.7995 25.8586 89.8182 24.9008 1.9412 3.1899
# 4 10.4174 6.8547 24.9008 31.1881 -4.7551 1.6725
# 5 12.4400 -1.5182 1.9412 -4.7551 38.6374 5.2006
# 6 20.9684 18.2082 3.1899 1.6725 5.2006 33.8395
#
#
#
# Elastic Compliance Matrix: (Units=1/GPa)
#
#
# Indices 1 2 3 4 5 6 
#
# 1 0.010624 -0.003434 -0.003286 -0.000401 -0.002907 -0.003959
# 2 -0.003434 0.019121 -0.004129 0.001197 0.003335 -0.008343
# 3 -0.003286 -0.004129 0.016998 -0.012049 -0.001918 0.003546
# 4 -0.000401 0.001197 -0.012049 0.042647 0.006345 -0.002343
# 5 -0.002907 0.003335 -0.001918 0.006345 0.028431 -0.004495
# 6 -0.003959 -0.008343 0.003546 -0.002343 -0.004495 0.036966
#
#
# Mechanical properties :
#
#
# Convention : Reuss Voigt Hill
#
# Bulk Modulus (GPa) = 39.92848 55.30962 47.61905
# Shear Modulus (GPa) = 27.05133 33.37560 30.21347
#
# Velocity S-wave (km/s) = 3.70726 4.11787 3.91795
# Velocity P-wave (km/s) = 6.21379 7.12109 6.68285
#
# Compressibility (1/GPa) = 0.02504478
#
# Stress axis : x y z
#
# Youngs Moduli (GPa) = 94.12721 52.29788 58.83119
#
# Poissons Ratio (x) = 0.17957 0.19333
# Poissons Ratio (y) = 0.32319 0.24294
# Poissons Ratio (z) = 0.30932 0.21596
#
# Static dielectric constant tensor:
#      x y z
#    x 1.757910 0.001030 0.021400 
#    y 0.001030 1.685930 0.024490 
#    z 0.021400 0.024490 1.729820 
# 
# From -- ./inp_files/529878.got.cif
#   From: 2010.05.17/outbox.cif.g08.bks.cpg/sg2_265_cif.got.tgz:529878.got - 2010.06.03 11:33:40.
