data_PCOD9091729
_publ_section_title
;
Structure prediction by ZEFSAII (Michael W. Deem and Ramdas Pophale) SiO2 
 PCOD9091729
Probable space group: P -1
;
_chemical_formula_sum "Si O2"
_cell_formula_units_Z 16
_cell_length_a 9.622208
_cell_length_b 10.709348
_cell_length_c 17.552723
_cell_angle_alpha 31.272463
_cell_angle_beta 50.846312
_cell_angle_gamma 64.900461
_cell_volume 697.509909
_symmetry_space_group_name_H-M "P -1"
_symmetry_group_IT_number 2
_symmetry_cell_setting 'triclinic'
loop_
_space_group_symop_operation_xyz
x,y,z
-x,-y,-z
loop_
_atom_site_type_symbol
_atom_site_label
_atom_site_fract_x
_atom_site_fract_y
_atom_site_fract_z
Si Si1 0.180896 0.153488 0.902952
Si Si2 0.439850 0.057037 0.746224
Si Si3 0.486897 0.062469 0.382092
Si Si4 0.207211 0.923371 0.279976
Si Si5 0.086087 0.550579 0.136097
Si Si6 0.823010 0.566017 0.991130
Si Si7 0.305144 0.794239 0.162314
Si Si8 0.167400 0.293242 0.388697
O O1 0.105003 0.372231 0.850944
O O2 0.349932 0.227974 0.743935
O O3 0.206042 0.950369 0.060742
O O4 0.000000 0.000000 0.000000
O O5 0.477431 0.098645 0.620175
O O6 0.627935 0.045424 0.731158
O O7 0.272553 0.792451 0.947265
O O8 0.286847 0.112603 0.414683
O O9 0.500000 0.000000 0.500000
O O10 0.646986 0.325096 0.182130
O O11 0.222763 0.734112 0.306467
O O12 0.001254 0.834860 0.431114
O O13 0.224794 0.187100 0.093863
O O14 0.124105 0.384786 0.141195
O O15 0.077311 0.402997 0.293363
O O16 0.000000 0.500000 0.000000
O O17 0.303681 0.537477 0.255670
O O18 0.500000 0.000000 0.000000
#
# Coordination Sequence:
#
# PCOD9091729 Si02
#       8
#     2   2   2   2   2   2   2   2
#     4  10  19  39  71  96 130 170 224 278 327 398
#     4  10  21  43  67  94 128 177 220 274 338 400
#     4  11  25  44  68  97 133 173 224 287 337 397
#     4  12  25  41  65  99 137 175 224 276 335 406
#     4  10  21  41  69  97 129 175 227 274 335 400
#     4  11  23  41  67  97 129 176 227 273 340 401
#     4  12  22  43  70  97 134 176 228 272 334 400
#     4  12  25  42  64  99 134 177 221 277 339 396
#
# _framework density 22.938741
#
# number of rings (size 3 to 8) (size 9 to 14) (size 15 to 20)
#    0.000    1.000    3.750    4.125    0.000    7.000 
#    2.250    0.625    0.000    0.000    0.000    0.000 
#    0.000    0.000    0.000    0.000    0.000    0.000 
#
# Total GULP energy -89331.744015 kJ/mol
# GULP energy per Si atom -5583.234001 kJ/mol
# Density = 2.288653 g / cm^3
# Si number density = 22.938741 Si / 1000 Ang^3
#
#
#
# Elastic Constant Matrix: (Units=GPa)
#
#
# Indices 1 2 3 4 5 6 
#
# 1 95.0021 11.9119 13.4754 8.3469 -0.5074 -7.9836
# 2 11.9119 104.8574 21.9609 24.8092 0.9528 2.6478
# 3 13.4754 21.9609 69.7255 24.8012 -2.5576 4.3534
# 4 8.3469 24.8092 24.8012 32.8095 -2.5518 -0.1730
# 5 -0.5074 0.9528 -2.5576 -2.5518 34.4591 13.7111
# 6 -7.9836 2.6478 4.3534 -0.1730 13.7111 39.7498
#
#
#
# Elastic Compliance Matrix: (Units=1/GPa)
#
#
# Indices 1 2 3 4 5 6 
#
# 1 0.011198 -0.000715 -0.001798 -0.001025 -0.001177 0.002895
# 2 -0.000715 0.011729 -0.000590 -0.008302 -0.000738 -0.000642
# 3 -0.001798 -0.000590 0.020207 -0.014256 0.001701 -0.003184
# 4 -0.001025 -0.008302 -0.014256 0.047969 0.002163 0.001371
# 5 -0.001177 -0.000738 0.001701 0.002163 0.034140 -0.012140
# 6 0.002895 -0.000642 -0.003184 0.001371 -0.012140 0.030324
#
#
# Mechanical properties :
#
#
# Convention : Reuss Voigt Hill
#
# Bulk Modulus (GPa) = 27.08079 40.47570 33.77824
# Shear Modulus (GPa) = 28.72210 36.21949 32.47079
#
# Velocity S-wave (km/s) = 3.54237 3.97793 3.76645
# Velocity P-wave (km/s) = 5.34439 6.22752 5.80278
#
# Compressibility (1/GPa) = 0.03692655
#
# Stress axis : x y z
#
# Youngs Moduli (GPa) = 89.30251 85.26131 49.48720
#
# Poissons Ratio (x) = 0.06100 0.08899
# Poissons Ratio (y) = 0.06389 0.02920
# Poissons Ratio (z) = 0.16059 0.05030
#
# Static dielectric constant tensor:
#      x y z
#    x 1.898840 -0.034330 -0.010510 
#    y -0.034330 1.947290 0.023620 
#    z -0.010510 0.023620 1.826470 
# 
# From -- ./inp_files/559518.got.cif
#   From: 2010.05.17/outbox.cif.g08.bks.cpg/sg2_280_cif.got.tgz:559518.got - 2010.06.03 11:33:40.
