data_PCOD9091294
_publ_section_title
;
Structure prediction by ZEFSAII (Michael W. Deem and Ramdas Pophale) SiO2 
 PCOD9091294
Probable space group: P -1
;
_chemical_formula_sum "Si O2"
_cell_formula_units_Z 16
_cell_length_a 11.644205
_cell_length_b 9.031604
_cell_length_c 14.406881
_cell_angle_alpha 122.915710
_cell_angle_beta 31.628605
_cell_angle_gamma 108.506160
_cell_volume 629.625571
_symmetry_space_group_name_H-M "P -1"
_symmetry_group_IT_number 2
_symmetry_cell_setting 'triclinic'
loop_
_space_group_symop_operation_xyz
x,y,z
-x,-y,-z
loop_
_atom_site_type_symbol
_atom_site_label
_atom_site_fract_x
_atom_site_fract_y
_atom_site_fract_z
Si Si1 0.017111 0.403776 0.556082
Si Si2 0.407634 0.341022 0.544133
Si Si3 0.167765 0.926122 0.478017
Si Si4 0.594332 0.892830 0.033661
Si Si5 0.082247 0.633592 0.187850
Si Si6 0.499617 0.710713 0.858162
Si Si7 0.783835 0.947084 0.096768
Si Si8 0.515242 0.813703 0.367966
O O1 0.881804 0.457728 0.765274
O O2 0.282895 0.380687 0.388982
O O3 0.000000 0.500000 0.500000
O O4 0.975862 0.208843 0.494658
O O5 0.500000 0.500000 0.500000
O O6 0.137529 0.389301 0.721586
O O7 0.562279 0.140414 0.323872
O O8 0.449334 0.327186 0.620818
O O9 0.371163 0.911965 0.258604
O O10 0.296485 0.857343 0.464525
O O11 0.003768 0.139284 0.664138
O O12 0.595521 0.079230 0.043481
O O13 0.803135 0.866921 0.952996
O O14 0.589105 0.740562 0.909867
O O15 0.321697 0.599225 0.956624
O O16 0.733283 0.793389 0.144483
O O17 0.000000 0.000000 0.000000
O O18 0.500000 0.000000 0.500000
#
# Coordination Sequence:
#
# PCOD9091294 Si02
#       8
#     2   2   2   2   2   2   2   2
#     4  12  27  43  62  97 138 172 208 273 339 380
#     4  11  24  42  65  96 134 171 214 270 342 390
#     4  11  19  41  68  90 131 171 216 270 316 387
#     4  10  19  39  65 100 121 163 226 270 310 377
#     4  12  23  44  69  93 131 170 222 272 316 400
#     4  11  23  37  69  97 121 170 221 263 324 388
#     4  10  21  39  66  94 130 166 219 275 315 385
#     4   9  19  38  62  94 119 170 217 255 318 388
#
# _framework density 25.411928
#
# number of rings (size 3 to 8) (size 9 to 14) (size 15 to 20)
#    0.000    1.250    6.250    1.875    3.500    2.500 
#    0.000    1.875    0.000    0.000    0.000    0.000 
#    0.000    0.000    0.000    0.000    0.000    0.000 
#
# Total GULP energy -89510.454891 kJ/mol
# GULP energy per Si atom -5594.403431 kJ/mol
# Density = 2.535409 g / cm^3
# Si number density = 25.411928 Si / 1000 Ang^3
#
#
#
# Elastic Constant Matrix: (Units=GPa)
#
#
# Indices 1 2 3 4 5 6 
#
# 1 153.8466 67.3391 29.9008 -19.8823 -11.1274 -17.2138
# 2 67.3391 162.8055 38.2088 -43.0531 -4.6502 -12.4175
# 3 29.9008 38.2088 84.4222 -31.6764 -8.0470 5.4241
# 4 -19.8823 -43.0531 -31.6764 44.5674 7.2983 0.4419
# 5 -11.1274 -4.6502 -8.0470 7.2983 39.8079 -11.5019
# 6 -17.2138 -12.4175 5.4241 0.4419 -11.5019 49.5769
#
#
#
# Elastic Compliance Matrix: (Units=1/GPa)
#
#
# Indices 1 2 3 4 5 6 
#
# 1 0.008639 -0.003054 -0.001986 -0.000985 0.002731 0.003094
# 2 -0.003054 0.009627 -0.000553 0.007685 -0.000924 0.001129
# 3 -0.001986 -0.000553 0.016986 0.010671 0.000058 -0.002768
# 4 -0.000985 0.007685 0.010671 0.037738 -0.004413 -0.000945
# 5 0.002731 -0.000924 0.000058 -0.004413 0.028740 0.007418
# 6 0.003094 0.001129 -0.002768 -0.000945 0.007418 0.023560
#
#
# Mechanical properties :
#
#
# Convention : Reuss Voigt Hill
#
# Bulk Modulus (GPa) = 41.54976 74.66351 58.10664
# Shear Modulus (GPa) = 34.60260 44.49880 39.55070
#
# Velocity S-wave (km/s) = 3.69408 4.18915 3.94938
# Velocity P-wave (km/s) = 5.88056 7.26937 6.61153
#
# Compressibility (1/GPa) = 0.02406753
#
# Stress axis : x y z
#
# Youngs Moduli (GPa) = 115.75380 103.87478 58.87203
#
# Poissons Ratio (x) = 0.31720 0.11691
# Poissons Ratio (y) = 0.35348 0.03253
# Poissons Ratio (z) = 0.22988 0.05740
#
# Static dielectric constant tensor:
#      x y z
#    x 2.015480 -0.018440 0.024690 
#    y -0.018440 2.017380 0.101160 
#    z 0.024690 0.101160 2.129780 
# 
# From -- ./inp_files/515731.got.cif
#   From: 2010.05.17/outbox.cif.g08.bks.cpg/sg2_258_cif.got.tgz:515731.got - 2010.06.03 11:33:40.
