data_PCOD9091929
_publ_section_title
;
Structure prediction by ZEFSAII (Michael W. Deem and Ramdas Pophale) SiO2 
 PCOD9091929
Probable space group: P -1
;
_chemical_formula_sum "Si O2"
_cell_formula_units_Z 14
_cell_length_a 18.797862
_cell_length_b 12.316006
_cell_length_c 7.031183
_cell_angle_alpha 46.445716
_cell_angle_beta 112.006798
_cell_angle_gamma 143.216162
_cell_volume 644.883043
_symmetry_space_group_name_H-M "P -1"
_symmetry_group_IT_number 2
_symmetry_cell_setting 'triclinic'
loop_
_space_group_symop_operation_xyz
x,y,z
-x,-y,-z
loop_
_atom_site_type_symbol
_atom_site_label
_atom_site_fract_x
_atom_site_fract_y
_atom_site_fract_z
Si Si1 0.675076 0.660909 0.688193
Si Si2 0.337484 0.177495 0.162125
Si Si3 0.561857 0.968722 0.469542
Si Si4 0.626067 0.481054 0.476959
Si Si5 0.027025 0.777804 0.737372
Si Si6 0.042426 0.619149 0.605026
Si Si7 0.771648 0.521700 0.870326
O O1 0.581185 0.482362 0.631724
O O2 0.719950 0.565707 0.915109
O O3 0.616276 0.676182 0.767998
O O4 0.818481 0.948130 0.421232
O O5 0.193171 0.893669 0.404851
O O6 0.410536 0.136219 0.250871
O O7 0.329030 0.303214 0.857863
O O8 0.471524 0.768311 0.448258
O O9 0.500000 0.000000 0.500000
O O10 0.691385 0.245460 0.171112
O O11 0.730640 0.530128 0.615489
O O12 0.924729 0.735971 0.765334
O O13 0.991659 0.683337 0.595603
O O14 0.994474 0.578985 0.063244
O O15 0.000000 0.500000 0.500000
#
# Coordination Sequence:
#
# PCOD9091929 Si02
#       7
#     2   2   2   2   2   2   2
#     4   9  22  40  68  91 130 164 208 253 325 372
#     4  11  22  45  64  92 128 167 210 263 314 377
#     4  12  25  44  66  92 127 169 215 268 313 367
#     4  10  24  42  64  94 125 167 217 248 318 377
#     4  10  19  40  63  94 130 165 200 264 311 376
#     4  10  21  36  64  96 129 164 208 249 322 376
#     4  10  22  43  63  95 129 162 210 264 315 365
#
# _framework density 21.709363
#
# number of rings (size 3 to 8) (size 9 to 14) (size 15 to 20)
#    0.857    0.857    1.429    3.000    0.000    1.714 
#    7.714    1.429    0.000    0.000    0.000    0.000 
#    0.000    0.000    0.000    0.000    0.000    0.000 
#
# Total GULP energy -77948.297558 kJ/mol
# GULP energy per Si atom -5567.735540 kJ/mol
# Density = 2.165995 g / cm^3
# Si number density = 21.709363 Si / 1000 Ang^3
#
#
#
# Elastic Constant Matrix: (Units=GPa)
#
#
# Indices 1 2 3 4 5 6 
#
# 1 110.1985 15.9632 22.3245 -5.3182 5.0671 -16.9209
# 2 15.9632 82.5561 38.0661 -6.0773 -5.1189 -33.4672
# 3 22.3245 38.0661 117.8561 -21.7737 12.1113 -6.1071
# 4 -5.3182 -6.0773 -21.7737 43.3263 -9.7019 -7.0692
# 5 5.0671 -5.1189 12.1113 -9.7019 24.8357 1.2130
# 6 -16.9209 -33.4672 -6.1071 -7.0692 1.2130 32.9197
#
#
#
# Elastic Compliance Matrix: (Units=1/GPa)
#
#
# Indices 1 2 3 4 5 6 
#
# 1 0.010401 0.001889 -0.001834 0.001693 -0.000534 0.007310
# 2 0.001889 0.028729 -0.007782 0.007676 0.010865 0.029982
# 3 -0.001834 -0.007782 0.012107 0.002498 -0.005872 -0.005855
# 4 0.001693 0.007676 0.002498 0.030633 0.011238 0.015301
# 5 -0.000534 0.010865 -0.005872 0.011238 0.049365 0.010276
# 6 0.007310 0.029982 -0.005855 0.015301 0.010276 0.066436
#
#
# Mechanical properties :
#
#
# Convention : Reuss Voigt Hill
#
# Bulk Modulus (GPa) = 27.94500 51.47982 39.71241
# Shear Modulus (GPa) = 22.21705 35.83347 29.02526
#
# Velocity S-wave (km/s) = 3.20251 4.06717 3.66046
# Velocity P-wave (km/s) = 5.15510 6.76908 6.01646
#
# Compressibility (1/GPa) = 0.03578458
#
# Stress axis : x y z
#
# Youngs Moduli (GPa) = 96.14367 34.80819 82.59546
#
# Poissons Ratio (x) = -0.06577 0.15148
# Poissons Ratio (y) = -0.18166 0.64274
# Poissons Ratio (z) = 0.17632 0.27087
#
# Static dielectric constant tensor:
#      x y z
#    x 1.775150 -0.038620 0.026260 
#    y -0.038620 1.852730 0.009450 
#    z 0.026260 0.009450 1.775420 
# 
# From -- ./inp_files/118033.got.cif
#   From: 2010.05.17/outbox.cif.g08.bks.cpg/sg2_60_cif.got.tgz:118033.got - 2010.06.03 11:33:40.
