data_PCOD9091345
_publ_section_title
;
Structure prediction by ZEFSAII (Michael W. Deem and Ramdas Pophale) SiO2 
 PCOD9091345
Probable space group: P -1
;
_chemical_formula_sum "Si O2"
_cell_formula_units_Z 15
_cell_length_a 11.268590
_cell_length_b 16.278202
_cell_length_c 7.861692
_cell_angle_alpha 60.617081
_cell_angle_beta 80.311826
_cell_angle_gamma 131.459040
_cell_volume 617.338470
_symmetry_space_group_name_H-M "P -1"
_symmetry_group_IT_number 2
_symmetry_cell_setting 'triclinic'
loop_
_space_group_symop_operation_xyz
x,y,z
-x,-y,-z
loop_
_atom_site_type_symbol
_atom_site_label
_atom_site_fract_x
_atom_site_fract_y
_atom_site_fract_z
Si Si1 0.714451 0.199976 0.573241
Si Si2 0.762807 0.052998 0.928485
Si Si3 0.491746 0.428752 0.405523
Si Si4 0.849002 0.560768 0.390936
Si Si5 0.054793 0.179432 0.218371
Si Si6 0.994328 0.043141 0.733004
Si Si7 0.000000 0.500000 0.500000
Si Si8 0.210654 0.802003 0.791358
O O1 0.703692 0.082718 0.754382
O O2 0.857143 0.298861 0.261908
O O3 0.838833 0.338151 0.555472
O O4 0.445561 0.061832 0.770871
O O5 0.023806 0.267194 0.718062
O O6 0.795404 0.966574 0.963476
O O7 0.500000 0.500000 0.500000
O O8 0.654270 0.452977 0.409190
O O9 0.244847 0.232000 0.578254
O O10 0.665915 0.601132 0.058183
O O11 0.776269 0.427430 0.663684
O O12 0.082921 0.669521 0.125632
O O13 0.984686 0.086579 0.507556
O O14 0.901306 0.168666 0.222132
O O15 0.035662 0.087312 0.169100
O O16 0.500000 0.000000 0.500000
#
# Coordination Sequence:
#
# PCOD9091345 Si02
#       8
#     2   2   2   2   2   2   1   2
#     4  10  21  38  64  93 130 166 212 260 320 386
#     4  10  19  39  65  91 124 174 211 256 318 386
#     4  11  23  41  64  94 133 167 214 277 320 376
#     4  10  22  41  61  96 127 164 216 262 333 381
#     4  10  25  42  64 100 126 178 223 254 332 396
#     4  11  22  44  69  93 134 173 220 267 320 395
#     4  10  24  40  60  94 126 164 216 258 320 398
#     4  11  21  40  67  91 132 168 207 275 322 380
#
# _framework density 24.297854000000001
#
# number of rings (size 3 to 8) (size 9 to 14) (size 15 to 20)
#    0.000    1.600    4.000    0.400    0.000    3.200 
#    0.000    5.333    0.000    0.000    0.000    0.000 
#    0.000    0.000    0.000    0.000    0.000    0.000 
#
# Total GULP energy -83568.977850 kJ/mol
# GULP energy per Si atom -5571.265190 kJ/mol
# Density = 2.424255 g / cm^3
# Si number density = 24.297854 Si / 1000 Ang^3
#
#
#
# Elastic Constant Matrix: (Units=GPa)
#
#
# Indices 1 2 3 4 5 6 
#
# 1 116.1452 56.6874 29.4739 -16.6040 -20.7187 -19.3067
# 2 56.6874 127.0905 22.0829 -14.0104 -13.6760 -8.9830
# 3 29.4739 22.0829 60.7401 -9.5703 -11.5767 -10.5408
# 4 -16.6040 -14.0104 -9.5703 38.8483 3.7220 -2.1493
# 5 -20.7187 -13.6760 -11.5767 3.7220 30.3984 0.2243
# 6 -19.3067 -8.9830 -10.5408 -2.1493 0.2243 40.0253
#
#
#
# Elastic Compliance Matrix: (Units=1/GPa)
#
#
# Indices 1 2 3 4 5 6 
#
# 1 0.013782 -0.004317 -0.002535 0.003417 0.006030 0.005161
# 2 -0.004317 0.010276 -0.001218 0.001460 0.001039 -0.000024
# 3 -0.002535 -0.001218 0.020295 0.003216 0.005030 0.003993
# 4 0.003417 0.001460 0.003216 0.028698 0.000665 0.004360
# 5 0.006030 0.001039 0.005030 0.000665 0.039276 0.004282
# 6 0.005161 -0.000024 0.003993 0.004360 0.004282 0.028730
#
#
# Mechanical properties :
#
#
# Convention : Reuss Voigt Hill
#
# Bulk Modulus (GPa) = 35.44216 57.82935 46.63575
# Shear Modulus (GPa) = 30.01181 34.90318 32.45750
#
# Velocity S-wave (km/s) = 3.51830 3.79419 3.65885
# Velocity P-wave (km/s) = 5.57878 6.56097 6.08971
#
# Compressibility (1/GPa) = 0.02821499
#
# Stress axis : x y z
#
# Youngs Moduli (GPa) = 72.55805 97.31023 49.27375
#
# Poissons Ratio (x) = 0.42004 0.12491
# Poissons Ratio (y) = 0.31320 0.05999
# Poissons Ratio (z) = 0.18394 0.11848
#
# Static dielectric constant tensor:
#      x y z
#    x 1.800190 0.040190 -0.250020 
#    y 0.040190 1.986500 -0.033330 
#    z -0.250020 -0.033330 1.839850 
# 
# From -- ./inp_files/169555.got.cif
#   From: 2010.05.17/outbox.cif.g08.bks.cpg/sg2_85_cif.got.tgz:169555.got - 2010.06.03 11:33:40.
