data_PCOD9091296
_publ_section_title
;
Structure prediction by ZEFSAII (Michael W. Deem and Ramdas Pophale) SiO2 
 PCOD9091296
Probable space group: P -1
;
_chemical_formula_sum "Si O2"
_cell_formula_units_Z 16
_cell_length_a 25.009390
_cell_length_b 17.028072
_cell_length_c 13.097730
_cell_angle_alpha 149.622537
_cell_angle_beta 20.874771
_cell_angle_gamma 157.976926
_cell_volume 745.030948
_symmetry_space_group_name_H-M "P -1"
_symmetry_group_IT_number 2
_symmetry_cell_setting 'triclinic'
loop_
_space_group_symop_operation_xyz
x,y,z
-x,-y,-z
loop_
_atom_site_type_symbol
_atom_site_label
_atom_site_fract_x
_atom_site_fract_y
_atom_site_fract_z
Si Si1 0.669681 0.947511 0.388983
Si Si2 0.107129 0.534973 0.113307
Si Si3 0.728320 0.128793 0.269679
Si Si4 0.979659 0.295974 0.809586
Si Si5 0.501644 0.393494 0.277153
Si Si6 0.343834 0.479291 0.476793
Si Si7 0.935367 0.631651 0.786027
Si Si8 0.331870 0.942857 0.082605
O O1 0.559805 0.706769 0.324558
O O2 0.718251 0.014025 0.258350
O O3 0.508960 0.965023 0.736619
O O4 0.876323 0.121662 0.277136
O O5 0.129201 0.435928 0.057058
O O6 0.228855 0.779467 0.177628
O O7 0.868174 0.372093 0.330505
O O8 0.219585 0.526724 0.811647
O O9 0.500000 0.000000 0.500000
O O10 0.845379 0.153599 0.987855
O O11 0.851534 0.166311 0.792991
O O12 0.197629 0.363880 0.510126
O O13 0.000000 0.500000 0.000000
O O14 0.500000 0.500000 0.500000
O O15 0.371057 0.362435 0.379032
O O16 0.424217 0.171753 0.200893
O O17 0.732595 0.540610 0.990176
O O18 0.000000 0.500000 0.500000
#
# Coordination Sequence:
#
# PCOD9091296 Si02
#       8
#     2   2   2   2   2   2   2   2
#     4  10  20  35  61  93 118 158 207 257 305 367
#     4   9  20  35  60  93 118 156 212 252 298 380
#     4  10  16  28  58  94 122 147 191 259 308 347
#     4  11  18  35  65  96 122 158 209 253 304 386
#     4  12  26  42  61  88 129 171 208 262 319 361
#     4  10  21  39  61  89 128 161 204 251 316 380
#     4  11  22  39  63  90 120 159 219 265 303 363
#     4  11  21  38  63  94 122 164 213 255 307 375
#
# _framework density 21.475618000000001
#
# number of rings (size 3 to 8) (size 9 to 14) (size 15 to 20)
#    0.000    1.500    7.500    0.000    0.000    2.500 
#    0.000    0.000    0.000    0.750    0.000    0.000 
#    0.000    0.000    0.000    0.000    0.000    0.000 
#
# Total GULP energy -89188.066989 kJ/mol
# GULP energy per Si atom -5574.254187 kJ/mol
# Density = 2.142674 g / cm^3
# Si number density = 21.475618 Si / 1000 Ang^3
#
#
#
# Elastic Constant Matrix: (Units=GPa)
#
#
# Indices 1 2 3 4 5 6 
#
# 1 38.0102 3.1875 10.8509 -5.8088 -13.2111 -3.7242
# 2 3.1875 95.6406 24.3520 -31.5619 -9.8181 -5.9880
# 3 10.8509 24.3520 50.6719 -18.8571 -24.0361 6.2150
# 4 -5.8088 -31.5619 -18.8571 30.0391 7.3197 -2.2668
# 5 -13.2111 -9.8181 -24.0361 7.3197 37.9452 -12.0762
# 6 -3.7242 -5.9880 6.2150 -2.2668 -12.0762 34.2951
#
#
#
# Elastic Compliance Matrix: (Units=1/GPa)
#
#
# Indices 1 2 3 4 5 6 
#
# 1 0.032938 0.003338 -0.000930 0.006728 0.013473 0.009517
# 2 0.003338 0.017187 -0.001866 0.017252 0.002973 0.005889
# 3 -0.000930 -0.001866 0.035526 0.015606 0.018954 0.000841
# 4 0.006728 0.017252 0.015606 0.061313 0.007259 0.007523
# 5 0.013473 0.002973 0.018954 0.007259 0.047426 0.015727
# 6 0.009517 0.005889 0.000841 0.007523 0.015727 0.037103
#
#
# Mechanical properties :
#
#
# Convention : Reuss Voigt Hill
#
# Bulk Modulus (GPa) = 11.52934 29.01151 20.27042
# Shear Modulus (GPa) = 19.28112 30.18469 24.73291
#
# Velocity S-wave (km/s) = 2.99961 3.75311 3.39731
# Velocity P-wave (km/s) = 4.16858 5.68502 4.98481
#
# Compressibility (1/GPa) = 0.08673522
#
# Stress axis : x y z
#
# Youngs Moduli (GPa) = 30.36015 58.18353 28.14816
#
# Poissons Ratio (x) = -0.19424 0.02618
# Poissons Ratio (y) = -0.10136 0.05253
# Poissons Ratio (z) = 0.02824 0.10859
#
# Static dielectric constant tensor:
#      x y z
#    x 1.989220 0.031540 0.075310 
#    y 0.031540 1.829180 -0.031010 
#    z 0.075310 -0.031010 1.854080 
# 
# From -- ./inp_files/222091.got.cif
#   From: 2010.05.17/outbox.cif.g08.bks.cpg/sg2_112_cif.got.tgz:222091.got - 2010.06.03 11:33:40.
