data_PCOD9091181
_publ_section_title
;
Structure prediction by ZEFSAII (Michael W. Deem and Ramdas Pophale) SiO2 
 PCOD9091181
Probable space group: P -1
;
_chemical_formula_sum "Si O2"
_cell_formula_units_Z 16
_cell_length_a 12.545575
_cell_length_b 18.164468
_cell_length_c 8.247470
_cell_angle_alpha 99.634078
_cell_angle_beta 73.707726
_cell_angle_gamma 158.404423
_cell_volume 640.291807
_symmetry_space_group_name_H-M "P -1"
_symmetry_group_IT_number 2
_symmetry_cell_setting 'triclinic'
loop_
_space_group_symop_operation_xyz
x,y,z
-x,-y,-z
loop_
_atom_site_type_symbol
_atom_site_label
_atom_site_fract_x
_atom_site_fract_y
_atom_site_fract_z
Si Si1 0.177054 0.568192 0.290477
Si Si2 0.782961 0.193771 0.335729
Si Si3 0.523307 0.286374 0.441464
Si Si4 0.608964 0.378813 0.096915
Si Si5 0.178779 0.842305 0.108549
Si Si6 0.927282 0.846335 0.680743
Si Si7 0.666561 0.971529 0.140490
Si Si8 0.202019 0.389867 0.489912
O O1 0.275021 0.618059 0.455768
O O2 0.308653 0.731932 0.246244
O O3 0.849630 0.321459 0.313226
O O4 0.377243 0.650976 0.095525
O O5 0.079793 0.352739 0.366131
O O6 0.500000 0.000000 0.500000
O O7 0.738215 0.102831 0.190300
O O8 0.636512 0.342850 0.230438
O O9 0.541709 0.389044 0.483091
O O10 0.186851 0.042374 0.524213
O O11 0.298826 0.231300 0.192510
O O12 0.891094 0.613281 0.079838
O O13 0.069643 0.780409 0.321660
O O14 0.500000 0.000000 0.000000
O O15 0.225911 0.957323 0.064814
O O16 0.746728 0.663281 0.607250
O O17 0.120999 0.938638 0.789282
#
# Coordination Sequence:
#
# PCOD9091181 Si02
#       8
#     2   2   2   2   2   2   2   2
#     4  10  22  41  62  97 129 169 221 257 331 381
#     4  10  19  39  64  85 125 171 212 269 315 371
#     4   9  21  40  60  92 133 167 210 265 320 385
#     4  11  23  42  67  94 136 172 209 276 318 387
#     4  11  23  42  64  94 131 169 219 269 325 381
#     4  10  22  42  63  98 127 166 221 257 333 390
#     4  10  22  40  63  96 126 165 216 263 324 390
#     4   9  21  38  61  88 123 169 209 263 323 381
#
# _framework density 24.988603999999999
#
# number of rings (size 3 to 8) (size 9 to 14) (size 15 to 20)
#    0.000    2.000    1.250    1.125    1.750    5.000 
#    4.500    5.625    0.000    0.000    0.000    0.000 
#    0.000    0.000    0.000    0.000    0.000    0.000 
#
# Total GULP energy -89218.675312 kJ/mol
# GULP energy per Si atom -5576.167207 kJ/mol
# Density = 2.493173 g / cm^3
# Si number density = 24.988604 Si / 1000 Ang^3
#
#
#
# Elastic Constant Matrix: (Units=GPa)
#
#
# Indices 1 2 3 4 5 6 
#
# 1 54.7386 15.7339 25.8118 -1.9260 28.8652 -6.8227
# 2 15.7339 103.3202 21.7258 -17.5649 17.2442 -28.2532
# 3 25.8118 21.7258 116.0784 -21.8777 31.0621 -10.2009
# 4 -1.9260 -17.5649 -21.8777 48.1503 -10.8998 9.6616
# 5 28.8652 17.2442 31.0621 -10.8998 46.1541 -3.3073
# 6 -6.8227 -28.2532 -10.2009 9.6616 -3.3073 42.0595
#
#
#
# Elastic Compliance Matrix: (Units=1/GPa)
#
#
# Indices 1 2 3 4 5 6 
#
# 1 0.028839 -0.001002 -0.002285 -0.004744 -0.017015 0.003203
# 2 -0.001002 0.012861 -0.000304 0.002329 -0.002876 0.007642
# 3 -0.002285 -0.000304 0.011319 0.003583 -0.005162 0.000941
# 4 -0.004744 0.002329 0.003583 0.024996 0.005326 -0.003659
# 5 -0.017015 -0.002876 -0.005162 0.005326 0.037813 -0.004194
# 6 0.003203 0.007642 0.000941 -0.003659 -0.004194 0.030168
#
#
# Mechanical properties :
#
#
# Convention : Reuss Voigt Hill
#
# Bulk Modulus (GPa) = 21.81677 44.52003 33.16840
# Shear Modulus (GPa) = 29.68114 41.33049 35.50581
#
# Velocity S-wave (km/s) = 3.45017 4.07132 3.77355
# Velocity P-wave (km/s) = 4.96197 6.32105 5.68229
#
# Compressibility (1/GPa) = 0.04583630
#
# Stress axis : x y z
#
# Youngs Moduli (GPa) = 34.67564 77.75562 88.34564
#
# Poissons Ratio (x) = 0.07793 0.20185
# Poissons Ratio (y) = 0.03475 0.02687
# Poissons Ratio (z) = 0.07923 0.02365
#
# Static dielectric constant tensor:
#      x y z
#    x 2.071850 -0.050810 -0.012560 
#    y -0.050810 2.083260 0.097130 
#    z -0.012560 0.097130 3.111390 
# 
# From -- ./inp_files/319363.got.cif
#   From: 2010.05.17/outbox.cif.g08.bks.cpg/sg2_160_cif.got.tgz:319363.got - 2010.06.03 11:33:40.
