data_PCOD9091095
_publ_section_title
;
Structure prediction by ZEFSAII (Michael W. Deem and Ramdas Pophale) SiO2 
 PCOD9091095
Probable space group: P -1
;
_chemical_formula_sum "Si O2"
_cell_formula_units_Z 14
_cell_length_a 9.233446
_cell_length_b 14.297650
_cell_length_c 14.770522
_cell_angle_alpha 151.220881
_cell_angle_beta 131.116687
_cell_angle_gamma 68.314188
_cell_volume 580.949756
_symmetry_space_group_name_H-M "P -1"
_symmetry_group_IT_number 2
_symmetry_cell_setting 'triclinic'
loop_
_space_group_symop_operation_xyz
x,y,z
-x,-y,-z
loop_
_atom_site_type_symbol
_atom_site_label
_atom_site_fract_x
_atom_site_fract_y
_atom_site_fract_z
Si Si1 0.788619 0.871296 0.967338
Si Si2 0.573590 0.352310 0.519377
Si Si3 0.466031 0.758579 0.075872
Si Si4 0.955339 0.141724 0.696975
Si Si5 0.736357 0.045163 0.271957
Si Si6 0.223061 0.902101 0.224899
Si Si7 0.417976 0.590699 0.214459
O O1 0.662774 0.609278 0.736945
O O2 0.668304 0.833361 0.789609
O O3 0.739601 0.014927 0.140238
O O4 0.058686 0.965676 0.160534
O O5 0.747389 0.276423 0.499508
O O6 0.546940 0.355559 0.618249
O O7 0.713526 0.967041 0.398820
O O8 0.501564 0.839279 0.054094
O O9 0.274442 0.758489 0.055435
O O10 0.449802 0.518432 0.865470
O O11 0.906509 0.218304 0.836945
O O12 0.071083 0.000690 0.652222
O O13 0.145014 0.373195 0.914534
O O14 0.461969 0.153702 0.562302
#
# Coordination Sequence:
#
# PCOD9091095 Si02
#       7
#     2   2   2   2   2   2   2
#     4  10  23  40  64  93 125 158 207 255 303 370
#     4  11  20  40  68  88 121 168 201 250 315 358
#     4  11  22  41  62  90 128 161 204 258 299 361
#     4  10  23  44  61  91 129 159 207 256 298 365
#     4  10  19  39  63  90 119 163 202 250 302 363
#     4  11  23  41  62  92 124 162 204 254 307 361
#     4  11  22  41  63  90 124 161 209 250 299 370
#
# _framework density 24.098469000000001
#
# number of rings (size 3 to 8) (size 9 to 14) (size 15 to 20)
#    0.000    1.429    5.714    2.571    0.000    4.000 
#    2.571    0.714    0.000    0.000    0.000    0.000 
#    0.000    0.000    0.000    0.000    0.000    0.000 
#
# Total GULP energy -78291.518282 kJ/mol
# GULP energy per Si atom -5592.251306 kJ/mol
# Density = 2.404362 g / cm^3
# Si number density = 24.098469 Si / 1000 Ang^3
#
#
#
# Elastic Constant Matrix: (Units=GPa)
#
#
# Indices 1 2 3 4 5 6 
#
# 1 198.3693 26.5343 41.7302 6.6896 -32.4440 -24.7681
# 2 26.5343 52.9974 23.1899 4.2429 -3.2920 -12.6861
# 3 41.7302 23.1899 84.7927 -5.0737 -14.5313 -5.8076
# 4 6.6896 4.2429 -5.0737 40.1309 -2.5546 0.0402
# 5 -32.4440 -3.2920 -14.5313 -2.5546 42.3771 5.6413
# 6 -24.7681 -12.6861 -5.8076 0.0402 5.6413 33.8030
#
#
#
# Elastic Compliance Matrix: (Units=1/GPa)
#
#
# Indices 1 2 3 4 5 6 
#
# 1 0.006755 -0.001299 -0.002139 -0.001020 0.003815 0.003459
# 2 -0.001299 0.024051 -0.006031 -0.003248 -0.002381 0.007439
# 3 -0.002139 -0.006031 0.015163 0.003137 0.003524 -0.001818
# 4 -0.001020 -0.003248 0.003137 0.025948 0.001842 -0.001765
# 5 0.003815 -0.002381 0.003524 0.001842 0.027940 -0.002158
# 6 0.003459 0.007439 -0.001818 -0.001765 -0.002158 0.034959
#
#
# Mechanical properties :
#
#
# Convention : Reuss Voigt Hill
#
# Bulk Modulus (GPa) = 36.99631 57.67424 47.33527
# Shear Modulus (GPa) = 30.71882 39.57586 35.14734
#
# Velocity S-wave (km/s) = 3.57420 4.05687 3.82316
# Velocity P-wave (km/s) = 5.69374 6.77709 6.25890
#
# Compressibility (1/GPa) = 0.02702973
#
# Stress axis : x y z
#
# Youngs Moduli (GPa) = 148.03273 41.57778 65.95002
#
# Poissons Ratio (x) = 0.05403 0.14110
# Poissons Ratio (y) = 0.19235 0.39775
# Poissons Ratio (z) = 0.31671 0.25076
#
# Static dielectric constant tensor:
#      x y z
#    x 1.945660 -0.031480 0.026540 
#    y -0.031480 1.986060 -0.030820 
#    z 0.026540 -0.030820 1.957230 
# 
# From -- ./inp_files/179761.got.cif
#   From: 2010.05.17/outbox.cif.g08.bks.cpg/sg2_90_cif.got.tgz:179761.got - 2010.06.03 11:33:40.
