data_PCOD9091370
_publ_section_title
;
Structure prediction by ZEFSAII (Michael W. Deem and Ramdas Pophale) SiO2 
 PCOD9091370
Probable space group: P -1
;
_chemical_formula_sum "Si O2"
_cell_formula_units_Z 16
_cell_length_a 9.464352
_cell_length_b 10.004423
_cell_length_c 12.465213
_cell_angle_alpha 50.787465
_cell_angle_beta 130.998524
_cell_angle_gamma 109.748336
_cell_volume 684.197289
_symmetry_space_group_name_H-M "P -1"
_symmetry_group_IT_number 2
_symmetry_cell_setting 'triclinic'
loop_
_space_group_symop_operation_xyz
x,y,z
-x,-y,-z
loop_
_atom_site_type_symbol
_atom_site_label
_atom_site_fract_x
_atom_site_fract_y
_atom_site_fract_z
Si Si1 0.540816 0.757958 0.574095
Si Si2 0.227048 0.648076 0.856403
Si Si3 0.204006 0.256118 0.475222
Si Si4 0.317142 0.139137 0.817467
Si Si5 0.440626 0.249513 0.169748
Si Si6 0.753060 0.352934 0.676805
Si Si7 0.627046 0.352326 0.847954
Si Si8 0.881915 0.863765 0.065180
O O1 0.680745 0.833386 0.522467
O O2 0.528061 0.820703 0.658020
O O3 0.350202 0.737270 0.424184
O O4 0.632890 0.556689 0.737819
O O5 0.365336 0.733199 0.802418
O O6 0.013106 0.690267 0.690261
O O7 0.318335 0.443981 0.009630
O O8 0.244463 0.714957 0.953400
O O9 0.235707 0.143965 0.655346
O O10 0.292269 0.437438 0.450401
O O11 0.415559 0.315891 0.790404
O O12 0.165410 0.117561 0.843117
O O13 0.500000 0.000000 0.000000
O O14 0.313214 0.137201 0.093742
O O15 0.693713 0.282317 0.799259
O O16 0.976199 0.312748 0.791292
O O17 0.000000 0.000000 0.000000
#
# Coordination Sequence:
#
# PCOD9091370 Si02
#       8
#     2   2   2   2   2   2   2   2
#     4  10  21  36  66 102 134 162 208 280 328 371
#     4  10  21  37  65 102 134 166 216 271 330 379
#     4  11  22  39  69 102 126 170 224 270 322 385
#     4  12  25  45  66  89 128 177 222 267 324 395
#     4  10  22  40  63  99 138 167 206 280 332 377
#     4  11  21  39  67 103 130 165 224 270 321 387
#     4  10  19  39  65  93 135 169 207 265 329 378
#     4  12  27  44  67  93 129 180 216 264 332 398
#
# _framework density 23.385068
#
# number of rings (size 3 to 8) (size 9 to 14) (size 15 to 20)
#    0.000    1.250    5.000    1.500    3.500    2.000 
#    0.000    1.250    0.000    0.000    0.000    0.000 
#    0.000    0.000    0.000    0.000    0.000    0.000 
#
# Total GULP energy -89474.647785 kJ/mol
# GULP energy per Si atom -5592.165487 kJ/mol
# Density = 2.333184 g / cm^3
# Si number density = 23.385068 Si / 1000 Ang^3
#
#
#
# Elastic Constant Matrix: (Units=GPa)
#
#
# Indices 1 2 3 4 5 6 
#
# 1 166.4081 32.6433 83.4282 16.0397 -29.5338 6.3830
# 2 32.6433 38.4992 35.6943 10.3975 -11.9774 4.6036
# 3 83.4282 35.6943 162.4625 35.5546 -31.0495 0.0043
# 4 16.0397 10.3975 35.5546 43.2342 1.4181 5.7969
# 5 -29.5338 -11.9774 -31.0495 1.4181 51.7214 4.3260
# 6 6.3830 4.6036 0.0043 5.7969 4.3260 31.1095
#
#
#
# Elastic Compliance Matrix: (Units=1/GPa)
#
#
# Indices 1 2 3 4 5 6 
#
# 1 0.008853 -0.003538 -0.003454 0.000562 0.002291 -0.001716
# 2 -0.003538 0.035878 -0.004650 -0.003008 0.003961 -0.004573
# 3 -0.003454 -0.004650 0.011254 -0.007277 0.003719 0.002234
# 4 0.000562 -0.003008 -0.007277 0.030418 -0.005192 -0.004615
# 5 0.002291 0.003961 0.003719 -0.005192 0.024224 -0.003458
# 6 -0.001716 -0.004573 0.002234 -0.004615 -0.003458 0.034514
#
#
# Mechanical properties :
#
#
# Convention : Reuss Voigt Hill
#
# Bulk Modulus (GPa) = 30.58097 74.54462 52.56279
# Shear Modulus (GPa) = 27.88224 39.58662 33.73443
#
# Velocity S-wave (km/s) = 3.45673 4.11885 3.80223
# Velocity P-wave (km/s) = 5.38864 7.38689 6.46543
#
# Compressibility (1/GPa) = 0.03270008
#
# Stress axis : x y z
#
# Youngs Moduli (GPa) = 112.95243 27.87258 88.85719
#
# Poissons Ratio (x) = 0.09862 0.30693
# Poissons Ratio (y) = 0.39964 0.41319
# Poissons Ratio (z) = 0.39016 0.12961
#
# Static dielectric constant tensor:
#      x y z
#    x 1.864860 -0.024430 -0.012030 
#    y -0.024430 1.973540 -0.055680 
#    z -0.012030 -0.055680 1.898990 
# 
# From -- ./inp_files/188680.got.cif
#   From: 2010.05.17/outbox.cif.g08.bks.cpg/sg2_95_cif.got.tgz:188680.got - 2010.06.03 11:33:40.
