data_PCOD9091935
_publ_section_title
;
Structure prediction by ZEFSAII (Michael W. Deem and Ramdas Pophale) SiO2 
 PCOD9091935
Probable space group: P -1
;
_chemical_formula_sum "Si O2"
_cell_formula_units_Z 13
_cell_length_a 11.701448
_cell_length_b 13.788277
_cell_length_c 4.914184
_cell_angle_alpha 68.251822
_cell_angle_beta 73.228548
_cell_angle_gamma 42.400410
_cell_volume 496.441111
_symmetry_space_group_name_H-M "P -1"
_symmetry_group_IT_number 2
_symmetry_cell_setting 'triclinic'
loop_
_space_group_symop_operation_xyz
x,y,z
-x,-y,-z
loop_
_atom_site_type_symbol
_atom_site_label
_atom_site_fract_x
_atom_site_fract_y
_atom_site_fract_z
Si Si1 0.883565 0.764678 0.348167
Si Si2 0.500000 0.500000 0.500000
Si Si3 0.432058 0.156820 0.468576
Si Si4 0.776215 0.963360 0.721675
Si Si5 0.857247 0.108425 0.208928
Si Si6 0.236517 0.610839 0.110487
Si Si7 0.507937 0.303511 0.931414
O O1 0.760473 0.742988 0.408624
O O2 0.857310 0.826522 0.604704
O O3 0.081077 0.632977 0.275079
O O4 0.805857 0.902466 0.063638
O O5 0.330340 0.595638 0.326667
O O6 0.534328 0.347446 0.584637
O O7 0.425681 0.245381 0.138146
O O8 0.500000 0.000000 0.500000
O O9 0.575068 0.097543 0.653891
O O10 0.860900 0.020929 0.535418
O O11 0.683663 0.189008 0.084561
O O12 0.840935 0.241106 0.142288
O O13 0.000000 0.000000 0.000000
O O14 0.381103 0.474288 0.957198
#
# Coordination Sequence:
#
# PCOD9091935 Si02
#       7
#     2   1   2   2   2   2   2
#     4  11  23  41  70  99 139 177 238 280 347 411
#     4  10  22  44  66  92 138 182 220 274 348 410
#     4   9  21  46  68  99 136 176 230 288 348 408
#     4  10  22  42  65 103 137 180 225 295 342 408
#     4  10  19  40  63  98 132 176 232 280 344 402
#     4  11  24  42  63  98 137 181 230 281 343 418
#     4  10  23  43  65  97 134 182 223 284 350 411
#
# _framework density 26.186392000000001
#
# number of rings (size 3 to 8) (size 9 to 14) (size 15 to 20)
#    0.000    1.846    1.538    2.308    2.154    1.231 
#   38.769    0.769    0.000    0.000    0.000    0.000 
#    0.000    0.000    0.000    0.000    0.000    0.000 
#
# Total GULP energy -72554.474556 kJ/mol
# GULP energy per Si atom -5581.113427 kJ/mol
# Density = 2.612679 g / cm^3
# Si number density = 26.186392 Si / 1000 Ang^3
#
#
#
# Elastic Constant Matrix: (Units=GPa)
#
#
# Indices 1 2 3 4 5 6 
#
# 1 114.6227 25.1984 17.9215 0.0023 -29.5570 -37.8376
# 2 25.1984 132.4775 15.6812 7.5453 -2.7216 -13.9542
# 3 17.9215 15.6812 111.3679 -31.2956 -12.9134 6.2343
# 4 0.0023 7.5453 -31.2956 50.9443 6.3008 -14.3141
# 5 -29.5570 -2.7216 -12.9134 6.3008 50.6578 -0.6920
# 6 -37.8376 -13.9542 6.2343 -14.3141 -0.6920 52.4455
#
#
#
# Elastic Compliance Matrix: (Units=1/GPa)
#
#
# Indices 1 2 3 4 5 6 
#
# 1 0.015121 -0.001428 -0.001497 0.001407 0.008342 0.011201
# 2 -0.001428 0.008186 -0.001558 -0.001873 -0.000546 0.000815
# 3 -0.001497 -0.001558 0.011570 0.006930 0.001117 -0.000964
# 4 0.001407 -0.001873 0.006930 0.026165 -0.000674 0.006825
# 5 0.008342 -0.000546 0.001117 -0.000674 0.025027 0.005887
# 6 0.011201 0.000815 -0.000964 0.006825 0.005887 0.029421
#
#
# Mechanical properties :
#
#
# Convention : Reuss Voigt Hill
#
# Bulk Modulus (GPa) = 38.59247 52.89667 45.74457
# Shear Modulus (GPa) = 37.56795 50.78733 44.17764
#
# Velocity S-wave (km/s) = 3.79177 4.40870 4.11182
# Velocity P-wave (km/s) = 5.82577 6.79407 6.32847
#
# Compressibility (1/GPa) = 0.02591179
#
# Stress axis : x y z
#
# Youngs Moduli (GPa) = 66.13346 122.16368 86.42829
#
# Poissons Ratio (x) = 0.17444 0.12935
# Poissons Ratio (y) = 0.09443 0.13467
# Poissons Ratio (z) = 0.09897 0.19035
#
# Static dielectric constant tensor:
#      x y z
#    x 2.147690 0.038860 0.039090 
#    y 0.038860 2.057160 -0.136710 
#    z 0.039090 -0.136710 1.573900 
# 
# From -- ./inp_files/75430.got.cif
#   From: 2010.05.17/outbox.cif.g08.bks.cpg/sg2_38_cif.got.tgz:75430.got - 2010.06.03 11:33:40.
