data_PCOD9091405
_publ_section_title
;
Structure prediction by ZEFSAII (Michael W. Deem and Ramdas Pophale) SiO2 
 PCOD9091405
Probable space group: P -1
;
_chemical_formula_sum "Si O2"
_cell_formula_units_Z 16
_cell_length_a 11.949327
_cell_length_b 21.462006
_cell_length_c 12.012401
_cell_angle_alpha 25.512317
_cell_angle_beta 36.603032
_cell_angle_gamma 30.479641
_cell_volume 668.599355
_symmetry_space_group_name_H-M "P -1"
_symmetry_group_IT_number 2
_symmetry_cell_setting 'triclinic'
loop_
_space_group_symop_operation_xyz
x,y,z
-x,-y,-z
loop_
_atom_site_type_symbol
_atom_site_label
_atom_site_fract_x
_atom_site_fract_y
_atom_site_fract_z
Si Si1 0.656365 0.184973 0.398954
Si Si2 0.442839 0.599456 0.267726
Si Si3 0.254508 0.185254 0.029528
Si Si4 0.797905 0.332605 0.243570
Si Si5 0.809610 0.692782 0.360932
Si Si6 0.508837 0.897494 0.803218
Si Si7 0.959025 0.837866 0.195311
Si Si8 0.111470 0.027054 0.642889
O O1 0.723792 0.281349 0.274030
O O2 0.392339 0.288749 0.437228
O O3 0.760642 0.143296 0.260941
O O4 0.739038 0.993348 0.687425
O O5 0.500000 0.500000 0.500000
O O6 0.596097 0.483837 0.229215
O O7 0.182090 0.680117 0.322494
O O8 0.491034 0.750716 0.996548
O O9 0.437778 0.152371 0.027314
O O10 0.014338 0.335186 0.027033
O O11 0.286885 0.224815 0.815495
O O12 0.909218 0.174421 0.496092
O O13 0.000000 0.500000 0.500000
O O14 0.907391 0.784825 0.203496
O O15 0.710266 0.918220 0.571868
O O16 0.274920 0.075672 0.694944
O O17 0.012073 0.984515 0.894085
#
# Coordination Sequence:
#
# PCOD9091405 Si02
#       8
#     2   2   2   2   2   2   2   2
#     4  10  19  39  66 100 136 173 219 267 337 411
#     4  12  28  44  69  98 136 186 226 284 337 397
#     4  10  22  40  69  99 134 178 216 273 334 413
#     4  10  21  41  65 102 136 173 222 274 339 395
#     4  12  24  36  65 107 141 175 211 279 349 405
#     4  10  24  47  69 100 133 183 238 267 333 397
#     4  12  24  46  70 100 136 179 231 279 338 400
#     4  10  22  42  74 101 133 176 226 283 329 411
#
# _framework density 23.930626
#
# number of rings (size 3 to 8) (size 9 to 14) (size 15 to 20)
#    0.000    1.500    2.500    5.250    5.250    3.500 
#    0.000    3.750    0.000    0.000    0.000    0.000 
#    0.000    0.000    0.000    0.000    0.000    0.000 
#
# Total GULP energy -89573.218926 kJ/mol
# GULP energy per Si atom -5598.326183 kJ/mol
# Density = 2.387616 g / cm^3
# Si number density = 23.930626 Si / 1000 Ang^3
#
#
#
# Elastic Constant Matrix: (Units=GPa)
#
#
# Indices 1 2 3 4 5 6 
#
# 1 137.3046 60.2916 11.0734 5.5524 -4.7677 -4.2300
# 2 60.2916 131.4533 14.1956 -16.1464 -10.2150 -4.1844
# 3 11.0734 14.1956 20.9134 9.0047 -2.4273 1.3896
# 4 5.5524 -16.1464 9.0047 21.7181 2.7573 -1.2076
# 5 -4.7677 -10.2150 -2.4273 2.7573 35.3155 1.3450
# 6 -4.2300 -4.1844 1.3896 -1.2076 1.3450 50.4404
#
#
#
# Elastic Compliance Matrix: (Units=1/GPa)
#
#
# Indices 1 2 3 4 5 6 
#
# 1 0.009939 -0.005654 0.001875 -0.007569 0.000422 0.000120
# 2 -0.005654 0.014016 -0.014136 0.017698 0.000881 0.001478
# 3 0.001875 -0.014136 0.075934 -0.043336 0.004930 -0.004276
# 4 -0.007569 0.017698 -0.043336 0.080002 -0.005283 0.004083
# 5 0.000422 0.000881 0.004930 -0.005283 0.029415 -0.000938
# 6 0.000120 0.001478 -0.004276 0.004083 -0.000938 0.020199
#
#
# Mechanical properties :
#
#
# Convention : Reuss Voigt Hill
#
# Bulk Modulus (GPa) = 15.61050 51.19919 33.40484
# Shear Modulus (GPa) = 17.44046 35.10218 26.27132
#
# Velocity S-wave (km/s) = 2.70254 3.83408 3.31692
# Velocity P-wave (km/s) = 4.03432 6.40636 5.35337
#
# Compressibility (1/GPa) = 0.06405945
#
# Stress axis : x y z
#
# Youngs Moduli (GPa) = 100.61302 71.34458 13.16927
#
# Poissons Ratio (x) = 0.40340 -0.02470
# Poissons Ratio (y) = 0.56889 0.18616
# Poissons Ratio (z) = -0.18867 1.00854
#
# Static dielectric constant tensor:
#      x y z
#    x 1.951670 0.019290 0.021010 
#    y 0.019290 1.906730 0.001850 
#    z 0.021010 0.001850 1.919790 
# 
# From -- ./inp_files/438573.got.cif
#   From: 2010.05.17/outbox.cif.g08.bks.cpg/sg2_220_cif.got.tgz:438573.got - 2010.06.03 11:33:40.
