data_PCOD9091025
_publ_section_title
;
Structure prediction by ZEFSAII (Michael W. Deem and Ramdas Pophale) SiO2 
 PCOD9091025
Probable space group: P -1
;
_chemical_formula_sum "Si O2"
_cell_formula_units_Z 15
_cell_length_a 15.356940
_cell_length_b 18.787657
_cell_length_c 8.978518
_cell_angle_alpha 84.702199
_cell_angle_beta 104.956775
_cell_angle_gamma 161.443218
_cell_volume 691.839682
_symmetry_space_group_name_H-M "P -1"
_symmetry_group_IT_number 2
_symmetry_cell_setting 'triclinic'
loop_
_space_group_symop_operation_xyz
x,y,z
-x,-y,-z
loop_
_atom_site_type_symbol
_atom_site_label
_atom_site_fract_x
_atom_site_fract_y
_atom_site_fract_z
Si Si1 0.190745 0.946908 0.682997
Si Si2 0.567001 0.147076 0.425822
Si Si3 0.500000 0.500000 0.000000
Si Si4 0.192707 0.508085 0.048630
Si Si5 0.440489 0.910058 0.244473
Si Si6 0.549945 0.272388 0.216073
Si Si7 0.125331 0.287338 0.100077
Si Si8 0.151379 0.357469 0.694896
O O1 0.519725 0.243879 0.768666
O O2 0.317275 0.961132 0.748758
O O3 0.979955 0.807003 0.759117
O O4 0.985490 0.792459 0.472732
O O5 0.685481 0.223533 0.631561
O O6 0.678101 0.303013 0.361275
O O7 0.603375 0.106056 0.343990
O O8 0.177351 0.860565 0.334561
O O9 0.559226 0.513219 0.854565
O O10 0.361912 0.470800 0.876889
O O11 0.143105 0.386195 0.071095
O O12 0.309679 0.614405 0.910700
O O13 0.853104 0.291117 0.952954
O O14 0.638736 0.414197 0.306235
O O15 0.166236 0.968656 0.080017
#
# Coordination Sequence:
#
# PCOD9091025 Si02
#       8
#     2   2   1   2   2   2   2   2
#     4  10  26  41  62  94 139 164 207 260 326 369
#     4  10  20  38  61  97 133 162 222 266 297 366
#     4  12  22  46  78  86 124 160 220 266 326 380
#     4  11  21  43  61  94 135 170 212 258 308 384
#     4  10  19  39  62  94 132 175 214 253 306 373
#     4  11  19  40  68  90 132 166 216 266 307 371
#     4  11  24  44  65  96 125 167 208 274 316 380
#     4  11  23  44  65 101 123 165 214 273 307 383
#
# _framework density 21.681322000000002
#
# number of rings (size 3 to 8) (size 9 to 14) (size 15 to 20)
#    0.000    1.333    5.333    0.400    0.000    4.267 
#    2.400    0.667    0.000    0.000    0.000    0.000 
#    0.000    0.000    0.000    0.000    0.000    0.000 
#
# Total GULP energy -83552.006693 kJ/mol
# GULP energy per Si atom -5570.133780 kJ/mol
# Density = 2.163197 g / cm^3
# Si number density = 21.681322 Si / 1000 Ang^3
#
#
#
# Elastic Constant Matrix: (Units=GPa)
#
#
# Indices 1 2 3 4 5 6 
#
# 1 79.6676 22.6168 13.6368 11.6926 3.1815 1.1493
# 2 22.6168 55.5391 17.8349 -2.1000 -5.4021 -30.0527
# 3 13.6368 17.8349 59.5354 27.4629 -12.6705 -19.3630
# 4 11.6926 -2.1000 27.4629 4.1705 -6.5794 -19.4593
# 5 3.1815 -5.4021 -12.6705 -6.5794 39.0585 -10.8470
# 6 1.1493 -30.0527 -19.3630 -19.4593 -10.8470 14.6848
#
#
#
# Elastic Compliance Matrix: (Units=1/GPa)
#
#
# Indices 1 2 3 4 5 6 
#
# 1 0.013160 -0.003125 -0.011361 0.016368 -0.003311 -0.003163
# 2 -0.003125 0.019216 0.021079 -0.043602 0.006376 0.014296
# 3 -0.011361 0.021079 0.083371 -0.078996 0.039333 0.078331
# 4 0.016368 -0.043602 -0.078996 0.089395 -0.049187 -0.112546
# 5 -0.003311 0.006376 0.039333 -0.049187 0.039284 0.029009
# 6 -0.003163 0.014296 0.078331 -0.112546 0.029009 0.073176
#
#
# Mechanical properties :
#
#
# Convention : Reuss Voigt Hill
#
# Bulk Modulus (GPa) = 7.75604 33.65767 20.70686
# Shear Modulus (GPa) = 14.39281 20.95966 17.67624
#
# Velocity S-wave (km/s) = 2.57929 3.11258 2.85840
# Velocity P-wave (km/s) = 3.52922 5.33620 4.52385
#
# Compressibility (1/GPa) = 0.12893179
#
# Stress axis : x y z
#
# Youngs Moduli (GPa) = 75.98974 52.03882 11.99454
#
# Poissons Ratio (x) = 0.16262 0.13628
# Poissons Ratio (y) = 0.23746 -0.25283
# Poissons Ratio (z) = 0.86335 -1.09690
#
# Static dielectric constant tensor:
#      x y z
#    x 1.789390 0.046490 -0.062940 
#    y 0.046490 1.886750 -0.001300 
#    z -0.062940 -0.001300 2.017720 
# 
# From -- ./inp_files/317665.got.cif
#   From: 2010.05.17/outbox.cif.g08.bks.cpg/sg2_159_cif.got.tgz:317665.got - 2010.06.03 11:33:40.
