data_PCOD9091424
_publ_section_title
;
Structure prediction by ZEFSAII (Michael W. Deem and Ramdas Pophale) SiO2 
 PCOD9091424
Probable space group: P -1
;
_chemical_formula_sum "Si O2"
_cell_formula_units_Z 16
_cell_length_a 5.217826
_cell_length_b 19.081957
_cell_length_c 14.065833
_cell_angle_alpha 127.649236
_cell_angle_beta 63.047735
_cell_angle_gamma 105.529989
_cell_volume 988.332618
_symmetry_space_group_name_H-M "P -1"
_symmetry_group_IT_number 2
_symmetry_cell_setting 'triclinic'
loop_
_space_group_symop_operation_xyz
x,y,z
-x,-y,-z
loop_
_atom_site_type_symbol
_atom_site_label
_atom_site_fract_x
_atom_site_fract_y
_atom_site_fract_z
Si Si1 0.939881 0.998329 0.355549
Si Si2 0.174665 0.536778 0.591097
Si Si3 0.090511 0.712207 0.649640
Si Si4 0.906002 0.060450 0.926439
Si Si5 0.648293 0.899244 0.494543
Si Si6 0.958803 0.388340 0.613884
Si Si7 0.583671 0.707902 0.421885
Si Si8 0.269855 0.118431 0.085756
O O1 0.678081 0.066894 0.435896
O O2 0.205421 0.051169 0.399753
O O3 0.825346 0.931092 0.399180
O O4 0.016081 0.949969 0.205122
O O5 0.500000 0.500000 0.500000
O O6 0.154502 0.641949 0.664751
O O7 0.027952 0.490787 0.668576
O O8 0.000000 0.500000 0.500000
O O9 0.391693 0.739374 0.572047
O O10 0.947463 0.660782 0.541614
O O11 0.892186 0.793024 0.780843
O O12 0.832781 0.962903 0.898424
O O13 0.614257 0.118508 0.034539
O O14 0.159735 0.096450 0.979784
O O15 0.655688 0.794712 0.423096
O O16 0.142516 0.345064 0.630077
O O17 0.628148 0.360159 0.651743
#
# Coordination Sequence:
#
# PCOD9091424 Si02
#       8
#     2   2   2   2   2   2   2   2
#     4  10  20  35  48  65  91 119 150 200 241 264
#     4  10  16  29  42  64  95 127 146 176 231 275
#     4   9  20  27  48  64  95 125 154 183 216 281
#     4  10  21  34  45  63  95 120 154 201 221 262
#     4  10  20  31  51  70  85 117 159 187 236 292
#     4   9  18  28  42  67  94 127 137 187 227 271
#     4  10  18  27  44  67  92 116 149 184 218 280
#     4  10  21  31  46  67  87 126 162 182 224 262
#
# _framework density 16.188880999999999
#
# number of rings (size 3 to 8) (size 9 to 14) (size 15 to 20)
#    0.750    1.500    1.250    2.250    3.500    1.000 
#    0.000    0.000    0.000    0.000    0.000    0.000 
#    0.000    6.000    0.000    0.000    0.000    0.000 
#
# Total GULP energy -89086.156797 kJ/mol
# GULP energy per Si atom -5567.884800 kJ/mol
# Density = 1.615203 g / cm^3
# Si number density = 16.188881 Si / 1000 Ang^3
#
#
#
# Elastic Constant Matrix: (Units=GPa)
#
#
# Indices 1 2 3 4 5 6 
#
# 1 89.9086 32.1565 -3.9915 -0.8003 4.6045 -18.0688
# 2 32.1565 60.3522 -8.1553 2.0476 -2.0565 -13.1510
# 3 -3.9915 -8.1553 32.3932 -0.5658 3.1455 -6.6094
# 4 -0.8003 2.0476 -0.5658 14.9136 -7.0894 -3.0967
# 5 4.6045 -2.0565 3.1455 -7.0894 11.9134 3.0679
# 6 -18.0688 -13.1510 -6.6094 -3.0967 3.0679 21.5319
#
#
#
# Elastic Compliance Matrix: (Units=1/GPa)
#
#
# Indices 1 2 3 4 5 6 
#
# 1 0.016786 -0.005730 0.004664 -0.001548 -0.013149 0.013669
# 2 -0.005730 0.023136 0.007317 -0.000287 0.001181 0.011359
# 3 0.004664 0.007317 0.039717 -0.003553 -0.019005 0.022771
# 4 -0.001548 -0.000287 -0.003553 0.094586 0.057023 0.002914
# 5 -0.013149 0.001181 -0.019005 0.057023 0.135182 -0.027207
# 6 0.013669 0.011359 0.022771 0.002914 -0.027207 0.076135
#
#
# Mechanical properties :
#
#
# Convention : Reuss Voigt Hill
#
# Bulk Modulus (GPa) = 10.85309 24.74149 17.79729
# Shear Modulus (GPa) = 12.38377 20.51476 16.44927
#
# Velocity S-wave (km/s) = 2.76878 3.56366 3.19107
# Velocity P-wave (km/s) = 4.11584 5.67882 4.95929
#
# Compressibility (1/GPa) = 0.09213969
#
# Stress axis : x y z
#
# Youngs Moduli (GPa) = 59.57498 43.22206 25.17820
#
# Poissons Ratio (x) = 0.24768 -0.11744
# Poissons Ratio (y) = 0.34139 -0.18422
# Poissons Ratio (z) = -0.27788 -0.31624
#
# Static dielectric constant tensor:
#      x y z
#    x 1.562040 0.014560 0.008920 
#    y 0.014560 1.570040 -0.004860 
#    z 0.008920 -0.004860 1.512980 
# 
# From -- ./inp_files/368704.got.cif
#   From: 2010.05.17/outbox.cif.g08.bks.cpg/sg2_185_cif.got.tgz:368704.got - 2010.06.03 11:33:40.
