data_PCOD9091884
_publ_section_title
;
Structure prediction by ZEFSAII (Michael W. Deem and Ramdas Pophale) SiO2 
 PCOD9091884
Probable space group: P -1
;
_chemical_formula_sum "Si O2"
_cell_formula_units_Z 14
_cell_length_a 8.411486
_cell_length_b 8.437932
_cell_length_c 11.684233
_cell_angle_alpha 82.659484
_cell_angle_beta 54.206411
_cell_angle_gamma 55.140144
_cell_volume 524.712063
_symmetry_space_group_name_H-M "P -1"
_symmetry_group_IT_number 2
_symmetry_cell_setting 'triclinic'
loop_
_space_group_symop_operation_xyz
x,y,z
-x,-y,-z
loop_
_atom_site_type_symbol
_atom_site_label
_atom_site_fract_x
_atom_site_fract_y
_atom_site_fract_z
Si Si1 0.197943 0.515328 0.211546
Si Si2 0.675552 0.073102 0.008225
Si Si3 0.680641 0.096214 0.557820
Si Si4 0.732595 0.608965 0.461864
Si Si5 0.019676 0.772501 0.050180
Si Si6 0.072609 0.142202 0.309069
Si Si7 0.492078 0.489897 0.745159
O O1 0.366736 0.571142 0.186906
O O2 0.975573 0.591701 0.385770
O O3 0.399413 0.277551 0.123330
O O4 0.058265 0.622565 0.143659
O O5 0.868951 0.122532 0.948577
O O6 0.749257 0.920304 0.096156
O O7 0.745069 0.969000 0.865155
O O8 0.459654 0.190456 0.550786
O O9 0.912487 0.059085 0.396241
O O10 0.576203 0.292703 0.662370
O O11 0.786271 0.917676 0.621981
O O12 0.868749 0.387633 0.362480
O O13 0.578949 0.602907 0.628499
O O14 0.203132 0.642736 0.879782
#
# Coordination Sequence:
#
# PCOD9091884 Si02
#       7
#     2   2   2   2   2   2   2
#     4  11  23  37  57  87 119 146 179 234 291 331
#     4  10  20  36  58  83 111 149 193 231 271 332
#     4  10  20  36  62  83 108 150 196 231 269 330
#     4  11  23  37  57  87 119 146 179 234 291 331
#     4  10  20  36  62  83 108 150 196 231 269 330
#     4  10  20  36  58  83 111 149 193 231 271 332
#     4  10  19  40  63  80 108 152 196 230 269 330
#
# _framework density 26.681298000000002
#
# number of rings (size 3 to 8) (size 9 to 14) (size 15 to 20)
#    0.000    1.714    0.000    7.286    0.000    1.714 
#    0.000    5.000    0.000   18.000    0.000    0.000 
#    0.000    0.000    0.000    0.000    0.000    0.000 
#
# Total GULP energy -78429.887182 kJ/mol
# GULP energy per Si atom -5602.134799 kJ/mol
# Density = 2.662057 g / cm^3
# Si number density = 26.681298 Si / 1000 Ang^3
#
#
#
# Elastic Constant Matrix: (Units=GPa)
#
#
# Indices 1 2 3 4 5 6 
#
# 1 53.2636 48.9687 28.1095 -3.0343 -1.0373 -20.7632
# 2 48.9687 145.9197 46.9304 -7.0189 17.9784 -49.0062
# 3 28.1095 46.9304 119.7171 8.0258 4.9205 -17.8080
# 4 -3.0343 -7.0189 8.0258 32.1291 -2.1779 15.7139
# 5 -1.0373 17.9784 4.9205 -2.1779 43.5417 4.5312
# 6 -20.7632 -49.0062 -17.8080 15.7139 4.5312 54.7349
#
#
#
# Elastic Compliance Matrix: (Units=1/GPa)
#
#
# Indices 1 2 3 4 5 6 
#
# 1 0.029421 -0.008784 -0.003549 0.001399 0.004658 0.001354
# 2 -0.008784 0.014696 -0.001592 -0.002992 -0.007369 0.010777
# 3 -0.003549 -0.001592 0.010430 -0.004308 -0.001024 0.001944
# 4 0.001399 -0.002992 -0.004308 0.039545 0.005330 -0.015344
# 5 0.004658 -0.007369 -0.001024 0.005330 0.027435 -0.008965
# 6 0.001354 0.010777 0.001944 -0.015344 -0.008965 0.034212
#
#
# Mechanical properties :
#
#
# Convention : Reuss Voigt Hill
#
# Bulk Modulus (GPa) = 37.45496 62.99082 50.22289
# Shear Modulus (GPa) = 25.97560 39.07393 32.52476
#
# Velocity S-wave (km/s) = 3.12356 3.83099 3.49522
# Velocity P-wave (km/s) = 5.20358 6.57484 5.92899
#
# Compressibility (1/GPa) = 0.02669873
#
# Stress axis : x y z
#
# Youngs Moduli (GPa) = 33.98917 68.04498 95.87398
#
# Poissons Ratio (x) = 0.59769 0.34021
# Poissons Ratio (y) = 0.29855 0.15265
# Poissons Ratio (z) = 0.12061 0.10834
#
# Static dielectric constant tensor:
#      x y z
#    x 2.073750 0.026710 0.001510 
#    y 0.026710 2.153430 -0.086110 
#    z 0.001510 -0.086110 2.022740 
# 
# From -- ./inp_files/257714.got.cif
#   From: 2010.05.17/outbox.cif.g08.bks.cpg/sg2_129_cif.got.tgz:257714.got - 2010.06.03 11:33:40.
