data_PCOD9091547
_publ_section_title
;
Structure prediction by ZEFSAII (Michael W. Deem and Ramdas Pophale) SiO2 
 PCOD9091547
Probable space group: P -1
;
_chemical_formula_sum "Si O2"
_cell_formula_units_Z 15
_cell_length_a 14.736690
_cell_length_b 8.952569
_cell_length_c 16.297947
_cell_angle_alpha 135.830735
_cell_angle_beta 152.134148
_cell_angle_gamma 61.731598
_cell_volume 609.319973
_symmetry_space_group_name_H-M "P -1"
_symmetry_group_IT_number 2
_symmetry_cell_setting 'triclinic'
loop_
_space_group_symop_operation_xyz
x,y,z
-x,-y,-z
loop_
_atom_site_type_symbol
_atom_site_label
_atom_site_fract_x
_atom_site_fract_y
_atom_site_fract_z
Si Si1 0.253556 0.775815 0.738360
Si Si2 0.678925 0.534579 0.895019
Si Si3 0.513052 0.882758 0.644989
Si Si4 0.500000 0.000000 0.500000
Si Si5 0.953014 0.296584 0.206302
Si Si6 0.691505 0.553764 0.573425
Si Si7 0.552599 0.530119 0.148443
Si Si8 0.977679 0.974778 0.698303
O O1 0.303805 0.605864 0.771884
O O2 0.120959 0.890735 0.722629
O O3 0.087113 0.575442 0.459382
O O4 0.500000 0.000000 0.000000
O O5 0.656273 0.270636 0.768502
O O6 0.475026 0.513027 0.665476
O O7 0.632796 0.574048 0.968525
O O8 0.901899 0.739569 0.111938
O O9 0.652501 0.743473 0.671732
O O10 0.360408 0.692385 0.517159
O O11 0.409714 0.896208 0.481680
O O12 0.687606 0.145899 0.927215
O O13 0.007095 0.120010 0.237031
O O14 0.062600 0.314320 0.213506
O O15 0.721212 0.819004 0.409416
O O16 0.500000 0.500000 0.000000
#
# Coordination Sequence:
#
# PCOD9091547 Si02
#       8
#     2   2   2   1   2   2   2   2
#     4  11  22  42  67  99 130 172 229 278 320 398
#     4  11  21  45  65  90 135 175 221 273 330 393
#     4  10  22  39  63  93 124 166 211 273 323 386
#     4  10  26  44  62  94 140 172 208 276 346 394
#     4  11  20  36  67  95 119 165 221 264 318 389
#     4  10  19  39  67  92 118 164 223 266 315 379
#     4  11  24  42  66 100 140 175 215 280 345 396
#     4  11  22  41  70  97 128 176 228 276 324 396
#
# _framework density 24.617608000000001
#
# number of rings (size 3 to 8) (size 9 to 14) (size 15 to 20)
#    0.000    1.333    5.333    2.000    0.000    2.667 
#    2.400    1.333    0.000    0.000    0.000    0.000 
#    0.000    0.000    0.000    0.000    0.000    0.000 
#
# Total GULP energy -83642.395369 kJ/mol
# GULP energy per Si atom -5576.159691 kJ/mol
# Density = 2.456158 g / cm^3
# Si number density = 24.617608 Si / 1000 Ang^3
#
#
#
# Elastic Constant Matrix: (Units=GPa)
#
#
# Indices 1 2 3 4 5 6 
#
# 1 96.8715 31.8440 44.2907 8.6442 15.1821 30.4585
# 2 31.8440 58.1266 49.9182 4.7205 4.4863 27.7442
# 3 44.2907 49.9182 98.9501 14.5250 13.7141 19.9446
# 4 8.6442 4.7205 14.5250 54.3817 14.2105 1.1748
# 5 15.1821 4.4863 13.7141 14.2105 47.2593 7.5427
# 6 30.4585 27.7442 19.9446 1.1748 7.5427 43.8843
#
#
#
# Elastic Compliance Matrix: (Units=1/GPa)
#
#
# Indices 1 2 3 4 5 6 
#
# 1 0.015520 -0.000392 -0.004782 -0.000418 -0.002163 -0.007968
# 2 -0.000392 0.040609 -0.017262 0.000484 0.004050 -0.018265
# 3 -0.004782 -0.017262 0.020648 -0.002617 -0.002894 0.005415
# 4 -0.000418 0.000484 -0.002617 0.020536 -0.005580 0.001583
# 5 -0.002163 0.004050 -0.002894 -0.005580 0.024598 -0.003822
# 6 -0.007968 -0.018265 0.005415 0.001583 -0.003822 0.038018
#
#
# Mechanical properties :
#
#
# Convention : Reuss Voigt Hill
#
# Bulk Modulus (GPa) = 31.34155 56.22822 43.78489
# Shear Modulus (GPa) = 23.20884 37.63142 30.42013
#
# Velocity S-wave (km/s) = 3.07379 3.91402 3.51907
# Velocity P-wave (km/s) = 5.03553 6.58151 5.85973
#
# Compressibility (1/GPa) = 0.03190653
#
# Stress axis : x y z
#
# Youngs Moduli (GPa) = 64.43447 24.62520 48.42971
#
# Poissons Ratio (x) = 0.00964 0.23159
# Poissons Ratio (y) = 0.02524 0.83598
# Poissons Ratio (z) = 0.30812 0.42507
#
# Static dielectric constant tensor:
#      x y z
#    x 1.996820 -0.093010 -0.003120 
#    y -0.093010 2.045490 -0.001650 
#    z -0.003120 -0.001650 1.929810 
# 
# From -- ./inp_files/307529.got.cif
#   From: 2010.05.17/outbox.cif.g08.bks.cpg/sg2_154_cif.got.tgz:307529.got - 2010.06.03 11:33:40.
