data_PCOD9091407
_publ_section_title
;
Structure prediction by ZEFSAII (Michael W. Deem and Ramdas Pophale) SiO2 
 PCOD9091407
Probable space group: P -1
;
_chemical_formula_sum "Si O2"
_cell_formula_units_Z 16
_cell_length_a 7.122222
_cell_length_b 7.345844
_cell_length_c 23.559530
_cell_angle_alpha 124.978398
_cell_angle_beta 55.708193
_cell_angle_gamma 84.153342
_cell_volume 649.615103
_symmetry_space_group_name_H-M "P -1"
_symmetry_group_IT_number 2
_symmetry_cell_setting 'triclinic'
loop_
_space_group_symop_operation_xyz
x,y,z
-x,-y,-z
loop_
_atom_site_type_symbol
_atom_site_label
_atom_site_fract_x
_atom_site_fract_y
_atom_site_fract_z
Si Si1 0.882203 0.623520 0.686534
Si Si2 0.528276 0.744265 0.525882
Si Si3 0.583919 0.721951 0.133156
Si Si4 0.080036 0.711863 0.089116
Si Si5 0.105410 0.305412 0.759411
Si Si6 0.758316 0.365571 0.273635
Si Si7 0.843519 0.157186 0.495608
Si Si8 0.305975 0.657648 0.260216
O O1 0.688814 0.539114 0.728315
O O2 0.227038 0.473661 0.752835
O O3 0.088843 0.584465 0.694546
O O4 0.703258 0.950688 0.759094
O O5 0.500000 0.500000 0.500000
O O6 0.868800 0.599103 0.440249
O O7 0.349852 0.886479 0.522001
O O8 0.373178 0.974793 0.643108
O O9 0.833794 0.751831 0.098489
O O10 0.583110 0.576312 0.164302
O O11 0.625966 0.542202 0.038630
O O12 0.035161 0.633952 0.144549
O O13 0.973600 0.028997 0.167262
O O14 0.871140 0.355504 0.763004
O O15 0.428204 0.519335 0.379911
O O16 0.000000 0.000000 0.500000
O O17 0.126555 0.978361 0.373918
#
# Coordination Sequence:
#
# PCOD9091407 Si02
#       8
#     2   2   2   2   2   2   2   2
#     4  10  21  40  67  94 128 169 210 261 320 387
#     4  10  19  39  66 100 139 173 211 261 324 392
#     4  11  26  44  62  90 128 169 219 277 327 378
#     4  11  26  44  62  90 128 169 219 277 327 378
#     4  10  21  40  67  94 128 169 210 261 320 387
#     4  10  22  41  65  95 129 167 211 260 321 391
#     4  10  21  35  64  99 133 166 202 258 321 389
#     4  10  22  41  65  95 129 167 211 260 321 391
#
# _framework density 24.629967000000001
#
# number of rings (size 3 to 8) (size 9 to 14) (size 15 to 20)
#    0.000    1.750    0.000    4.500    3.500    6.000 
#    0.000    6.250    0.000    0.000    0.000    0.000 
#    0.000    0.000    0.000    0.000    0.000    0.000 
#
# Total GULP energy -89245.436789 kJ/mol
# GULP energy per Si atom -5577.839799 kJ/mol
# Density = 2.457391 g / cm^3
# Si number density = 24.629967 Si / 1000 Ang^3
#
#
#
# Elastic Constant Matrix: (Units=GPa)
#
#
# Indices 1 2 3 4 5 6 
#
# 1 41.5908 9.4630 -2.6237 1.3721 0.1712 1.8272
# 2 9.4630 102.4929 33.7507 -9.1227 0.5556 13.0722
# 3 -2.6237 33.7507 126.4344 -22.4701 7.4535 1.9312
# 4 1.3721 -9.1227 -22.4701 29.5501 -5.0669 6.4652
# 5 0.1712 0.5556 7.4535 -5.0669 28.1564 -4.4783
# 6 1.8272 13.0722 1.9312 6.4652 -4.4783 44.2041
#
#
#
# Elastic Compliance Matrix: (Units=1/GPa)
#
#
# Indices 1 2 3 4 5 6 
#
# 1 0.024782 -0.002727 0.001056 -0.001266 -0.000627 -0.000142
# 2 -0.002727 0.011555 -0.002666 0.002502 0.000385 -0.003515
# 3 0.001056 -0.002666 0.009915 0.006582 -0.001522 -0.000805
# 4 -0.001266 0.002502 0.006582 0.041935 0.004708 -0.006632
# 5 -0.000627 0.000385 -0.001522 0.004708 0.037249 0.003064
# 6 -0.000142 -0.003515 -0.000805 -0.006632 0.003064 0.024983
#
#
# Mechanical properties :
#
#
# Convention : Reuss Voigt Hill
#
# Bulk Modulus (GPa) = 26.61052 39.07755 32.84404
# Shear Modulus (GPa) = 29.13448 35.71066 32.42257
#
# Velocity S-wave (km/s) = 3.44304 3.81187 3.63214
# Velocity P-wave (km/s) = 5.16078 5.93920 5.56362
#
# Compressibility (1/GPa) = 0.03757912
#
# Stress axis : x y z
#
# Youngs Moduli (GPa) = 40.35268 86.54095 100.86177
#
# Poissons Ratio (x) = 0.23600 -0.10655
# Poissons Ratio (y) = 0.11004 0.26885
# Poissons Ratio (z) = -0.04263 0.23068
#
# Static dielectric constant tensor:
#      x y z
#    x 2.052630 0.002930 -0.029890 
#    y 0.002930 1.977100 -0.012930 
#    z -0.029890 -0.012930 2.078290 
# 
# From -- ./inp_files/606792.got.cif
#   From: 2010.05.17/outbox.cif.g08.bks.cpg/sg2_304_cif.got.tgz:606792.got - 2010.06.03 11:33:40.
