data_PCOD9091502
_publ_section_title
;
Structure prediction by ZEFSAII (Michael W. Deem and Ramdas Pophale) SiO2 
 PCOD9091502
Probable space group: P -1
;
_chemical_formula_sum "Si O2"
_cell_formula_units_Z 14
_cell_length_a 14.309400
_cell_length_b 8.403475
_cell_length_c 8.929597
_cell_angle_alpha 111.417257
_cell_angle_beta 30.988501
_cell_angle_gamma 105.805222
_cell_volume 512.816259
_symmetry_space_group_name_H-M "P -1"
_symmetry_group_IT_number 2
_symmetry_cell_setting 'triclinic'
loop_
_space_group_symop_operation_xyz
x,y,z
-x,-y,-z
loop_
_atom_site_type_symbol
_atom_site_label
_atom_site_fract_x
_atom_site_fract_y
_atom_site_fract_z
Si Si1 0.348497 0.909112 0.407463
Si Si2 0.811118 0.590009 0.855322
Si Si3 0.843518 0.710562 0.203864
Si Si4 0.053288 0.091900 0.308538
Si Si5 0.383743 0.879673 0.739756
Si Si6 0.735847 0.389603 0.377604
Si Si7 0.346189 0.751258 0.086340
O O1 0.215178 0.086199 0.633348
O O2 0.471710 0.979691 0.395299
O O3 0.291526 0.722699 0.476026
O O4 0.460098 0.844862 0.084421
O O5 0.808217 0.760111 0.817561
O O6 0.666529 0.452312 0.975928
O O7 0.000000 0.500000 0.500000
O O8 0.826407 0.645987 0.030007
O O9 0.723006 0.593359 0.434131
O O10 0.048486 0.663848 0.962734
O O11 0.858859 0.173468 0.548720
O O12 0.000000 0.000000 0.500000
O O13 0.183576 0.958685 0.990436
O O14 0.402374 0.695649 0.573385
O O15 0.369365 0.825177 0.915851
#
# Coordination Sequence:
#
# PCOD9091502 Si02
#       7
#     2   2   2   2   2   2   2
#     4  12  25  43  65  95 138 175 209 269 335 389
#     4  10  19  39  66  96 126 163 214 279 322 373
#     4  11  24  43  70  95 129 170 222 271 326 384
#     4   9  19  35  64  94 121 163 218 266 314 373
#     4  11  22  42  64  96 132 171 217 267 327 390
#     4  11  23  42  67  96 127 168 224 267 319 389
#     4  10  21  42  65  93 130 171 221 266 322 384
#
# _framework density 27.300229000000002
#
# number of rings (size 3 to 8) (size 9 to 14) (size 15 to 20)
#    0.000    1.429    1.429    4.714    0.000    0.571 
#   10.286    0.714    0.000    0.000    0.000    0.000 
#    0.000    0.000    0.000    0.000    0.000    0.000 
#
# Total GULP energy -78067.355163 kJ/mol
# GULP energy per Si atom -5576.239654 kJ/mol
# Density = 2.723809 g / cm^3
# Si number density = 27.300229 Si / 1000 Ang^3
#
#
#
# Elastic Constant Matrix: (Units=GPa)
#
#
# Indices 1 2 3 4 5 6 
#
# 1 52.4378 20.0852 -11.2863 23.1250 4.5554 8.0493
# 2 20.0852 190.0630 29.1539 -5.8844 24.9438 2.6145
# 3 -11.2863 29.1539 63.4472 20.6875 -1.4164 -0.5509
# 4 23.1250 -5.8844 20.6875 60.5328 3.4637 4.1783
# 5 4.5554 24.9438 -1.4164 3.4637 41.2216 8.1111
# 6 8.0493 2.6145 -0.5509 4.1783 8.1111 45.1756
#
#
#
# Elastic Compliance Matrix: (Units=1/GPa)
#
#
# Indices 1 2 3 4 5 6 
#
# 1 0.033490 -0.006821 0.015174 -0.018539 0.003347 -0.004274
# 2 -0.006821 0.007850 -0.006853 0.005923 -0.004929 0.001015
# 3 0.015174 -0.006853 0.026872 -0.015835 0.005002 -0.001413
# 4 -0.018539 0.005923 -0.015835 0.029802 -0.004754 0.000864
# 5 0.003347 -0.004929 0.005002 -0.004754 0.028409 -0.004911
# 6 -0.004274 0.001015 -0.001413 0.000864 -0.004911 0.023623
#
#
# Mechanical properties :
#
#
# Convention : Reuss Voigt Hill
#
# Bulk Modulus (GPa) = 14.04249 42.42815 28.23532
# Shear Modulus (GPa) = 29.27688 47.25235 38.26461
#
# Velocity S-wave (km/s) = 3.27831 4.16485 3.74789
# Velocity P-wave (km/s) = 4.41414 6.22118 5.39387
#
# Compressibility (1/GPa) = 0.07121243
#
# Stress axis : x y z
#
# Youngs Moduli (GPa) = 29.85968 127.39393 37.21359
#
# Poissons Ratio (x) = 0.86897 -0.56469
# Poissons Ratio (y) = 0.20368 0.25501
# Poissons Ratio (z) = -0.45310 0.87299
#
# Static dielectric constant tensor:
#      x y z
#    x 2.313480 -0.009350 -0.045480 
#    y -0.009350 2.238770 -0.022430 
#    z -0.045480 -0.022430 2.233880 
# 
# From -- ./inp_files/295932.got.cif
#   From: 2010.05.17/outbox.cif.g08.bks.cpg/sg2_148_cif.got.tgz:295932.got - 2010.06.03 11:33:40.
