data_PCOD9091473
_publ_section_title
;
Structure prediction by ZEFSAII (Michael W. Deem and Ramdas Pophale) SiO2 
 PCOD9091473
Probable space group: P -1
;
_chemical_formula_sum "Si O2"
_cell_formula_units_Z 16
_cell_length_a 12.426445
_cell_length_b 17.479664
_cell_length_c 24.516363
_cell_angle_alpha 17.046328
_cell_angle_beta 23.175760
_cell_angle_gamma 28.649598
_cell_volume 614.316170
_symmetry_space_group_name_H-M "P -1"
_symmetry_group_IT_number 2
_symmetry_cell_setting 'triclinic'
loop_
_space_group_symop_operation_xyz
x,y,z
-x,-y,-z
loop_
_atom_site_type_symbol
_atom_site_label
_atom_site_fract_x
_atom_site_fract_y
_atom_site_fract_z
Si Si1 0.858928 0.022838 0.254689
Si Si2 0.793847 0.233892 0.649852
Si Si3 0.348854 0.234291 0.673110
Si Si4 0.107531 0.951452 0.072334
Si Si5 0.671510 0.755920 0.679732
Si Si6 0.702007 0.771856 0.781869
Si Si7 0.035097 0.560423 0.859954
Si Si8 0.598866 0.693964 0.064909
O O1 0.529389 0.030923 0.399433
O O2 0.940121 0.266520 0.089163
O O3 0.043356 0.794321 0.349809
O O4 0.951406 0.055828 0.126649
O O5 0.590285 0.470250 0.573115
O O6 0.044421 0.263729 0.470309
O O7 0.631047 0.969688 0.892677
O O8 0.097286 0.165592 0.796910
O O9 0.559757 0.011005 0.714155
O O10 0.262721 0.186470 0.808356
O O11 0.311013 0.721276 0.151519
O O12 0.730099 0.817492 0.673502
O O13 0.501072 0.482223 0.943748
O O14 0.974733 0.709250 0.731003
O O15 0.830003 0.669377 0.927248
O O16 0.329458 0.528668 0.772779
#
# Coordination Sequence:
#
# PCOD9091473 Si02
#       8
#     2   2   2   2   2   2   2   2
#     4  10  22  40  65  96 122 166 214 261 306 369
#     4  11  25  39  59  96 138 159 198 266 328 356
#     4  11  23  39  64 101 123 165 209 260 314 368
#     4  11  22  41  69  91 123 172 216 243 307 388
#     4  10  20  38  65  92 126 160 212 267 305 365
#     4  10  19  39  66  93 118 166 220 251 301 382
#     4   9  20  39  65  87 119 167 219 247 294 381
#     4  10  22  43  63  91 127 170 208 254 314 375
#
# _framework density 26.045221000000002
#
# number of rings (size 3 to 8) (size 9 to 14) (size 15 to 20)
#    0.000    1.750    2.500    1.875    5.250    3.000 
#    2.250    1.875    2.750    0.000    0.000    0.000 
#    0.000    0.000    0.000    0.000    0.000    0.000 
#
# Total GULP energy -89649.949983 kJ/mol
# GULP energy per Si atom -5603.121874 kJ/mol
# Density = 2.598594 g / cm^3
# Si number density = 26.045221 Si / 1000 Ang^3
#
#
#
# Elastic Constant Matrix: (Units=GPa)
#
#
# Indices 1 2 3 4 5 6 
#
# 1 114.1731 20.4178 45.0007 -19.4117 28.7237 -17.1024
# 2 20.4178 89.4472 27.7834 -22.2450 13.7308 -14.4342
# 3 45.0007 27.7834 56.8740 -9.9426 0.8659 1.1511
# 4 -19.4117 -22.2450 -9.9426 40.2554 4.7303 9.3852
# 5 28.7237 13.7308 0.8659 4.7303 42.1122 -0.4006
# 6 -17.1024 -14.4342 1.1511 9.3852 -0.4006 57.8110
#
#
#
# Elastic Compliance Matrix: (Units=1/GPa)
#
#
# Indices 1 2 3 4 5 6 
#
# 1 0.022864 0.007704 -0.019801 0.010935 -0.018860 0.007176
# 2 0.007704 0.019153 -0.013418 0.011180 -0.012428 0.005427
# 3 -0.019801 -0.013418 0.038384 -0.007572 0.017860 -0.008619
# 4 0.010935 0.011180 -0.007572 0.036137 -0.015005 0.000207
# 5 -0.018860 -0.012428 0.017860 -0.015005 0.041920 -0.006311
# 6 0.007176 0.005427 -0.008619 0.000207 -0.006311 0.020870
#
#
# Mechanical properties :
#
#
# Convention : Reuss Voigt Hill
#
# Bulk Modulus (GPa) = 34.04781 49.65535 41.85158
# Shear Modulus (GPa) = 20.82046 39.18854 30.00450
#
# Velocity S-wave (km/s) = 2.83043 3.88317 3.39782
# Velocity P-wave (km/s) = 4.87675 6.26193 5.61224
#
# Compressibility (1/GPa) = 0.02937046
#
# Stress axis : x y z
#
# Youngs Moduli (GPa) = 43.73661 52.21120 26.05285
#
# Poissons Ratio (x) = -0.40223 0.51587
# Poissons Ratio (y) = -0.33694 0.34958
# Poissons Ratio (z) = 0.86602 0.70058
#
# Static dielectric constant tensor:
#      x y z
#    x 2.001690 -0.038540 0.010190 
#    y -0.038540 2.041810 -0.054810 
#    z 0.010190 -0.054810 2.123940 
# 
# From -- ./inp_files/392450.got.cif
#   From: 2010.05.17/outbox.cif.g08.bks.cpg/sg2_197_cif.got.tgz:392450.got - 2010.06.03 11:33:40.
