data_PCOD9091680
_publ_section_title
;
Structure prediction by ZEFSAII (Michael W. Deem and Ramdas Pophale) SiO2 
 PCOD9091680
Probable space group: P -1
;
_chemical_formula_sum "Si O2"
_cell_formula_units_Z 16
_cell_length_a 16.023142
_cell_length_b 7.034217
_cell_length_c 9.547117
_cell_angle_alpha 79.664626
_cell_angle_beta 102.291815
_cell_angle_gamma 138.768797
_cell_volume 692.659138
_symmetry_space_group_name_H-M "P -1"
_symmetry_group_IT_number 2
_symmetry_cell_setting 'triclinic'
loop_
_space_group_symop_operation_xyz
x,y,z
-x,-y,-z
loop_
_atom_site_type_symbol
_atom_site_label
_atom_site_fract_x
_atom_site_fract_y
_atom_site_fract_z
Si Si1 0.922913 0.612973 0.585699
Si Si2 0.498935 0.316904 0.919436
Si Si3 0.221227 0.168825 0.105274
Si Si4 0.017924 0.307073 0.083558
Si Si5 0.386372 0.234197 0.592255
Si Si6 0.644217 0.175898 0.554923
Si Si7 0.701647 0.150822 0.890541
Si Si8 0.859034 0.048597 0.584294
O O1 0.987871 0.729591 0.746297
O O2 0.788736 0.502851 0.552724
O O3 0.892238 0.330274 0.595358
O O4 0.016890 0.823947 0.465401
O O5 0.644568 0.500164 0.919016
O O6 0.437878 0.289060 0.757352
O O7 0.500000 0.500000 0.000000
O O8 0.401404 0.011171 0.002281
O O9 0.257695 0.005181 0.103183
O O10 0.096546 0.999359 0.990439
O O11 0.182729 0.111580 0.261932
O O12 0.166442 0.516986 0.073733
O O13 0.000000 0.500000 0.000000
O O14 0.500000 0.500000 0.500000
O O15 0.346967 0.968174 0.544128
O O16 0.261537 0.153812 0.537259
O O17 0.500000 0.000000 0.500000
O O18 0.643801 0.113772 0.725730
#
# Coordination Sequence:
#
# PCOD9091680 Si02
#       8
#     2   2   2   2   2   2   2   2
#     4   9  18  29  46  77 102 135 174 220 269 316
#     4  10  20  29  47  77 114 137 173 215 273 330
#     4  10  16  29  44  77 110 135 162 217 276 319
#     4   9  15  25  43  65 103 133 164 205 271 311
#     4  11  19  33  53  82 109 144 174 221 278 315
#     4  10  20  38  57  76 107 145 183 225 264 321
#     4   9  17  32  46  75 103 135 182 217 261 321
#     4  10  17  27  47  75 111 125 172 225 267 313
#
# _framework density 23.099387
#
# number of rings (size 3 to 8) (size 9 to 14) (size 15 to 20)
#    0.000    2.250    6.250    0.750    5.250    1.000 
#    0.000    0.625    0.000    0.750    0.000    4.375 
#    0.000    0.000    0.000    0.000    0.000    0.000 
#
# Total GULP energy -89300.891337 kJ/mol
# GULP energy per Si atom -5581.305709 kJ/mol
# Density = 2.304681 g / cm^3
# Si number density = 23.099387 Si / 1000 Ang^3
#
#
#
# Elastic Constant Matrix: (Units=GPa)
#
#
# Indices 1 2 3 4 5 6 
#
# 1 85.6874 43.9597 44.8198 4.1614 2.9016 26.6300
# 2 43.9597 169.0982 121.1856 1.9300 0.0863 47.3390
# 3 44.8198 121.1856 188.8677 13.2249 -9.9204 34.1474
# 4 4.1614 1.9300 13.2249 55.2997 16.8360 -2.9934
# 5 2.9016 0.0863 -9.9204 16.8360 21.2716 2.5331
# 6 26.6300 47.3390 34.1474 -2.9934 2.5331 51.6212
#
#
#
# Elastic Compliance Matrix: (Units=1/GPa)
#
#
# Indices 1 2 3 4 5 6 
#
# 1 0.015000 -0.000834 -0.002140 -0.000205 -0.002228 -0.005460
# 2 -0.000834 0.013385 -0.007661 0.002528 -0.004752 -0.006397
# 3 -0.002140 -0.007661 0.011719 -0.005502 0.010196 -0.000442
# 4 -0.000205 0.002528 -0.005502 0.026983 -0.024403 0.004189
# 5 -0.002228 -0.004752 0.010196 -0.024403 0.072141 -0.006192
# 6 -0.005460 -0.006397 -0.000442 0.004189 -0.006192 0.028895
#
#
# Mechanical properties :
#
#
# Convention : Reuss Voigt Hill
#
# Bulk Modulus (GPa) = 53.09305 95.95373 74.52339
# Shear Modulus (GPa) = 25.55338 41.21770 33.38554
#
# Velocity S-wave (km/s) = 3.32962 4.22876 3.80583
# Velocity P-wave (km/s) = 6.14950 8.09153 7.18642
#
# Compressibility (1/GPa) = 0.01883486
#
# Stress axis : x y z
#
# Youngs Moduli (GPa) = 66.66758 74.71118 85.33405
#
# Poissons Ratio (x) = 0.06227 0.18263
# Poissons Ratio (y) = 0.05557 0.65370
# Poissons Ratio (z) = 0.14268 0.57233
#
# Static dielectric constant tensor:
#      x y z
#    x 1.977480 -0.011430 0.017190 
#    y -0.011430 1.943420 0.003040 
#    z 0.017190 0.003040 1.770860 
# 
# From -- ./inp_files/344615.got.cif
#   From: 2010.05.17/outbox.cif.g08.bks.cpg/sg2_173_cif.got.tgz:344615.got - 2010.06.03 11:33:40.
