data_PCOD9091039
_publ_section_title
;
Structure prediction by ZEFSAII (Michael W. Deem and Ramdas Pophale) SiO2 
 PCOD9091039
Probable space group: P -1
;
_chemical_formula_sum "Si O2"
_cell_formula_units_Z 16
_cell_length_a 14.454474
_cell_length_b 8.617307
_cell_length_c 8.591491
_cell_angle_alpha 66.517300
_cell_angle_beta 91.919514
_cell_angle_gamma 50.404163
_cell_volume 690.923942
_symmetry_space_group_name_H-M "P -1"
_symmetry_group_IT_number 2
_symmetry_cell_setting 'triclinic'
loop_
_space_group_symop_operation_xyz
x,y,z
-x,-y,-z
loop_
_atom_site_type_symbol
_atom_site_label
_atom_site_fract_x
_atom_site_fract_y
_atom_site_fract_z
Si Si1 0.619730 0.311271 0.201140
Si Si2 0.927004 0.589618 0.127265
Si Si3 0.492160 0.695958 0.287639
Si Si4 0.795760 0.091710 0.849214
Si Si5 0.338591 0.191774 0.092182
Si Si6 0.789332 0.317542 0.034116
Si Si7 0.576136 0.073803 0.509616
Si Si8 0.973339 0.879833 0.663251
O O1 0.598849 0.465153 0.284031
O O2 0.751005 0.194923 0.168144
O O3 0.618088 0.125244 0.343381
O O4 0.500000 0.500000 0.000000
O O5 0.780382 0.701149 0.068006
O O6 0.892836 0.832351 0.048003
O O7 0.006380 0.335767 0.320156
O O8 0.000000 0.500000 0.000000
O O9 0.351122 0.794145 0.201980
O O10 0.508206 0.689564 0.477679
O O11 0.470196 0.923761 0.156884
O O12 0.800526 0.259178 0.878039
O O13 0.840994 0.054189 0.688297
O O14 0.310906 0.132524 0.281197
O O15 0.330098 0.398517 0.048918
O O16 0.916529 0.234088 0.150427
O O17 0.500000 0.000000 0.500000
O O18 0.000000 0.000000 0.500000
#
# Coordination Sequence:
#
# PCOD9091039 Si02
#       8
#     2   2   2   2   2   2   2   2
#     4  12  23  38  60  92 123 156 203 250 295 361
#     4   8  16  34  60  81 110 153 194 238 291 352
#     4   9  21  38  64  82 118 163 203 238 304 350
#     4  10  19  39  63  83 118 162 201 239 302 357
#     4   8  19  37  55  82 115 159 197 235 295 349
#     4  11  22  38  61  88 125 155 200 247 300 352
#     4  10  22  40  58  83 120 160 201 245 296 353
#     4  10  22  38  61  91 118 153 201 249 297 353
#
# _framework density 23.157399000000002
#
# number of rings (size 3 to 8) (size 9 to 14) (size 15 to 20)
#    0.750    1.500    1.250    1.500    1.750    0.500 
#    0.000    1.875    0.000    0.000    0.000    0.000 
#    0.000    0.000    0.000    0.000    0.000    0.000 
#
# Total GULP energy -89106.161098 kJ/mol
# GULP energy per Si atom -5569.135069 kJ/mol
# Density = 2.310469 g / cm^3
# Si number density = 23.157399 Si / 1000 Ang^3
#
#
#
# Elastic Constant Matrix: (Units=GPa)
#
#
# Indices 1 2 3 4 5 6 
#
# 1 48.8309 7.4127 14.8007 0.0147 -8.4548 6.5041
# 2 7.4127 90.3925 10.5627 -4.5469 -4.5227 15.1454
# 3 14.8007 10.5627 88.4814 -14.5734 -31.5414 5.7841
# 4 0.0147 -4.5469 -14.5734 24.4555 7.9911 -6.1480
# 5 -8.4548 -4.5227 -31.5414 7.9911 43.1950 1.4048
# 6 6.5041 15.1454 5.7841 -6.1480 1.4048 28.8646
#
#
#
# Elastic Compliance Matrix: (Units=1/GPa)
#
#
# Indices 1 2 3 4 5 6 
#
# 1 0.022725 -0.000699 -0.002942 -0.004250 0.003183 -0.005225
# 2 -0.000699 0.012277 -0.000616 0.000070 0.000887 -0.006189
# 3 -0.002942 -0.000616 0.016703 0.006011 0.010496 -0.001591
# 4 -0.004250 0.000070 0.006011 0.049023 -0.005844 0.010443
# 5 0.003183 0.000887 0.010496 -0.005844 0.032812 -0.006128
# 6 -0.005225 -0.006189 -0.001591 0.010443 -0.006128 0.041910
#
#
# Mechanical properties :
#
#
# Convention : Reuss Voigt Hill
#
# Bulk Modulus (GPa) = 23.15294 32.58408 27.86851
# Shear Modulus (GPa) = 25.20652 32.29829 28.75240
#
# Velocity S-wave (km/s) = 3.30280 3.73866 3.52747
# Velocity P-wave (km/s) = 4.95625 5.72171 5.35268
#
# Compressibility (1/GPa) = 0.04319106
#
# Stress axis : x y z
#
# Youngs Moduli (GPa) = 44.00463 81.45248 59.86889
#
# Poissons Ratio (x) = 0.05693 0.17611
# Poissons Ratio (y) = 0.03076 0.03690
# Poissons Ratio (z) = 0.12945 0.05021
#
# Static dielectric constant tensor:
#      x y z
#    x 1.883190 0.032580 -0.008930 
#    y 0.032580 1.934600 -0.043500 
#    z -0.008930 -0.043500 1.992430 
# 
# From -- ./inp_files/327314.got.cif
#   From: 2010.05.17/outbox.cif.g08.bks.cpg/sg2_164_cif.got.tgz:327314.got - 2010.06.03 11:33:40.
