data_PCOD9091983
_publ_section_title
;
Structure prediction by ZEFSAII (Michael W. Deem and Ramdas Pophale) SiO2 
 PCOD9091983
Probable space group: P -1
;
_chemical_formula_sum "Si O2"
_cell_formula_units_Z 16
_cell_length_a 9.297701
_cell_length_b 9.145060
_cell_length_c 12.733751
_cell_angle_alpha 127.929521
_cell_angle_beta 105.524582
_cell_angle_gamma 68.704777
_cell_volume 794.253490
_symmetry_space_group_name_H-M "P -1"
_symmetry_group_IT_number 2
_symmetry_cell_setting 'triclinic'
loop_
_space_group_symop_operation_xyz
x,y,z
-x,-y,-z
loop_
_atom_site_type_symbol
_atom_site_label
_atom_site_fract_x
_atom_site_fract_y
_atom_site_fract_z
Si Si1 0.914355 0.009320 0.763657
Si Si2 0.913042 0.413072 0.035736
Si Si3 0.681254 0.411229 0.504521
Si Si4 0.065862 0.389502 0.285356
Si Si5 0.866433 0.008742 0.394515
Si Si6 0.251013 0.430079 0.605710
Si Si7 0.397479 0.016817 0.382392
Si Si8 0.665825 0.712942 0.221546
O O1 0.759848 0.048837 0.679001
O O2 0.905872 0.199249 0.912717
O O3 0.919769 0.821334 0.753844
O O4 0.056451 0.985935 0.701434
O O5 0.004655 0.401087 0.159110
O O6 0.740165 0.554481 0.079924
O O7 0.000000 0.500000 0.000000
O O8 0.500000 0.500000 0.500000
O O9 0.728982 0.199766 0.468586
O O10 0.735343 0.396382 0.386983
O O11 0.781440 0.534711 0.639442
O O12 0.929045 0.538373 0.389130
O O13 0.796097 0.828675 0.312161
O O14 0.000000 0.000000 0.500000
O O15 0.327463 0.246437 0.467566
O O16 0.338584 0.400761 0.720581
O O17 0.500000 0.000000 0.500000
O O18 0.507901 0.882604 0.258621
#
# Coordination Sequence:
#
# PCOD9091983 Si02
#       8
#     2   2   2   2   2   2   2   2
#     4  12  23  40  69  87 125 177 214 258 312 383
#     4  11  24  45  64  90 119 173 231 265 301 374
#     4  12  24  38  66 101 135 162 203 270 345 386
#     4  11  23  43  64  92 128 166 218 263 311 391
#     4  12  23  37  63 100 128 170 214 262 329 385
#     4  10  19  40  64  92 129 165 202 260 325 390
#     4  10  20  37  62  97 129 159 197 262 336 384
#     4  10  22  40  62  89 134 162 209 268 314 380
#
# _framework density 20.144703
#
# number of rings (size 3 to 8) (size 9 to 14) (size 15 to 20)
#    0.000    1.000    3.750    5.250    0.000    1.500 
#    0.000    0.000    0.000    1.500    0.000    0.000 
#    0.000    0.000    0.000    0.000    0.000    0.000 
#
# Total GULP energy -89219.957678 kJ/mol
# GULP energy per Si atom -5576.247355 kJ/mol
# Density = 2.009885 g / cm^3
# Si number density = 20.144703 Si / 1000 Ang^3
#
#
#
# Elastic Constant Matrix: (Units=GPa)
#
#
# Indices 1 2 3 4 5 6 
#
# 1 96.2487 23.4322 32.0497 7.7266 -8.4754 -21.0363
# 2 23.4322 107.0108 48.5281 11.1402 -2.2211 -7.1563
# 3 32.0497 48.5281 65.2672 11.0975 -17.1971 -10.9420
# 4 7.7266 11.1402 11.0975 39.3469 -5.3160 -9.1544
# 5 -8.4754 -2.2211 -17.1971 -5.3160 35.3561 4.5748
# 6 -21.0363 -7.1563 -10.9420 -9.1544 4.5748 37.9138
#
#
#
# Elastic Compliance Matrix: (Units=1/GPa)
#
#
# Indices 1 2 3 4 5 6 
#
# 1 0.013573 0.000025 -0.005815 0.000316 -0.000298 0.005970
# 2 0.000025 0.014947 -0.012312 -0.001579 -0.005220 -0.000469
# 3 -0.005815 -0.012312 0.031236 -0.002158 0.012516 0.001433
# 4 0.000316 -0.001579 -0.002158 0.028069 0.002404 0.005742
# 5 -0.000298 -0.005220 0.012516 0.002404 0.034478 -0.001118
# 6 0.005970 -0.000469 0.001433 0.005742 -0.001118 0.031534
#
#
# Mechanical properties :
#
#
# Convention : Reuss Voigt Hill
#
# Bulk Modulus (GPa) = 42.45751 52.94965 47.70358
# Shear Modulus (GPa) = 25.26616 33.49115 29.37866
#
# Velocity S-wave (km/s) = 3.54536 4.08184 3.82302
# Velocity P-wave (km/s) = 6.15479 6.96828 6.57413
#
# Compressibility (1/GPa) = 0.02355296
#
# Stress axis : x y z
#
# Youngs Moduli (GPa) = 73.67448 66.90241 32.01401
#
# Poissons Ratio (x) = -0.00169 0.18618
# Poissons Ratio (y) = -0.00186 0.39414
# Poissons Ratio (z) = 0.42845 0.82368
#
# Static dielectric constant tensor:
#      x y z
#    x 1.757420 -0.018960 -0.030870 
#    y -0.018960 1.758600 0.009640 
#    z -0.030870 0.009640 1.727980 
# 
# From -- ./inp_files/383584.got.cif
#   From: 2010.05.17/outbox.cif.g08.bks.cpg/sg2_192_cif.got.tgz:383584.got - 2010.06.03 11:33:40.
