data_PCOD9091566
_publ_section_title
;
Structure prediction by ZEFSAII (Michael W. Deem and Ramdas Pophale) SiO2 
 PCOD9091566
Probable space group: P -1
;
_chemical_formula_sum "Si O2"
_cell_formula_units_Z 15
_cell_length_a 8.335052
_cell_length_b 9.666046
_cell_length_c 19.546888
_cell_angle_alpha 43.919752
_cell_angle_beta 43.154959
_cell_angle_gamma 29.750066
_cell_volume 516.658193
_symmetry_space_group_name_H-M "P -1"
_symmetry_group_IT_number 2
_symmetry_cell_setting 'triclinic'
loop_
_space_group_symop_operation_xyz
x,y,z
-x,-y,-z
loop_
_atom_site_type_symbol
_atom_site_label
_atom_site_fract_x
_atom_site_fract_y
_atom_site_fract_z
Si Si1 0.308288 0.860390 0.536844
Si Si2 0.250309 0.365162 0.405179
Si Si3 0.848461 0.517401 0.206936
Si Si4 0.123906 0.047324 0.194841
Si Si5 0.500000 0.000000 0.000000
Si Si6 0.540797 0.186134 0.637834
Si Si7 0.962970 0.177690 0.008599
Si Si8 0.546132 0.217420 0.234288
O O1 0.535146 0.682293 0.462210
O O2 0.924045 0.805291 0.772859
O O3 0.318980 0.092241 0.462132
O O4 0.923812 0.031789 0.583441
O O5 0.530629 0.315081 0.380134
O O6 0.242604 0.456333 0.297375
O O7 0.000000 0.500000 0.500000
O O8 0.698728 0.600759 0.300886
O O9 0.518185 0.737476 0.180306
O O10 0.049133 0.596175 0.101948
O O11 0.864105 0.040627 0.252743
O O12 0.134793 0.218888 0.076593
O O13 0.321472 0.956883 0.015916
O O14 0.517513 0.961124 0.714599
O O15 0.660715 0.292991 0.111587
O O16 0.000000 0.000000 0.000000
#
# Coordination Sequence:
#
# PCOD9091566 Si02
#       8
#     2   2   2   2   1   2   2   2
#     4   9  21  41  64  93 133 173 227 284 348 411
#     4  10  21  40  66  93 126 175 229 282 342 416
#     4  11  23  43  71 100 141 184 235 284 352 407
#     4  10  23  42  69  97 137 186 235 285 338 422
#     4   8  20  38  62  92 132 178 230 270 346 392
#     4  10  20  41  66  97 136 176 225 288 354 414
#     4  10  19  39  67  94 140 179 233 288 345 421
#     4  10  21  40  65  98 132 177 231 281 354 414
#
# _framework density 29.032730999999998
#
# number of rings (size 3 to 8) (size 9 to 14) (size 15 to 20)
#    0.000    2.133    1.333    0.800    1.867    4.800 
#    4.800    6.000    0.000    0.000    0.000    0.000 
#    0.000    0.000    0.000    0.000    0.000    0.000 
#
# Total GULP energy -83662.294719 kJ/mol
# GULP energy per Si atom -5577.486315 kJ/mol
# Density = 2.896665 g / cm^3
# Si number density = 29.032731 Si / 1000 Ang^3
#
#
#
# Elastic Constant Matrix: (Units=GPa)
#
#
# Indices 1 2 3 4 5 6 
#
# 1 197.1544 45.7249 42.5963 14.8900 -34.9714 35.5907
# 2 45.7249 129.1123 57.7227 27.9523 -1.3641 36.1218
# 3 42.5963 57.7227 198.2126 43.9244 -14.5684 29.2249
# 4 14.8900 27.9523 43.9244 57.3638 17.3568 17.4675
# 5 -34.9714 -1.3641 -14.5684 17.3568 48.3268 6.9139
# 6 35.5907 36.1218 29.2249 17.4675 6.9139 53.7766
#
#
#
# Elastic Compliance Matrix: (Units=1/GPa)
#
#
# Indices 1 2 3 4 5 6 
#
# 1 0.007486 -0.000912 0.000434 -0.002564 0.007110 -0.004659
# 2 -0.000912 0.010730 -0.001577 -0.002486 0.000781 -0.005040
# 3 0.000434 -0.001577 0.007354 -0.005854 0.004868 -0.001949
# 4 -0.002564 -0.002486 -0.005854 0.028195 -0.013695 -0.000849
# 5 0.007110 0.000781 0.004868 -0.013695 0.033349 -0.007715
# 6 -0.004659 -0.005040 -0.001949 -0.000849 -0.007715 0.027391
#
#
# Mechanical properties :
#
#
# Convention : Reuss Voigt Hill
#
# Bulk Modulus (GPa) = 46.59889 90.72969 68.66429
# Shear Modulus (GPa) = 39.75656 57.12246 48.43951
#
# Velocity S-wave (km/s) = 3.70451 4.44048 4.08909
# Velocity P-wave (km/s) = 5.86372 7.59007 6.78205
#
# Compressibility (1/GPa) = 0.02145974
#
# Stress axis : x y z
#
# Youngs Moduli (GPa) = 133.59115 93.20043 135.98883
#
# Poissons Ratio (x) = 0.08495 -0.05908
# Poissons Ratio (y) = 0.12177 0.21451
# Poissons Ratio (z) = -0.05804 0.14701
#
# Static dielectric constant tensor:
#      x y z
#    x 2.435530 0.014320 0.092800 
#    y 0.014320 2.093540 0.295040 
#    z 0.092800 0.295040 2.112280 
# 
# From -- ./inp_files/586566.got.cif
#   From: 2010.05.17/outbox.cif.g08.bks.cpg/sg2_294_cif.got.tgz:586566.got - 2010.06.03 11:33:40.
