data_PCOD9091833
_publ_section_title
;
Structure prediction by ZEFSAII (Michael W. Deem and Ramdas Pophale) SiO2 
 PCOD9091833
Probable space group: P -1
;
_chemical_formula_sum "Si O2"
_cell_formula_units_Z 16
_cell_length_a 14.238349
_cell_length_b 23.725476
_cell_length_c 8.411916
_cell_angle_alpha 50.178441
_cell_angle_beta 126.272397
_cell_angle_gamma 159.193373
_cell_volume 775.001958
_symmetry_space_group_name_H-M "P -1"
_symmetry_group_IT_number 2
_symmetry_cell_setting 'triclinic'
loop_
_space_group_symop_operation_xyz
x,y,z
-x,-y,-z
loop_
_atom_site_type_symbol
_atom_site_label
_atom_site_fract_x
_atom_site_fract_y
_atom_site_fract_z
Si Si1 0.036625 0.227953 0.248530
Si Si2 0.795906 0.533548 0.825220
Si Si3 0.623681 0.293282 0.647681
Si Si4 0.045149 0.326915 0.778312
Si Si5 0.278629 0.814502 0.584833
Si Si6 0.759689 0.362944 0.285156
Si Si7 0.535576 0.102183 0.796930
Si Si8 0.460089 0.345985 0.505582
O O1 0.174886 0.375788 0.206166
O O2 0.202962 0.249955 0.411096
O O3 0.727059 0.039690 0.319201
O O4 0.044036 0.256790 0.018648
O O5 0.601866 0.434105 0.659687
O O6 0.091754 0.691088 0.768791
O O7 0.717841 0.415717 0.055089
O O8 0.646017 0.307540 0.450741
O O9 0.515312 0.150835 0.824662
O O10 0.435966 0.246657 0.622148
O O11 0.921992 0.470399 0.690176
O O12 0.902248 0.242848 0.618528
O O13 0.850483 0.278572 0.749299
O O14 0.338926 0.516045 0.684205
O O15 0.348384 0.773201 0.658288
O O16 0.500000 0.000000 0.500000
O O17 0.500000 0.000000 0.000000
#
# Coordination Sequence:
#
# PCOD9091833 Si02
#       8
#     2   2   2   2   2   2   2   2
#     4  11  23  39  62  88 126 161 209 249 309 363
#     4  11  23  38  60  89 126 166 203 254 309 367
#     4  11  20  37  63  84 126 155 211 249 305 370
#     4  10  19  40  61  91 112 159 205 250 299 359
#     4  11  22  37  61  96 128 149 201 263 320 356
#     4  11  21  39  62  92 122 162 200 263 306 363
#     4  10  20  36  61  92 117 154 201 262 310 344
#     4  11  23  39  59  91 122 165 205 251 300 373
#
# _framework density 20.645109000000001
#
# number of rings (size 3 to 8) (size 9 to 14) (size 15 to 20)
#    0.000    1.250    3.750    4.875    0.000    1.500 
#    0.000    0.000    0.000    0.750    0.000    0.000 
#    0.000    0.000    0.000    0.000    0.000    0.000 
#
# Total GULP energy -89149.960532 kJ/mol
# GULP energy per Si atom -5571.872533 kJ/mol
# Density = 2.059812 g / cm^3
# Si number density = 20.645109 Si / 1000 Ang^3
#
#
#
# Elastic Constant Matrix: (Units=GPa)
#
#
# Indices 1 2 3 4 5 6 
#
# 1 102.1840 53.3739 34.0098 9.7303 33.8617 -7.8568
# 2 53.3739 88.3462 31.2642 -2.5741 27.1524 -11.7083
# 3 34.0098 31.2642 80.1519 6.4397 18.8070 0.9819
# 4 9.7303 -2.5741 6.4397 25.7495 4.6471 12.1973
# 5 33.8617 27.1524 18.8070 4.6471 33.3184 -2.9095
# 6 -7.8568 -11.7083 0.9819 12.1973 -2.9095 33.6284
#
#
#
# Elastic Compliance Matrix: (Units=1/GPa)
#
#
# Indices 1 2 3 4 5 6 
#
# 1 0.018625 -0.006889 -0.002166 -0.006938 -0.010810 0.003598
# 2 -0.006889 0.019501 -0.003396 0.005512 -0.007513 0.002630
# 3 -0.002166 -0.003396 0.015797 -0.001937 -0.003833 -0.001779
# 4 -0.006938 0.005512 -0.001937 0.052535 -0.005348 -0.019163
# 5 -0.010810 -0.007513 -0.003833 -0.005348 0.050142 0.001248
# 6 0.003598 0.002630 -0.001779 -0.019163 0.001248 0.038603
#
#
# Mechanical properties :
#
#
# Convention : Reuss Voigt Hill
#
# Bulk Modulus (GPa) = 34.45654 56.44200 45.44927
# Shear Modulus (GPa) = 21.76019 28.67487 25.21753
#
# Velocity S-wave (km/s) = 3.25008 3.73090 3.49876
# Velocity P-wave (km/s) = 5.55069 6.77923 6.19549
#
# Compressibility (1/GPa) = 0.02902207
#
# Stress axis : x y z
#
# Youngs Moduli (GPa) = 53.69160 51.27997 63.30406
#
# Poissons Ratio (x) = 0.35324 0.13711
# Poissons Ratio (y) = 0.36986 0.21496
# Poissons Ratio (z) = 0.11629 0.17413
#
# Static dielectric constant tensor:
#      x y z
#    x 1.790130 -0.019950 -0.029270 
#    y -0.019950 1.779670 -0.039780 
#    z -0.029270 -0.039780 1.845590 
# 
# From -- ./inp_files/320282.got.cif
#   From: 2010.05.17/outbox.cif.g08.bks.cpg/sg2_161_cif.got.tgz:320282.got - 2010.06.03 11:33:40.
