data_PCOD9091632
_publ_section_title
;
Structure prediction by ZEFSAII (Michael W. Deem and Ramdas Pophale) SiO2 
 PCOD9091632
Probable space group: P -1
;
_chemical_formula_sum "Si O2"
_cell_formula_units_Z 16
_cell_length_a 8.878521
_cell_length_b 11.222623
_cell_length_c 8.807684
_cell_angle_alpha 94.819319
_cell_angle_beta 95.243593
_cell_angle_gamma 121.234957
_cell_volume 738.297987
_symmetry_space_group_name_H-M "P -1"
_symmetry_group_IT_number 2
_symmetry_cell_setting 'triclinic'
loop_
_space_group_symop_operation_xyz
x,y,z
-x,-y,-z
loop_
_atom_site_type_symbol
_atom_site_label
_atom_site_fract_x
_atom_site_fract_y
_atom_site_fract_z
Si Si1 0.174802 0.589518 0.131764
Si Si2 0.992530 0.868878 0.072217
Si Si3 0.300103 0.381910 0.179788
Si Si4 0.066880 0.443971 0.635233
Si Si5 0.648105 0.964607 0.997052
Si Si6 0.162673 0.234451 0.468884
Si Si7 0.406694 0.661782 0.874464
Si Si8 0.828776 0.940207 0.312725
O O1 0.246303 0.497062 0.204693
O O2 0.093764 0.636390 0.264498
O O3 0.332464 0.674252 0.032632
O O4 0.000000 0.500000 0.000000
O O5 0.948318 0.886269 0.239342
O O6 0.840104 0.726075 0.969033
O O7 0.185970 0.902348 0.056321
O O8 0.000000 0.000000 0.000000
O O9 0.263835 0.304516 0.329458
O O10 0.494428 0.424960 0.141389
O O11 0.135759 0.346839 0.567443
O O12 0.234388 0.581254 0.744264
O O13 0.000000 0.500000 0.500000
O O14 0.708501 0.940681 0.165570
O O15 0.566601 0.821947 0.876036
O O16 0.500000 0.000000 0.000000
O O17 0.256905 0.168655 0.568356
O O18 0.966811 0.099190 0.395225
#
# Coordination Sequence:
#
# PCOD9091632 Si02
#       8
#     2   2   2   2   2   2   2   2
#     4  10  25  41  66  94 129 176 223 277 325 388
#     4  10  19  39  68  95 123 173 220 269 327 376
#     4  12  21  43  69  95 133 174 225 274 328 404
#     4  11  25  45  64  94 136 184 211 269 347 405
#     4  11  23  38  69 100 132 165 226 286 323 383
#     4  11  23  40  70  93 142 176 220 259 345 407
#     4  11  25  42  67 101 126 172 235 277 325 389
#     4  10  22  41  66 101 126 179 224 270 325 402
#
# _framework density 21.671465999999999
#
# number of rings (size 3 to 8) (size 9 to 14) (size 15 to 20)
#    0.000    1.250    6.250    0.375    8.750    1.500 
#    2.250    0.000    0.000    3.000    0.000    0.000 
#    0.000    0.000    0.000    0.000    0.000    0.000 
#
# Total GULP energy -89273.507163 kJ/mol
# GULP energy per Si atom -5579.594198 kJ/mol
# Density = 2.162214 g / cm^3
# Si number density = 21.671466 Si / 1000 Ang^3
#
#
#
# Elastic Constant Matrix: (Units=GPa)
#
#
# Indices 1 2 3 4 5 6 
#
# 1 122.6781 7.2062 31.4983 -4.8011 3.0965 7.0547
# 2 7.2062 42.2778 38.9111 -3.3650 17.2946 -0.3203
# 3 31.4983 38.9111 110.1552 1.5963 2.0605 2.7108
# 4 -4.8011 -3.3650 1.5963 36.8613 -2.9475 0.2309
# 5 3.0965 17.2946 2.0605 -2.9475 37.4565 0.2021
# 6 7.0547 -0.3203 2.7108 0.2309 0.2021 31.0160
#
#
#
# Elastic Compliance Matrix: (Units=1/GPa)
#
#
# Indices 1 2 3 4 5 6 
#
# 1 0.009069 0.002216 -0.003326 0.001421 -0.001469 -0.001750
# 2 0.002216 0.048264 -0.017379 0.003740 -0.021226 0.001624
# 3 -0.003326 -0.017379 0.016085 -0.002131 0.007252 -0.000860
# 4 0.001421 0.003740 -0.002131 0.027786 0.000461 -0.000308
# 5 -0.001469 -0.021226 0.007252 0.000461 0.036261 -0.000759
# 6 -0.001750 0.001624 -0.000860 -0.000308 -0.000759 0.032739
#
#
# Mechanical properties :
#
#
# Convention : Reuss Voigt Hill
#
# Bulk Modulus (GPa) = 27.44377 47.81582 37.62980
# Shear Modulus (GPa) = 22.79693 34.23312 28.51503
#
# Velocity S-wave (km/s) = 3.24687 3.97878 3.63131
# Velocity P-wave (km/s) = 5.17178 6.57415 5.91467
#
# Compressibility (1/GPa) = 0.03643814
#
# Stress axis : x y z
#
# Youngs Moduli (GPa) = 110.27161 20.71950 62.17117
#
# Poissons Ratio (x) = -0.04591 0.20678
# Poissons Ratio (y) = -0.24436 1.08050
# Poissons Ratio (z) = 0.36675 0.36009
#
# Static dielectric constant tensor:
#      x y z
#    x 1.821890 -0.012860 -0.025570 
#    y -0.012860 1.910460 -0.042530 
#    z -0.025570 -0.042530 1.807250 
# 
# From -- ./inp_files/180374.got.cif
#   From: 2010.05.17/outbox.cif.g08.bks.cpg/sg2_91_cif.got.tgz:180374.got - 2010.06.03 11:33:40.
