data_PCOD9091909
_publ_section_title
;
Structure prediction by ZEFSAII (Michael W. Deem and Ramdas Pophale) SiO2 
 PCOD9091909
Probable space group: P -1
;
_chemical_formula_sum "Si O2"
_cell_formula_units_Z 16
_cell_length_a 7.900358
_cell_length_b 15.085968
_cell_length_c 6.404411
_cell_angle_alpha 72.673559
_cell_angle_beta 82.174423
_cell_angle_gamma 114.500151
_cell_volume 632.745356
_symmetry_space_group_name_H-M "P -1"
_symmetry_group_IT_number 2
_symmetry_cell_setting 'triclinic'
loop_
_space_group_symop_operation_xyz
x,y,z
-x,-y,-z
loop_
_atom_site_type_symbol
_atom_site_label
_atom_site_fract_x
_atom_site_fract_y
_atom_site_fract_z
Si Si1 0.771961 0.833927 0.034657
Si Si2 0.743341 0.189486 0.902124
Si Si3 0.742050 0.343768 0.148122
Si Si4 0.900131 0.532272 0.684318
Si Si5 0.174236 0.290296 0.580287
Si Si6 0.012206 0.891442 0.582805
Si Si7 0.537674 0.829543 0.411239
Si Si8 0.412006 0.046745 0.282123
O O1 0.700208 0.719720 0.240082
O O2 0.748042 0.885496 0.218301
O O3 0.658316 0.872030 0.867643
O O4 0.966374 0.861930 0.854371
O O5 0.618879 0.201144 0.725340
O O6 0.957256 0.231849 0.753126
O O7 0.761204 0.261750 0.047818
O O8 0.602397 0.072173 0.098228
O O9 0.547364 0.279263 0.363045
O O10 0.922468 0.392623 0.244169
O O11 0.759660 0.434604 0.923973
O O12 0.792668 0.595632 0.571951
O O13 0.000000 0.500000 0.500000
O O14 0.141233 0.213996 0.439113
O O15 0.222417 0.932834 0.410539
O O16 0.000000 0.000000 0.500000
O O17 0.539155 0.912186 0.519195
#
# Coordination Sequence:
#
# PCOD9091909 Si02
#       8
#     2   2   2   2   2   2   2   2
#     4  10  22  37  62  85 127 164 212 249 309 360
#     4  10  21  38  64  95 125 164 206 260 316 366
#     4  10  20  38  68  92 129 161 205 252 321 375
#     4  11  22  39  65  99 126 161 200 259 321 373
#     4  12  24  38  63  97 127 159 213 262 312 370
#     4  10  23  41  59  91 126 172 214 252 306 369
#     4  10  19  40  63  90 125 172 208 252 308 372
#     4   9  21  39  62  87 123 172 210 254 311 367
#
# _framework density 25.286632000000001
#
# number of rings (size 3 to 8) (size 9 to 14) (size 15 to 20)
#    0.000    1.750    2.500    1.500    1.750    6.000 
#    0.000    1.875    0.000   11.250    0.000    0.000 
#    0.000    0.000    0.000    0.000    0.000    0.000 
#
# Total GULP energy -89175.039598 kJ/mol
# GULP energy per Si atom -5573.439975 kJ/mol
# Density = 2.522908 g / cm^3
# Si number density = 25.286632 Si / 1000 Ang^3
#
#
#
# Elastic Constant Matrix: (Units=GPa)
#
#
# Indices 1 2 3 4 5 6 
#
# 1 57.7566 4.2747 23.6917 -4.2938 0.7420 -1.9805
# 2 4.2747 97.0794 47.4093 5.8510 9.6570 -3.6363
# 3 23.6917 47.4093 190.0348 -21.6236 -13.4188 -2.9015
# 4 -4.2938 5.8510 -21.6236 50.9512 -1.2683 8.1013
# 5 0.7420 9.6570 -13.4188 -1.2683 59.2561 -10.3026
# 6 -1.9805 -3.6363 -2.9015 8.1013 -10.3026 33.3731
#
#
#
# Elastic Compliance Matrix: (Units=1/GPa)
#
#
# Indices 1 2 3 4 5 6 
#
# 1 0.018321 0.000436 -0.002394 0.000362 -0.000728 0.000614
# 2 0.000436 0.012628 -0.003756 -0.003235 -0.002811 0.000993
# 3 -0.002394 -0.003756 0.007032 0.003275 0.002300 -0.000025
# 4 0.000362 -0.003235 0.003275 0.022265 0.000838 -0.005192
# 5 -0.000728 -0.002811 0.002300 0.000838 0.018831 0.005460
# 6 0.000614 0.000993 -0.000025 -0.005192 0.005460 0.033053
#
#
# Mechanical properties :
#
#
# Convention : Reuss Voigt Hill
#
# Bulk Modulus (GPa) = 37.66008 55.06912 46.36460
# Shear Modulus (GPa) = 37.76166 46.68242 42.22204
#
# Velocity S-wave (km/s) = 3.86857 4.30132 4.09068
# Velocity P-wave (km/s) = 5.90594 6.81863 6.37863
#
# Compressibility (1/GPa) = 0.02655331
#
# Stress axis : x y z
#
# Youngs Moduli (GPa) = 54.58220 79.19074 142.19858
#
# Poissons Ratio (x) = -0.03451 0.34037
# Poissons Ratio (y) = -0.02379 0.53411
# Poissons Ratio (z) = 0.13065 0.29745
#
# Static dielectric constant tensor:
#      x y z
#    x 2.202010 -0.100610 0.018920 
#    y -0.100610 2.020130 -0.034630 
#    z 0.018920 -0.034630 2.020750 
# 
# From -- ./inp_files/37945.got.cif
#   From: 2010.05.17/outbox.cif.g08.bks.cpg/sg2_19_cif.got.tgz:37945.got - 2010.06.03 11:33:40.
