data_PCOD9091646
_publ_section_title
;
Structure prediction by ZEFSAII (Michael W. Deem and Ramdas Pophale) SiO2 
 PCOD9091646
Probable space group: P -1
;
_chemical_formula_sum "Si O2"
_cell_formula_units_Z 16
_cell_length_a 5.337548
_cell_length_b 22.980237
_cell_length_c 9.270113
_cell_angle_alpha 136.839251
_cell_angle_beta 75.092685
_cell_angle_gamma 118.968763
_cell_volume 671.665791
_symmetry_space_group_name_H-M "P -1"
_symmetry_group_IT_number 2
_symmetry_cell_setting 'triclinic'
loop_
_space_group_symop_operation_xyz
x,y,z
-x,-y,-z
loop_
_atom_site_type_symbol
_atom_site_label
_atom_site_fract_x
_atom_site_fract_y
_atom_site_fract_z
Si Si1 0.692802 0.930591 0.482345
Si Si2 0.146427 0.170160 0.469015
Si Si3 0.978112 0.709394 0.071940
Si Si4 0.104436 0.564331 0.453623
Si Si5 0.521797 0.493329 0.307390
Si Si6 0.485239 0.768062 0.741711
Si Si7 0.393723 0.232471 0.972081
Si Si8 0.397205 0.014530 0.883634
O O1 0.710201 0.864496 0.488786
O O2 0.561948 0.860428 0.241319
O O3 0.548633 0.990073 0.682322
O O4 0.000000 0.000000 0.500000
O O5 0.003465 0.231431 0.677684
O O6 0.380138 0.235044 0.436856
O O7 0.927947 0.071239 0.244414
O O8 0.869949 0.764111 0.069152
O O9 0.268770 0.694670 0.981261
O O10 0.702161 0.606505 0.907415
O O11 0.413468 0.565148 0.384748
O O12 0.178750 0.675705 0.647238
O O13 0.000000 0.500000 0.500000
O O14 0.855805 0.517761 0.287611
O O15 0.500000 0.500000 0.500000
O O16 0.667373 0.764235 0.846007
O O17 0.516771 0.874418 0.935576
O O18 0.500000 0.000000 0.000000
#
# Coordination Sequence:
#
# PCOD9091646 Si02
#       8
#     2   2   2   2   2   2   2   2
#     4  11  25  45  66 101 144 188 241 302 347 431
#     4  11  26  47  63 107 149 186 244 295 368 439
#     4  11  23  45  73 103 144 190 236 307 365 427
#     4  10  22  42  65 104 138 177 244 300 350 428
#     4  10  19  39  68  97 135 176 236 300 358 415
#     4  12  26  43  72 104 142 199 240 302 366 433
#     4  11  24  41  69 105 139 185 243 289 359 428
#     4  12  26  45  72 102 150 194 242 294 365 438
#
# _framework density 23.821372
#
# number of rings (size 3 to 8) (size 9 to 14) (size 15 to 20)
#    0.000    1.000    2.500    4.875    5.250    2.000 
#    0.000    1.250    0.000    0.000    0.000    0.000 
#    0.000    0.000    0.000    0.000    0.000    0.000 
#
# Total GULP energy -89211.985342 kJ/mol
# GULP energy per Si atom -5575.749084 kJ/mol
# Density = 2.376715 g / cm^3
# Si number density = 23.821372 Si / 1000 Ang^3
#
#
#
# Elastic Constant Matrix: (Units=GPa)
#
#
# Indices 1 2 3 4 5 6 
#
# 1 98.7026 17.9024 -0.2022 5.3077 10.6913 -7.9702
# 2 17.9024 105.1227 37.1120 11.2652 -0.5630 7.0592
# 3 -0.2022 37.1120 85.4633 22.9208 6.9312 -3.9155
# 4 5.3077 11.2652 22.9208 44.8656 4.7493 2.3951
# 5 10.6913 -0.5630 6.9312 4.7493 41.9143 1.3955
# 6 -7.9702 7.0592 -3.9155 2.3951 1.3955 25.6371
#
#
#
# Elastic Compliance Matrix: (Units=1/GPa)
#
#
# Indices 1 2 3 4 5 6 
#
# 1 0.011532 -0.002939 0.002263 -0.001701 -0.003332 0.005080
# 2 -0.002939 0.012436 -0.005903 0.000312 0.002037 -0.005380
# 3 0.002263 -0.005903 0.016726 -0.007342 -0.002781 0.005721
# 4 -0.001701 0.000312 -0.007342 0.026512 -0.001214 -0.004147
# 5 -0.003332 0.002037 -0.002781 -0.001214 0.025442 -0.003293
# 6 0.005080 -0.005380 0.005721 -0.004147 -0.003293 0.043507
#
#
# Mechanical properties :
#
#
# Convention : Reuss Voigt Hill
#
# Bulk Modulus (GPa) = 36.31715 44.32367 40.32041
# Shear Modulus (GPa) = 31.54739 38.11515 34.83127
#
# Velocity S-wave (km/s) = 3.64308 4.00439 3.82800
# Velocity P-wave (km/s) = 5.74237 6.32671 6.04161
#
# Compressibility (1/GPa) = 0.02753520
#
# Stress axis : x y z
#
# Youngs Moduli (GPa) = 86.71688 80.41319 59.78704
#
# Poissons Ratio (x) = 0.23637 -0.13529
# Poissons Ratio (y) = 0.25490 0.35290
# Poissons Ratio (z) = -0.19622 0.47464
#
# Static dielectric constant tensor:
#      x y z
#    x 2.057510 0.011330 -0.137610 
#    y 0.011330 1.927940 0.138970 
#    z -0.137610 0.138970 2.334150 
# 
# From -- ./inp_files/141597.got.cif
#   From: 2010.05.17/outbox.cif.g08.bks.cpg/sg2_71_cif.got.tgz:141597.got - 2010.06.03 11:33:40.
