data_PCOD9091701
_publ_section_title
;
Structure prediction by ZEFSAII (Michael W. Deem and Ramdas Pophale) SiO2 
 PCOD9091701
Probable space group: P -1
;
_chemical_formula_sum "Si O2"
_cell_formula_units_Z 12
_cell_length_a 7.941141
_cell_length_b 11.482159
_cell_length_c 9.698303
_cell_angle_alpha 41.982951
_cell_angle_beta 97.797664
_cell_angle_gamma 118.183934
_cell_volume 485.344364
_symmetry_space_group_name_H-M "P -1"
_symmetry_group_IT_number 2
_symmetry_cell_setting 'triclinic'
loop_
_space_group_symop_operation_xyz
x,y,z
-x,-y,-z
loop_
_atom_site_type_symbol
_atom_site_label
_atom_site_fract_x
_atom_site_fract_y
_atom_site_fract_z
Si Si1 0.053371 0.136426 0.520050
Si Si2 0.570167 0.452040 0.907403
Si Si3 0.178983 0.944658 0.939490
Si Si4 0.246120 0.663196 0.355973
Si Si5 0.719196 0.670144 0.251651
Si Si6 0.394020 0.977646 0.355272
O O1 0.204548 0.372566 0.274585
O O2 0.842541 0.094715 0.590876
O O3 0.150405 0.043873 0.711997
O O4 0.000000 0.000000 0.500000
O O5 0.422491 0.457901 0.776662
O O6 0.500000 0.500000 0.000000
O O7 0.521776 0.220664 0.111408
O O8 0.314871 0.153525 0.860411
O O9 0.262126 0.800343 0.106237
O O10 0.951262 0.804929 0.101845
O O11 0.303981 0.493743 0.494240
O O12 0.364688 0.817785 0.367292
O O13 0.000000 0.500000 0.500000
O O14 0.500000 0.000000 0.500000
#
# Coordination Sequence:
#
# PCOD9091701 Si02
#       6
#     2   2   2   2   2   2
#     4  12  25  43  72 102 137 191 237 291 363 425
#     4  12  23  43  71  99 138 190 232 290 361 420
#     4  10  19  41  68 102 138 182 238 291 347 423
#     4  10  21  39  74 105 139 189 233 291 357 415
#     4  10  19  39  70 100 139 183 228 288 354 413
#     4  12  25  46  72 106 148 182 240 297 354 427
#
# _framework density 24.724712
#
# number of rings (size 3 to 8) (size 9 to 14) (size 15 to 20)
#    0.000    1.000    5.000    3.000    0.000    2.667 
#    0.000    2.500    0.000    0.000    0.000    0.000 
#    0.000    0.000    0.000    0.000    0.000    0.000 
#
# Total GULP energy -67037.478922 kJ/mol
# GULP energy per Si atom -5586.456577 kJ/mol
# Density = 2.466844 g / cm^3
# Si number density = 24.724712 Si / 1000 Ang^3
#
#
#
# Elastic Constant Matrix: (Units=GPa)
#
#
# Indices 1 2 3 4 5 6 
#
# 1 80.5473 27.6762 66.0976 -6.9362 7.2164 8.7925
# 2 27.6762 127.7933 59.3644 0.5466 -0.7906 4.4839
# 3 66.0976 59.3644 212.9140 -25.2817 9.8988 9.5303
# 4 -6.9362 0.5466 -25.2817 58.8815 13.0287 -2.2740
# 5 7.2164 -0.7906 9.8988 13.0287 54.0753 -8.0078
# 6 8.7925 4.4839 9.5303 -2.2740 -8.0078 44.5465
#
#
#
# Elastic Compliance Matrix: (Units=1/GPa)
#
#
# Indices 1 2 3 4 5 6 
#
# 1 0.017266 -0.001479 -0.004700 0.000358 -0.001934 -0.002583
# 2 -0.001479 0.009252 -0.002353 -0.001521 0.001128 -0.000011
# 3 -0.004700 -0.002353 0.007248 0.002894 -0.001507 -0.000509
# 4 0.000358 -0.001521 0.002894 0.019449 -0.005361 -0.000508
# 5 -0.001934 0.001128 -0.001507 -0.005361 0.020939 0.004081
# 6 -0.002583 -0.000011 -0.000509 -0.000508 0.004081 0.023776
#
#
# Mechanical properties :
#
#
# Convention : Reuss Voigt Hill
#
# Bulk Modulus (GPa) = 59.86916 80.83680 70.35298
# Shear Modulus (GPa) = 41.47251 49.37508 45.42380
#
# Velocity S-wave (km/s) = 4.10001 4.47362 4.29089
# Velocity P-wave (km/s) = 6.83230 7.71039 7.28459
#
# Compressibility (1/GPa) = 0.01670309
#
# Stress axis : x y z
#
# Youngs Moduli (GPa) = 57.91768 108.07998 137.96340
#
# Poissons Ratio (x) = 0.15985 0.64838
# Poissons Ratio (y) = 0.08566 0.32464
# Poissons Ratio (z) = 0.27219 0.25432
#
# Static dielectric constant tensor:
#      x y z
#    x 1.994160 0.039850 0.022490 
#    y 0.039850 2.024470 0.100250 
#    z 0.022490 0.100250 2.055180 
# 
# From -- ./inp_files/183875.got.cif
#   From: 2010.05.17/outbox.cif.g08.bks.cpg/sg2_92_cif.got.tgz:183875.got - 2010.06.03 11:33:40.
