data_PCOD9091363
_publ_section_title
;
Structure prediction by ZEFSAII (Michael W. Deem and Ramdas Pophale) SiO2 
 PCOD9091363
Probable space group: P -1
;
_chemical_formula_sum "Si O2"
_cell_formula_units_Z 16
_cell_length_a 8.622717
_cell_length_b 9.338209
_cell_length_c 11.605643
_cell_angle_alpha 116.497710
_cell_angle_beta 67.036979
_cell_angle_gamma 108.029631
_cell_volume 759.581541
_symmetry_space_group_name_H-M "P -1"
_symmetry_group_IT_number 2
_symmetry_cell_setting 'triclinic'
loop_
_space_group_symop_operation_xyz
x,y,z
-x,-y,-z
loop_
_atom_site_type_symbol
_atom_site_label
_atom_site_fract_x
_atom_site_fract_y
_atom_site_fract_z
Si Si1 0.626208 0.132003 0.082380
Si Si2 0.985605 0.412436 0.800664
Si Si3 0.270490 0.314316 0.538405
Si Si4 0.699223 0.926893 0.193741
Si Si5 0.995695 0.750007 0.024950
Si Si6 0.540151 0.562192 0.699373
Si Si7 0.345841 0.691221 0.260498
Si Si8 0.298568 0.980546 0.524657
O O1 0.559872 0.303180 0.169598
O O2 0.640263 0.066105 0.184350
O O3 0.816285 0.149001 0.983141
O O4 0.500000 0.000000 0.000000
O O5 0.053311 0.332643 0.866298
O O6 0.784735 0.349153 0.820686
O O7 0.093069 0.366930 0.645248
O O8 0.010582 0.603933 0.881502
O O9 0.410221 0.422820 0.619732
O O10 0.329608 0.353428 0.405214
O O11 0.265023 0.126547 0.505228
O O12 0.532330 0.789169 0.209371
O O13 0.850018 0.849086 0.064849
O O14 0.774244 0.996659 0.319703
O O15 0.629530 0.470593 0.738048
O O16 0.260020 0.808973 0.412282
O O17 0.500000 0.000000 0.500000
#
# Coordination Sequence:
#
# PCOD9091363 Si02
#       8
#     2   2   2   2   2   2   2   2
#     4  12  27  45  66  98 134 169 220 271 322 389
#     4  11  24  42  66 100 131 168 224 270 321 381
#     4  11  21  42  67  92 132 175 214 268 323 391
#     4  11  23  44  67  95 130 175 220 260 330 389
#     4  11  24  44  68  92 133 176 215 268 327 390
#     4  11  23  41  68  95 128 174 219 263 330 381
#     4  11  24  40  68 100 130 171 216 275 318 387
#     4  10  19  39  65  93 126 167 215 262 324 379
#
# _framework density 21.064229999999998
#
# number of rings (size 3 to 8) (size 9 to 14) (size 15 to 20)
#    0.000    1.000    5.000    2.625    5.250    1.500 
#    2.250    0.000    0.000    0.000    0.000    0.000 
#    0.000    0.000    0.000    0.000    0.000    0.000 
#
# Total GULP energy -89448.598848 kJ/mol
# GULP energy per Si atom -5590.537428 kJ/mol
# Density = 2.101629 g / cm^3
# Si number density = 21.064230 Si / 1000 Ang^3
#
#
#
# Elastic Constant Matrix: (Units=GPa)
#
#
# Indices 1 2 3 4 5 6 
#
# 1 72.1293 29.3363 20.5935 14.0737 -10.1938 2.6765
# 2 29.3363 83.2514 19.4362 8.4838 -8.3676 -28.9225
# 3 20.5935 19.4362 42.2127 4.6234 -28.5021 -7.1841
# 4 14.0737 8.4838 4.6234 35.2158 -2.2127 -6.8242
# 5 -10.1938 -8.3676 -28.5021 -2.2127 28.6086 -0.8413
# 6 2.6765 -28.9225 -7.1841 -6.8242 -0.8413 38.8295
#
#
#
# Elastic Compliance Matrix: (Units=1/GPa)
#
#
# Indices 1 2 3 4 5 6 
#
# 1 0.022455 -0.009016 -0.015776 -0.007928 -0.011344 -0.012821
# 2 -0.009016 0.021283 -0.000934 0.002009 0.002728 0.016714
# 3 -0.015776 -0.000934 0.096522 0.003629 0.091162 0.020862
# 4 -0.007928 0.002009 0.003629 0.032515 0.004143 0.008518
# 5 -0.011344 0.002728 0.091162 0.004143 0.123532 0.023085
# 6 -0.012821 0.016714 0.020862 0.008518 0.023085 0.044944
#
#
# Mechanical properties :
#
#
# Convention : Reuss Voigt Hill
#
# Bulk Modulus (GPa) = 11.26047 37.36952 24.31499
# Shear Modulus (GPa) = 11.83976 29.07928 20.45952
#
# Velocity S-wave (km/s) = 2.37339 3.71955 3.11994
# Velocity P-wave (km/s) = 3.58720 6.01880 4.95449
#
# Compressibility (1/GPa) = 0.08880625
#
# Stress axis : x y z
#
# Youngs Moduli (GPa) = 44.53424 46.98581 10.36035
#
# Poissons Ratio (x) = 0.42362 0.16345
# Poissons Ratio (y) = 0.40152 0.00968
# Poissons Ratio (z) = 0.70258 0.04390
#
# Static dielectric constant tensor:
#      x y z
#    x 1.722240 0.008820 0.009600 
#    y 0.008820 1.825310 0.001690 
#    z 0.009600 0.001690 1.793770 
# 
# From -- ./inp_files/184939.got.cif
#   From: 2010.05.17/outbox.cif.g08.bks.cpg/sg2_93_cif.got.tgz:184939.got - 2010.06.03 11:33:40.
