data_PCOD9091921
_publ_section_title
;
Structure prediction by ZEFSAII (Michael W. Deem and Ramdas Pophale) SiO2 
 PCOD9091921
Probable space group: P -1
;
_chemical_formula_sum "Si O2"
_cell_formula_units_Z 16
_cell_length_a 8.377944
_cell_length_b 11.699503
_cell_length_c 7.228084
_cell_angle_alpha 106.809750
_cell_angle_beta 79.024374
_cell_angle_gamma 111.026357
_cell_volume 630.067229
_symmetry_space_group_name_H-M "P -1"
_symmetry_group_IT_number 2
_symmetry_cell_setting 'triclinic'
loop_
_space_group_symop_operation_xyz
x,y,z
-x,-y,-z
loop_
_atom_site_type_symbol
_atom_site_label
_atom_site_fract_x
_atom_site_fract_y
_atom_site_fract_z
Si Si1 0.594538 0.497336 0.170472
Si Si2 0.811097 0.106043 0.126272
Si Si3 0.679427 0.981726 0.479167
Si Si4 0.076232 0.653642 0.555814
Si Si5 0.942912 0.059856 0.722842
Si Si6 0.471436 0.716774 0.383854
Si Si7 0.648542 0.256615 0.993185
Si Si8 0.036665 0.325649 0.809091
O O1 0.523732 0.591893 0.345793
O O2 0.797824 0.561243 0.123520
O O3 0.500000 0.500000 0.000000
O O4 0.577435 0.355802 0.165531
O O5 0.223953 0.974204 0.715067
O O6 0.870936 0.020699 0.923828
O O7 0.656974 0.143516 0.074643
O O8 0.934066 0.246961 0.234653
O O9 0.624677 0.836156 0.480470
O O10 0.500000 0.000000 0.500000
O O11 0.773436 0.072734 0.665080
O O12 0.281158 0.693152 0.494426
O O13 0.000000 0.500000 0.500000
O O14 0.983203 0.683277 0.410903
O O15 0.069917 0.197729 0.800409
O O16 0.000000 0.000000 0.500000
O O17 0.450788 0.752965 0.186711
O O18 0.852317 0.321912 0.927356
#
# Coordination Sequence:
#
# PCOD9091921 Si02
#       8
#     2   2   2   2   2   2   2   2
#     4  10  20  36  64  97 138 179 230 291 360 412
#     4  11  23  42  72 106 133 191 241 282 358 415
#     4  12  22  44  70  98 147 181 238 293 340 431
#     4  11  22  42  68  99 135 182 239 289 341 434
#     4  11  25  43  70 102 143 186 236 293 351 417
#     4  10  22  40  64  99 142 182 222 302 359 397
#     4   9  20  38  65  98 129 184 243 274 348 428
#     4  10  19  40  63  92 135 182 230 281 345 414
#
# _framework density 25.394113999999998
#
# number of rings (size 3 to 8) (size 9 to 14) (size 15 to 20)
#    0.000    1.500    2.500    3.375    0.000    7.500 
#    0.000    2.500    0.000    0.000    0.000    0.000 
#    0.000    0.000    0.000    0.000    0.000    0.000 
#
# Total GULP energy -89142.370724 kJ/mol
# GULP energy per Si atom -5571.398170 kJ/mol
# Density = 2.533632 g / cm^3
# Si number density = 25.394114 Si / 1000 Ang^3
#
#
#
# Elastic Constant Matrix: (Units=GPa)
#
#
# Indices 1 2 3 4 5 6 
#
# 1 57.2478 5.2128 20.4516 12.0189 -3.2679 -7.4441
# 2 5.2128 62.4081 50.0032 10.2807 8.6803 -3.4515
# 3 20.4516 50.0032 144.0990 -3.7689 -18.1574 0.9530
# 4 12.0189 10.2807 -3.7689 42.6155 -12.0553 4.2689
# 5 -3.2679 8.6803 -18.1574 -12.0553 38.5437 5.6015
# 6 -7.4441 -3.4515 0.9530 4.2689 5.6015 43.4571
#
#
#
# Elastic Compliance Matrix: (Units=1/GPa)
#
#
# Indices 1 2 3 4 5 6 
#
# 1 0.022013 0.006724 -0.006701 -0.011114 -0.007222 0.006474
# 2 0.006724 0.035841 -0.016839 -0.019419 -0.022848 0.009220
# 3 -0.006701 -0.016839 0.016056 0.012374 0.015538 -0.006056
# 4 -0.011114 -0.019419 0.012374 0.040048 0.023335 -0.010659
# 5 -0.007222 -0.022848 0.015538 0.023335 0.046799 -0.011717
# 6 0.006474 0.009220 -0.006056 -0.010659 -0.011717 0.027543
#
#
# Mechanical properties :
#
#
# Convention : Reuss Voigt Hill
#
# Bulk Modulus (GPa) = 24.82844 46.12113 35.47479
# Shear Modulus (GPa) = 21.24442 37.46243 29.35343
#
# Velocity S-wave (km/s) = 2.89552 3.84505 3.40356
# Velocity P-wave (km/s) = 4.58009 6.15745 5.42639
#
# Compressibility (1/GPa) = 0.04027639
#
# Stress axis : x y z
#
# Youngs Moduli (GPa) = 45.42853 27.90139 62.28384
#
# Poissons Ratio (x) = -0.18760 0.41736
# Poissons Ratio (y) = -0.30545 1.04880
# Poissons Ratio (z) = 0.30441 0.46983
#
# Static dielectric constant tensor:
#      x y z
#    x 2.393810 -0.035570 -0.071120 
#    y -0.035570 2.115500 0.049790 
#    z -0.071120 0.049790 2.063700 
# 
# From -- ./inp_files/203701.got.cif
#   From: 2010.05.17/outbox.cif.g08.bks.cpg/sg2_102_cif.got.tgz:203701.got - 2010.06.03 11:33:40.
