data_PCOD9091179
_publ_section_title
;
Structure prediction by ZEFSAII (Michael W. Deem and Ramdas Pophale) SiO2 
 PCOD9091179
Probable space group: P -1
;
_chemical_formula_sum "Si O2"
_cell_formula_units_Z 16
_cell_length_a 8.975526
_cell_length_b 8.393402
_cell_length_c 15.237570
_cell_angle_alpha 91.842070
_cell_angle_beta 137.058615
_cell_angle_gamma 77.262839
_cell_volume 748.209167
_symmetry_space_group_name_H-M "P -1"
_symmetry_group_IT_number 2
_symmetry_cell_setting 'triclinic'
loop_
_space_group_symop_operation_xyz
x,y,z
-x,-y,-z
loop_
_atom_site_type_symbol
_atom_site_label
_atom_site_fract_x
_atom_site_fract_y
_atom_site_fract_z
Si Si1 0.937707 0.711099 0.039554
Si Si2 0.876463 0.703017 0.694308
Si Si3 0.447151 0.108314 0.568233
Si Si4 0.335757 0.383269 0.230367
Si Si5 0.728763 0.085213 0.362400
Si Si6 0.668488 0.922103 0.151967
Si Si7 0.058549 0.952769 0.205993
Si Si8 0.693133 0.590043 0.097674
O O1 0.190305 0.575190 0.149706
O O2 0.946678 0.895091 0.071930
O O3 0.782432 0.652468 0.045788
O O4 0.816523 0.707247 0.895185
O O5 0.769585 0.748300 0.553458
O O6 0.704526 0.651632 0.686041
O O7 0.093624 0.548969 0.776807
O O8 0.947144 0.858073 0.772064
O O9 0.678110 0.152088 0.686000
O O10 0.500000 0.000000 0.500000
O O11 0.394662 0.000096 0.621117
O O12 0.600045 0.284886 0.319567
O O13 0.660807 0.030375 0.236778
O O14 0.000000 0.000000 0.500000
O O15 0.625650 0.743604 0.138578
O O16 0.925168 0.896396 0.226638
O O17 0.500000 0.000000 0.000000
O O18 0.500000 0.500000 0.000000
#
# Coordination Sequence:
#
# PCOD9091179 Si02
#       8
#     2   2   2   2   2   2   2   2
#     4   9  21  38  60  92 120 154 210 263 310 371
#     4  10  20  37  64  84 119 166 204 252 305 376
#     4  10  20  39  60  90 120 161 208 249 310 378
#     4  10  20  39  57  90 121 157 207 257 315 371
#     4  12  23  39  66  93 130 169 212 261 323 381
#     4  11  24  42  63  96 129 166 213 262 319 378
#     4  10  19  39  64  85 120 160 204 254 307 367
#     4  10  21  40  61  89 123 169 207 255 324 371
#
# _framework density 21.384394
#
# number of rings (size 3 to 8) (size 9 to 14) (size 15 to 20)
#    0.000    1.750    2.500    3.750    0.000    1.500 
#   11.250    2.500    0.000    0.000    0.000    0.000 
#    0.000    0.000    0.000    0.000    0.000    0.000 
#
# Total GULP energy -89156.950054 kJ/mol
# GULP energy per Si atom -5572.309378 kJ/mol
# Density = 2.133572 g / cm^3
# Si number density = 21.384394 Si / 1000 Ang^3
#
#
#
# Elastic Constant Matrix: (Units=GPa)
#
#
# Indices 1 2 3 4 5 6 
#
# 1 68.2166 5.4169 26.0808 -0.7497 9.4136 -5.1153
# 2 5.4169 74.3245 19.8824 -5.9239 13.6847 -15.8761
# 3 26.0808 19.8824 77.8438 -14.8509 4.7200 -0.7306
# 4 -0.7497 -5.9239 -14.8509 37.0503 -4.8960 2.3342
# 5 9.4136 13.6847 4.7200 -4.8960 36.1163 -1.9184
# 6 -5.1153 -15.8761 -0.7306 2.3342 -1.9184 25.7809
#
#
#
# Elastic Compliance Matrix: (Units=1/GPa)
#
#
# Indices 1 2 3 4 5 6 
#
# 1 0.018077 0.002144 -0.006834 -0.002954 -0.004786 0.004625
# 2 0.002144 0.018083 -0.004964 -0.000575 -0.006255 0.011007
# 3 -0.006834 -0.004964 0.017504 0.006629 0.002041 -0.004365
# 4 -0.002954 -0.000575 0.006629 0.030232 0.004051 -0.003188
# 5 -0.004786 -0.006255 0.002041 0.004051 0.031441 -0.002771
# 6 0.004625 0.011007 -0.004365 -0.003188 -0.002771 0.046443
#
#
# Mechanical properties :
#
#
# Convention : Reuss Voigt Hill
#
# Bulk Modulus (GPa) = 29.10753 35.90500 32.50626
# Shear Modulus (GPa) = 25.96868 31.05647 28.51257
#
# Velocity S-wave (km/s) = 3.48857 3.81503 3.65545
# Velocity P-wave (km/s) = 5.46516 6.01936 5.74894
#
# Compressibility (1/GPa) = 0.03435538
#
# Stress axis : x y z
#
# Youngs Moduli (GPa) = 55.32039 55.29959 57.13046
#
# Poissons Ratio (x) = -0.11858 0.39044
# Poissons Ratio (y) = -0.11862 0.28361
# Poissons Ratio (z) = 0.37807 0.27453
#
# Static dielectric constant tensor:
#      x y z
#    x 1.822450 -0.048120 0.027530 
#    y -0.048120 1.783780 -0.085340 
#    z 0.027530 -0.085340 1.755690 
# 
# From -- ./inp_files/495088.got.cif
#   From: 2010.05.17/outbox.cif.g08.bks.cpg/sg2_248_cif.got.tgz:495088.got - 2010.06.03 11:33:40.
