data_PCOD9091115
_publ_section_title
;
Structure prediction by ZEFSAII (Michael W. Deem and Ramdas Pophale) SiO2 
 PCOD9091115
Probable space group: P -1
;
_chemical_formula_sum "Si O2"
_cell_formula_units_Z 16
_cell_length_a 9.679424
_cell_length_b 16.276381
_cell_length_c 16.126482
_cell_angle_alpha 34.877653
_cell_angle_beta 129.272591
_cell_angle_gamma 144.833230
_cell_volume 831.282582
_symmetry_space_group_name_H-M "P -1"
_symmetry_group_IT_number 2
_symmetry_cell_setting 'triclinic'
loop_
_space_group_symop_operation_xyz
x,y,z
-x,-y,-z
loop_
_atom_site_type_symbol
_atom_site_label
_atom_site_fract_x
_atom_site_fract_y
_atom_site_fract_z
Si Si1 0.373814 0.758732 0.259778
Si Si2 0.674739 0.729966 0.885115
Si Si3 0.809627 0.416695 0.878765
Si Si4 0.682442 0.954973 0.366734
Si Si5 0.737035 0.577722 0.576584
Si Si6 0.799203 0.111649 0.027090
Si Si7 0.653535 0.268847 0.123644
Si Si8 0.884765 0.966956 0.608370
O O1 0.477031 0.783895 0.369106
O O2 0.194243 0.532489 0.354440
O O3 0.259681 0.851286 0.116148
O O4 0.608067 0.895911 0.172777
O O5 0.559362 0.770247 0.876316
O O6 0.706484 0.827266 0.729206
O O7 0.500000 0.500000 0.000000
O O8 0.940741 0.817060 0.934646
O O9 0.690866 0.482269 0.728172
O O10 0.780197 0.242316 0.971575
O O11 0.098279 0.592567 0.844651
O O12 0.712422 0.369879 0.973619
O O13 0.933043 0.063922 0.321769
O O14 0.611082 0.080004 0.246498
O O15 0.739654 0.924925 0.504194
O O16 0.500000 0.500000 0.500000
O O17 0.938539 0.808563 0.477800
#
# Coordination Sequence:
#
# PCOD9091115 Si02
#       8
#     2   2   2   2   2   2   2   2
#     4  10  20  36  70  90 121 164 209 258 300 361
#     4  12  24  40  62  94 126 165 203 260 318 369
#     4  10  20  36  63  93 119 161 210 253 299 366
#     4  11  21  41  63  95 119 160 207 264 302 360
#     4  11  20  37  63  96 121 160 207 260 305 361
#     4  10  19  39  63  92 123 159 213 250 304 370
#     4  11  22  36  63  91 125 157 206 260 308 356
#     4  11  24  39  64  91 128 156 212 259 304 373
#
# _framework density 19.247364999999999
#
# number of rings (size 3 to 8) (size 9 to 14) (size 15 to 20)
#    0.000    1.250    6.250    0.000    1.750    0.500 
#    0.000    0.625    0.000    1.500    0.000    0.000 
#    0.000    0.000    0.000    0.000    0.000    0.000 
#
# Total GULP energy -89164.891679 kJ/mol
# GULP energy per Si atom -5572.805730 kJ/mol
# Density = 1.920356 g / cm^3
# Si number density = 19.247365 Si / 1000 Ang^3
#
#
#
# Elastic Constant Matrix: (Units=GPa)
#
#
# Indices 1 2 3 4 5 6 
#
# 1 100.2771 37.3832 43.8485 -8.0804 -2.6066 4.6953
# 2 37.3832 90.6841 38.0648 21.1001 -6.2925 -7.5921
# 3 43.8485 38.0648 92.5964 16.7090 -1.2637 -0.3042
# 4 -8.0804 21.1001 16.7090 43.4846 -2.8907 9.3384
# 5 -2.6066 -6.2925 -1.2637 -2.8907 20.5690 -1.8082
# 6 4.6953 -7.5921 -0.3042 9.3384 -1.8082 25.1211
#
#
#
# Elastic Compliance Matrix: (Units=1/GPa)
#
#
# Indices 1 2 3 4 5 6 
#
# 1 0.017525 -0.007806 -0.007295 0.012047 0.000182 -0.010188
# 2 -0.007806 0.019215 -0.001871 -0.012391 0.004100 0.012144
# 3 -0.007295 -0.001871 0.016396 -0.007634 -0.001233 0.003746
# 4 0.012047 -0.012391 -0.007634 0.038618 0.000903 -0.020379
# 5 0.000182 0.004100 -0.001233 0.000903 0.050339 0.004478
# 6 -0.010188 0.012144 0.003746 -0.020379 0.004478 0.053325
#
#
# Mechanical properties :
#
#
# Convention : Reuss Voigt Hill
#
# Bulk Modulus (GPa) = 52.10242 58.01675 55.05958
# Shear Modulus (GPa) = 21.20826 28.78568 24.99697
#
# Velocity S-wave (km/s) = 3.32306 3.87145 3.60769
# Velocity P-wave (km/s) = 6.46933 7.08465 6.78397
#
# Compressibility (1/GPa) = 0.01919297
#
# Stress axis : x y z
#
# Youngs Moduli (GPa) = 57.06236 52.04374 60.99018
#
# Poissons Ratio (x) = 0.40624 0.44491
# Poissons Ratio (y) = 0.44541 0.11409
# Poissons Ratio (z) = 0.41626 0.09736
#
# Static dielectric constant tensor:
#      x y z
#    x 1.655960 -0.039670 0.024780 
#    y -0.039670 1.763500 0.016660 
#    z 0.024780 0.016660 1.732420 
# 
# From -- ./inp_files/503915.got.cif
#   From: 2010.05.17/outbox.cif.g08.bks.cpg/sg2_252_cif.got.tgz:503915.got - 2010.06.03 11:33:40.
