data_PCOD9091674
_publ_section_title
;
Structure prediction by ZEFSAII (Michael W. Deem and Ramdas Pophale) SiO2 
 PCOD9091674
Probable space group: P -1
;
_chemical_formula_sum "Si O2"
_cell_formula_units_Z 16
_cell_length_a 8.054733
_cell_length_b 10.784304
_cell_length_c 11.298927
_cell_angle_alpha 64.533252
_cell_angle_beta 78.807144
_cell_angle_gamma 122.160000
_cell_volume 624.800344
_symmetry_space_group_name_H-M "P -1"
_symmetry_group_IT_number 2
_symmetry_cell_setting 'triclinic'
loop_
_space_group_symop_operation_xyz
x,y,z
-x,-y,-z
loop_
_atom_site_type_symbol
_atom_site_label
_atom_site_fract_x
_atom_site_fract_y
_atom_site_fract_z
Si Si1 0.963215 0.760227 0.418013
Si Si2 0.218456 0.189037 0.140215
Si Si3 0.241297 0.879439 0.539871
Si Si4 0.178407 0.418959 0.725157
Si Si5 0.926951 0.307829 0.127386
Si Si6 0.330640 0.922325 0.943602
Si Si7 0.718865 0.813556 0.120894
Si Si8 0.357803 0.251847 0.361860
O O1 0.875745 0.604677 0.395890
O O2 0.771045 0.703924 0.562179
O O3 0.168886 0.807609 0.446812
O O4 0.064565 0.960919 0.265773
O O5 0.349548 0.276662 0.211971
O O6 0.077335 0.251355 0.104964
O O7 0.370904 0.249159 0.976055
O O8 0.082354 0.707907 0.724043
O O9 0.500000 0.000000 0.500000
O O10 0.214644 0.029766 0.494328
O O11 0.302281 0.339751 0.748643
O O12 0.376937 0.620470 0.679058
O O13 0.929140 0.265630 0.890845
O O14 0.680781 0.153549 0.152053
O O15 0.000000 0.500000 0.000000
O O16 0.500000 0.000000 0.000000
O O17 0.372767 0.105957 0.834434
O O18 0.000000 0.000000 0.000000
#
# Coordination Sequence:
#
# PCOD9091674 Si02
#       8
#     2   2   2   2   2   2   2   2
#     4  11  20  44  70  94 134 178 232 271 337 409
#     4  11  19  43  70  98 126 179 231 273 337 400
#     4  11  26  43  67  97 138 185 218 275 350 403
#     4  11  23  40  66 104 129 172 232 285 330 403
#     4  12  25  44  70 100 141 174 231 286 335 406
#     4  11  25  44  65  95 139 181 219 274 351 405
#     4  10  19  39  69  91 131 172 224 277 328 399
#     4  11  24  40  70  98 134 173 231 284 332 401
#
# _framework density 25.608181999999999
#
# number of rings (size 3 to 8) (size 9 to 14) (size 15 to 20)
#    0.000    1.000    7.500    1.125    3.500    1.500 
#    0.000    0.625    0.000    0.000    0.000    0.000 
#    0.000    0.000    0.000    0.000    0.000    0.000 
#
# Total GULP energy -89383.850801 kJ/mol
# GULP energy per Si atom -5586.490675 kJ/mol
# Density = 2.554990 g / cm^3
# Si number density = 25.608182 Si / 1000 Ang^3
#
#
#
# Elastic Constant Matrix: (Units=GPa)
#
#
# Indices 1 2 3 4 5 6 
#
# 1 58.7929 32.2146 24.1623 2.0790 16.3023 17.6206
# 2 32.2146 145.7632 62.7890 23.0403 18.4980 31.9828
# 3 24.1623 62.7890 90.2119 20.8252 31.6422 19.1290
# 4 2.0790 23.0403 20.8252 53.2179 1.0507 12.3870
# 5 16.3023 18.4980 31.6422 1.0507 39.2727 -2.2956
# 6 17.6206 31.9828 19.1290 12.3870 -2.2956 41.0769
#
#
#
# Elastic Compliance Matrix: (Units=1/GPa)
#
#
# Indices 1 2 3 4 5 6 
#
# 1 0.023676 -0.002343 0.000052 0.002497 -0.009396 -0.009634
# 2 -0.002343 0.011086 -0.005949 -0.001355 0.000322 -0.004430
# 3 0.000052 -0.005949 0.023166 -0.004869 -0.016082 -0.005609
# 4 0.002497 -0.001355 -0.004869 0.022126 0.002683 -0.004271
# 5 -0.009396 0.000322 -0.016082 0.002683 0.042848 0.012855
# 6 -0.009634 -0.004430 -0.005609 -0.004271 0.012855 0.036544
#
#
# Mechanical properties :
#
#
# Convention : Reuss Voigt Hill
#
# Bulk Modulus (GPa) = 24.12774 59.23330 41.68052
# Shear Modulus (GPa) = 26.35121 38.42031 32.38576
#
# Velocity S-wave (km/s) = 3.21131 3.87759 3.56007
# Velocity P-wave (km/s) = 4.81584 6.57483 5.76285
#
# Compressibility (1/GPa) = 0.04144607
#
# Stress axis : x y z
#
# Youngs Moduli (GPa) = 42.23694 90.20046 43.16689
#
# Poissons Ratio (x) = 0.21137 -0.00222
# Poissons Ratio (y) = 0.09897 0.25681
# Poissons Ratio (z) = -0.00218 0.53663
#
# Static dielectric constant tensor:
#      x y z
#    x 2.119800 0.028810 -0.052980 
#    y 0.028810 2.069080 0.004050 
#    z -0.052980 0.004050 2.064740 
# 
# From -- ./inp_files/392373.got.cif
#   From: 2010.05.17/outbox.cif.g08.bks.cpg/sg2_197_cif.got.tgz:392373.got - 2010.06.03 11:33:40.
