data_PCOD9091465
_publ_section_title
;
Structure prediction by ZEFSAII (Michael W. Deem and Ramdas Pophale) SiO2 
 PCOD9091465
Probable space group: P -1
;
_chemical_formula_sum "Si O2"
_cell_formula_units_Z 16
_cell_length_a 7.945829
_cell_length_b 13.185318
_cell_length_c 7.247200
_cell_angle_alpha 62.578468
_cell_angle_beta 76.755119
_cell_angle_gamma 100.940931
_cell_volume 616.531071
_symmetry_space_group_name_H-M "P -1"
_symmetry_group_IT_number 2
_symmetry_cell_setting 'triclinic'
loop_
_space_group_symop_operation_xyz
x,y,z
-x,-y,-z
loop_
_atom_site_type_symbol
_atom_site_label
_atom_site_fract_x
_atom_site_fract_y
_atom_site_fract_z
Si Si1 0.081533 0.891447 0.829304
Si Si2 0.148004 0.562909 0.133076
Si Si3 0.629784 0.804533 0.332736
Si Si4 0.455402 0.591148 0.298385
Si Si5 0.573913 0.173841 0.277067
Si Si6 0.341578 0.025613 0.132540
Si Si7 0.009218 0.139623 0.694857
Si Si8 0.839678 0.636906 0.986756
O O1 0.282690 0.896131 0.719334
O O2 0.061489 0.022455 0.711433
O O3 0.055629 0.853652 0.083362
O O4 0.939085 0.782449 0.839141
O O5 0.252094 0.553709 0.301012
O O6 0.956573 0.590226 0.151097
O O7 0.300674 0.684142 0.903262
O O8 0.129708 0.440831 0.127268
O O9 0.490083 0.708238 0.317895
O O10 0.520435 0.840250 0.490803
O O11 0.785759 0.761703 0.429738
O O12 0.732685 0.906124 0.068452
O O13 0.500000 0.500000 0.500000
O O14 0.624102 0.612868 0.092463
O O15 0.424642 0.116924 0.201834
O O16 0.185200 0.897427 0.329876
O O17 0.500000 0.000000 0.000000
#
# Coordination Sequence:
#
# PCOD9091465 Si02
#       8
#     2   2   2   2   2   2   2   2
#     4  10  19  39  66  91 129 178 210 270 343 391
#     4  10  23  43  70  98 133 179 227 279 347 405
#     4  12  24  43  66  98 136 170 227 278 330 412
#     4  12  24  42  69  99 136 181 223 281 344 407
#     4  11  24  41  68  98 130 174 227 276 334 403
#     4  12  22  40  70  93 132 179 217 276 346 390
#     4  11  20  40  64  92 132 177 215 269 341 392
#     4  10  21  41  69  96 134 179 222 280 342 401
#
# _framework density 25.951649
#
# number of rings (size 3 to 8) (size 9 to 14) (size 15 to 20)
#    0.000    1.000    6.250    1.125    0.000    3.000 
#    0.000    0.000    0.000    0.000    0.000    0.000 
#    0.000    0.000    0.000    0.000    0.000    0.000 
#
# Total GULP energy -89396.359182 kJ/mol
# GULP energy per Si atom -5587.272449 kJ/mol
# Density = 2.589258 g / cm^3
# Si number density = 25.951649 Si / 1000 Ang^3
#
#
#
# Elastic Constant Matrix: (Units=GPa)
#
#
# Indices 1 2 3 4 5 6 
#
# 1 143.4396 -1.1924 22.4476 31.4757 2.6756 7.3899
# 2 -1.1924 118.9216 16.2664 36.9483 12.6760 5.0287
# 3 22.4476 16.2664 72.3185 16.2327 -4.6307 -9.7868
# 4 31.4757 36.9483 16.2327 36.4363 -7.6643 1.0360
# 5 2.6756 12.6760 -4.6307 -7.6643 36.0908 14.3493
# 6 7.3899 5.0287 -9.7868 1.0360 14.3493 39.5520
#
#
#
# Elastic Compliance Matrix: (Units=1/GPa)
#
#
# Indices 1 2 3 4 5 6 
#
# 1 0.011000 0.006109 -0.001598 -0.016329 -0.006452 -0.000459
# 2 0.006109 0.017957 -0.000693 -0.025985 -0.013097 0.001836
# 3 -0.001598 -0.000693 0.016311 -0.005447 -0.000604 0.004785
# 4 -0.016329 -0.025985 -0.005447 0.076616 0.028882 -0.007478
# 5 -0.006452 -0.013097 -0.000604 0.028882 0.044476 -0.014171
# 6 -0.000459 0.001836 0.004785 -0.007478 -0.014171 0.031657
#
#
# Mechanical properties :
#
#
# Convention : Reuss Voigt Hill
#
# Bulk Modulus (GPa) = 18.90210 45.52477 32.21343
# Shear Modulus (GPa) = 24.03671 42.22636 33.13153
#
# Velocity S-wave (km/s) = 3.04667 4.03813 3.57692
# Velocity P-wave (km/s) = 4.43573 6.27074 5.43129
#
# Compressibility (1/GPa) = 0.05290418
#
# Stress axis : x y z
#
# Youngs Moduli (GPa) = 90.91108 55.68910 61.30821
#
# Poissons Ratio (x) = -0.34023 0.09800
# Poissons Ratio (y) = -0.55542 0.04247
# Poissons Ratio (z) = 0.14531 0.03858
#
# Static dielectric constant tensor:
#      x y z
#    x 2.121660 0.079300 0.051690 
#    y 0.079300 0.823490 0.539900 
#    z 0.051690 0.539900 1.800440 
# 
# From -- ./inp_files/37953.got.cif
#   From: 2010.05.17/outbox.cif.g08.bks.cpg/sg2_19_cif.got.tgz:37953.got - 2010.06.03 11:33:40.
