data_PCOD9091075
_publ_section_title
;
Structure prediction by ZEFSAII (Michael W. Deem and Ramdas Pophale) SiO2 
 PCOD9091075
Probable space group: P -1
;
_chemical_formula_sum "Si O2"
_cell_formula_units_Z 14
_cell_length_a 23.459759
_cell_length_b 14.840839
_cell_length_c 6.851813
_cell_angle_alpha 97.085781
_cell_angle_beta 93.705016
_cell_angle_gamma 160.449812
_cell_volume 664.379068
_symmetry_space_group_name_H-M "P -1"
_symmetry_group_IT_number 2
_symmetry_cell_setting 'triclinic'
loop_
_space_group_symop_operation_xyz
x,y,z
-x,-y,-z
loop_
_atom_site_type_symbol
_atom_site_label
_atom_site_fract_x
_atom_site_fract_y
_atom_site_fract_z
Si Si1 0.258521 0.852043 0.928138
Si Si2 0.007061 0.099674 0.768101
Si Si3 0.531615 0.752034 0.305827
Si Si4 0.795065 0.601624 0.700980
Si Si5 0.136675 0.814341 0.198649
Si Si6 0.396260 0.758389 0.793932
Si Si7 0.314231 0.266979 0.291092
O O1 0.065359 0.490438 0.794278
O O2 0.348078 0.028234 0.795600
O O3 0.161491 0.784993 0.013744
O O4 0.440587 0.074401 0.127940
O O5 0.199630 0.423628 0.776445
O O6 0.072009 0.224074 0.038010
O O7 0.944331 0.898391 0.695798
O O8 0.801267 0.841290 0.615775
O O9 0.383636 0.606345 0.307976
O O10 0.391897 0.447989 0.178601
O O11 0.690755 0.961823 0.559523
O O12 0.691398 0.367397 0.479691
O O13 0.165306 0.956108 0.146020
O O14 0.500000 0.000000 0.000000
O O15 0.500000 0.500000 0.500000
#
# Coordination Sequence:
#
# PCOD9091075 Si02
#       7
#     2   2   2   2   2   2   2
#     4  11  22  37  61  89 123 169 204 249 315 373
#     4  10  21  41  64  90 125 159 209 258 311 375
#     4  10  19  39  63  88 121 160 213 252 306 373
#     4  10  21  40  64  91 121 166 206 262 312 369
#     4  10  21  39  59  87 128 164 202 253 310 370
#     4  12  24  39  62  94 127 164 212 257 316 376
#     4   9  20  39  64  90 124 159 202 262 307 366
#
# _framework density 21.072308
#
# number of rings (size 3 to 8) (size 9 to 14) (size 15 to 20)
#    0.000    1.714    2.857    1.714    0.000    1.143 
#    0.000    4.286    0.000    0.000    0.000    0.000 
#    0.000    0.000    0.000    0.000    0.000    0.000 
#
# Total GULP energy -77958.187188 kJ/mol
# GULP energy per Si atom -5568.441942 kJ/mol
# Density = 2.102435 g / cm^3
# Si number density = 21.072308 Si / 1000 Ang^3
#
#
#
# Elastic Constant Matrix: (Units=GPa)
#
#
# Indices 1 2 3 4 5 6 
#
# 1 55.4580 28.8118 9.6348 2.3052 -3.5469 -3.5676
# 2 28.8118 171.9309 24.7823 -6.9568 5.3156 -8.1480
# 3 9.6348 24.7823 75.1644 2.1605 -4.4454 -17.3054
# 4 2.3052 -6.9568 2.1605 22.7581 3.4812 10.5180
# 5 -3.5469 5.3156 -4.4454 3.4812 41.2260 4.5037
# 6 -3.5676 -8.1480 -17.3054 10.5180 4.5037 34.6067
#
#
#
# Elastic Compliance Matrix: (Units=1/GPa)
#
#
# Indices 1 2 3 4 5 6 
#
# 1 0.020411 -0.003461 -0.000779 -0.004279 0.002272 0.001904
# 2 -0.003461 0.006855 -0.002131 0.003153 -0.001617 -0.000556
# 3 -0.000779 -0.002131 0.016601 -0.006815 0.001525 0.009592
# 4 -0.004279 0.003153 -0.006815 0.055610 -0.004078 -0.019478
# 5 0.002272 -0.001617 0.001525 -0.004078 0.025327 -0.001440
# 6 0.001904 -0.000556 0.009592 -0.019478 -0.001440 0.039866
#
#
# Mechanical properties :
#
#
# Convention : Reuss Voigt Hill
#
# Bulk Modulus (GPa) = 32.12920 47.66789 39.89855
# Shear Modulus (GPa) = 26.62607 35.67312 31.14960
#
# Velocity S-wave (km/s) = 3.55851 4.11894 3.84894
# Velocity P-wave (km/s) = 5.67135 6.72987 6.22316
#
# Compressibility (1/GPa) = 0.03112434
#
# Stress axis : x y z
#
# Youngs Moduli (GPa) = 48.99340 145.88709 60.23686
#
# Poissons Ratio (x) = 0.50495 0.04694
# Poissons Ratio (y) = 0.16958 0.12834
# Poissons Ratio (z) = 0.03818 0.31083
#
# Static dielectric constant tensor:
#      x y z
#    x 1.787940 -0.058990 -0.043290 
#    y -0.058990 1.840780 0.063370 
#    z -0.043290 0.063370 1.807930 
# 
# From -- ./inp_files/84268.got.cif
#   From: 2010.05.17/outbox.cif.g08.bks.cpg/sg2_43_cif.got.tgz:84268.got - 2010.06.03 11:33:40.
