data_PCOD9091776
_publ_section_title
;
Structure prediction by ZEFSAII (Michael W. Deem and Ramdas Pophale) SiO2 
 PCOD9091776
Probable space group: P -1
;
_chemical_formula_sum "Si O2"
_cell_formula_units_Z 16
_cell_length_a 12.507937
_cell_length_b 9.014262
_cell_length_c 18.417569
_cell_angle_alpha 110.804676
_cell_angle_beta 23.794865
_cell_angle_gamma 96.162076
_cell_volume 639.623956
_symmetry_space_group_name_H-M "P -1"
_symmetry_group_IT_number 2
_symmetry_cell_setting 'triclinic'
loop_
_space_group_symop_operation_xyz
x,y,z
-x,-y,-z
loop_
_atom_site_type_symbol
_atom_site_label
_atom_site_fract_x
_atom_site_fract_y
_atom_site_fract_z
Si Si1 0.290190 0.125305 0.008333
Si Si2 0.280290 0.574729 0.996841
Si Si3 0.115934 0.979965 0.690373
Si Si4 0.216308 0.793393 0.286442
Si Si5 0.362349 0.218461 0.379305
Si Si6 0.195034 0.518013 0.726304
Si Si7 0.324760 0.032983 0.723862
Si Si8 0.362271 0.557251 0.778148
O O1 0.519421 0.181642 0.909687
O O2 0.493383 0.913783 0.806380
O O3 0.101006 0.268893 0.081888
O O4 0.047262 0.134525 0.219561
O O5 0.570031 0.404050 0.833925
O O6 0.367327 0.496015 0.846201
O O7 0.180201 0.792597 0.097073
O O8 0.945543 0.601963 0.230876
O O9 0.280919 0.955624 0.662011
O O10 0.392063 0.932970 0.453606
O O11 0.967236 0.763270 0.396261
O O12 0.000000 0.000000 0.500000
O O13 0.358034 0.408576 0.403357
O O14 0.597645 0.103744 0.280415
O O15 0.500000 0.500000 0.500000
O O16 0.307680 0.457004 0.728827
O O17 0.975575 0.231362 0.983260
#
# Coordination Sequence:
#
# PCOD9091776 Si02
#       8
#     2   2   2   2   2   2   2   2
#     4  10  19  40  59  86 117 158 198 241 297 355
#     4  10  22  40  58  87 124 153 199 250 289 349
#     4  10  21  36  63  92 121 152 190 251 309 345
#     4   9  22  40  61  84 118 162 208 237 291 351
#     4  11  19  37  64  86 111 164 204 237 288 359
#     4  11  24  35  59  89 129 156 187 244 310 357
#     4  10  20  33  61  92 121 150 192 243 304 357
#     4  11  21  36  60  92 123 150 199 247 293 357
#
# _framework density 25.014697000000002
#
# number of rings (size 3 to 8) (size 9 to 14) (size 15 to 20)
#    0.000    1.750    3.750    1.500    7.000    0.500 
#    0.000    1.250    0.000    0.000    0.000    0.000 
#    0.000    0.000    0.000    0.000    0.000    0.000 
#
# Total GULP energy -89452.215849 kJ/mol
# GULP energy per Si atom -5590.763491 kJ/mol
# Density = 2.495776 g / cm^3
# Si number density = 25.014697 Si / 1000 Ang^3
#
#
#
# Elastic Constant Matrix: (Units=GPa)
#
#
# Indices 1 2 3 4 5 6 
#
# 1 63.4548 28.2525 25.0100 0.1850 -16.1398 5.5619
# 2 28.2525 123.8635 46.5156 -13.0446 -13.8456 5.1383
# 3 25.0100 46.5156 81.2515 -20.2556 -25.5105 7.9933
# 4 0.1850 -13.0446 -20.2556 54.5678 3.3867 -4.8150
# 5 -16.1398 -13.8456 -25.5105 3.3867 33.4824 -3.9893
# 6 5.5619 5.1383 7.9933 -4.8150 -3.9893 32.4974
#
#
#
# Elastic Compliance Matrix: (Units=1/GPa)
#
#
# Indices 1 2 3 4 5 6 
#
# 1 0.019969 -0.002935 -0.002941 -0.002407 0.006197 -0.001826
# 2 -0.002935 0.010723 -0.005464 0.000628 -0.001196 0.000097
# 3 -0.002941 -0.005464 0.021776 0.005891 0.012125 -0.001628
# 4 -0.002407 0.000628 0.005891 0.020752 0.001745 0.002153
# 5 0.006197 -0.001196 0.012125 0.001745 0.041601 0.001511
# 6 -0.001826 0.000097 -0.001628 0.002153 0.001511 0.031974
#
#
# Mechanical properties :
#
#
# Convention : Reuss Voigt Hill
#
# Bulk Modulus (GPa) = 33.57026 52.01400 42.79213
# Shear Modulus (GPa) = 27.87006 35.36230 31.61618
#
# Velocity S-wave (km/s) = 3.34151 3.76395 3.55900
# Velocity P-wave (km/s) = 5.32324 6.30303 5.83374
#
# Compressibility (1/GPa) = 0.02978827
#
# Stress axis : x y z
#
# Youngs Moduli (GPa) = 50.07876 93.25506 45.92185
#
# Poissons Ratio (x) = 0.27374 0.13504
# Poissons Ratio (y) = 0.14700 0.25091
# Poissons Ratio (z) = 0.14727 0.50953
#
# Static dielectric constant tensor:
#      x y z
#    x 1.970640 0.063450 0.068810 
#    y 0.063450 1.994040 0.058200 
#    z 0.068810 0.058200 2.060500 
# 
# From -- ./inp_files/217507.got.cif
#   From: 2010.05.17/outbox.cif.g08.bks.cpg/sg2_109_cif.got.tgz:217507.got - 2010.06.03 11:33:40.
