data_PCOD9091208
_publ_section_title
;
Structure prediction by ZEFSAII (Michael W. Deem and Ramdas Pophale) SiO2 
 PCOD9091208
Probable space group: P -1
;
_chemical_formula_sum "Si O2"
_cell_formula_units_Z 16
_cell_length_a 11.172114
_cell_length_b 14.948833
_cell_length_c 11.942236
_cell_angle_alpha 149.646813
_cell_angle_beta 58.851065
_cell_angle_gamma 129.356889
_cell_volume 776.998112
_symmetry_space_group_name_H-M "P -1"
_symmetry_group_IT_number 2
_symmetry_cell_setting 'triclinic'
loop_
_space_group_symop_operation_xyz
x,y,z
-x,-y,-z
loop_
_atom_site_type_symbol
_atom_site_label
_atom_site_fract_x
_atom_site_fract_y
_atom_site_fract_z
Si Si1 0.288403 0.195573 0.071651
Si Si2 0.097399 0.881599 0.655009
Si Si3 0.634356 0.296466 0.994847
Si Si4 0.816088 0.921868 0.759025
Si Si5 0.199863 0.941751 0.427719
Si Si6 0.158976 0.277136 0.692128
Si Si7 0.873838 0.533148 0.523066
Si Si8 0.337102 0.809404 0.892202
O O1 0.284406 0.170068 0.180607
O O2 0.202974 0.335049 0.241960
O O3 0.462637 0.272236 0.027117
O O4 0.191143 0.987277 0.833706
O O5 0.196161 0.900685 0.517623
O O6 0.990895 0.989640 0.788494
O O7 0.973967 0.661974 0.508344
O O8 0.670158 0.113421 0.747019
O O9 0.758253 0.490589 0.085009
O O10 0.653057 0.310981 0.135753
O O11 0.790900 0.777164 0.511431
O O12 0.784306 0.101030 0.927966
O O13 0.027456 0.804119 0.312655
O O14 0.211542 0.156542 0.624948
O O15 0.732678 0.334011 0.333855
O O16 0.000000 0.500000 0.500000
O O17 0.500000 0.000000 0.000000
#
# Coordination Sequence:
#
# PCOD9091208 Si02
#       8
#     2   2   2   2   2   2   2   2
#     4  11  23  39  64  92 130 169 211 272 333 382
#     4  10  22  44  64  87 126 177 218 264 316 390
#     4  12  24  38  64  98 133 165 217 268 331 385
#     4  10  19  39  64  89 127 161 210 262 331 373
#     4  10  22  43  63  88 127 175 218 267 317 381
#     4  10  22  40  64  93 123 170 214 268 321 386
#     4  11  24  42  67  97 127 172 223 262 327 403
#     4  12  23  36  64 102 134 166 207 276 335 382
#
# _framework density 20.592071000000001
#
# number of rings (size 3 to 8) (size 9 to 14) (size 15 to 20)
#    0.000    1.250    2.500    5.625    1.750    1.500 
#    2.250    0.625    0.000    0.000    0.000    0.000 
#    0.000    0.000    0.000    0.000    0.000    0.000 
#
# Total GULP energy -89320.896996 kJ/mol
# GULP energy per Si atom -5582.556062 kJ/mol
# Density = 2.054520 g / cm^3
# Si number density = 20.592071 Si / 1000 Ang^3
#
#
#
# Elastic Constant Matrix: (Units=GPa)
#
#
# Indices 1 2 3 4 5 6 
#
# 1 71.0922 23.7497 22.2359 2.8987 -9.3171 -4.4874
# 2 23.7497 70.0704 13.1085 2.3972 2.5113 -5.9087
# 3 22.2359 13.1085 51.1754 4.3785 1.2480 1.6283
# 4 2.8987 2.3972 4.3785 37.4125 3.3721 -1.7345
# 5 -9.3171 2.5113 1.2480 3.3721 25.3312 2.1430
# 6 -4.4874 -5.9087 1.6283 -1.7345 2.1430 21.6975
#
#
#
# Elastic Compliance Matrix: (Units=1/GPa)
#
#
# Indices 1 2 3 4 5 6 
#
# 1 0.019296 -0.005251 -0.007225 -0.000921 0.007906 0.002248
# 2 -0.005251 0.016921 -0.002097 0.000105 -0.003864 0.004070
# 3 -0.007225 -0.002097 0.023576 -0.001962 -0.003037 -0.003691
# 4 -0.000921 0.000105 -0.001962 0.027516 -0.004135 0.002593
# 5 0.007906 -0.003864 -0.003037 -0.004135 0.043793 -0.003845
# 6 0.002248 0.004070 -0.003691 0.002593 -0.003845 0.048526
#
#
# Mechanical properties :
#
#
# Convention : Reuss Voigt Hill
#
# Bulk Modulus (GPa) = 32.62803 34.50289 33.56546
# Shear Modulus (GPa) = 22.83213 25.77118 24.30166
#
# Velocity S-wave (km/s) = 3.33345 3.54151 3.43905
# Velocity P-wave (km/s) = 5.54033 5.78920 5.66613
#
# Compressibility (1/GPa) = 0.03064849
#
# Stress axis : x y z
#
# Youngs Moduli (GPa) = 51.82524 59.09667 42.41538
#
# Poissons Ratio (x) = 0.31030 0.30643
# Poissons Ratio (y) = 0.27212 0.08895
# Poissons Ratio (z) = 0.37441 0.12394
#
# Static dielectric constant tensor:
#      x y z
#    x 1.743050 -0.018130 0.005170 
#    y -0.018130 1.771710 -0.015190 
#    z 0.005170 -0.015190 1.765550 
# 
# From -- ./inp_files/427671.got.cif
#   From: 2010.05.17/outbox.cif.g08.bks.cpg/sg2_214_cif.got.tgz:427671.got - 2010.06.03 11:33:40.
