data_PCOD9091770
_publ_section_title
;
Structure prediction by ZEFSAII (Michael W. Deem and Ramdas Pophale) SiO2 
 PCOD9091770
Probable space group: P -1
;
_chemical_formula_sum "Si O2"
_cell_formula_units_Z 10
_cell_length_a 9.096996
_cell_length_b 6.902856
_cell_length_c 11.327409
_cell_angle_alpha 79.492037
_cell_angle_beta 130.944564
_cell_angle_gamma 72.359150
_cell_volume 434.427179
_symmetry_space_group_name_H-M "P -1"
_symmetry_group_IT_number 2
_symmetry_cell_setting 'triclinic'
loop_
_space_group_symop_operation_xyz
x,y,z
-x,-y,-z
loop_
_atom_site_type_symbol
_atom_site_label
_atom_site_fract_x
_atom_site_fract_y
_atom_site_fract_z
Si Si1 0.253134 0.835053 0.212267
Si Si2 0.319511 0.476675 0.685493
Si Si3 0.603316 0.964300 0.346087
Si Si4 0.545602 0.193243 0.053866
Si Si5 0.093023 0.919294 0.368612
O O1 0.435042 0.618427 0.245808
O O2 0.214188 0.771458 0.328804
O O3 0.374506 0.981037 0.272643
O O4 0.000000 0.000000 0.000000
O O5 0.133215 0.742205 0.515202
O O6 0.266033 0.290017 0.626098
O O7 0.374279 0.426512 0.858321
O O8 0.523521 0.173262 0.184397
O O9 0.772016 0.963625 0.530974
O O10 0.815672 0.095262 0.180226
O O11 0.500000 0.000000 0.000000
#
# Coordination Sequence:
#
# PCOD9091770 Si02
#       5
#     2   2   2   2   2
#     4  10  19  40  59  80 117 150 180 235 281 327
#     4   9  22  37  60  83 112 149 190 220 289 329
#     4   9  22  36  57  88 111 145 192 229 275 332
#     4  10  20  40  57  83 117 148 185 230 281 331
#     4  12  20  38  63  80 115 149 186 235 274 330
#
# _framework density 23.018818
#
# number of rings (size 3 to 8) (size 9 to 14) (size 15 to 20)
#    1.200    0.800    2.000    1.800    0.000    4.000 
#    0.000    7.000    0.000    0.000    0.000    0.000 
#    0.000    0.000    0.000    0.000    0.000    0.000 
#
# Total GULP energy -55843.244709 kJ/mol
# GULP energy per Si atom -5584.324471 kJ/mol
# Density = 2.296643 g / cm^3
# Si number density = 23.018818 Si / 1000 Ang^3
#
#
#
# Elastic Constant Matrix: (Units=GPa)
#
#
# Indices 1 2 3 4 5 6 
#
# 1 87.1870 11.1005 25.2979 4.1234 1.8103 11.1472
# 2 11.1005 68.3697 36.9355 5.1797 5.1485 -1.3513
# 3 25.2979 36.9355 122.6731 20.0297 5.3353 12.7334
# 4 4.1234 5.1797 20.0297 38.5191 13.9482 -2.8909
# 5 1.8103 5.1485 5.3353 13.9482 49.3817 3.7777
# 6 11.1472 -1.3513 12.7334 -2.8909 3.7777 28.7131
#
#
#
# Elastic Compliance Matrix: (Units=1/GPa)
#
#
# Indices 1 2 3 4 5 6 
#
# 1 0.012702 -0.001205 -0.001691 -0.000791 0.000401 -0.004370
# 2 -0.001205 0.018091 -0.005859 0.001816 -0.002056 0.004371
# 3 -0.001691 -0.005859 0.011791 -0.006157 0.001572 -0.005675
# 4 -0.000791 0.001816 -0.006157 0.032983 -0.009399 0.007681
# 5 0.000401 -0.002056 0.001572 -0.009399 0.023315 -0.004963
# 6 -0.004370 0.004371 -0.005675 0.007681 -0.004963 0.040673
#
#
# Mechanical properties :
#
#
# Convention : Reuss Voigt Hill
#
# Bulk Modulus (GPa) = 39.88473 47.21084 43.54779
# Shear Modulus (GPa) = 30.22566 36.98251 33.60409
#
# Velocity S-wave (km/s) = 3.62758 4.01262 3.82495
# Velocity P-wave (km/s) = 5.90850 6.48246 6.20213
#
# Compressibility (1/GPa) = 0.02507225
#
# Stress axis : x y z
#
# Youngs Moduli (GPa) = 78.73038 55.27599 84.81308
#
# Poissons Ratio (x) = 0.06662 0.14342
# Poissons Ratio (y) = 0.09489 0.49694
# Poissons Ratio (z) = 0.13314 0.32387
#
# Static dielectric constant tensor:
#      x y z
#    x 1.869030 0.015630 -0.012900 
#    y 0.015630 1.901020 0.030400 
#    z -0.012900 0.030400 1.841500 
# 
# From -- ./inp_files/17054.got.cif
#   From: 2010.05.17/outbox.cif.g08.bks.cpg/sg2_9_cif.got.tgz:17054.got - 2010.06.03 11:33:40.
