data_PCOD9091650
_publ_section_title
;
Structure prediction by ZEFSAII (Michael W. Deem and Ramdas Pophale) SiO2 
 PCOD9091650
Probable space group: P -1
;
_chemical_formula_sum "Si O2"
_cell_formula_units_Z 16
_cell_length_a 8.843891
_cell_length_b 14.333987
_cell_length_c 15.575384
_cell_angle_alpha 124.661126
_cell_angle_beta 38.304006
_cell_angle_gamma 139.688910
_cell_volume 789.577107
_symmetry_space_group_name_H-M "P -1"
_symmetry_group_IT_number 2
_symmetry_cell_setting 'triclinic'
loop_
_space_group_symop_operation_xyz
x,y,z
-x,-y,-z
loop_
_atom_site_type_symbol
_atom_site_label
_atom_site_fract_x
_atom_site_fract_y
_atom_site_fract_z
Si Si1 0.193260 0.057475 0.358614
Si Si2 0.824166 0.540442 0.344235
Si Si3 0.140466 0.247061 0.858260
Si Si4 0.857234 0.390786 0.586492
Si Si5 0.276214 0.100733 0.111565
Si Si6 0.759353 0.293027 0.153213
Si Si7 0.863826 0.129123 0.407748
Si Si8 0.822845 0.209896 0.812240
O O1 0.553848 0.195898 0.275580
O O2 0.017071 0.095031 0.395076
O O3 0.194820 0.930123 0.258734
O O4 0.000000 0.000000 0.500000
O O5 0.500000 0.500000 0.500000
O O6 0.797307 0.436780 0.228206
O O7 0.979985 0.534181 0.356512
O O8 0.039006 0.698085 0.287356
O O9 0.490504 0.306487 0.719867
O O10 0.051536 0.290485 0.834019
O O11 0.912041 0.071770 0.882147
O O12 0.066856 0.310936 0.003435
O O13 0.916076 0.275103 0.480608
O O14 0.000000 0.500000 0.500000
O O15 0.530439 0.193953 0.123520
O O16 0.031954 0.131879 0.248316
O O17 0.484221 0.157512 0.963357
O O18 0.500000 0.000000 0.500000
#
# Coordination Sequence:
#
# PCOD9091650 Si02
#       8
#     2   2   2   2   2   2   2   2
#     4  11  20  35  61  92 122 160 210 257 306 366
#     4  12  26  43  61  96 136 166 213 261 318 384
#     4  11  20  41  70  91 129 167 214 265 312 376
#     4  12  27  45  64  91 132 173 210 263 324 379
#     4  10  19  39  68  98 127 159 219 263 311 379
#     4  10  21  38  64  93 127 171 209 257 314 379
#     4  11  21  38  64  92 119 163 212 257 307 371
#     4  11  20  39  68  96 124 166 209 267 316 367
#
# _framework density 20.264011
#
# number of rings (size 3 to 8) (size 9 to 14) (size 15 to 20)
#    0.000    1.000    5.000    4.500    0.000    4.500 
#    0.000    1.875    0.000    0.000    0.000    0.000 
#    0.000    0.000    0.000    0.000    0.000    0.000 
#
# Total GULP energy -89257.791675 kJ/mol
# GULP energy per Si atom -5578.611980 kJ/mol
# Density = 2.021789 g / cm^3
# Si number density = 20.264011 Si / 1000 Ang^3
#
#
#
# Elastic Constant Matrix: (Units=GPa)
#
#
# Indices 1 2 3 4 5 6 
#
# 1 60.6609 22.5590 36.9374 -14.0812 -5.5947 -7.7738
# 2 22.5590 93.6260 33.0772 7.1980 -9.8678 -15.9820
# 3 36.9374 33.0772 158.0984 -4.0157 -35.3326 -9.5465
# 4 -14.0812 7.1980 -4.0157 41.8219 -9.2784 -0.6800
# 5 -5.5947 -9.8678 -35.3326 -9.2784 24.6650 -0.8576
# 6 -7.7738 -15.9820 -9.5465 -0.6800 -0.8576 23.5353
#
#
#
# Elastic Compliance Matrix: (Units=1/GPa)
#
#
# Indices 1 2 3 4 5 6 
#
# 1 0.022806 -0.004062 -0.003708 0.008419 0.001528 0.003569
# 2 -0.004062 0.013810 -0.001109 -0.003274 0.002046 0.007566
# 3 -0.003708 -0.001109 0.011446 0.003792 0.016656 0.003381
# 4 0.008419 -0.003274 0.003792 0.031749 0.018102 0.003672
# 5 0.001528 0.002046 0.016656 0.018102 0.072789 0.011825
# 6 0.003569 0.007566 0.003381 0.003672 0.011825 0.050715
#
#
# Mechanical properties :
#
#
# Convention : Reuss Voigt Hill
#
# Bulk Modulus (GPa) = 32.99831 55.28141 44.13986
# Shear Modulus (GPa) = 21.62861 32.65855 27.14358
#
# Velocity S-wave (km/s) = 3.27056 4.01889 3.66388
# Velocity P-wave (km/s) = 5.53007 6.99108 6.30305
#
# Compressibility (1/GPa) = 0.03030459
#
# Stress axis : x y z
#
# Youngs Moduli (GPa) = 43.84826 72.40895 87.36396
#
# Poissons Ratio (x) = 0.29413 0.32391
# Poissons Ratio (y) = 0.17812 0.09692
# Poissons Ratio (z) = 0.16257 0.08033
#
# Static dielectric constant tensor:
#      x y z
#    x 1.716730 0.052830 0.008260 
#    y 0.052830 1.743710 0.027790 
#    z 0.008260 0.027790 1.784790 
# 
# From -- ./inp_files/504177.got.cif
#   From: 2010.05.17/outbox.cif.g08.bks.cpg/sg2_253_cif.got.tgz:504177.got - 2010.06.03 11:33:40.
