data_PCOD9091348
_publ_section_title
;
Structure prediction by ZEFSAII (Michael W. Deem and Ramdas Pophale) SiO2 
 PCOD9091348
Probable space group: P -1
;
_chemical_formula_sum "Si O2"
_cell_formula_units_Z 16
_cell_length_a 5.253452
_cell_length_b 17.447855
_cell_length_c 21.985627
_cell_angle_alpha 26.356491
_cell_angle_beta 123.277489
_cell_angle_gamma 126.286683
_cell_volume 720.212817
_symmetry_space_group_name_H-M "P -1"
_symmetry_group_IT_number 2
_symmetry_cell_setting 'triclinic'
loop_
_space_group_symop_operation_xyz
x,y,z
-x,-y,-z
loop_
_atom_site_type_symbol
_atom_site_label
_atom_site_fract_x
_atom_site_fract_y
_atom_site_fract_z
Si Si1 0.368930 0.544967 0.514131
Si Si2 0.828398 0.092048 0.861735
Si Si3 0.146249 0.611844 0.252536
Si Si4 0.776512 0.912504 0.338970
Si Si5 0.616000 0.879786 0.797502
Si Si6 0.886522 0.107253 0.056468
Si Si7 0.151066 0.754652 0.582785
Si Si8 0.723656 0.099860 0.382298
O O1 0.500000 0.500000 0.500000
O O2 0.531636 0.447432 0.654937
O O3 0.505161 0.756927 0.386037
O O4 0.000000 0.500000 0.500000
O O5 0.892303 0.290032 0.758988
O O6 0.453109 0.990168 0.889567
O O7 0.982607 0.044138 0.853678
O O8 0.000000 0.000000 0.000000
O O9 0.163125 0.752943 0.100208
O O10 0.887138 0.426706 0.331658
O O11 0.633295 0.073488 0.222237
O O12 0.092131 0.959813 0.305882
O O13 0.852924 0.827415 0.473088
O O14 0.842349 0.793773 0.929948
O O15 0.390626 0.820579 0.750913
O O16 0.194055 0.741820 0.669422
O O17 0.431416 0.928399 0.479908
O O18 0.000000 0.000000 0.500000
#
# Coordination Sequence:
#
# PCOD9091348 Si02
#       8
#     2   2   2   2   2   2   2   2
#     4  11  25  38  57  87 122 160 202 254 309 358
#     4  10  22  42  63  89 124 171 217 245 297 363
#     4  10  23  43  61  90 128 165 211 256 311 369
#     4  10  21  38  57  88 120 159 199 258 303 366
#     4  11  22  37  65  87 123 157 210 249 310 371
#     4  11  24  42  63  92 126 175 208 255 299 370
#     4   9  20  40  63  90 124 157 206 261 322 373
#     4  10  19  39  65  92 118 161 204 262 325 379
#
# _framework density 22.215657
#
# number of rings (size 3 to 8) (size 9 to 14) (size 15 to 20)
#    0.000    1.750    1.250    3.000    5.250    2.000 
#    6.750    0.625    0.000    0.750    0.000    0.000 
#    0.000    0.000    0.000    0.000    0.000    0.000 
#
# Total GULP energy -89113.665045 kJ/mol
# GULP energy per Si atom -5569.604065 kJ/mol
# Density = 2.216509 g / cm^3
# Si number density = 22.215657 Si / 1000 Ang^3
#
#
#
# Elastic Constant Matrix: (Units=GPa)
#
#
# Indices 1 2 3 4 5 6 
#
# 1 93.2620 27.4401 12.2638 7.4660 10.5581 5.8064
# 2 27.4401 105.1314 25.1796 22.4972 1.2185 2.8711
# 3 12.2638 25.1796 91.0775 23.2477 5.0727 -0.9031
# 4 7.4660 22.4972 23.2477 44.6916 -0.2486 -1.3423
# 5 10.5581 1.2185 5.0727 -0.2486 24.6446 8.3673
# 6 5.8064 2.8711 -0.9031 -1.3423 8.3673 25.7846
#
#
#
# Elastic Compliance Matrix: (Units=1/GPa)
#
#
# Indices 1 2 3 4 5 6 
#
# 1 0.012268 -0.002923 -0.000497 -0.000375 -0.004689 -0.000952
# 2 -0.002923 0.011687 -0.001785 -0.004501 0.001478 -0.001420
# 3 -0.000497 -0.001785 0.013217 -0.005867 -0.002964 0.001430
# 4 -0.000375 -0.004501 -0.005867 0.027805 0.001406 0.001371
# 5 -0.004689 0.001478 -0.002964 0.001406 0.048150 -0.014764
# 6 -0.000952 -0.001420 0.001430 0.001371 -0.014764 0.044068
#
#
# Mechanical properties :
#
#
# Convention : Reuss Voigt Hill
#
# Bulk Modulus (GPa) = 37.36447 46.58196 41.97321
# Shear Modulus (GPa) = 28.32479 33.99665 31.16072
#
# Velocity S-wave (km/s) = 3.57458 3.91615 3.74926
# Velocity P-wave (km/s) = 5.82171 6.43909 6.13817
#
# Compressibility (1/GPa) = 0.02676339
#
# Stress axis : x y z
#
# Youngs Moduli (GPa) = 81.51401 85.56510 75.66055
#
# Poissons Ratio (x) = 0.25007 0.03757
# Poissons Ratio (y) = 0.23823 0.13506
# Poissons Ratio (z) = 0.04048 0.15274
#
# Static dielectric constant tensor:
#      x y z
#    x 1.852920 -0.041800 -0.001130 
#    y -0.041800 1.967720 0.095070 
#    z -0.001130 0.095070 1.880760 
# 
# From -- ./inp_files/615753.got.cif
#   From: 2010.05.17/outbox.cif.g08.bks.cpg/sg2_308_cif.got.tgz:615753.got - 2010.06.03 11:33:40.
