data_PCOD9091266
_publ_section_title
;
Structure prediction by ZEFSAII (Michael W. Deem and Ramdas Pophale) SiO2 
 PCOD9091266
Probable space group: P -1
;
_chemical_formula_sum "Si O2"
_cell_formula_units_Z 14
_cell_length_a 9.477367
_cell_length_b 12.671230
_cell_length_c 12.650248
_cell_angle_alpha 37.064302
_cell_angle_beta 44.887802
_cell_angle_gamma 58.778661
_cell_volume 642.213904
_symmetry_space_group_name_H-M "P -1"
_symmetry_group_IT_number 2
_symmetry_cell_setting 'triclinic'
loop_
_space_group_symop_operation_xyz
x,y,z
-x,-y,-z
loop_
_atom_site_type_symbol
_atom_site_label
_atom_site_fract_x
_atom_site_fract_y
_atom_site_fract_z
Si Si1 0.092341 0.111329 0.763416
Si Si2 0.270378 0.479855 0.097454
Si Si3 0.314194 0.326320 0.633765
Si Si4 0.836862 0.841699 0.750180
Si Si5 0.389116 0.900233 0.237625
Si Si6 0.102331 0.654280 0.460733
Si Si7 0.968265 0.212469 0.083734
O O1 0.285097 0.221144 0.623321
O O2 0.939245 0.250176 0.701822
O O3 0.117065 0.982853 0.754980
O O4 0.000000 0.000000 0.000000
O O5 0.218787 0.319806 0.169973
O O6 0.110888 0.438535 0.311176
O O7 0.500000 0.500000 0.000000
O O8 0.202079 0.656195 0.939471
O O9 0.506163 0.258009 0.640092
O O10 0.275380 0.524722 0.469131
O O11 0.140615 0.271870 0.857306
O O12 0.923793 0.781441 0.864775
O O13 0.641386 0.943422 0.791553
O O14 0.000000 0.000000 0.500000
O O15 0.179554 0.807773 0.378606
O O16 0.500000 0.000000 0.000000
#
# Coordination Sequence:
#
# PCOD9091266 Si02
#       7
#     2   2   2   2   2   2   2
#     4  10  19  39  64  94 133 176 208 272 344 393
#     4  11  26  46  68  98 133 179 230 283 335 399
#     4  10  22  37  65 101 135 172 218 281 338 395
#     4  12  23  46  72  93 137 182 227 278 336 401
#     4  12  22  42  70 101 135 176 229 276 336 409
#     4  11  22  45  65  98 139 173 228 281 335 405
#     4  10  21  43  66  95 133 175 226 278 333 399
#
# _framework density 21.799589000000001
#
# number of rings (size 3 to 8) (size 9 to 14) (size 15 to 20)
#    0.000    1.143    4.286    2.143    2.000    0.000 
#    7.714    1.429    0.000    0.000    0.000    0.000 
#    0.000    0.000    0.000    0.000    0.000    0.000 
#
# Total GULP energy -78129.843290 kJ/mol
# GULP energy per Si atom -5580.703092 kJ/mol
# Density = 2.174997 g / cm^3
# Si number density = 21.799589 Si / 1000 Ang^3
#
#
#
# Elastic Constant Matrix: (Units=GPa)
#
#
# Indices 1 2 3 4 5 6 
#
# 1 162.2762 50.9815 45.2104 -16.4597 14.8741 -6.1332
# 2 50.9815 108.2116 38.8700 -13.6107 3.6354 0.9333
# 3 45.2104 38.8700 49.9226 -23.3021 18.4241 -10.1845
# 4 -16.4597 -13.6107 -23.3021 20.8661 -4.5791 -1.7523
# 5 14.8741 3.6354 18.4241 -4.5791 37.9703 -11.4480
# 6 -6.1332 0.9333 -10.1845 -1.7523 -11.4480 45.3229
#
#
#
# Elastic Compliance Matrix: (Units=1/GPa)
#
#
# Indices 1 2 3 4 5 6 
#
# 1 0.008603 -0.001354 -0.008961 -0.004104 0.000343 -0.000894
# 2 -0.001354 0.014892 -0.018128 -0.010685 0.005533 -0.003579
# 3 -0.008961 -0.018128 0.092139 0.079965 -0.024785 0.016696
# 4 -0.004104 -0.010685 0.079965 0.125180 -0.015477 0.018564
# 5 0.000343 0.005533 -0.024785 -0.015477 0.036751 0.003048
# 6 -0.000894 -0.003579 0.016696 0.018564 0.003048 0.027256
#
#
# Mechanical properties :
#
#
# Convention : Reuss Voigt Hill
#
# Bulk Modulus (GPa) = 17.02236 65.61490 41.31863
# Shear Modulus (GPa) = 13.11343 33.18842 23.15092
#
# Velocity S-wave (km/s) = 2.45530 3.90607 3.26235
# Velocity P-wave (km/s) = 3.98290 7.10687 5.76069
#
# Compressibility (1/GPa) = 0.05874626
#
# Stress axis : x y z
#
# Youngs Moduli (GPa) = 116.24097 67.15077 10.85323
#
# Poissons Ratio (x) = 0.09094 0.09726
# Poissons Ratio (y) = 0.15742 0.19675
# Poissons Ratio (z) = 1.04165 1.21732
#
# Static dielectric constant tensor:
#      x y z
#    x 1.801050 -0.018850 -0.009260 
#    y -0.018850 2.142830 0.169540 
#    z -0.009260 0.169540 1.961090 
# 
# From -- ./inp_files/154082.got.cif
#   From: 2010.05.17/outbox.cif.g08.bks.cpg/sg2_78_cif.got.tgz:154082.got - 2010.06.03 11:33:40.
