data_PCOD9091241
_publ_section_title
;
Structure prediction by ZEFSAII (Michael W. Deem and Ramdas Pophale) SiO2 
 PCOD9091241
Probable space group: P -1
;
_chemical_formula_sum "Si O2"
_cell_formula_units_Z 16
_cell_length_a 11.269656
_cell_length_b 17.042663
_cell_length_c 8.846779
_cell_angle_alpha 110.288324
_cell_angle_beta 99.346440
_cell_angle_gamma 28.405540
_cell_volume 718.399461
_symmetry_space_group_name_H-M "P -1"
_symmetry_group_IT_number 2
_symmetry_cell_setting 'triclinic'
loop_
_space_group_symop_operation_xyz
x,y,z
-x,-y,-z
loop_
_atom_site_type_symbol
_atom_site_label
_atom_site_fract_x
_atom_site_fract_y
_atom_site_fract_z
Si Si1 0.481522 0.847966 0.827065
Si Si2 0.579609 0.340544 0.792998
Si Si3 0.240676 0.896629 0.062313
Si Si4 0.987480 0.529276 0.838148
Si Si5 0.707012 0.981117 0.637016
Si Si6 0.509998 0.753759 0.447603
Si Si7 0.117501 0.273129 0.685759
Si Si8 0.935084 0.271382 0.914370
O O1 0.732800 0.739043 0.877882
O O2 0.561903 0.759973 0.624379
O O3 0.430749 0.804566 0.904858
O O4 0.213573 0.066547 0.899703
O O5 0.643506 0.238301 0.879075
O O6 0.606679 0.266847 0.600260
O O7 0.792556 0.282031 0.808550
O O8 0.288797 0.559555 0.901744
O O9 0.197304 0.014757 0.211021
O O10 0.000000 0.000000 0.000000
O O11 0.244087 0.404716 0.723950
O O12 0.974738 0.443521 0.711844
O O13 0.000000 0.500000 0.000000
O O14 0.874006 0.799626 0.494867
O O15 0.679169 0.060578 0.542488
O O16 0.413239 0.122913 0.691416
O O17 0.990657 0.309927 0.831063
#
# Coordination Sequence:
#
# PCOD9091241 Si02
#       8
#     2   2   2   2   2   2   2   2
#     4  12  23  39  64 100 123 162 225 267 316 381
#     4  10  23  43  65  88 131 173 216 259 330 385
#     4  11  22  41  64  92 127 175 219 259 318 394
#     4  11  23  43  68  91 132 176 207 260 337 393
#     4   9  20  38  66  90 125 170 212 259 324 389
#     4  10  21  41  66  95 125 169 216 267 317 385
#     4  10  19  39  64  92 125 166 210 261 332 379
#     4  11  22  39  66  95 126 169 212 275 319 375
#
# _framework density 22.271732
#
# number of rings (size 3 to 8) (size 9 to 14) (size 15 to 20)
#    0.000    1.500    2.500    4.125    0.000    1.500 
#    2.250    4.375    0.000    3.750    0.000    0.000 
#    0.000    0.000    0.000    0.000    0.000    0.000 
#
# Total GULP energy -89283.653440 kJ/mol
# GULP energy per Si atom -5580.228340 kJ/mol
# Density = 2.222104 g / cm^3
# Si number density = 22.271732 Si / 1000 Ang^3
#
#
#
# Elastic Constant Matrix: (Units=GPa)
#
#
# Indices 1 2 3 4 5 6 
#
# 1 86.5811 4.9040 12.4964 2.8950 29.8864 2.1311
# 2 4.9040 99.8955 17.6722 3.8112 22.9212 -18.0223
# 3 12.4964 17.6722 90.9767 -13.7504 26.8554 -15.8537
# 4 2.8950 3.8112 -13.7504 28.6190 4.5266 -1.9523
# 5 29.8864 22.9212 26.8554 4.5266 34.4672 0.4765
# 6 2.1311 -18.0223 -15.8537 -1.9523 0.4765 14.8971
#
#
#
# Elastic Compliance Matrix: (Units=1/GPa)
#
#
# Indices 1 2 3 4 5 6 
#
# 1 0.019389 0.007004 0.008610 0.007023 -0.029332 0.016721
# 2 0.007004 0.022455 0.014099 0.011454 -0.034100 0.043759
# 3 0.008610 0.014099 0.035717 0.026163 -0.048920 0.058830
# 4 0.007023 0.011454 0.026163 0.055287 -0.042034 0.049285
# 5 -0.029332 -0.034100 -0.048920 -0.042034 0.122123 -0.098535
# 6 0.016721 0.043759 0.058830 0.049285 -0.098535 0.189893
#
#
# Mechanical properties :
#
#
# Convention : Reuss Voigt Hill
#
# Bulk Modulus (GPa) = 7.30000 38.62205 22.96103
# Shear Modulus (GPa) = 11.59824 31.75537 21.67680
#
# Velocity S-wave (km/s) = 2.28449 3.78009 3.12314
# Velocity P-wave (km/s) = 3.20053 6.03582 4.83086
#
# Compressibility (1/GPa) = 0.13698622
#
# Stress axis : x y z
#
# Youngs Moduli (GPa) = 51.57597 44.53445 27.99764
#
# Poissons Ratio (x) = -0.31192 -0.24106
# Poissons Ratio (y) = -0.36124 -0.39474
# Poissons Ratio (z) = -0.44406 -0.62789
#
# Static dielectric constant tensor:
#      x y z
#    x 1.894730 -0.100170 0.019570 
#    y -0.100170 1.896690 0.033880 
#    z 0.019570 0.033880 1.875190 
# 
# From -- ./inp_files/279642.got.cif
#   From: 2010.05.17/outbox.cif.g08.bks.cpg/sg2_140_cif.got.tgz:279642.got - 2010.06.03 11:33:40.
