data_PCOD9091578
_publ_section_title
;
Structure prediction by ZEFSAII (Michael W. Deem and Ramdas Pophale) SiO2 
 PCOD9091578
Probable space group: P -1
;
_chemical_formula_sum "Si O2"
_cell_formula_units_Z 16
_cell_length_a 15.935184
_cell_length_b 8.526296
_cell_length_c 15.397541
_cell_angle_alpha 80.324409
_cell_angle_beta 144.978873
_cell_angle_gamma 125.763190
_cell_volume 725.925407
_symmetry_space_group_name_H-M "P -1"
_symmetry_group_IT_number 2
_symmetry_cell_setting 'triclinic'
loop_
_space_group_symop_operation_xyz
x,y,z
-x,-y,-z
loop_
_atom_site_type_symbol
_atom_site_label
_atom_site_fract_x
_atom_site_fract_y
_atom_site_fract_z
Si Si1 0.981824 0.351678 0.426325
Si Si2 0.853718 0.411007 0.795816
Si Si3 0.260347 0.387896 0.227465
Si Si4 0.341731 0.262903 0.612174
Si Si5 0.273403 0.042652 0.257277
Si Si6 0.410943 0.218450 0.872731
Si Si7 0.777034 0.479617 0.555505
Si Si8 0.138277 0.273558 0.712559
O O1 0.128815 0.522256 0.450477
O O2 0.095287 0.296115 0.576182
O O3 0.000000 0.500000 0.500000
O O4 0.718575 0.062071 0.209414
O O5 0.686260 0.412038 0.686774
O O6 0.945210 0.573294 0.770065
O O7 0.761985 0.159872 0.709513
O O8 0.000000 0.500000 0.000000
O O9 0.425047 0.551586 0.266996
O O10 0.298527 0.238555 0.305558
O O11 0.976974 0.151609 0.989064
O O12 0.406519 0.287121 0.765265
O O13 0.233185 0.342391 0.491098
O O14 0.115893 0.953710 0.434523
O O15 0.502600 0.210582 0.374341
O O16 0.263212 0.209343 0.812508
O O17 0.679573 0.453875 0.111326
#
# Coordination Sequence:
#
# PCOD9091578 Si02
#       8
#     2   2   2   2   2   2   2   2
#     4  11  23  42  64  98 141 170 219 273 327 410
#     4  10  22  43  62  88 135 174 219 282 332 392
#     4   9  20  40  61  98 122 171 222 271 326 400
#     4  10  19  39  67  96 134 165 225 272 332 407
#     4   9  20  39  62  89 134 167 221 278 321 397
#     4  10  20  41  66  96 130 168 224 271 330 397
#     4  11  21  41  66  93 127 183 216 263 349 397
#     4  10  20  41  67  93 130 172 216 283 322 399
#
# _framework density 22.040832000000002
#
# number of rings (size 3 to 8) (size 9 to 14) (size 15 to 20)
#    0.000    2.000    2.500    1.125    0.000    4.500 
#   22.500    1.250    0.000    0.000    0.000    0.000 
#    0.000    0.000    0.000    0.000    0.000    0.000 
#
# Total GULP energy -89116.469264 kJ/mol
# GULP energy per Si atom -5569.779329 kJ/mol
# Density = 2.199067 g / cm^3
# Si number density = 22.040832 Si / 1000 Ang^3
#
#
#
# Elastic Constant Matrix: (Units=GPa)
#
#
# Indices 1 2 3 4 5 6 
#
# 1 109.6360 43.3906 16.8539 5.6186 -5.5906 -1.5569
# 2 43.3906 80.8758 29.7382 -2.0852 0.1397 -4.1608
# 3 16.8539 29.7382 119.3625 8.7003 -4.8073 10.0002
# 4 5.6186 -2.0852 8.7003 40.3548 -7.7161 -1.3767
# 5 -5.5906 0.1397 -4.8073 -7.7161 13.8948 5.3076
# 6 -1.5569 -4.1608 10.0002 -1.3767 5.3076 43.3852
#
#
#
# Elastic Compliance Matrix: (Units=1/GPa)
#
#
# Indices 1 2 3 4 5 6 
#
# 1 0.011984 -0.006629 0.000310 -0.001217 0.004658 -0.000886
# 2 -0.006629 0.017608 -0.004015 0.001984 -0.004262 0.002961
# 3 0.000310 -0.004015 0.009883 -0.001759 0.003820 -0.003175
# 4 -0.001217 0.001984 -0.001759 0.028229 0.014691 -0.000349
# 5 0.004658 -0.004262 0.003820 0.014691 0.087716 -0.011387
# 6 -0.000886 0.002961 -0.003175 -0.000349 -0.011387 0.025415
#
#
# Mechanical properties :
#
#
# Convention : Reuss Voigt Hill
#
# Bulk Modulus (GPa) = 53.17225 54.42663 53.79944
# Shear Modulus (GPa) = 24.06488 34.18642 29.12565
#
# Velocity S-wave (km/s) = 3.30787 3.94261 3.63911
# Velocity P-wave (km/s) = 6.22625 6.74335 6.48995
#
# Compressibility (1/GPa) = 0.01880680
#
# Stress axis : x y z
#
# Youngs Moduli (GPa) = 83.44342 56.79174 101.18825
#
# Poissons Ratio (x) = 0.37645 -0.03135
# Poissons Ratio (y) = 0.55311 0.40631
# Poissons Ratio (z) = -0.02585 0.22804
#
# Static dielectric constant tensor:
#      x y z
#    x 1.815180 -0.029660 -0.022230 
#    y -0.029660 1.856100 -0.020510 
#    z -0.022230 -0.020510 1.897320 
# 
# From -- ./inp_files/529689.got.cif
#   From: 2010.05.17/outbox.cif.g08.bks.cpg/sg2_265_cif.got.tgz:529689.got - 2010.06.03 11:33:40.
