data_PCOD9091146
_publ_section_title
;
Structure prediction by ZEFSAII (Michael W. Deem and Ramdas Pophale) SiO2 
 PCOD9091146
Probable space group: P -1
;
_chemical_formula_sum "Si O2"
_cell_formula_units_Z 15
_cell_length_a 9.588299
_cell_length_b 9.384920
_cell_length_c 11.995275
_cell_angle_alpha 113.835837
_cell_angle_beta 138.632239
_cell_angle_gamma 90.834473
_cell_volume 555.044801
_symmetry_space_group_name_H-M "P -1"
_symmetry_group_IT_number 2
_symmetry_cell_setting 'triclinic'
loop_
_space_group_symop_operation_xyz
x,y,z
-x,-y,-z
loop_
_atom_site_type_symbol
_atom_site_label
_atom_site_fract_x
_atom_site_fract_y
_atom_site_fract_z
Si Si1 0.417349 0.621709 0.791889
Si Si2 0.765949 0.249571 0.751559
Si Si3 0.582064 0.210253 0.879495
Si Si4 0.000000 0.000000 0.500000
Si Si5 0.734941 0.950817 0.942899
Si Si6 0.047565 0.764460 0.576318
Si Si7 0.271681 0.116365 0.344264
Si Si8 0.150843 0.388632 0.832368
O O1 0.613449 0.749396 0.855193
O O2 0.208491 0.406406 0.584549
O O3 0.250870 0.716637 0.718349
O O4 0.612546 0.620296 0.994563
O O5 0.728050 0.243198 0.859740
O O6 0.545635 0.278818 0.588369
O O7 0.995716 0.368886 0.844575
O O8 0.739478 0.053253 0.651662
O O9 0.294390 0.136941 0.669865
O O10 0.590638 0.054643 0.903501
O O11 0.747426 0.411647 0.095444
O O12 0.891247 0.029784 0.322194
O O13 0.728551 0.918326 0.797519
O O14 0.011947 0.098910 0.196420
O O15 0.004945 0.757116 0.406482
#
# Coordination Sequence:
#
# PCOD9091146 Si02
#       8
#     2   2   2   1   2   2   2   2
#     4  11  22  42  69  97 129 181 219 265 335 392
#     4  10  21  39  66  96 128 173 223 268 336 392
#     4  11  25  42  65  98 135 173 219 278 329 385
#     4  12  24  44  68  96 138 168 222 282 318 396
#     4  10  19  39  63  95 134 168 224 271 326 398
#     4  11  26  45  68  99 134 175 224 270 331 394
#     4   9  19  35  64  97 126 170 217 276 331 388
#     4  12  24  46  69  98 135 177 218 277 332 396
#
# _framework density 27.024844000000002
#
# number of rings (size 3 to 8) (size 9 to 14) (size 15 to 20)
#    0.000    1.333    4.000    1.600    3.733    0.000 
#    2.400    4.667    0.000    0.000    0.000    0.000 
#    0.000    0.000    0.000    0.000    0.000    0.000 
#
# Total GULP energy -83504.240003 kJ/mol
# GULP energy per Si atom -5566.949334 kJ/mol
# Density = 2.696333 g / cm^3
# Si number density = 27.024844 Si / 1000 Ang^3
#
#
#
# Elastic Constant Matrix: (Units=GPa)
#
#
# Indices 1 2 3 4 5 6 
#
# 1 103.1364 24.6428 26.5923 6.2245 10.5956 24.0432
# 2 24.6428 149.0470 28.5774 -12.8024 13.7203 33.0016
# 3 26.5923 28.5774 93.3570 -24.3917 23.7200 3.0248
# 4 6.2245 -12.8024 -24.3917 58.7632 -5.1920 7.1713
# 5 10.5956 13.7203 23.7200 -5.1920 52.2787 -2.4043
# 6 24.0432 33.0016 3.0248 7.1713 -2.4043 31.2361
#
#
#
# Elastic Compliance Matrix: (Units=1/GPa)
#
#
# Indices 1 2 3 4 5 6 
#
# 1 0.013151 0.000876 -0.003607 -0.001588 -0.001898 -0.010480
# 2 0.000876 0.009926 -0.001629 0.002626 -0.002325 -0.011785
# 3 -0.003607 -0.001629 0.014929 0.005614 -0.004994 0.001379
# 4 -0.001588 0.002626 0.005614 0.020836 -0.001166 -0.006969
# 5 -0.001898 -0.002325 -0.004994 -0.001166 0.022568 0.006405
# 6 -0.010480 -0.011785 0.001379 -0.006969 0.006405 0.054492
#
#
# Mechanical properties :
#
#
# Convention : Reuss Voigt Hill
#
# Bulk Modulus (GPa) = 34.14746 56.12949 45.13847
# Shear Modulus (GPa) = 32.38692 46.17079 39.27886
#
# Velocity S-wave (km/s) = 3.46557 4.13783 3.81653
# Velocity P-wave (km/s) = 5.35505 6.60633 6.01332
#
# Compressibility (1/GPa) = 0.02928476
#
# Stress axis : x y z
#
# Youngs Moduli (GPa) = 76.04191 100.74671 66.98446
#
# Poissons Ratio (x) = -0.08827 0.24162
# Poissons Ratio (y) = -0.06663 0.10914
# Poissons Ratio (z) = 0.27429 0.16415
#
# Static dielectric constant tensor:
#      x y z
#    x 2.132600 0.248920 -0.003200 
#    y 0.248920 1.427940 -0.024740 
#    z -0.003200 -0.024740 2.218590 
# 
# From -- ./inp_files/197271.got.cif
#   From: 2010.05.17/outbox.cif.g08.bks.cpg/sg2_99_cif.got.tgz:197271.got - 2010.06.03 11:33:40.
