data_PCOD9091343
_publ_section_title
;
Structure prediction by ZEFSAII (Michael W. Deem and Ramdas Pophale) SiO2 
 PCOD9091343
Probable space group: P -1
;
_chemical_formula_sum "Si O2"
_cell_formula_units_Z 16
_cell_length_a 8.114848
_cell_length_b 11.485924
_cell_length_c 20.835207
_cell_angle_alpha 30.443243
_cell_angle_beta 48.619536
_cell_angle_gamma 60.449117
_cell_volume 723.119251
_symmetry_space_group_name_H-M "P -1"
_symmetry_group_IT_number 2
_symmetry_cell_setting 'triclinic'
loop_
_space_group_symop_operation_xyz
x,y,z
-x,-y,-z
loop_
_atom_site_type_symbol
_atom_site_label
_atom_site_fract_x
_atom_site_fract_y
_atom_site_fract_z
Si Si1 0.333988 0.139795 0.232996
Si Si2 0.698930 0.355742 0.941050
Si Si3 0.058962 0.896064 0.313516
Si Si4 0.840913 0.394285 0.752805
Si Si5 0.831809 0.176145 0.470043
Si Si6 0.211665 0.442822 0.784894
Si Si7 0.311053 0.506252 0.398872
Si Si8 0.264050 0.078541 0.042127
O O1 0.315765 0.390807 0.147132
O O2 0.109471 0.037462 0.298854
O O3 0.358071 0.967842 0.366968
O O4 0.532120 0.174198 0.113490
O O5 0.657099 0.363899 0.871946
O O6 0.954955 0.324441 0.893132
O O7 0.189511 0.679495 0.387521
O O8 0.804759 0.762471 0.428623
O O9 0.178739 0.049380 0.150714
O O10 0.752634 0.464632 0.673618
O O11 0.038663 0.599513 0.629507
O O12 0.901508 0.140320 0.846976
O O13 0.774186 0.283108 0.366305
O O14 0.000000 0.000000 0.500000
O O15 0.423275 0.405187 0.705920
O O16 0.253189 0.328572 0.896226
O O17 0.500000 0.000000 0.000000
#
# Coordination Sequence:
#
# PCOD9091343 Si02
#       8
#     2   2   2   2   2   2   2   2
#     4  11  21  42  64  90 126 173 205 255 314 373
#     4  10  24  38  66  92 125 164 216 253 311 374
#     4  10  21  38  66  91 127 167 204 253 322 370
#     4  10  19  39  65  91 121 172 202 251 315 372
#     4  11  22  42  65  88 130 168 211 255 309 374
#     4  11  23  41  65  98 124 162 219 257 311 374
#     4  10  21  38  64  96 123 162 211 258 311 376
#     4  11  21  39  65  93 132 163 200 264 319 372
#
# _framework density 22.126363000000001
#
# number of rings (size 3 to 8) (size 9 to 14) (size 15 to 20)
#    0.000    1.500    6.250    0.750    0.000    3.000 
#    0.000    3.750    0.000    0.000    0.000    0.000 
#    0.000    0.000    0.000    0.000    0.000    0.000 
#
# Total GULP energy -89122.805615 kJ/mol
# GULP energy per Si atom -5570.175351 kJ/mol
# Density = 2.207600 g / cm^3
# Si number density = 22.126363 Si / 1000 Ang^3
#
#
#
# Elastic Constant Matrix: (Units=GPa)
#
#
# Indices 1 2 3 4 5 6 
#
# 1 59.6890 25.5958 32.4603 1.6786 9.1688 -4.1176
# 2 25.5958 67.9146 19.0558 11.3521 7.4740 15.7797
# 3 32.4603 19.0558 171.2692 18.7518 22.6583 -3.3268
# 4 1.6786 11.3521 18.7518 34.4860 -2.8487 -2.2094
# 5 9.1688 7.4740 22.6583 -2.8487 45.1611 3.5009
# 6 -4.1176 15.7797 -3.3268 -2.2094 3.5009 29.0434
#
#
#
# Elastic Compliance Matrix: (Units=1/GPa)
#
#
# Indices 1 2 3 4 5 6 
#
# 1 0.024124 -0.010941 -0.003454 0.004769 -0.001793 0.009548
# 2 -0.010941 0.023813 0.000222 -0.008485 -0.001206 -0.014964
# 3 -0.003454 0.000222 0.007370 -0.004167 -0.003321 0.000317
# 4 0.004769 -0.008485 -0.004167 0.034613 0.004172 0.006939
# 5 -0.001793 -0.001206 -0.003321 0.004172 0.024842 -0.002656
# 6 0.009548 -0.014964 0.000317 0.006939 -0.002656 0.044799
#
#
# Mechanical properties :
#
#
# Convention : Reuss Voigt Hill
#
# Bulk Modulus (GPa) = 37.08994 50.34407 43.71700
# Shear Modulus (GPa) = 25.39427 36.52216 30.95821
#
# Velocity S-wave (km/s) = 3.39144 4.06719 3.74459
# Velocity P-wave (km/s) = 5.66877 6.69764 6.20457
#
# Compressibility (1/GPa) = 0.02696149
#
# Stress axis : x y z
#
# Youngs Moduli (GPa) = 41.45324 41.99321 135.67755
#
# Poissons Ratio (x) = 0.45943 0.46867
# Poissons Ratio (y) = 0.45353 -0.03012
# Poissons Ratio (z) = 0.14319 -0.00932
#
# Static dielectric constant tensor:
#      x y z
#    x 1.912120 -0.001050 -0.039890 
#    y -0.001050 1.787830 0.010200 
#    z -0.039890 0.010200 1.921540 
# 
# From -- ./inp_files/589273.got.cif
#   From: 2010.05.17/outbox.cif.g08.bks.cpg/sg2_295_cif.got.tgz:589273.got - 2010.06.03 11:33:40.
