data_PCOD9091594
_publ_section_title
;
Structure prediction by ZEFSAII (Michael W. Deem and Ramdas Pophale) SiO2 
 PCOD9091594
Probable space group: P -1
;
_chemical_formula_sum "Si O2"
_cell_formula_units_Z 16
_cell_length_a 18.541188
_cell_length_b 18.674845
_cell_length_c 10.197564
_cell_angle_alpha 33.890395
_cell_angle_beta 46.503194
_cell_angle_gamma 22.854724
_cell_volume 715.244495
_symmetry_space_group_name_H-M "P -1"
_symmetry_group_IT_number 2
_symmetry_cell_setting 'triclinic'
loop_
_space_group_symop_operation_xyz
x,y,z
-x,-y,-z
loop_
_atom_site_type_symbol
_atom_site_label
_atom_site_fract_x
_atom_site_fract_y
_atom_site_fract_z
Si Si1 0.529491 0.953378 0.876246
Si Si2 0.784435 0.103099 0.301576
Si Si3 0.156179 0.693196 0.186226
Si Si4 0.464235 0.439930 0.401927
Si Si5 0.041493 0.592346 0.873585
Si Si6 0.756270 0.049170 0.060087
Si Si7 0.234964 0.076559 0.033933
Si Si8 0.513818 0.216961 0.317485
O O1 0.568194 0.041891 0.614922
O O2 0.329660 0.109997 0.839293
O O3 0.723393 0.654471 0.052891
O O4 0.500000 0.000000 0.000000
O O5 0.649958 0.285040 0.319352
O O6 0.620771 0.225921 0.223578
O O7 0.937593 0.821896 0.574570
O O8 0.885159 0.114781 0.097902
O O9 0.309341 0.534571 0.357949
O O10 0.282663 0.492893 0.212183
O O11 0.951024 0.847100 0.215347
O O12 0.580388 0.213216 0.696972
O O13 0.349344 0.693165 0.214437
O O14 0.937585 0.715894 0.957871
O O15 0.000000 0.500000 0.000000
O O16 0.603312 0.117233 0.212026
O O17 0.825637 0.922840 0.024625
#
# Coordination Sequence:
#
# PCOD9091594 Si02
#       8
#     2   2   2   2   2   2   2   2
#     4  12  24  45  73  96 129 184 236 283 342 403
#     4  10  19  39  68 100 131 173 233 288 331 389
#     4  11  22  40  71 100 132 182 235 274 347 396
#     4  10  20  44  67  99 139 179 232 283 325 410
#     4  11  22  43  70 100 136 172 237 292 327 401
#     4  12  25  42  65 103 146 181 223 279 348 411
#     4  11  27  44  66 103 140 184 227 278 347 408
#     4  11  23  41  67  98 138 175 229 291 333 403
#
# _framework density 22.369973000000002
#
# number of rings (size 3 to 8) (size 9 to 14) (size 15 to 20)
#    0.000    1.000    5.000    3.000    1.750    3.500 
#    0.000    2.500    0.000    0.000    0.000    0.000 
#    0.000    0.000    0.000    0.000    0.000    0.000 
#
# Total GULP energy -89397.425919 kJ/mol
# GULP energy per Si atom -5587.339120 kJ/mol
# Density = 2.231906 g / cm^3
# Si number density = 22.369973 Si / 1000 Ang^3
#
#
#
# Elastic Constant Matrix: (Units=GPa)
#
#
# Indices 1 2 3 4 5 6 
#
# 1 78.0551 41.5110 14.8845 0.3812 3.0369 21.5780
# 2 41.5110 159.0475 35.4481 -5.8700 -0.3987 12.3705
# 3 14.8845 35.4481 94.3389 -0.5515 -0.0587 6.6970
# 4 0.3812 -5.8700 -0.5515 36.4925 1.1019 -2.6662
# 5 3.0369 -0.3987 -0.0587 1.1019 14.6893 -0.5345
# 6 21.5780 12.3705 6.6970 -2.6662 -0.5345 37.4697
#
#
#
# Elastic Compliance Matrix: (Units=1/GPa)
#
#
# Indices 1 2 3 4 5 6 
#
# 1 0.017589 -0.003796 -0.000728 -0.001336 -0.003966 -0.008898
# 2 -0.003796 0.007840 -0.002348 0.001247 0.000899 0.000119
# 3 -0.000728 -0.002348 0.011660 -0.000264 0.000120 -0.000907
# 4 -0.001336 0.001247 -0.000264 0.027837 -0.001693 0.002361
# 5 -0.003966 0.000899 0.000120 -0.001693 0.069152 0.002832
# 6 -0.008898 0.000119 -0.000907 0.002361 0.002832 0.032144
#
#
# Mechanical properties :
#
#
# Convention : Reuss Voigt Hill
#
# Bulk Modulus (GPa) = 42.83089 57.23651 50.03370
# Shear Modulus (GPa) = 26.63160 33.70350 30.16755
#
# Velocity S-wave (km/s) = 3.45412 3.88576 3.67628
# Velocity P-wave (km/s) = 5.92419 6.76565 6.35885
#
# Compressibility (1/GPa) = 0.02334764
#
# Stress axis : x y z
#
# Youngs Moduli (GPa) = 56.85219 127.54394 85.76356
#
# Poissons Ratio (x) = 0.48413 0.06240
# Poissons Ratio (y) = 0.21580 0.20135
# Poissons Ratio (z) = 0.04136 0.29944
#
# Static dielectric constant tensor:
#      x y z
#    x 1.837770 0.050880 0.007840 
#    y 0.050880 1.886590 -0.004790 
#    z 0.007840 -0.004790 1.871440 
# 
# From -- ./inp_files/472712.got.cif
#   From: 2010.05.17/outbox.cif.g08.bks.cpg/sg2_237_cif.got.tgz:472712.got - 2010.06.03 11:33:40.
