data_PCOD9091887
_publ_section_title
;
Structure prediction by ZEFSAII (Michael W. Deem and Ramdas Pophale) SiO2 
 PCOD9091887
Probable space group: P -1
;
_chemical_formula_sum "Si O2"
_cell_formula_units_Z 15
_cell_length_a 8.627943
_cell_length_b 12.280990
_cell_length_c 16.159770
_cell_angle_alpha 150.334793
_cell_angle_beta 51.476633
_cell_angle_gamma 118.149942
_cell_volume 652.273704
_symmetry_space_group_name_H-M "P -1"
_symmetry_group_IT_number 2
_symmetry_cell_setting 'triclinic'
loop_
_space_group_symop_operation_xyz
x,y,z
-x,-y,-z
loop_
_atom_site_type_symbol
_atom_site_label
_atom_site_fract_x
_atom_site_fract_y
_atom_site_fract_z
Si Si1 0.175401 0.351898 0.595273
Si Si2 0.255745 0.259921 0.801252
Si Si3 0.810094 0.246899 0.889095
Si Si4 0.000000 0.000000 0.500000
Si Si5 0.769008 0.475771 0.553305
Si Si6 0.611246 0.890999 0.791206
Si Si7 0.512569 0.164868 0.491852
Si Si8 0.189704 0.805021 0.815212
O O1 0.234333 0.257887 0.422622
O O2 0.368870 0.257028 0.525009
O O3 0.146997 0.617100 0.770067
O O4 0.996254 0.257475 0.636028
O O5 0.351318 0.160649 0.616375
O O6 0.017362 0.267875 0.880977
O O7 0.362673 0.086998 0.719818
O O8 0.292728 0.511548 0.950585
O O9 0.678113 0.128298 0.916967
O O10 0.873059 0.095428 0.687765
O O11 0.648060 0.729398 0.751564
O O12 0.670197 0.334571 0.561763
O O13 0.760783 0.321203 0.372362
O O14 0.000000 0.500000 0.500000
O O15 0.386686 0.895683 0.838273
O O16 0.000000 0.000000 0.000000
#
# Coordination Sequence:
#
# PCOD9091887 Si02
#       8
#     2   2   2   1   2   2   2   2
#     4  10  19  40  63  85 120 161 203 245 312 365
#     4  10  23  38  60  91 128 158 204 257 309 359
#     4  10  21  40  60  92 123 159 203 258 303 369
#     4  10  20  36  66  88 116 166 202 242 310 370
#     4  11  22  40  65  91 117 166 207 247 317 375
#     4  10  20  41  63  87 123 161 203 257 305 369
#     4  11  20  40  63  85 123 167 201 251 310 366
#     4  11  23  41  63  92 123 157 208 265 305 364
#
# _framework density 22.996479999999998
#
# number of rings (size 3 to 8) (size 9 to 14) (size 15 to 20)
#    0.000    1.600    4.000    1.600    0.000    2.133 
#    4.800    2.667    0.000    0.000    0.000    0.000 
#    0.000    0.000    0.000    0.000    0.000    0.000 
#
# Total GULP energy -83512.589350 kJ/mol
# GULP energy per Si atom -5567.505957 kJ/mol
# Density = 2.294414 g / cm^3
# Si number density = 22.996480 Si / 1000 Ang^3
#
#
#
# Elastic Constant Matrix: (Units=GPa)
#
#
# Indices 1 2 3 4 5 6 
#
# 1 57.9179 23.5846 22.1851 17.2432 -17.8569 6.9021
# 2 23.5846 135.3172 59.2474 36.6725 -17.8152 16.6894
# 3 22.1851 59.2474 84.9186 38.9874 -18.5071 -8.1089
# 4 17.2432 36.6725 38.9874 54.4554 -13.6980 2.7475
# 5 -17.8569 -17.8152 -18.5071 -13.6980 26.7304 7.8486
# 6 6.9021 16.6894 -8.1089 2.7475 7.8486 32.4884
#
#
#
# Elastic Compliance Matrix: (Units=1/GPa)
#
#
# Indices 1 2 3 4 5 6 
#
# 1 0.025546 0.001583 -0.004649 -0.000719 0.017963 -0.011680
# 2 0.001583 0.013580 -0.009086 -0.000920 0.006605 -0.011098
# 3 -0.004649 -0.009086 0.025770 -0.011873 -0.001343 0.013416
# 4 -0.000719 -0.000920 -0.011873 0.030100 0.008120 -0.006845
# 5 0.017963 0.006605 -0.001343 0.008120 0.064000 -0.023693
# 6 -0.011680 -0.011098 0.013416 -0.006845 -0.023693 0.048614
#
#
# Mechanical properties :
#
#
# Convention : Reuss Voigt Hill
#
# Bulk Modulus (GPa) = 24.63530 54.24309 39.43920
# Shear Modulus (GPa) = 20.37122 34.27728 27.32425
#
# Velocity S-wave (km/s) = 2.97954 3.86495 3.45076
# Velocity P-wave (km/s) = 4.75108 6.59968 5.75016
#
# Compressibility (1/GPa) = 0.04059216
#
# Stress axis : x y z
#
# Youngs Moduli (GPa) = 39.14493 73.63666 38.80542
#
# Poissons Ratio (x) = -0.11660 0.18040
# Poissons Ratio (y) = -0.06198 0.35260
# Poissons Ratio (z) = 0.18198 0.66909
#
# Static dielectric constant tensor:
#      x y z
#    x 1.916720 -0.004940 0.044770 
#    y -0.004940 1.921160 0.039790 
#    z 0.044770 0.039790 1.913790 
# 
# From -- ./inp_files/220260.got.cif
#   From: 2010.05.17/outbox.cif.g08.bks.cpg/sg2_111_cif.got.tgz:220260.got - 2010.06.03 11:33:40.
