data_PCOD9091079
_publ_section_title
;
Structure prediction by ZEFSAII (Michael W. Deem and Ramdas Pophale) SiO2 
 PCOD9091079
Probable space group: P -1
;
_chemical_formula_sum "Si O2"
_cell_formula_units_Z 14
_cell_length_a 8.824017
_cell_length_b 7.541587
_cell_length_c 22.983099
_cell_angle_alpha 127.600848
_cell_angle_beta 34.033155
_cell_angle_gamma 104.128659
_cell_volume 547.651380
_symmetry_space_group_name_H-M "P -1"
_symmetry_group_IT_number 2
_symmetry_cell_setting 'triclinic'
loop_
_space_group_symop_operation_xyz
x,y,z
-x,-y,-z
loop_
_atom_site_type_symbol
_atom_site_label
_atom_site_fract_x
_atom_site_fract_y
_atom_site_fract_z
Si Si1 0.091714 0.560344 0.395105
Si Si2 0.884302 0.165924 0.755421
Si Si3 0.583712 0.410827 0.521977
Si Si4 0.525103 0.214253 0.996374
Si Si5 0.264471 0.793512 0.800111
Si Si6 0.447112 0.878651 0.264111
Si Si7 0.654281 0.320435 0.091507
O O1 0.426546 0.422224 0.299996
O O2 0.260519 0.463562 0.258822
O O3 0.884420 0.437258 0.449109
O O4 0.830521 0.884870 0.556464
O O5 0.798482 0.469816 0.848780
O O6 0.733485 0.139435 0.738418
O O7 0.716301 0.121034 0.855565
O O8 0.270617 0.906746 0.581976
O O9 0.500000 0.500000 0.500000
O O10 0.293055 0.621557 0.700596
O O11 0.725685 0.270306 0.990218
O O12 0.500000 0.000000 0.000000
O O13 0.346173 0.009128 0.799857
O O14 0.879319 0.012356 0.985759
O O15 0.674927 0.567884 0.154615
#
# Coordination Sequence:
#
# PCOD9091079 Si02
#       7
#     2   2   2   2   2   2   2
#     4  11  21  40  64  91 128 165 208 264 324 375
#     4  10  19  39  63  88 123 173 211 261 320 383
#     4  11  21  38  68  91 123 172 222 256 313 393
#     4  10  22  37  61  91 128 167 211 262 325 378
#     4  11  21  38  62  96 123 164 212 257 321 384
#     4  10  20  39  64  89 122 169 217 253 317 386
#     4  11  23  36  62  94 128 160 210 269 319 378
#
# _framework density 25.563707999999998
#
# number of rings (size 3 to 8) (size 9 to 14) (size 15 to 20)
#    0.000    1.429    2.857    3.857    0.000    0.000 
#    0.000    0.000    3.143    3.429    0.000    0.000 
#    0.000    0.000    0.000    0.000    0.000    0.000 
#
# Total GULP energy -78187.317691 kJ/mol
# GULP energy per Si atom -5584.808407 kJ/mol
# Density = 2.550552 g / cm^3
# Si number density = 25.563708 Si / 1000 Ang^3
#
#
#
# Elastic Constant Matrix: (Units=GPa)
#
#
# Indices 1 2 3 4 5 6 
#
# 1 70.1723 4.5637 31.4112 4.6675 10.6692 -22.7353
# 2 4.5637 137.9829 39.9710 16.1735 4.9902 -0.7382
# 3 31.4112 39.9710 179.0857 41.2716 20.9964 -2.1238
# 4 4.6675 16.1735 41.2716 55.1208 -0.5112 -2.4573
# 5 10.6692 4.9902 20.9964 -0.5112 32.3061 -0.1474
# 6 -22.7353 -0.7382 -2.1238 -2.4573 -0.1474 29.5544
#
#
#
# Elastic Compliance Matrix: (Units=1/GPa)
#
#
# Indices 1 2 3 4 5 6 
#
# 1 0.021815 0.000389 -0.003439 0.001309 -0.004933 0.016629
# 2 0.000389 0.007822 -0.001487 -0.001205 -0.000388 0.000285
# 3 -0.003439 -0.001487 0.008263 -0.005612 -0.004105 -0.002576
# 4 0.001309 -0.001205 -0.005612 0.022733 0.003772 0.002483
# 5 -0.004933 -0.000388 -0.004105 0.003772 0.035354 -0.003609
# 6 0.016629 0.000285 -0.002576 0.002483 -0.003609 0.046638
#
#
# Mechanical properties :
#
#
# Convention : Reuss Voigt Hill
#
# Bulk Modulus (GPa) = 34.69259 59.90364 47.29812
# Shear Modulus (GPa) = 30.99609 44.14926 37.57267
#
# Velocity S-wave (km/s) = 3.48588 4.16026 3.83791
# Velocity P-wave (km/s) = 5.45915 6.82356 6.17913
#
# Compressibility (1/GPa) = 0.02882460
#
# Stress axis : x y z
#
# Youngs Moduli (GPa) = 45.83918 127.84267 121.01600
#
# Poissons Ratio (x) = -0.04969 0.41622
# Poissons Ratio (y) = -0.01782 0.18000
# Poissons Ratio (z) = 0.15766 0.19016
#
# Static dielectric constant tensor:
#      x y z
#    x 2.093030 -0.042270 -0.029680 
#    y -0.042270 2.097540 -0.004260 
#    z -0.029680 -0.004260 2.093790 
# 
# From -- ./inp_files/565978.got.cif
#   From: 2010.05.17/outbox.cif.g08.bks.cpg/sg2_283_cif.got.tgz:565978.got - 2010.06.03 11:33:40.
