data_PCOD9091136
_publ_section_title
;
Structure prediction by ZEFSAII (Michael W. Deem and Ramdas Pophale) SiO2 
 PCOD9091136
Probable space group: P -1
;
_chemical_formula_sum "Si O2"
_cell_formula_units_Z 15
_cell_length_a 9.509963
_cell_length_b 22.608345
_cell_length_c 7.877157
_cell_angle_alpha 39.682841
_cell_angle_beta 45.608944
_cell_angle_gamma 35.567257
_cell_volume 616.575776
_symmetry_space_group_name_H-M "P -1"
_symmetry_group_IT_number 2
_symmetry_cell_setting 'triclinic'
loop_
_space_group_symop_operation_xyz
x,y,z
-x,-y,-z
loop_
_atom_site_type_symbol
_atom_site_label
_atom_site_fract_x
_atom_site_fract_y
_atom_site_fract_z
Si Si1 0.732931 0.560309 0.505341
Si Si2 0.575050 0.423255 0.776581
Si Si3 0.107353 0.248902 0.611984
Si Si4 0.258980 0.933895 0.700006
Si Si5 0.485283 0.791249 0.393094
Si Si6 0.000000 0.000000 0.500000
Si Si7 0.245011 0.013441 0.907223
Si Si8 0.304650 0.340033 0.051492
O O1 0.632116 0.484065 0.736699
O O2 0.538567 0.680163 0.501485
O O3 0.000000 0.500000 0.500000
O O4 0.744255 0.597547 0.222473
O O5 0.500000 0.500000 0.500000
O O6 0.838746 0.301404 0.786569
O O7 0.379366 0.395126 0.007928
O O8 0.281652 0.245298 0.611837
O O9 0.246100 0.121315 0.698764
O O10 0.081153 0.338120 0.299233
O O11 0.224612 0.999770 0.410731
O O12 0.469084 0.798447 0.847236
O O13 0.219293 0.002302 0.753443
O O14 0.993748 0.954147 0.850497
O O15 0.230139 0.861972 0.554904
O O16 0.450949 0.884955 0.080251
#
# Coordination Sequence:
#
# PCOD9091136 Si02
#       8
#     2   2   2   2   2   1   2   2
#     4  11  23  45  72  98 136 184 232 290 350 412
#     4  10  24  43  71  94 136 184 227 283 349 403
#     4  12  23  42  70 103 136 178 235 285 342 415
#     4  10  19  39  63  94 137 175 221 275 339 408
#     4  11  22  41  68 100 138 183 225 288 345 413
#     4  10  22  38  64 100 138 174 222 286 338 412
#     4  10  22  38  67  96 136 182 219 273 351 409
#     4  11  23  44  71 100 136 182 234 281 348 413
#
# _framework density 24.327911
#
# number of rings (size 3 to 8) (size 9 to 14) (size 15 to 20)
#    0.000    1.333    5.333    0.400    0.000    2.667 
#    0.000    2.000    2.933    0.000    0.000    0.000 
#    0.000    0.000    0.000    0.000    0.000    0.000 
#
# Total GULP energy -83626.710194 kJ/mol
# GULP energy per Si atom -5575.114013 kJ/mol
# Density = 2.427254 g / cm^3
# Si number density = 24.327911 Si / 1000 Ang^3
#
#
#
# Elastic Constant Matrix: (Units=GPa)
#
#
# Indices 1 2 3 4 5 6 
#
# 1 127.1506 53.8809 41.2579 -18.7088 5.2471 19.3515
# 2 53.8809 136.9787 18.7497 -27.6024 -8.3799 14.2755
# 3 41.2579 18.7497 78.0421 -13.0733 -12.3110 12.3512
# 4 -18.7088 -27.6024 -13.0733 28.7928 8.5602 -6.5978
# 5 5.2471 -8.3799 -12.3110 8.5602 44.7217 -12.8264
# 6 19.3515 14.2755 12.3512 -6.5978 -12.8264 49.8473
#
#
#
# Elastic Compliance Matrix: (Units=1/GPa)
#
#
# Indices 1 2 3 4 5 6 
#
# 1 0.012234 -0.003441 -0.005423 0.002936 -0.005094 -0.003342
# 2 -0.003441 0.010160 0.000871 0.007488 0.000956 -0.000552
# 3 -0.005423 0.000871 0.016883 0.003455 0.004588 -0.000689
# 4 0.002936 0.007488 0.003455 0.047545 -0.006989 0.000354
# 5 -0.005094 0.000956 0.004588 -0.006989 0.027678 0.006764
# 6 -0.003342 -0.000552 -0.000689 0.000354 0.006764 0.023475
#
#
# Mechanical properties :
#
#
# Convention : Reuss Voigt Hill
#
# Bulk Modulus (GPa) = 42.93888 63.32761 53.13325
# Shear Modulus (GPa) = 30.91661 39.89122 35.40391
#
# Velocity S-wave (km/s) = 3.56874 4.05375 3.81895
# Velocity P-wave (km/s) = 5.88808 6.92805 6.42913
#
# Compressibility (1/GPa) = 0.02328891
#
# Stress axis : x y z
#
# Youngs Moduli (GPa) = 81.74175 98.42609 59.23090
#
# Poissons Ratio (x) = 0.33873 0.32123
# Poissons Ratio (y) = 0.28131 -0.05159
# Poissons Ratio (z) = 0.44332 -0.08573
#
# Static dielectric constant tensor:
#      x y z
#    x 2.387930 0.176860 0.615510 
#    y 0.176860 2.030120 0.295520 
#    z 0.615510 0.295520 2.912720 
# 
# From -- ./inp_files/221622.got.cif
#   From: 2010.05.17/outbox.cif.g08.bks.cpg/sg2_111_cif.got.tgz:221622.got - 2010.06.03 11:33:40.
