data_PCOD9091585
_publ_section_title
;
Structure prediction by ZEFSAII (Michael W. Deem and Ramdas Pophale) SiO2 
 PCOD9091585
Probable space group: P -1
;
_chemical_formula_sum "Si O2"
_cell_formula_units_Z 16
_cell_length_a 7.452192
_cell_length_b 12.216389
_cell_length_c 11.125194
_cell_angle_alpha 44.431315
_cell_angle_beta 95.042590
_cell_angle_gamma 71.594093
_cell_volume 593.188076
_symmetry_space_group_name_H-M "P -1"
_symmetry_group_IT_number 2
_symmetry_cell_setting 'triclinic'
loop_
_space_group_symop_operation_xyz
x,y,z
-x,-y,-z
loop_
_atom_site_type_symbol
_atom_site_label
_atom_site_fract_x
_atom_site_fract_y
_atom_site_fract_z
Si Si1 0.588408 0.292509 0.802300
Si Si2 0.843758 0.444965 0.817167
Si Si3 0.424820 0.809461 0.752700
Si Si4 0.095310 0.689387 0.818739
Si Si5 0.317967 0.926984 0.403588
Si Si6 0.336850 0.191362 0.025008
Si Si7 0.149189 0.230152 0.501759
Si Si8 0.797290 0.299869 0.583040
O O1 0.701881 0.358207 0.850855
O O2 0.758077 0.214478 0.765318
O O3 0.371591 0.479590 0.597633
O O4 0.502831 0.174065 0.949070
O O5 0.751562 0.642225 0.591952
O O6 0.859432 0.448040 0.960054
O O7 0.085997 0.311221 0.885310
O O8 0.296610 0.710853 0.806449
O O9 0.470214 0.847900 0.590991
O O10 0.618889 0.713556 0.932726
O O11 0.271907 0.013719 0.643377
O O12 0.018842 0.672611 0.696210
O O13 0.897064 0.888193 0.703072
O O14 0.260460 0.784544 0.465235
O O15 0.383445 0.001616 0.235601
O O16 0.029739 0.255330 0.600265
#
# Coordination Sequence:
#
# PCOD9091585 Si02
#       8
#     2   2   2   2   2   2   2   2
#     4  11  26  46  65  92 134 174 227 272 310 381
#     4  11  24  44  66  96 135 174 212 271 326 381
#     4  11  20  40  68 101 134 167 208 268 329 399
#     4  10  19  39  67  98 134 164 210 270 328 395
#     4  10  21  40  67  98 133 168 212 266 332 388
#     4  11  24  43  67  98 137 169 215 269 325 386
#     4  11  21  40  68 101 130 171 215 263 332 392
#     4  11  23  45  68  95 127 176 225 269 322 382
#
# _framework density 26.972897
#
# number of rings (size 3 to 8) (size 9 to 14) (size 15 to 20)
#    0.000    1.250    5.000    1.500    1.750    1.000 
#    2.250    7.500    0.000    0.000    0.000    0.000 
#    0.000    0.000    0.000    0.000    0.000    0.000 
#
# Total GULP energy -89628.585354 kJ/mol
# GULP energy per Si atom -5601.786585 kJ/mol
# Density = 2.691151 g / cm^3
# Si number density = 26.972897 Si / 1000 Ang^3
#
#
#
# Elastic Constant Matrix: (Units=GPa)
#
#
# Indices 1 2 3 4 5 6 
#
# 1 109.4606 -0.6455 30.6609 -1.4324 -34.2685 -15.3180
# 2 -0.6455 64.3910 33.4806 18.2176 -9.2420 -22.5704
# 3 30.6609 33.4806 99.7707 -1.3352 -19.5877 -35.6831
# 4 -1.4324 18.2176 -1.3352 37.9957 -16.3175 -7.2752
# 5 -34.2685 -9.2420 -19.5877 -16.3175 53.9615 9.6799
# 6 -15.3180 -22.5704 -35.6831 -7.2752 9.6799 41.6344
#
#
#
# Elastic Compliance Matrix: (Units=1/GPa)
#
#
# Indices 1 2 3 4 5 6 
#
# 1 0.012765 0.002453 -0.002018 0.003356 0.008278 0.002959
# 2 0.002453 0.024488 -0.007082 -0.011253 -0.001381 0.006463
# 3 -0.002018 -0.007082 0.018016 0.008015 0.004456 0.011224
# 4 0.003356 -0.011253 0.008015 0.039190 0.013958 0.005606
# 5 0.008278 -0.001381 0.004456 0.013958 0.029068 0.001797
# 6 0.002959 0.006463 0.011224 0.005606 0.001797 0.038792
#
#
# Mechanical properties :
#
#
# Convention : Reuss Voigt Hill
#
# Bulk Modulus (GPa) = 23.82338 44.51270 34.16804
# Shear Modulus (GPa) = 26.37083 40.72674 33.54878
#
# Velocity S-wave (km/s) = 3.13018 3.88998 3.53058
# Velocity P-wave (km/s) = 4.68140 6.05925 5.41433
#
# Compressibility (1/GPa) = 0.04197556
#
# Stress axis : x y z
#
# Youngs Moduli (GPa) = 78.33982 40.83681 55.50738
#
# Poissons Ratio (x) = -0.10017 0.11199
# Poissons Ratio (y) = -0.19215 0.39308
# Poissons Ratio (z) = 0.15806 0.28919
#
# Static dielectric constant tensor:
#      x y z
#    x 2.200770 -0.063110 0.049150 
#    y -0.063110 2.095350 -0.007640 
#    z 0.049150 -0.007640 2.110000 
# 
# From -- ./inp_files/398403.got.cif
#   From: 2010.05.17/outbox.cif.g08.bks.cpg/sg2_200_cif.got.tgz:398403.got - 2010.06.03 11:33:40.
