data_PCOD9091772
_publ_section_title
;
Structure prediction by ZEFSAII (Michael W. Deem and Ramdas Pophale) SiO2 
 PCOD9091772
Probable space group: P -1
;
_chemical_formula_sum "Si O2"
_cell_formula_units_Z 14
_cell_length_a 9.009043
_cell_length_b 10.805310
_cell_length_c 14.467943
_cell_angle_alpha 93.436070
_cell_angle_beta 151.195783
_cell_angle_gamma 92.631630
_cell_volume 663.029263
_symmetry_space_group_name_H-M "P -1"
_symmetry_group_IT_number 2
_symmetry_cell_setting 'triclinic'
loop_
_space_group_symop_operation_xyz
x,y,z
-x,-y,-z
loop_
_atom_site_type_symbol
_atom_site_label
_atom_site_fract_x
_atom_site_fract_y
_atom_site_fract_z
Si Si1 0.156875 0.313527 0.092427
Si Si2 0.915008 0.256878 0.769410
Si Si3 0.766040 0.089738 0.405688
Si Si4 0.696393 0.744544 0.197204
Si Si5 0.746808 0.484608 0.980008
Si Si6 0.360297 0.125341 0.340323
Si Si7 0.644684 0.028571 0.979929
O O1 0.380220 0.425017 0.159939
O O2 0.305339 0.234316 0.243490
O O3 0.977122 0.226549 0.908096
O O4 0.917837 0.387667 0.015079
O O5 0.576583 0.190334 0.544499
O O6 0.166069 0.228257 0.829853
O O7 0.989974 0.411318 0.819232
O O8 0.564477 0.047554 0.386275
O O9 0.001626 0.219558 0.568737
O O10 0.523407 0.077677 0.188548
O O11 0.000000 0.000000 0.500000
O O12 0.514741 0.601488 0.104747
O O13 0.463368 0.839420 0.097894
O O14 0.020094 0.051003 0.182153
O O15 0.500000 0.000000 0.000000
#
# Coordination Sequence:
#
# PCOD9091772 Si02
#       7
#     2   2   2   2   2   2   2
#     4   9  20  36  60  91 120 157 201 233 307 366
#     4   9  21  36  62  91 120 159 198 238 309 368
#     4   9  22  42  61  86 118 161 205 249 307 352
#     4  10  19  40  59  82 127 160 190 257 300 344
#     4   9  18  38  58  89 126 156 197 241 301 366
#     4  11  21  42  64  87 125 158 200 259 301 354
#     4  11  24  39  58  91 116 157 213 254 298 360
#
# _framework density 21.115207999999999
#
# number of rings (size 3 to 8) (size 9 to 14) (size 15 to 20)
#    0.857    1.429    1.429    0.857    2.000    1.714 
#    2.571    6.429    0.000    0.000    0.000    0.000 
#    0.000    0.000    0.000    0.000    0.000    0.000 
#
# Total GULP energy -78036.060639 kJ/mol
# GULP energy per Si atom -5574.004331 kJ/mol
# Density = 2.106715 g / cm^3
# Si number density = 21.115208 Si / 1000 Ang^3
#
#
#
# Elastic Constant Matrix: (Units=GPa)
#
#
# Indices 1 2 3 4 5 6 
#
# 1 84.3304 27.5197 60.4747 9.1770 7.5698 -19.5719
# 2 27.5197 67.2280 31.8371 1.3383 0.7332 1.5064
# 3 60.4747 31.8371 137.2356 16.3596 3.3956 -12.3989
# 4 9.1770 1.3383 16.3596 27.5982 0.9143 -2.3435
# 5 7.5698 0.7332 3.3956 0.9143 41.2322 7.0199
# 6 -19.5719 1.5064 -12.3989 -2.3435 7.0199 35.0271
#
#
#
# Elastic Compliance Matrix: (Units=1/GPa)
#
#
# Indices 1 2 3 4 5 6 
#
# 1 0.021995 -0.005840 -0.007006 -0.001773 -0.005188 0.010983
# 2 -0.005840 0.018489 -0.002465 0.002010 0.001779 -0.005153
# 3 -0.007006 -0.002465 0.011439 -0.004362 0.000511 -0.000153
# 4 -0.001773 0.002010 -0.004362 0.039325 -0.000233 0.000056
# 5 -0.005188 0.001779 0.000511 -0.000233 0.026520 -0.008125
# 6 0.010983 -0.005153 -0.000153 0.000056 -0.008125 0.036485
#
#
# Mechanical properties :
#
#
# Convention : Reuss Voigt Hill
#
# Bulk Modulus (GPa) = 46.94436 58.71744 52.83090
# Shear Modulus (GPa) = 26.04498 32.03567 29.04032
#
# Velocity S-wave (km/s) = 3.51589 3.89933 3.71256
# Velocity P-wave (km/s) = 6.22597 6.93841 6.59182
#
# Compressibility (1/GPa) = 0.02130181
#
# Stress axis : x y z
#
# Youngs Moduli (GPa) = 45.46392 54.08689 87.41923
#
# Poissons Ratio (x) = 0.31589 0.61243
# Poissons Ratio (y) = 0.26552 0.21547
# Poissons Ratio (z) = 0.31851 0.13331
#
# Static dielectric constant tensor:
#      x y z
#    x 1.770760 -0.002530 -0.003310 
#    y -0.002530 1.809970 -0.011650 
#    z -0.003310 -0.011650 1.757590 
# 
# From -- ./inp_files/171714.got.cif
#   From: 2010.05.17/outbox.cif.g08.bks.cpg/sg2_86_cif.got.tgz:171714.got - 2010.06.03 11:33:40.
