data_PCOD9091041
_publ_section_title
;
Structure prediction by ZEFSAII (Michael W. Deem and Ramdas Pophale) SiO2 
 PCOD9091041
Probable space group: P -1
;
_chemical_formula_sum "Si O2"
_cell_formula_units_Z 16
_cell_length_a 7.891589
_cell_length_b 16.278927
_cell_length_c 7.258111
_cell_angle_alpha 61.379986
_cell_angle_beta 53.699642
_cell_angle_gamma 95.133026
_cell_volume 560.485919
_symmetry_space_group_name_H-M "P -1"
_symmetry_group_IT_number 2
_symmetry_cell_setting 'triclinic'
loop_
_space_group_symop_operation_xyz
x,y,z
-x,-y,-z
loop_
_atom_site_type_symbol
_atom_site_label
_atom_site_fract_x
_atom_site_fract_y
_atom_site_fract_z
Si Si1 0.803458 0.254076 0.704329
Si Si2 0.691621 0.952809 0.585031
Si Si3 0.429628 0.260212 0.714222
Si Si4 0.456008 0.885473 0.438711
Si Si5 0.876681 0.804242 0.669083
Si Si6 0.047725 0.651010 0.118760
Si Si7 0.761594 0.467449 0.320067
Si Si8 0.587267 0.426069 0.915811
O O1 0.706181 0.319660 0.576718
O O2 0.987765 0.323745 0.673778
O O3 0.906324 0.203912 0.551088
O O4 0.550172 0.156503 0.059716
O O5 0.653989 0.963184 0.381591
O O6 0.895527 0.919843 0.494289
O O7 0.678498 0.048622 0.594131
O O8 0.414917 0.158471 0.732190
O O9 0.515822 0.379164 0.452903
O O10 0.205342 0.216062 0.043254
O O11 0.251565 0.772111 0.785142
O O12 0.640645 0.701402 0.824767
O O13 0.193596 0.585295 0.120847
O O14 0.851565 0.599000 0.135479
O O15 0.686335 0.462319 0.601724
O O16 0.000000 0.500000 0.000000
O O17 0.500000 0.500000 0.000000
#
# Coordination Sequence:
#
# PCOD9091041 Si02
#       8
#     2   2   2   2   2   2   2   2
#     4  10  20  38  62  88 116 159 202 242 295 367
#     4   9  20  40  63  85 114 158 201 245 301 357
#     4  10  21  38  57  90 122 153 197 250 306 355
#     4  10  19  39  63  83 122 156 192 255 304 346
#     4  10  20  38  59  88 121 153 204 245 292 368
#     4  11  20  38  61  85 117 161 204 238 298 368
#     4  11  21  36  59  87 120 156 200 249 302 355
#     4  11  22  37  60  88 120 164 203 246 299 364
#
# _framework density 28.546659999999999
#
# number of rings (size 3 to 8) (size 9 to 14) (size 15 to 20)
#    0.000    1.750    6.250    1.125    1.750    2.000 
#    0.000   12.500    0.000    0.000    0.000    0.000 
#    0.000    0.000    0.000    0.000    0.000    0.000 
#
# Total GULP energy -89179.657080 kJ/mol
# GULP energy per Si atom -5573.728568 kJ/mol
# Density = 2.848169 g / cm^3
# Si number density = 28.546660 Si / 1000 Ang^3
#
#
#
# Elastic Constant Matrix: (Units=GPa)
#
#
# Indices 1 2 3 4 5 6 
#
# 1 79.0946 54.2751 20.6470 22.0545 -2.7935 -24.3776
# 2 54.2751 301.9051 49.7808 61.6650 3.3061 -22.7754
# 3 20.6470 49.7808 89.3490 29.6646 -0.7918 -21.6088
# 4 22.0545 61.6650 29.6646 52.8044 -8.6899 -10.4756
# 5 -2.7935 3.3061 -0.7918 -8.6899 28.8090 3.0087
# 6 -24.3776 -22.7754 -21.6088 -10.4756 3.0087 62.0690
#
#
#
# Elastic Compliance Matrix: (Units=1/GPa)
#
#
# Indices 1 2 3 4 5 6 
#
# 1 0.016549 -0.001804 -0.000415 -0.003529 0.000205 0.005087
# 2 -0.001804 0.004749 -0.000637 -0.004772 -0.002189 0.000113
# 3 -0.000415 -0.000637 0.014852 -0.007035 -0.002066 0.003687
# 4 -0.003529 -0.004772 -0.007035 0.031359 0.009550 -0.000757
# 5 0.000205 -0.002189 -0.002066 0.009550 0.037981 -0.001671
# 6 0.005087 0.000113 0.003687 -0.000757 -0.001671 0.019387
#
#
# Mechanical properties :
#
#
# Convention : Reuss Voigt Hill
#
# Bulk Modulus (GPa) = 32.85435 79.97271 56.41353
# Shear Modulus (GPa) = 35.52805 51.77954 43.65379
#
# Velocity S-wave (km/s) = 3.53166 4.26356 3.91475
# Velocity P-wave (km/s) = 5.30699 7.23276 6.34338
#
# Compressibility (1/GPa) = 0.03043737
#
# Stress axis : x y z
#
# Youngs Moduli (GPa) = 60.42768 210.57561 67.33225
#
# Poissons Ratio (x) = 0.37995 0.02795
# Poissons Ratio (y) = 0.10903 0.04286
# Poissons Ratio (z) = 0.02508 0.13403
#
# Static dielectric constant tensor:
#      x y z
#    x 2.646450 0.085660 -0.135720 
#    y 0.085660 2.328030 -0.206750 
#    z -0.135720 -0.206750 2.638610 
# 
# From -- ./inp_files/272339.got.cif
#   From: 2010.05.17/outbox.cif.g08.bks.cpg/sg2_137_cif.got.tgz:272339.got - 2010.06.03 11:33:40.
