data_PCOD9091433
_publ_section_title
;
Structure prediction by ZEFSAII (Michael W. Deem and Ramdas Pophale) SiO2 
 PCOD9091433
Probable space group: P -1
;
_chemical_formula_sum "Si O2"
_cell_formula_units_Z 16
_cell_length_a 14.441023
_cell_length_b 20.494754
_cell_length_c 7.803009
_cell_angle_alpha 138.062174
_cell_angle_beta 112.597198
_cell_angle_gamma 35.344203
_cell_volume 730.148730
_symmetry_space_group_name_H-M "P -1"
_symmetry_group_IT_number 2
_symmetry_cell_setting 'triclinic'
loop_
_space_group_symop_operation_xyz
x,y,z
-x,-y,-z
loop_
_atom_site_type_symbol
_atom_site_label
_atom_site_fract_x
_atom_site_fract_y
_atom_site_fract_z
Si Si1 0.102490 0.527856 0.495785
Si Si2 0.048998 0.164280 0.822884
Si Si3 0.637620 0.293700 0.677949
Si Si4 0.304959 0.229660 0.327954
Si Si5 0.501648 0.756377 0.332157
Si Si6 0.932134 0.142159 0.368211
Si Si7 0.816759 0.219917 0.004141
Si Si8 0.286298 0.530461 0.382712
O O1 0.241036 0.331779 0.299982
O O2 0.208366 0.503000 0.377529
O O3 0.893981 0.659363 0.541706
O O4 0.040927 0.655889 0.849909
O O5 0.951376 0.195053 0.652292
O O6 0.279545 0.979805 0.591732
O O7 0.989928 0.145740 0.908451
O O8 0.516097 0.296938 0.615605
O O9 0.761181 0.210606 0.435825
O O10 0.500000 0.500000 0.000000
O O11 0.759578 0.202963 0.765594
O O12 0.358265 0.271002 0.579774
O O13 0.500000 0.000000 0.000000
O O14 0.572571 0.628977 0.976109
O O15 0.883057 0.262692 0.425476
O O16 0.117582 0.913913 0.067432
O O17 0.653367 0.434106 0.370282
#
# Coordination Sequence:
#
# PCOD9091433 Si02
#       8
#     2   2   2   2   2   2   2   2
#     4  10  24  47  67  95 129 157 212 278 325 383
#     4  10  19  39  66  88 125 173 216 259 303 387
#     4  11  21  37  62  90 127 173 219 256 295 384
#     4  11  24  46  77  94 115 169 225 263 323 395
#     4  12  22  40  64  99 126 164 225 259 313 383
#     4  11  19  38  60  89 128 179 214 247 321 375
#     4  10  21  38  57  88 130 177 215 251 317 373
#     4  11  25  38  59  96 132 167 204 269 335 366
#
# _framework density 21.913342
#
# number of rings (size 3 to 8) (size 9 to 14) (size 15 to 20)
#    0.000    1.250    5.000    1.875    3.500    1.000 
#    2.250    0.625    0.000    0.000    0.000    0.000 
#    0.000    0.000    0.000    0.000    0.000    0.000 
#
# Total GULP energy -89253.170335 kJ/mol
# GULP energy per Si atom -5578.323146 kJ/mol
# Density = 2.186347 g / cm^3
# Si number density = 21.913342 Si / 1000 Ang^3
#
#
#
# Elastic Constant Matrix: (Units=GPa)
#
#
# Indices 1 2 3 4 5 6 
#
# 1 104.9427 26.9352 37.3398 0.0583 -4.3521 4.6942
# 2 26.9352 63.5109 33.7306 24.5372 -8.4576 16.3559
# 3 37.3398 33.7306 122.9909 0.2790 -2.9900 -4.5375
# 4 0.0583 24.5372 0.2790 35.2545 7.1418 4.6075
# 5 -4.3521 -8.4576 -2.9900 7.1418 31.6380 -1.1759
# 6 4.6942 16.3559 -4.5375 4.6075 -1.1759 37.5716
#
#
#
# Elastic Compliance Matrix: (Units=1/GPa)
#
#
# Indices 1 2 3 4 5 6 
#
# 1 0.011639 -0.005648 -0.002010 0.004104 -0.001017 0.000227
# 2 -0.005648 0.039684 -0.009245 -0.028776 0.014945 -0.013690
# 3 -0.002010 -0.009245 0.011368 0.006315 -0.002921 0.004783
# 4 0.004104 -0.028776 0.006315 0.051179 -0.017863 0.005941
# 5 -0.001017 0.014945 -0.002921 -0.017863 0.039096 -0.003317
# 6 0.000227 -0.013690 0.004783 0.005941 -0.003317 0.032292
#
#
# Mechanical properties :
#
#
# Convention : Reuss Voigt Hill
#
# Bulk Modulus (GPa) = 34.62130 54.16175 44.39153
# Shear Modulus (GPa) = 21.86347 33.78874 27.82611
#
# Velocity S-wave (km/s) = 3.16210 3.93100 3.56733
# Velocity P-wave (km/s) = 5.40050 6.73600 6.10487
#
# Compressibility (1/GPa) = 0.02888395
#
# Stress axis : x y z
#
# Youngs Moduli (GPa) = 85.91542 25.19925 87.96876
#
# Poissons Ratio (x) = 0.14232 0.17686
# Poissons Ratio (y) = 0.48523 0.81329
# Poissons Ratio (z) = 0.17273 0.23297
#
# Static dielectric constant tensor:
#      x y z
#    x 1.807990 -0.000130 -0.023890 
#    y -0.000130 1.967340 -0.006340 
#    z -0.023890 -0.006340 1.875380 
# 
# From -- ./inp_files/318810.got.cif
#   From: 2010.05.17/outbox.cif.g08.bks.cpg/sg2_160_cif.got.tgz:318810.got - 2010.06.03 11:33:40.
