data_PCOD9091503
_publ_section_title
;
Structure prediction by ZEFSAII (Michael W. Deem and Ramdas Pophale) SiO2 
 PCOD9091503
Probable space group: P -1
;
_chemical_formula_sum "Si O2"
_cell_formula_units_Z 14
_cell_length_a 18.013291
_cell_length_b 9.264525
_cell_length_c 24.984776
_cell_angle_alpha 153.719234
_cell_angle_beta 160.307940
_cell_angle_gamma 29.600364
_cell_volume 613.086622
_symmetry_space_group_name_H-M "P -1"
_symmetry_group_IT_number 2
_symmetry_cell_setting 'triclinic'
loop_
_space_group_symop_operation_xyz
x,y,z
-x,-y,-z
loop_
_atom_site_type_symbol
_atom_site_label
_atom_site_fract_x
_atom_site_fract_y
_atom_site_fract_z
Si Si1 0.931898 0.494062 0.220392
Si Si2 0.626512 0.798712 0.204100
Si Si3 0.243718 0.462170 0.677252
Si Si4 0.844550 0.844868 0.126911
Si Si5 0.145096 0.134977 0.979000
Si Si6 0.304220 0.737611 0.120832
Si Si7 0.252350 0.493053 0.350050
O O1 0.812655 0.768410 0.272957
O O2 0.162750 0.562422 0.373245
O O3 0.771148 0.443571 0.043909
O O4 0.956777 0.132242 0.144072
O O5 0.729094 0.703891 0.300670
O O6 0.411977 0.097598 0.161558
O O7 0.500000 0.500000 0.000000
O O8 0.434009 0.257668 0.702702
O O9 0.000000 0.500000 0.500000
O O10 0.296278 0.836649 0.835388
O O11 0.082669 0.744057 0.282836
O O12 0.867144 0.975903 0.126955
O O13 0.744838 0.507376 0.947310
O O14 0.000000 0.500000 0.000000
O O15 0.201791 0.122341 0.181982
O O16 0.500000 0.500000 0.500000
#
# Coordination Sequence:
#
# PCOD9091503 Si02
#       7
#     2   2   2   2   2   2   2
#     4  10  19  40  68  88 129 178 229 272 324 404
#     4  10  19  39  66  96 133 178 223 274 328 399
#     4  12  23  39  66 101 143 175 219 283 339 397
#     4  11  22  38  65  99 125 179 237 262 331 415
#     4  11  19  35  67 102 127 164 231 278 321 391
#     4  11  21  40  66  93 132 178 231 277 324 406
#     4  11  24  41  62  98 138 177 221 289 350 385
#
# _framework density 22.835272
#
# number of rings (size 3 to 8) (size 9 to 14) (size 15 to 20)
#    0.000    1.143    5.714    4.714    0.000    1.143 
#    0.000    0.714    6.286    5.143    0.000    0.000 
#    0.000    0.000    0.000    0.000    0.000    0.000 
#
# Total GULP energy -78092.458743 kJ/mol
# GULP energy per Si atom -5578.032767 kJ/mol
# Density = 2.278330 g / cm^3
# Si number density = 22.835272 Si / 1000 Ang^3
#
#
#
# Elastic Constant Matrix: (Units=GPa)
#
#
# Indices 1 2 3 4 5 6 
#
# 1 124.0567 33.4913 50.5088 -30.1811 33.5920 13.2691
# 2 33.4913 169.9059 42.0993 -21.4880 7.4360 -3.3491
# 3 50.5088 42.0993 60.2119 -10.7019 22.5895 6.2177
# 4 -30.1811 -21.4880 -10.7019 41.8644 3.6335 -1.6630
# 5 33.5920 7.4360 22.5895 3.6335 26.6218 -9.0260
# 6 13.2691 -3.3491 6.2177 -1.6630 -9.0260 36.7175
#
#
#
# Elastic Compliance Matrix: (Units=1/GPa)
#
#
# Indices 1 2 3 4 5 6 
#
# 1 0.028844 -0.001230 0.000673 0.023576 -0.047008 -0.021138
# 2 -0.001230 0.007816 -0.007258 0.000842 0.006802 0.004097
# 3 0.000673 -0.007258 0.039167 0.009495 -0.039014 -0.016698
# 4 0.023576 0.000842 0.009495 0.047393 -0.051479 -0.020559
# 5 -0.047008 0.006802 -0.039014 -0.051479 0.155489 0.060106
# 6 -0.021138 0.004097 -0.016698 -0.020559 0.060106 0.051919
#
#
# Mechanical properties :
#
#
# Convention : Reuss Voigt Hill
#
# Bulk Modulus (GPa) = 16.61232 67.37480 41.99356
# Shear Modulus (GPa) = 13.64910 36.24575 24.94742
#
# Velocity S-wave (km/s) = 2.44748 3.98838 3.30888
# Velocity P-wave (km/s) = 3.90865 7.12589 5.74699
#
# Compressibility (1/GPa) = 0.06019630
#
# Stress axis : x y z
#
# Youngs Moduli (GPa) = 34.66892 127.94114 25.53187
#
# Poissons Ratio (x) = 0.15739 -0.01719
# Poissons Ratio (y) = 0.04265 0.18532
# Poissons Ratio (z) = -0.02334 0.92864
#
# Static dielectric constant tensor:
#      x y z
#    x 1.968050 -0.081470 0.034070 
#    y -0.081470 1.900730 0.024170 
#    z 0.034070 0.024170 1.921890 
# 
# From -- ./inp_files/347413.got.cif
#   From: 2010.05.17/outbox.cif.g08.bks.cpg/sg2_174_cif.got.tgz:347413.got - 2010.06.03 11:33:40.
