data_PCOD9091320
_publ_section_title
;
Structure prediction by ZEFSAII (Michael W. Deem and Ramdas Pophale) SiO2 
 PCOD9091320
Probable space group: P -1
;
_chemical_formula_sum "Si O2"
_cell_formula_units_Z 16
_cell_length_a 13.047959
_cell_length_b 25.007228
_cell_length_c 16.541246
_cell_angle_alpha 21.798000
_cell_angle_beta 147.045262
_cell_angle_gamma 157.624223
_cell_volume 755.675064
_symmetry_space_group_name_H-M "P -1"
_symmetry_group_IT_number 2
_symmetry_cell_setting 'triclinic'
loop_
_space_group_symop_operation_xyz
x,y,z
-x,-y,-z
loop_
_atom_site_type_symbol
_atom_site_label
_atom_site_fract_x
_atom_site_fract_y
_atom_site_fract_z
Si Si1 0.502004 0.434638 0.684295
Si Si2 0.099983 0.134012 0.621593
Si Si3 0.432917 0.232474 0.310558
Si Si4 0.668946 0.596268 0.851694
Si Si5 0.285876 0.933970 0.752705
Si Si6 0.693719 0.936646 0.001681
Si Si7 0.505603 0.842705 0.258681
Si Si8 0.793552 0.585445 0.334280
O O1 0.500000 0.500000 0.500000
O O2 0.799956 0.645758 0.618173
O O3 0.305476 0.408710 0.652744
O O4 0.407660 0.216912 0.924746
O O5 0.304773 0.154793 0.672447
O O6 0.146986 0.091390 0.799693
O O7 0.809863 0.934986 0.676141
O O8 0.353214 0.298185 0.238691
O O9 0.453793 0.092054 0.566997
O O10 0.650897 0.435413 0.115141
O O11 0.420164 0.481163 0.784605
O O12 0.961810 0.763748 0.766928
O O13 0.411661 0.846290 0.975706
O O14 0.358914 0.069623 0.687746
O O15 0.908650 0.185081 0.799369
O O16 0.225553 0.599129 0.420265
O O17 0.500000 0.000000 0.000000
#
# Coordination Sequence:
#
# PCOD9091320 Si02
#       8
#     2   2   2   2   2   2   2   2
#     4   9  21  40  65  90 116 167 219 266 307 368
#     4  10  19  39  65  88 121 166 215 254 306 378
#     4  11  22  40  63  94 131 171 214 249 308 399
#     4  11  23  39  66  92 131 172 210 252 313 388
#     4  12  23  38  61  94 136 161 204 264 326 372
#     4  11  23  40  62  94 125 160 213 268 315 360
#     4  11  21  35  58  93 131 164 198 262 324 369
#     4  11  22  41  66  92 122 170 216 257 311 387
#
# _framework density 21.173121999999999
#
# number of rings (size 3 to 8) (size 9 to 14) (size 15 to 20)
#    0.000    1.250    5.000    2.250    0.000    1.500 
#    0.000    2.500    0.000    1.500    0.000    0.000 
#    0.000    0.000    0.000    0.000    0.000    0.000 
#
# Total GULP energy -89091.964192 kJ/mol
# GULP energy per Si atom -5568.247762 kJ/mol
# Density = 2.112493 g / cm^3
# Si number density = 21.173122 Si / 1000 Ang^3
#
#
#
# Elastic Constant Matrix: (Units=GPa)
#
#
# Indices 1 2 3 4 5 6 
#
# 1 31.5214 31.4096 -0.4461 -9.2394 1.5846 -15.0531
# 2 31.4096 100.2394 57.2809 -19.2285 15.8923 -9.3237
# 3 -0.4461 57.2809 103.8282 -28.2635 -9.4029 -3.9858
# 4 -9.2394 -19.2285 -28.2635 31.8870 -15.1600 3.6730
# 5 1.5846 15.8923 -9.4029 -15.1600 27.0878 -3.1017
# 6 -15.0531 -9.3237 -3.9858 3.6730 -3.1017 22.8371
#
#
#
# Elastic Compliance Matrix: (Units=1/GPa)
#
#
# Indices 1 2 3 4 5 6 
#
# 1 -0.078322 0.065208 -0.078927 -0.109047 -0.126502 -0.038421
# 2 0.065208 -0.030236 0.043953 0.069831 0.072492 0.036923
# 3 -0.078927 0.043953 -0.040733 -0.063702 -0.075681 -0.041223
# 4 -0.109047 0.069831 -0.063702 -0.051751 -0.092389 -0.058711
# 5 -0.126502 0.072492 -0.075681 -0.092389 -0.083459 -0.063472
# 6 -0.038421 0.036923 -0.041223 -0.058711 -0.063472 0.027165
#
#
# Mechanical properties :
#
#
# Convention : Reuss Voigt Hill
#
# Bulk Modulus (GPa) = -11.25839 45.78643 17.26402
# Shear Modulus (GPa) = -14.39214 26.18535 5.89661
#
# Velocity S-wave (km/s) = -2.61000 3.52053 1.67063
# Velocity P-wave (km/s) = 3.79627 6.18039 3.44859
#
# Compressibility (1/GPa) = -0.08882268
#
# Stress axis : x y z
#
# Youngs Moduli (GPa) = -12.76781 -33.07279 -24.55030
#
# Poissons Ratio (x) = 2.15662 -1.93767
# Poissons Ratio (y) = 0.83257 1.07905
# Poissons Ratio (z) = -1.00772 1.45363
#
# Static dielectric constant tensor:
#      x y z
#    x 1.759940 -0.002750 -0.050580 
#    y -0.002750 1.756420 -0.034000 
#    z -0.050580 -0.034000 1.891950 
# 
# From -- ./inp_files/222981.got.cif
#   From: 2010.05.17/outbox.cif.g08.bks.cpg/sg2_112_cif.got.tgz:222981.got - 2010.06.03 11:33:40.
