data_PCOD9091188
_publ_section_title
;
Structure prediction by ZEFSAII (Michael W. Deem and Ramdas Pophale) SiO2 
 PCOD9091188
Probable space group: P -1
;
_chemical_formula_sum "Si O2"
_cell_formula_units_Z 16
_cell_length_a 12.270126
_cell_length_b 7.968769
_cell_length_c 12.022968
_cell_angle_alpha 71.863377
_cell_angle_beta 48.173833
_cell_angle_gamma 53.001836
_cell_volume 691.575935
_symmetry_space_group_name_H-M "P -1"
_symmetry_group_IT_number 2
_symmetry_cell_setting 'triclinic'
loop_
_space_group_symop_operation_xyz
x,y,z
-x,-y,-z
loop_
_atom_site_type_symbol
_atom_site_label
_atom_site_fract_x
_atom_site_fract_y
_atom_site_fract_z
Si Si1 0.522732 0.230468 0.927575
Si Si2 0.783912 0.668416 0.024381
Si Si3 0.410366 0.442599 0.477168
Si Si4 0.287777 0.735651 0.024580
Si Si5 0.076112 0.084524 0.697188
Si Si6 0.802756 0.103949 0.572698
Si Si7 0.167376 0.314290 0.770365
Si Si8 0.764414 0.266080 0.175974
O O1 0.364149 0.213562 0.994773
O O2 0.617241 0.169171 0.996034
O O3 0.670583 0.125175 0.752907
O O4 0.426993 0.488718 0.948767
O O5 0.782688 0.774920 0.119154
O O6 0.757136 0.483085 0.126179
O O7 0.978593 0.540000 0.866282
O O8 0.500000 0.500000 0.500000
O O9 0.272431 0.657307 0.463663
O O10 0.317906 0.337302 0.614031
O O11 0.575055 0.300761 0.314563
O O12 0.134712 0.765472 0.204492
O O13 0.182693 0.835942 0.960810
O O14 0.134063 0.184449 0.730249
O O15 0.180706 0.027064 0.522494
O O16 0.124281 0.864262 0.765922
O O17 0.000000 0.000000 0.500000
#
# Coordination Sequence:
#
# PCOD9091188 Si02
#       8
#     2   2   2   2   2   2   2   2
#     4  10  19  39  64  86 124 171 219 244 321 395
#     4  10  20  40  66  91 123 179 212 255 324 390
#     4  12  22  44  65  90 129 180 214 254 335 400
#     4  10  20  36  65  93 121 169 218 260 304 388
#     4  12  23  37  65 105 129 157 224 277 314 365
#     4  12  23  40  68  97 129 169 220 264 320 389
#     4  11  23  38  63  99 131 163 213 279 319 374
#     4  11  21  39  68  95 124 169 222 258 317 392
#
# _framework density 23.135567000000002
#
# number of rings (size 3 to 8) (size 9 to 14) (size 15 to 20)
#    0.000    1.000    8.750    0.375    0.000    0.500 
#    0.000    0.625    0.000    1.500    0.000    0.000 
#    0.000    0.000    0.000    0.000    0.000    0.000 
#
# Total GULP energy -89355.405471 kJ/mol
# GULP energy per Si atom -5584.712842 kJ/mol
# Density = 2.308291 g / cm^3
# Si number density = 23.135567 Si / 1000 Ang^3
#
#
#
# Elastic Constant Matrix: (Units=GPa)
#
#
# Indices 1 2 3 4 5 6 
#
# 1 135.3841 21.2729 10.4607 13.0149 11.0796 4.7990
# 2 21.2729 36.0994 16.9810 8.3996 -7.1534 1.9134
# 3 10.4607 16.9810 120.2828 31.5201 -6.5467 2.4774
# 4 13.0149 8.3996 31.5201 29.5320 3.0089 -1.4082
# 5 11.0796 -7.1534 -6.5467 3.0089 48.7775 6.5942
# 6 4.7990 1.9134 2.4774 -1.4082 6.5942 48.6782
#
#
#
# Elastic Compliance Matrix: (Units=1/GPa)
#
#
# Indices 1 2 3 4 5 6 
#
# 1 0.008630 -0.005179 0.000568 -0.002710 -0.002419 -0.000427
# 2 -0.005179 0.034644 -0.002599 -0.005542 0.006488 -0.001758
# 3 0.000568 -0.002599 0.012093 -0.012686 0.002060 -0.001215
# 4 -0.002710 -0.005542 -0.012686 0.050891 -0.005492 0.003347
# 5 -0.002419 0.006488 0.002060 -0.005492 0.023078 -0.003406
# 6 -0.000427 -0.001758 -0.001215 0.003347 -0.003406 0.021274
#
#
# Mechanical properties :
#
#
# Convention : Reuss Voigt Hill
#
# Bulk Modulus (GPa) = 24.42147 43.24392 33.83270
# Shear Modulus (GPa) = 27.98338 41.60102 34.79220
#
# Velocity S-wave (km/s) = 3.48162 4.24505 3.88214
# Velocity P-wave (km/s) = 5.17116 6.53907 5.89493
#
# Compressibility (1/GPa) = 0.04094758
#
# Stress axis : x y z
#
# Youngs Moduli (GPa) = 115.87707 28.86517 82.69502
#
# Poissons Ratio (x) = 0.14948 -0.04697
# Poissons Ratio (y) = 0.60008 0.21491
# Poissons Ratio (z) = -0.06582 0.07501
#
# Static dielectric constant tensor:
#      x y z
#    x 1.909060 -0.041270 0.022330 
#    y -0.041270 1.943150 0.026860 
#    z 0.022330 0.026860 1.897830 
# 
# From -- ./inp_files/417054.got.cif
#   From: 2010.05.17/outbox.cif.g08.bks.cpg/sg2_209_cif.got.tgz:417054.got - 2010.06.03 11:33:40.
