data_PCOD9091300
_publ_section_title
;
Structure prediction by ZEFSAII (Michael W. Deem and Ramdas Pophale) SiO2 
 PCOD9091300
Probable space group: P -1
;
_chemical_formula_sum "Si O2"
_cell_formula_units_Z 12
_cell_length_a 12.795410
_cell_length_b 8.134797
_cell_length_c 5.150528
_cell_angle_alpha 87.626697
_cell_angle_beta 111.177897
_cell_angle_gamma 82.705256
_cell_volume 493.642547
_symmetry_space_group_name_H-M "P -1"
_symmetry_group_IT_number 2
_symmetry_cell_setting 'triclinic'
loop_
_space_group_symop_operation_xyz
x,y,z
-x,-y,-z
loop_
_atom_site_type_symbol
_atom_site_label
_atom_site_fract_x
_atom_site_fract_y
_atom_site_fract_z
Si Si1 0.086816 0.322631 0.119149
Si Si2 0.763651 0.638904 0.244386
Si Si3 0.335290 0.923236 0.342621
Si Si4 0.105699 0.864318 0.966461
Si Si5 0.456511 0.150770 0.759043
Si Si6 0.206088 0.732467 0.567237
O O1 0.153392 0.322895 0.449453
O O2 0.024893 0.153214 0.075687
O O3 0.174120 0.322542 0.963430
O O4 0.000000 0.500000 0.000000
O O5 0.636764 0.727093 0.178085
O O6 0.758308 0.443585 0.264775
O O7 0.429519 0.803317 0.272147
O O8 0.305496 0.838146 0.591039
O O9 0.388077 0.083702 0.461989
O O10 0.215540 0.960362 0.085605
O O11 0.110766 0.825259 0.666875
O O12 0.158805 0.721504 0.234420
O O13 0.500000 0.000000 0.000000
#
# Coordination Sequence:
#
# PCOD9091300 Si02
#       6
#     2   2   2   2   2   2
#     4  12  21  41  67 103 144 165 209 278 337 397
#     4  12  25  39  71 107 127 178 224 263 335 397
#     4   9  23  43  70  89 131 182 217 274 339 372
#     4  10  20  38  68  95 133 169 206 266 342 382
#     4  11  25  47  68  90 138 179 228 275 321 394
#     4  10  19  39  65 102 126 165 218 267 329 391
#
# _framework density 24.309087999999999
#
# number of rings (size 3 to 8) (size 9 to 14) (size 15 to 20)
#    1.000    0.333    3.333    2.500    4.667    0.667 
#    0.000    3.333    0.000    0.000    0.000    0.000 
#    0.000    0.000    0.000    0.000    0.000    0.000 
#
# Total GULP energy -66850.693712 kJ/mol
# GULP energy per Si atom -5570.891143 kJ/mol
# Density = 2.425376 g / cm^3
# Si number density = 24.309088 Si / 1000 Ang^3
#
#
#
# Elastic Constant Matrix: (Units=GPa)
#
#
# Indices 1 2 3 4 5 6 
#
# 1 209.3551 102.1174 9.0262 -6.5773 -41.3795 -48.2150
# 2 102.1174 358.6398 -33.5498 -56.8837 -84.4592 -65.2543
# 3 9.0262 -33.5498 75.5836 18.0359 -9.9647 -3.5893
# 4 -6.5773 -56.8837 18.0359 29.8469 11.9936 8.8763
# 5 -41.3795 -84.4592 -9.9647 11.9936 75.5504 19.4945
# 6 -48.2150 -65.2543 -3.5893 8.8763 19.4945 49.6266
#
#
#
# Elastic Compliance Matrix: (Units=1/GPa)
#
#
# Indices 1 2 3 4 5 6 
#
# 1 0.006660 -0.001049 -0.000228 -0.002484 0.001575 0.004900
# 2 -0.001049 0.006275 0.001892 0.007545 0.004383 0.004297
# 3 -0.000228 0.001892 0.017266 -0.009866 0.004976 0.003325
# 4 -0.002484 0.007545 -0.009866 0.054883 -0.002403 -0.002078
# 5 0.001575 0.004383 0.004976 -0.002403 0.019975 0.000236
# 6 0.004900 0.004297 0.003325 -0.002078 0.000236 0.031081
#
#
# Mechanical properties :
#
#
# Convention : Reuss Voigt Hill
#
# Bulk Modulus (GPa) = 31.81704 88.75180 60.28442
# Shear Modulus (GPa) = 34.39123 68.73710 51.56416
#
# Velocity S-wave (km/s) = 3.76539 5.32331 4.61063
# Velocity P-wave (km/s) = 5.65873 8.62395 7.29362
#
# Compressibility (1/GPa) = 0.03142970
#
# Stress axis : x y z
#
# Youngs Moduli (GPa) = 150.15270 159.36648 57.91894
#
# Poissons Ratio (x) = 0.16723 0.01320
# Poissons Ratio (y) = 0.15756 -0.10958
# Poissons Ratio (z) = 0.03423 -0.30152
#
# Static dielectric constant tensor:
#      x y z
#    x 2.026140 -0.177610 0.008630 
#    y -0.177610 -0.470180 0.136060 
#    z 0.008630 0.136060 1.903280 
# 
# From -- ./inp_files/59224.got.cif
#   From: 2010.05.17/outbox.cif.g08.bks.cpg/sg2_30_cif.got.tgz:59224.got - 2010.06.03 11:33:40.
