data_PCOD9091891
_publ_section_title
;
Structure prediction by ZEFSAII (Michael W. Deem and Ramdas Pophale) SiO2 
 PCOD9091891
Probable space group: P -1
;
_chemical_formula_sum "Si O2"
_cell_formula_units_Z 12
_cell_length_a 8.651849
_cell_length_b 11.840995
_cell_length_c 7.445066
_cell_angle_alpha 63.277183
_cell_angle_beta 108.634009
_cell_angle_gamma 127.066314
_cell_volume 542.341441
_symmetry_space_group_name_H-M "P -1"
_symmetry_group_IT_number 2
_symmetry_cell_setting 'triclinic'
loop_
_space_group_symop_operation_xyz
x,y,z
-x,-y,-z
loop_
_atom_site_type_symbol
_atom_site_label
_atom_site_fract_x
_atom_site_fract_y
_atom_site_fract_z
Si Si1 0.118735 0.092627 0.299070
Si Si2 0.744339 0.831533 0.213765
Si Si3 0.178006 0.355622 0.343431
Si Si4 0.450804 0.605384 0.014761
Si Si5 0.253665 0.751619 0.652094
Si Si6 0.558994 0.919974 0.378582
O O1 0.140354 0.250227 0.229770
O O2 0.319646 0.105129 0.402813
O O3 0.000000 0.000000 0.500000
O O4 0.962502 0.977056 0.183565
O O5 0.747632 0.706532 0.428243
O O6 0.648373 0.757197 0.042607
O O7 0.613632 0.877854 0.242015
O O8 0.334354 0.520994 0.213781
O O9 0.975156 0.326724 0.354804
O O10 0.500000 0.500000 0.000000
O O11 0.318773 0.642594 0.822442
O O12 0.338593 0.814167 0.439521
O O13 0.359553 0.904212 0.702917
#
# Coordination Sequence:
#
# PCOD9091891 Si02
#       6
#     2   2   2   2   2   2
#     4   8  14  34  63  83 106 144 199 232 274 340
#     4  10  19  40  64  84 113 156 198 233 286 351
#     4  10  19  40  63  86 115 154 191 237 292 349
#     4  12  26  39  54  87 126 157 187 239 296 342
#     4  11  20  37  63  88 121 145 194 242 291 337
#     4   9  18  37  67  89 109 152 196 240 287 343
#
# _framework density 22.126282
#
# number of rings (size 3 to 8) (size 9 to 14) (size 15 to 20)
#    0.000    2.333    5.000    3.000    0.000    0.667 
#    0.000    8.333    0.000    0.000    0.000    0.000 
#    0.000    0.000    0.000    0.000    0.000    0.000 
#
# Total GULP energy -66983.074400 kJ/mol
# GULP energy per Si atom -5581.922867 kJ/mol
# Density = 2.207592 g / cm^3
# Si number density = 22.126282 Si / 1000 Ang^3
#
#
#
# Elastic Constant Matrix: (Units=GPa)
#
#
# Indices 1 2 3 4 5 6 
#
# 1 113.8267 20.1757 9.9424 -5.9872 6.7778 -4.1241
# 2 20.1757 70.5478 -1.9728 11.1102 3.6166 3.6817
# 3 9.9424 -1.9728 37.5287 1.1466 -4.1137 -11.4118
# 4 -5.9872 11.1102 1.1466 27.0059 -7.9105 -6.5901
# 5 6.7778 3.6166 -4.1137 -7.9105 26.2871 -12.3064
# 6 -4.1241 3.6817 -11.4118 -6.5901 -12.3064 43.7530
#
#
#
# Elastic Compliance Matrix: (Units=1/GPa)
#
#
# Indices 1 2 3 4 5 6 
#
# 1 0.009928 -0.003466 -0.002823 0.003600 -0.001103 0.000723
# 2 -0.003466 0.017738 -0.000478 -0.011841 -0.007981 -0.005972
# 3 -0.002823 -0.000478 0.032604 0.005287 0.013515 0.012876
# 4 0.003600 -0.011841 0.005287 0.054790 0.026661 0.018466
# 5 -0.001103 -0.007981 0.013515 0.026661 0.061449 0.025392
# 6 0.000723 -0.005972 0.012876 0.018466 0.025392 0.036708
#
#
# Mechanical properties :
#
#
# Convention : Reuss Voigt Hill
#
# Bulk Modulus (GPa) = 21.39752 30.91042 26.15397
# Shear Modulus (GPa) = 20.63290 32.32637 26.47964
#
# Velocity S-wave (km/s) = 3.05701 3.82644 3.46316
# Velocity P-wave (km/s) = 4.70660 5.78987 5.27611
#
# Compressibility (1/GPa) = 0.04673438
#
# Stress axis : x y z
#
# Youngs Moduli (GPa) = 100.73010 56.37522 30.67076
#
# Poissons Ratio (x) = 0.19541 0.08659
# Poissons Ratio (y) = 0.34916 0.01467
# Poissons Ratio (z) = 0.28438 0.02697
#
# Static dielectric constant tensor:
#      x y z
#    x 1.841170 0.014870 -0.023190 
#    y 0.014870 1.885390 0.007110 
#    z -0.023190 0.007110 1.830150 
# 
# From -- ./inp_files/168072.got.cif
#   From: 2010.05.17/outbox.cif.g08.bks.cpg/sg2_85_cif.got.tgz:168072.got - 2010.06.03 11:33:40.
