data_PCOD9091114
_publ_section_title
;
Structure prediction by ZEFSAII (Michael W. Deem and Ramdas Pophale) SiO2 
 PCOD9091114
Probable space group: P -1
;
_chemical_formula_sum "Si O2"
_cell_formula_units_Z 14
_cell_length_a 9.711893
_cell_length_b 20.487595
_cell_length_c 21.381172
_cell_angle_alpha 160.458296
_cell_angle_beta 30.389238
_cell_angle_gamma 150.666620
_cell_volume 674.908641
_symmetry_space_group_name_H-M "P -1"
_symmetry_group_IT_number 2
_symmetry_cell_setting 'triclinic'
loop_
_space_group_symop_operation_xyz
x,y,z
-x,-y,-z
loop_
_atom_site_type_symbol
_atom_site_label
_atom_site_fract_x
_atom_site_fract_y
_atom_site_fract_z
Si Si1 0.492903 0.752651 0.849999
Si Si2 0.416649 0.747400 0.422396
Si Si3 0.899068 0.402067 0.255684
Si Si4 0.214484 0.056507 0.651512
Si Si5 0.583741 0.852720 0.694740
Si Si6 0.652538 0.418606 0.567002
Si Si7 0.896107 0.946747 0.168538
O O1 0.246887 0.644153 0.797064
O O2 0.543026 0.585279 0.725581
O O3 0.789167 0.875692 0.806620
O O4 0.431159 0.933037 0.077371
O O5 0.688838 0.795186 0.312571
O O6 0.433839 0.620926 0.362826
O O7 0.128393 0.623541 0.383296
O O8 0.349463 0.952742 0.656963
O O9 0.630281 0.330554 0.344339
O O10 0.080132 0.245743 0.053386
O O11 0.152833 0.130909 0.810682
O O12 0.500000 0.000000 0.500000
O O13 0.917740 0.873099 0.585698
O O14 0.469926 0.794470 0.616963
O O15 0.000000 0.500000 0.500000
#
# Coordination Sequence:
#
# PCOD9091114 Si02
#       7
#     2   2   2   2   2   2   2
#     4  11  22  37  70  98 120 159 216 261 317 358
#     4  11  25  41  60  96 129 165 209 252 312 381
#     4  11  21  37  71  95 117 158 218 270 306 354
#     4  10  22  40  64  93 129 162 207 257 320 367
#     4  11  22  42  66  91 129 164 210 261 309 370
#     4  12  25  41  62  96 131 167 207 254 314 375
#     4  10  19  39  63  92 123 155 209 264 316 352
#
# _framework density 20.743549000000002
#
# number of rings (size 3 to 8) (size 9 to 14) (size 15 to 20)
#    0.000    1.143    5.714    0.857    4.000    4.000 
#    0.000    0.714    0.000    0.000    0.000    0.000 
#    0.000    0.000    0.000    0.000    0.000    0.000 
#
# Total GULP energy -78137.078715 kJ/mol
# GULP energy per Si atom -5581.219908 kJ/mol
# Density = 2.069634 g / cm^3
# Si number density = 20.743549 Si / 1000 Ang^3
#
#
#
# Elastic Constant Matrix: (Units=GPa)
#
#
# Indices 1 2 3 4 5 6 
#
# 1 111.2854 44.0917 25.6283 -3.5146 9.7996 -16.7366
# 2 44.0917 113.1096 27.1280 -18.5132 12.9020 -17.5641
# 3 25.6283 27.1280 74.4915 -0.8716 -2.1861 -2.7058
# 4 -3.5146 -18.5132 -0.8716 22.1076 -0.0381 3.6220
# 5 9.7996 12.9020 -2.1861 -0.0381 29.2949 3.4740
# 6 -16.7366 -17.5641 -2.7058 3.6220 3.4740 43.3121
#
#
#
# Elastic Compliance Matrix: (Units=1/GPa)
#
#
# Indices 1 2 3 4 5 6 
#
# 1 0.011650 -0.003239 -0.002814 -0.001532 -0.003084 0.003388
# 2 -0.003239 0.013990 -0.003892 0.010419 -0.005802 0.003773
# 3 -0.002814 -0.003892 0.015832 -0.002786 0.004043 -0.001768
# 4 -0.001532 0.010419 -0.002786 0.053713 -0.004131 -0.000701
# 5 -0.003084 -0.005802 0.004043 -0.004131 0.038737 -0.006054
# 6 0.003388 0.003773 -0.001768 -0.000701 -0.006054 0.026361
#
#
# Mechanical properties :
#
#
# Convention : Reuss Voigt Hill
#
# Bulk Modulus (GPa) = 46.33502 54.73138 50.53320
# Shear Modulus (GPa) = 26.68575 32.41217 29.54896
#
# Velocity S-wave (km/s) = 3.59062 3.95716 3.77833
# Velocity P-wave (km/s) = 6.29091 6.87902 6.59153
#
# Compressibility (1/GPa) = 0.02158195
#
# Stress axis : x y z
#
# Youngs Moduli (GPa) = 85.83638 71.47923 63.16515
#
# Poissons Ratio (x) = 0.23155 0.17773
# Poissons Ratio (y) = 0.27805 0.24582
# Poissons Ratio (z) = 0.24153 0.27818
#
# Static dielectric constant tensor:
#      x y z
#    x 1.757190 -0.023700 -0.008960 
#    y -0.023700 1.745900 -0.001890 
#    z -0.008960 -0.001890 1.776810 
# 
# From -- ./inp_files/257150.got.cif
#   From: 2010.05.17/outbox.cif.g08.bks.cpg/sg2_129_cif.got.tgz:257150.got - 2010.06.03 11:33:40.
