data_PCOD9091365
_publ_section_title
;
Structure prediction by ZEFSAII (Michael W. Deem and Ramdas Pophale) SiO2 
 PCOD9091365
Probable space group: P -1
;
_chemical_formula_sum "Si O2"
_cell_formula_units_Z 14
_cell_length_a 5.308897
_cell_length_b 16.607989
_cell_length_c 9.220725
_cell_angle_alpha 46.634638
_cell_angle_beta 108.715907
_cell_angle_gamma 109.918855
_cell_volume 551.165125
_symmetry_space_group_name_H-M "P -1"
_symmetry_group_IT_number 2
_symmetry_cell_setting 'triclinic'
loop_
_space_group_symop_operation_xyz
x,y,z
-x,-y,-z
loop_
_atom_site_type_symbol
_atom_site_label
_atom_site_fract_x
_atom_site_fract_y
_atom_site_fract_z
Si Si1 0.540942 0.477404 0.208276
Si Si2 0.474487 0.289954 0.926134
Si Si3 0.975994 0.162610 0.171522
Si Si4 0.023227 0.597402 0.761948
Si Si5 0.296214 0.160386 0.786986
Si Si6 0.850666 0.159313 0.471118
Si Si7 0.499377 0.023678 0.767402
O O1 0.833535 0.441881 0.304189
O O2 0.286556 0.385380 0.323625
O O3 0.500000 0.500000 0.000000
O O4 0.523074 0.586166 0.165674
O O5 0.768627 0.252973 0.020380
O O6 0.255873 0.210163 0.086391
O O7 0.368093 0.267684 0.770237
O O8 0.000651 0.139981 0.374831
O O9 0.796997 0.054296 0.196589
O O10 0.204184 0.713282 0.702552
O O11 0.000000 0.500000 0.000000
O O12 0.027008 0.156985 0.651137
O O13 0.500276 0.131373 0.736863
O O14 0.311987 0.057065 0.028124
O O15 0.594127 0.066379 0.573822
#
# Coordination Sequence:
#
# PCOD9091365 Si02
#       7
#     2   2   2   2   2   2   2
#     4  10  19  39  65  93 128 171 223 277 334 394
#     4  11  24  45  70 102 138 185 227 281 350 410
#     4  11  25  41  71 105 138 176 233 286 338 409
#     4  10  22  39  66  97 132 171 219 283 345 391
#     4  10  26  44  70  96 143 187 228 271 351 418
#     4  12  25  42  72 104 137 179 235 287 339 406
#     4  10  25  45  69  98 143 188 225 278 344 415
#
# _framework density 25.400735999999998
#
# number of rings (size 3 to 8) (size 9 to 14) (size 15 to 20)
#    0.000    1.429    0.000    5.143   14.000    0.571 
#    0.000    1.429    0.000    0.000    0.000    0.000 
#    0.000    0.000    0.000    0.000    0.000    0.000 
#
# Total GULP energy -78283.090548 kJ/mol
# GULP energy per Si atom -5591.649325 kJ/mol
# Density = 2.534292 g / cm^3
# Si number density = 25.400736 Si / 1000 Ang^3
#
#
#
# Elastic Constant Matrix: (Units=GPa)
#
#
# Indices 1 2 3 4 5 6 
#
# 1 118.0342 9.0689 9.4642 -0.7712 -16.1037 -14.0697
# 2 9.0689 135.0089 14.1495 27.0387 -2.5254 -22.8313
# 3 9.4642 14.1495 70.6465 4.6600 -7.5625 4.9793
# 4 -0.7712 27.0387 4.6600 31.8863 1.1533 -8.1627
# 5 -16.1037 -2.5254 -7.5625 1.1533 32.8783 -2.2711
# 6 -14.0697 -22.8313 4.9793 -8.1627 -2.2711 43.3591
#
#
#
# Elastic Compliance Matrix: (Units=1/GPa)
#
#
# Indices 1 2 3 4 5 6 
#
# 1 0.009655 -0.000063 -0.001122 0.001230 0.004679 0.003705
# 2 -0.000063 0.009672 -0.001660 -0.006969 0.000851 0.003996
# 3 -0.001122 -0.001660 0.015265 -0.001762 0.002676 -0.003183
# 4 0.001230 -0.006969 -0.001762 0.038668 -0.001408 0.004138
# 5 0.004679 0.000851 0.002676 -0.001408 0.033655 0.003157
# 6 0.003705 0.003996 -0.003183 0.004138 0.003157 0.027679
#
#
# Mechanical properties :
#
#
# Convention : Reuss Voigt Hill
#
# Bulk Modulus (GPa) = 34.59988 43.22831 38.91409
# Shear Modulus (GPa) = 33.35125 41.02519 37.18822
#
# Velocity S-wave (km/s) = 3.62747 4.02321 3.83046
# Velocity P-wave (km/s) = 5.58533 6.21588 5.90902
#
# Compressibility (1/GPa) = 0.02890184
#
# Stress axis : x y z
#
# Youngs Moduli (GPa) = 103.57318 103.38666 65.51047
#
# Poissons Ratio (x) = 0.00654 0.07352
# Poissons Ratio (y) = 0.00655 0.10873
# Poissons Ratio (z) = 0.11623 0.17159
#
# Static dielectric constant tensor:
#      x y z
#    x 2.100580 0.005530 0.114200 
#    y 0.005530 2.004700 -0.027680 
#    z 0.114200 -0.027680 2.064130 
# 
# From -- ./inp_files/137246.got.cif
#   From: 2010.05.17/outbox.cif.g08.bks.cpg/sg2_69_cif.got.tgz:137246.got - 2010.06.03 11:33:40.
