data_PCOD9091614
_publ_section_title
;
Structure prediction by ZEFSAII (Michael W. Deem and Ramdas Pophale) SiO2 
 PCOD9091614
Probable space group: P -1
;
_chemical_formula_sum "Si O2"
_cell_formula_units_Z 12
_cell_length_a 21.146624
_cell_length_b 14.494592
_cell_length_c 7.893330
_cell_angle_alpha 36.159150
_cell_angle_beta 132.284542
_cell_angle_gamma 160.173939
_cell_volume 436.352842
_symmetry_space_group_name_H-M "P -1"
_symmetry_group_IT_number 2
_symmetry_cell_setting 'triclinic'
loop_
_space_group_symop_operation_xyz
x,y,z
-x,-y,-z
loop_
_atom_site_type_symbol
_atom_site_label
_atom_site_fract_x
_atom_site_fract_y
_atom_site_fract_z
Si Si1 0.184283 0.197166 0.982290
Si Si2 0.724524 0.939145 0.809415
Si Si3 0.594095 0.540653 0.471626
Si Si4 0.415704 0.034658 0.283879
Si Si5 0.717431 0.451512 0.703484
Si Si6 0.193150 0.713067 0.000034
O O1 0.128057 0.923675 0.243106
O O2 0.370072 0.510866 0.986886
O O3 0.266172 0.417955 0.631005
O O4 0.000000 0.000000 0.000000
O O5 0.735038 0.883790 0.099331
O O6 0.500000 0.500000 0.000000
O O7 0.716830 0.110301 0.583975
O O8 0.500000 0.500000 0.500000
O O9 0.720459 0.587898 0.652833
O O10 0.375530 0.107910 0.642335
O O11 0.500000 0.000000 0.500000
O O12 0.299599 0.853376 0.165420
O O13 0.864725 0.547579 0.805097
O O14 0.500000 0.000000 0.000000
O O15 0.000000 0.500000 0.000000
#
# Coordination Sequence:
#
# PCOD9091614 Si02
#       6
#     2   2   2   2   2   2
#     4  10  21  40  69 102 133 172 225 284 333 397
#     4   9  20  38  65  95 131 173 218 274 345 392
#     4  10  19  39  68  91 125 178 224 273 336 399
#     4  11  21  41  68  95 134 181 220 271 341 404
#     4   9  20  40  67  94 134 179 218 273 343 399
#     4  11  23  40  65  97 134 176 225 274 330 400
#
# _framework density 27.500679999999999
#
# number of rings (size 3 to 8) (size 9 to 14) (size 15 to 20)
#    0.000    2.000    3.333    0.000    0.000    2.667 
#    0.000    6.667    0.000    0.000    0.000    0.000 
#    0.000    0.000    0.000    0.000    0.000    0.000 
#
# Total GULP energy -67022.228594 kJ/mol
# GULP energy per Si atom -5585.185716 kJ/mol
# Density = 2.743809 g / cm^3
# Si number density = 27.500680 Si / 1000 Ang^3
#
#
#
# Elastic Constant Matrix: (Units=GPa)
#
#
# Indices 1 2 3 4 5 6 
#
# 1 301.5636 58.2845 40.0970 17.1787 53.5272 43.4675
# 2 58.2845 127.2244 27.7371 4.9310 6.5845 15.0351
# 3 40.0970 27.7371 83.0182 8.8424 9.6859 5.2806
# 4 17.1787 4.9310 8.8424 39.5777 3.4275 12.7707
# 5 53.5272 6.5845 9.6859 3.4275 61.0193 14.6351
# 6 43.4675 15.0351 5.2806 12.7707 14.6351 49.2529
#
#
#
# Elastic Compliance Matrix: (Units=1/GPa)
#
#
# Indices 1 2 3 4 5 6 
#
# 1 0.004701 -0.001407 -0.001219 -0.000506 -0.003145 -0.002523
# 2 -0.001407 0.009170 -0.002445 0.000482 0.001019 -0.001723
# 3 -0.001219 -0.002445 0.013761 -0.002578 -0.001023 0.001319
# 4 -0.000506 0.000482 -0.002578 0.028183 0.000897 -0.006998
# 5 -0.003145 0.001019 -0.001023 0.000897 0.020014 -0.003605
# 6 -0.002523 -0.001723 0.001319 -0.006998 -0.003605 0.025800
#
#
# Mechanical properties :
#
#
# Convention : Reuss Voigt Hill
#
# Bulk Modulus (GPa) = 57.17575 84.89371 71.03473
# Shear Modulus (GPa) = 42.51689 55.68249 49.09969
#
# Velocity S-wave (km/s) = 3.93623 4.50462 4.22998
# Velocity P-wave (km/s) = 6.44161 7.61526 7.05289
#
# Compressibility (1/GPa) = 0.01748993
#
# Stress axis : x y z
#
# Youngs Moduli (GPa) = 212.73136 109.05094 72.66856
#
# Poissons Ratio (x) = 0.15347 0.08858
# Poissons Ratio (y) = 0.29937 0.17766
# Poissons Ratio (z) = 0.25931 0.26660
#
# Static dielectric constant tensor:
#      x y z
#    x 2.295330 0.036600 -0.062960 
#    y 0.036600 2.176250 0.043790 
#    z -0.062960 0.043790 2.270990 
# 
# From -- ./inp_files/347139.got.cif
#   From: 2010.05.17/outbox.cif.g08.bks.cpg/sg2_174_cif.got.tgz:347139.got - 2010.06.03 11:33:40.
