data_PCOD9091528
_publ_section_title
;
Structure prediction by ZEFSAII (Michael W. Deem and Ramdas Pophale) SiO2 
 PCOD9091528
Probable space group: P -1
;
_chemical_formula_sum "Si O2"
_cell_formula_units_Z 16
_cell_length_a 10.378910
_cell_length_b 16.579586
_cell_length_c 7.924964
_cell_angle_alpha 135.050579
_cell_angle_beta 49.232374
_cell_angle_gamma 119.796360
_cell_volume 728.131021
_symmetry_space_group_name_H-M "P -1"
_symmetry_group_IT_number 2
_symmetry_cell_setting 'triclinic'
loop_
_space_group_symop_operation_xyz
x,y,z
-x,-y,-z
loop_
_atom_site_type_symbol
_atom_site_label
_atom_site_fract_x
_atom_site_fract_y
_atom_site_fract_z
Si Si1 0.482893 0.591047 0.996545
Si Si2 0.401611 0.950349 0.350691
Si Si3 0.457404 0.238604 0.256932
Si Si4 0.136597 0.380068 0.734683
Si Si5 0.326674 0.196258 0.675075
Si Si6 0.237333 0.710932 0.160345
Si Si7 0.215821 0.512512 0.544127
Si Si8 0.943150 0.643768 0.856526
O O1 0.581615 0.714018 0.137647
O O2 0.307690 0.632147 0.131773
O O3 0.500000 0.500000 0.000000
O O4 0.589853 0.519733 0.668248
O O5 0.271835 0.846184 0.366654
O O6 0.500000 0.000000 0.500000
O O7 0.326821 0.061670 0.500759
O O8 0.526974 0.886372 0.023443
O O9 0.291823 0.302659 0.440485
O O10 0.432807 0.226996 0.459896
O O11 0.629301 0.303450 0.130994
O O12 0.149754 0.484343 0.746479
O O13 0.958766 0.310413 0.746539
O O14 0.143951 0.405953 0.967522
O O15 0.131707 0.232722 0.894727
O O16 0.122712 0.421227 0.352754
O O17 0.141455 0.625723 0.693628
#
# Coordination Sequence:
#
# PCOD9091528 Si02
#       8
#     2   2   2   2   2   2   2   2
#     4  11  23  39  61  93 126 161 211 255 305 377
#     4  10  19  40  66  86 122 161 207 254 312 366
#     4   9  21  40  63  90 122 163 201 258 316 359
#     4  11  21  41  62  90 129 159 209 254 312 370
#     4  10  19  39  67  86 122 170 200 255 317 364
#     4  10  23  39  63  93 120 162 204 259 302 373
#     4  10  20  41  63  82 129 173 200 256 309 362
#     4   9  22  35  59  92 115 166 209 246 305 368
#
# _framework density 21.974069
#
# number of rings (size 3 to 8) (size 9 to 14) (size 15 to 20)
#    0.750    1.250    2.500    0.750    7.000    1.000 
#    0.000    4.375    2.750    0.000    0.000    0.000 
#    0.000    0.000    0.000    0.000    0.000    0.000 
#
# Total GULP energy -89154.034407 kJ/mol
# GULP energy per Si atom -5572.127150 kJ/mol
# Density = 2.192405 g / cm^3
# Si number density = 21.974069 Si / 1000 Ang^3
#
#
#
# Elastic Constant Matrix: (Units=GPa)
#
#
# Indices 1 2 3 4 5 6 
#
# 1 88.2955 32.1422 28.7250 11.5487 -14.0718 -1.0228
# 2 32.1422 98.8387 23.1382 21.6493 -14.2477 -1.9892
# 3 28.7250 23.1382 107.9665 20.4279 -9.1647 -1.2921
# 4 11.5487 21.6493 20.4279 43.6629 -11.1012 -1.3215
# 5 -14.0718 -14.2477 -9.1647 -11.1012 41.2319 1.2696
# 6 -1.0228 -1.9892 -1.2921 -1.3215 1.2696 38.0091
#
#
#
# Elastic Compliance Matrix: (Units=1/GPa)
#
#
# Indices 1 2 3 4 5 6 
#
# 1 0.013944 -0.003484 -0.002724 0.000069 0.002968 0.000004
# 2 -0.003484 0.012692 -0.000778 -0.004543 0.001791 0.000326
# 3 -0.002724 -0.000778 0.010917 -0.003958 0.000159 0.000114
# 4 0.000069 -0.004543 -0.003958 0.028320 0.005185 0.000441
# 5 0.002968 0.001791 0.000159 0.005185 0.027333 -0.000554
# 6 0.000004 0.000326 0.000114 0.000441 -0.000554 0.026364
#
#
# Mechanical properties :
#
#
# Convention : Reuss Voigt Hill
#
# Bulk Modulus (GPa) = 42.40556 51.45682 46.93119
# Shear Modulus (GPa) = 35.35958 38.65379 37.00669
#
# Velocity S-wave (km/s) = 4.01577 4.19867 4.10824
# Velocity P-wave (km/s) = 6.39076 6.85369 6.62627
#
# Compressibility (1/GPa) = 0.02358181
#
# Stress axis : x y z
#
# Youngs Moduli (GPa) = 71.71419 78.78813 91.59780
#
# Poissons Ratio (x) = 0.27450 0.24954
# Poissons Ratio (y) = 0.24985 0.07124
# Poissons Ratio (z) = 0.19537 0.06127
#
# Static dielectric constant tensor:
#      x y z
#    x 1.869330 -0.014690 0.012600 
#    y -0.014690 1.894940 -0.023130 
#    z 0.012600 -0.023130 1.896170 
# 
# From -- ./inp_files/268771.got.cif
#   From: 2010.05.17/outbox.cif.g08.bks.cpg/sg2_135_cif.got.tgz:268771.got - 2010.06.03 11:33:40.
