data_PCOD9091763
_publ_section_title
;
Structure prediction by ZEFSAII (Michael W. Deem and Ramdas Pophale) SiO2 
 PCOD9091763
Probable space group: P -1
;
_chemical_formula_sum "Si O2"
_cell_formula_units_Z 16
_cell_length_a 9.041822
_cell_length_b 21.699111
_cell_length_c 22.413653
_cell_angle_alpha 161.527453
_cell_angle_beta 131.969341
_cell_angle_gamma 38.553928
_cell_volume 806.909374
_symmetry_space_group_name_H-M "P -1"
_symmetry_group_IT_number 2
_symmetry_cell_setting 'triclinic'
loop_
_space_group_symop_operation_xyz
x,y,z
-x,-y,-z
loop_
_atom_site_type_symbol
_atom_site_label
_atom_site_fract_x
_atom_site_fract_y
_atom_site_fract_z
Si Si1 0.218642 0.505540 0.672235
Si Si2 0.438354 0.252695 0.236664
Si Si3 0.719883 0.932394 0.655224
Si Si4 0.167201 0.703696 0.483937
Si Si5 0.036655 0.956712 0.855923
Si Si6 0.811197 0.222188 0.572322
Si Si7 0.699180 0.566251 0.503636
Si Si8 0.871295 0.781899 0.238952
O O1 0.194753 0.341773 0.560552
O O2 0.504561 0.417914 0.676230
O O3 0.210079 0.417759 0.522241
O O4 0.033695 0.797337 0.906478
O O5 0.294804 0.456132 0.331738
O O6 0.722550 0.173313 0.244273
O O7 0.293387 0.349207 0.349778
O O8 0.500000 0.000000 0.000000
O O9 0.895885 0.911346 0.631453
O O10 0.797730 0.012550 0.807573
O O11 0.421498 0.093714 0.711314
O O12 0.120645 0.704311 0.401954
O O13 0.393587 0.723861 0.560531
O O14 0.151298 0.730616 0.725092
O O15 0.970937 0.220589 0.666792
O O16 0.868575 0.953614 0.345128
O O17 0.000000 0.500000 0.000000
#
# Coordination Sequence:
#
# PCOD9091763 Si02
#       8
#     2   2   2   2   2   2   2   2
#     4  10  22  37  58  89 116 161 202 240 297 344
#     4  11  21  38  60  86 125 171 199 238 293 347
#     4  11  21  37  61  85 120 151 196 252 292 353
#     4  10  19  40  57  84 119 160 195 241 296 342
#     4  11  20  36  58  85 120 160 199 247 286 342
#     4   9  21  41  62  83 121 150 192 250 296 363
#     4  10  20  39  57  80 126 162 199 244 283 349
#     4  10  21  41  63  87 112 150 193 247 312 356
#
# _framework density 19.828744
#
# number of rings (size 3 to 8) (size 9 to 14) (size 15 to 20)
#    0.000    1.750    2.500    2.625    0.000    1.000 
#   13.500    0.625    0.000    0.000    0.000    0.000 
#    0.000    0.000    0.000    0.000    0.000    0.000 
#
# Total GULP energy -89136.194497 kJ/mol
# GULP energy per Si atom -5571.012156 kJ/mol
# Density = 1.978361 g / cm^3
# Si number density = 19.828744 Si / 1000 Ang^3
#
#
#
# Elastic Constant Matrix: (Units=GPa)
#
#
# Indices 1 2 3 4 5 6 
#
# 1 104.1652 31.4464 34.0029 0.0644 -20.0113 2.8627
# 2 31.4464 102.1000 27.5384 -1.7506 -9.9002 -6.8363
# 3 34.0029 27.5384 114.3630 10.4922 0.1836 3.3157
# 4 0.0644 -1.7506 10.4922 22.7165 -5.9731 -1.5323
# 5 -20.0113 -9.9002 0.1836 -5.9731 21.3028 -2.9131
# 6 2.8627 -6.8363 3.3157 -1.5323 -2.9131 31.4531
#
#
#
# Elastic Compliance Matrix: (Units=1/GPa)
#
#
# Indices 1 2 3 4 5 6 
#
# 1 0.014278 -0.001706 -0.004386 0.005638 0.014292 0.000390
# 2 -0.001706 0.011953 -0.002854 0.003972 0.005606 0.003767
# 3 -0.004386 -0.002854 0.011542 -0.007841 -0.008096 -0.002570
# 4 0.005638 0.003972 -0.007841 0.054463 0.023300 0.005988
# 5 0.014292 0.005606 -0.008096 0.023300 0.070732 0.008457
# 6 0.000390 0.003767 -0.002570 0.005988 0.008457 0.033922
#
#
# Mechanical properties :
#
#
# Convention : Reuss Voigt Hill
#
# Bulk Modulus (GPa) = 50.29607 56.28928 53.29267
# Shear Modulus (GPa) = 22.58254 30.27052 26.42653
#
# Velocity S-wave (km/s) = 3.37839 3.91141 3.65463
# Velocity P-wave (km/s) = 6.37482 6.98915 6.68904
#
# Compressibility (1/GPa) = 0.01988227
#
# Stress axis : x y z
#
# Youngs Moduli (GPa) = 70.03636 83.65812 86.63903
#
# Poissons Ratio (x) = 0.14272 0.38000
# Poissons Ratio (y) = 0.11948 0.24725
# Poissons Ratio (z) = 0.30718 0.23874
#
# Static dielectric constant tensor:
#      x y z
#    x 1.754780 -0.023350 0.005090 
#    y -0.023350 1.748490 -0.021020 
#    z 0.005090 -0.021020 1.689510 
# 
# From -- ./inp_files/202889.got.cif
#   From: 2010.05.17/outbox.cif.g08.bks.cpg/sg2_102_cif.got.tgz:202889.got - 2010.06.03 11:33:40.
