data_PCOD9091619
_publ_section_title
;
Structure prediction by ZEFSAII (Michael W. Deem and Ramdas Pophale) SiO2 
 PCOD9091619
Probable space group: P -1
;
_chemical_formula_sum "Si O2"
_cell_formula_units_Z 16
_cell_length_a 7.211490
_cell_length_b 11.189750
_cell_length_c 16.207765
_cell_angle_alpha 58.014325
_cell_angle_beta 35.783435
_cell_angle_gamma 69.294261
_cell_volume 640.953915
_symmetry_space_group_name_H-M "P -1"
_symmetry_group_IT_number 2
_symmetry_cell_setting 'triclinic'
loop_
_space_group_symop_operation_xyz
x,y,z
-x,-y,-z
loop_
_atom_site_type_symbol
_atom_site_label
_atom_site_fract_x
_atom_site_fract_y
_atom_site_fract_z
Si Si1 0.171190 0.381093 0.236980
Si Si2 0.529783 0.175548 0.562296
Si Si3 0.678477 0.428124 0.186650
Si Si4 0.003119 0.329013 0.765387
Si Si5 0.415391 0.810457 0.904138
Si Si6 0.430693 0.877710 0.680506
Si Si7 0.272168 0.624487 0.321567
Si Si8 0.825561 0.093141 0.649609
O O1 0.375689 0.396968 0.243240
O O2 0.426672 0.335884 0.096559
O O3 0.883845 0.249502 0.384542
O O4 0.995684 0.518124 0.249603
O O5 0.314032 0.295085 0.617478
O O6 0.601161 0.104053 0.648213
O O7 0.349293 0.035824 0.630365
O O8 0.706314 0.267970 0.265481
O O9 0.581849 0.544542 0.242397
O O10 0.000000 0.500000 0.000000
O O11 0.751088 0.328347 0.782248
O O12 0.890092 0.212276 0.918277
O O13 0.346368 0.833681 0.823180
O O14 0.671877 0.941111 0.797085
O O15 0.813504 0.900798 0.515920
O O16 0.223047 0.766470 0.334739
O O17 0.000000 0.500000 0.500000
#
# Coordination Sequence:
#
# PCOD9091619 Si02
#       8
#     2   2   2   2   2   2   2   2
#     4  10  19  40  62  87 125 164 204 257 307 367
#     4  11  20  39  69  96 121 162 215 261 303 368
#     4  10  21  37  63  93 122 160 210 253 309 368
#     4  11  25  37  57 101 132 156 205 263 319 367
#     4  10  20  37  64  92 123 161 207 264 315 351
#     4  10  19  39  68  92 122 164 218 253 304 376
#     4  11  23  43  64  85 130 173 204 251 314 384
#     4  11  19  38  71  87 122 174 212 248 306 381
#
# _framework density 24.962795
#
# number of rings (size 3 to 8) (size 9 to 14) (size 15 to 20)
#    0.000    1.500    5.000    2.250    0.000    5.500 
#    0.000    4.375    0.000    0.000    0.000    0.000 
#    0.000    0.000    0.000    0.000    0.000    0.000 
#
# Total GULP energy -89271.131566 kJ/mol
# GULP energy per Si atom -5579.445723 kJ/mol
# Density = 2.490598 g / cm^3
# Si number density = 24.962795 Si / 1000 Ang^3
#
#
#
# Elastic Constant Matrix: (Units=GPa)
#
#
# Indices 1 2 3 4 5 6 
#
# 1 76.2261 3.3538 12.0887 -2.8345 14.1272 2.5782
# 2 3.3538 149.9087 41.0199 -3.7799 -6.8769 6.6088
# 3 12.0887 41.0199 68.9077 3.1451 -6.4409 1.3084
# 4 -2.8345 -3.7799 3.1451 41.9910 2.8429 -0.9681
# 5 14.1272 -6.8769 -6.4409 2.8429 19.4418 7.2104
# 6 2.5782 6.6088 1.3084 -0.9681 7.2104 17.3546
#
#
#
# Elastic Compliance Matrix: (Units=1/GPa)
#
#
# Indices 1 2 3 4 5 6 
#
# 1 0.016713 0.000039 -0.004633 0.002649 -0.015736 0.004537
# 2 0.000039 0.008251 -0.004633 0.000823 0.002667 -0.003861
# 3 -0.004633 -0.004633 0.019181 -0.002895 0.009684 -0.003178
# 4 0.002649 0.000823 -0.002895 0.024905 -0.007765 0.004127
# 5 -0.015736 0.002667 0.009684 -0.007765 0.080502 -0.033288
# 6 0.004537 -0.003861 -0.003178 0.004127 -0.033288 0.072718
#
#
# Mechanical properties :
#
#
# Convention : Reuss Voigt Hill
#
# Bulk Modulus (GPa) = 38.92619 45.32971 42.12795
# Shear Modulus (GPa) = 20.05701 31.66284 25.85993
#
# Velocity S-wave (km/s) = 2.83764 3.56533 3.22209
# Velocity P-wave (km/s) = 5.13457 5.92850 5.54576
#
# Compressibility (1/GPa) = 0.02568964
#
# Stress axis : x y z
#
# Youngs Moduli (GPa) = 59.83262 121.19727 52.13519
#
# Poissons Ratio (x) = -0.00469 0.24154
# Poissons Ratio (y) = -0.00232 0.24157
# Poissons Ratio (z) = 0.27721 0.56157
#
# Static dielectric constant tensor:
#      x y z
#    x 2.058170 0.039760 0.030780 
#    y 0.039760 2.188090 -0.018110 
#    z 0.030780 -0.018110 1.899930 
# 
# From -- ./inp_files/559080.got.cif
#   From: 2010.05.17/outbox.cif.g08.bks.cpg/sg2_280_cif.got.tgz:559080.got - 2010.06.03 11:33:40.
