data_PCOD9091505
_publ_section_title
;
Structure prediction by ZEFSAII (Michael W. Deem and Ramdas Pophale) SiO2 
 PCOD9091505
Probable space group: P -1
;
_chemical_formula_sum "Si O2"
_cell_formula_units_Z 16
_cell_length_a 18.699788
_cell_length_b 9.800554
_cell_length_c 8.798594
_cell_angle_alpha 98.074331
_cell_angle_beta 138.052161
_cell_angle_gamma 58.702532
_cell_volume 831.303532
_symmetry_space_group_name_H-M "P -1"
_symmetry_group_IT_number 2
_symmetry_cell_setting 'triclinic'
loop_
_space_group_symop_operation_xyz
x,y,z
-x,-y,-z
loop_
_atom_site_type_symbol
_atom_site_label
_atom_site_fract_x
_atom_site_fract_y
_atom_site_fract_z
Si Si1 0.108435 0.515124 0.253403
Si Si2 0.857577 0.556077 0.346896
Si Si3 0.559554 0.444373 0.872195
Si Si4 0.593147 0.718474 0.452766
Si Si5 0.285657 0.522502 0.123675
Si Si6 0.393866 0.030339 0.964886
Si Si7 0.667830 0.217800 0.273476
Si Si8 0.123258 0.796327 0.183662
O O1 0.115484 0.497219 0.442439
O O2 0.262491 0.363625 0.411211
O O3 0.076555 0.697318 0.183341
O O4 0.000000 0.500000 0.000000
O O5 0.728000 0.764697 0.165282
O O6 0.000000 0.500000 0.500000
O O7 0.810727 0.466376 0.154813
O O8 0.460039 0.392459 0.692265
O O9 0.611029 0.460055 0.797544
O O10 0.482834 0.626543 0.871705
O O11 0.679930 0.291244 0.146415
O O12 0.631546 0.663862 0.681989
O O13 0.479689 0.912812 0.232664
O O14 0.195284 0.679748 0.127117
O O15 0.324348 0.948657 0.773913
O O16 0.500000 0.000000 0.000000
O O17 0.768526 0.202714 0.549839
O O18 0.000000 0.000000 0.000000
#
# Coordination Sequence:
#
# PCOD9091505 Si02
#       8
#     2   2   2   2   2   2   2   2
#     4  11  23  45  70  92 134 184 224 267 341 417
#     4  12  26  44  65  96 138 179 222 276 347 400
#     4  10  19  39  66  97 125 165 214 280 345 383
#     4  10  21  40  66  97 128 167 227 270 334 400
#     4  11  23  40  67  95 135 169 215 286 344 392
#     4  11  23  41  68  98 127 180 232 274 323 407
#     4  10  21  37  68  91 130 166 223 273 328 400
#     4  11  25  43  65  97 128 177 226 272 334 407
#
# _framework density 19.246881999999999
#
# number of rings (size 3 to 8) (size 9 to 14) (size 15 to 20)
#    0.000    1.250    3.750    3.375    5.250    0.500 
#    4.500    1.250    0.000    0.000    0.000    0.000 
#    0.000    0.000    0.000    0.000    0.000    0.000 
#
# Total GULP energy -89298.764689 kJ/mol
# GULP energy per Si atom -5581.172793 kJ/mol
# Density = 1.920308 g / cm^3
# Si number density = 19.246882 Si / 1000 Ang^3
#
#
#
# Elastic Constant Matrix: (Units=GPa)
#
#
# Indices 1 2 3 4 5 6 
#
# 1 151.3162 42.8526 65.1760 -6.3049 -14.7124 4.0581
# 2 42.8526 95.8425 62.7286 -6.2752 -4.8060 5.0762
# 3 65.1760 62.7286 142.9275 14.8062 -11.7097 0.0867
# 4 -6.3049 -6.2752 14.8062 43.9198 0.6131 -0.7876
# 5 -14.7124 -4.8060 -11.7097 0.6131 36.6623 1.4401
# 6 4.0581 5.0762 0.0867 -0.7876 1.4401 16.3630
#
#
#
# Elastic Compliance Matrix: (Units=1/GPa)
#
#
# Indices 1 2 3 4 5 6 
#
# 1 0.008852 -0.001309 -0.003501 0.002198 0.002299 -0.001867
# 2 -0.001309 0.016054 -0.006944 0.004376 -0.000540 -0.004361
# 3 -0.003501 -0.006944 0.012356 -0.005637 0.001626 0.002542
# 4 0.002198 0.004376 -0.005637 0.025610 -0.000750 -0.000574
# 5 0.002299 -0.000540 0.001626 -0.000750 0.028777 -0.002980
# 6 -0.001867 -0.004361 0.002542 -0.000574 -0.002980 0.063151
#
#
# Mechanical properties :
#
#
# Convention : Reuss Voigt Hill
#
# Bulk Modulus (GPa) = 72.69646 81.28896 76.99271
# Shear Modulus (GPa) = 27.33848 34.01095 30.67471
#
# Velocity S-wave (km/s) = 3.77292 4.20824 3.99651
# Velocity P-wave (km/s) = 7.53873 8.12028 7.83490
#
# Compressibility (1/GPa) = 0.01375583
#
# Stress axis : x y z
#
# Youngs Moduli (GPa) = 112.96434 62.28876 80.93151
#
# Poissons Ratio (x) = 0.08152 0.28330
# Poissons Ratio (y) = 0.14785 0.56200
# Poissons Ratio (z) = 0.39544 0.43254
#
# Static dielectric constant tensor:
#      x y z
#    x 1.687080 0.003200 -0.013370 
#    y 0.003200 1.659470 -0.014840 
#    z -0.013370 -0.014840 1.751260 
# 
# From -- ./inp_files/329230.got.cif
#   From: 2010.05.17/outbox.cif.g08.bks.cpg/sg2_165_cif.got.tgz:329230.got - 2010.06.03 11:33:40.
