data_PCOD9091930
_publ_section_title
;
Structure prediction by ZEFSAII (Michael W. Deem and Ramdas Pophale) SiO2 
 PCOD9091930
Probable space group: P -1
;
_chemical_formula_sum "Si O2"
_cell_formula_units_Z 16
_cell_length_a 15.824869
_cell_length_b 10.297043
_cell_length_c 9.335353
_cell_angle_alpha 106.149357
_cell_angle_beta 44.923788
_cell_angle_gamma 72.709436
_cell_volume 706.824300
_symmetry_space_group_name_H-M "P -1"
_symmetry_group_IT_number 2
_symmetry_cell_setting 'triclinic'
loop_
_space_group_symop_operation_xyz
x,y,z
-x,-y,-z
loop_
_atom_site_type_symbol
_atom_site_label
_atom_site_fract_x
_atom_site_fract_y
_atom_site_fract_z
Si Si1 0.346373 0.803225 0.170818
Si Si2 0.247709 0.182848 0.350403
Si Si3 0.712870 0.565448 0.780059
Si Si4 0.473383 0.476600 0.360950
Si Si5 0.843182 0.542816 0.908244
Si Si6 0.186765 0.903436 0.693878
Si Si7 0.748424 0.610443 0.364078
Si Si8 0.042297 0.272432 0.116785
O O1 0.208987 0.896358 0.493445
O O2 0.329405 0.968478 0.178031
O O3 0.534576 0.641925 0.973962
O O4 0.356025 0.689371 0.993617
O O5 0.291314 0.274661 0.223360
O O6 0.295043 0.210903 0.455901
O O7 0.041142 0.329375 0.624272
O O8 0.744365 0.548169 0.904399
O O9 0.880578 0.359018 0.437794
O O10 0.500000 0.500000 0.500000
O O11 0.341460 0.688381 0.508651
O O12 0.377788 0.409085 0.452008
O O13 0.867302 0.682180 0.889964
O O14 0.753508 0.610484 0.189210
O O15 0.000000 0.000000 0.000000
O O16 0.180630 0.054709 0.823214
O O17 0.936852 0.419416 0.150952
#
# Coordination Sequence:
#
# PCOD9091930 Si02
#       8
#     2   2   2   2   2   2   2   2
#     4  12  24  46  68  97 127 175 214 271 333 382
#     4  10  20  39  71  97 130 169 211 262 335 385
#     4  10  21  38  67 102 134 160 205 273 334 381
#     4  12  28  45  64  94 134 173 219 272 319 380
#     4  10  20  35  67 104 127 166 211 268 325 382
#     4  12  25  46  69  90 126 180 229 260 315 388
#     4  10  19  40  63  94 135 164 215 260 322 383
#     4  10  19  42  66  93 127 175 215 263 317 387
#
# _framework density 22.636461000000001
#
# number of rings (size 3 to 8) (size 9 to 14) (size 15 to 20)
#    0.000    1.500    3.750    5.250    1.750    2.000 
#    0.000    1.875    0.000    0.000    0.000    0.000 
#    0.000    0.000    0.000    0.000    0.000    0.000 
#
# Total GULP energy -89423.132128 kJ/mol
# GULP energy per Si atom -5588.945758 kJ/mol
# Density = 2.258494 g / cm^3
# Si number density = 22.636461 Si / 1000 Ang^3
#
#
#
# Elastic Constant Matrix: (Units=GPa)
#
#
# Indices 1 2 3 4 5 6 
#
# 1 96.4016 26.8638 36.0193 -3.0170 35.1050 -11.2453
# 2 26.8638 59.6563 39.4834 12.3384 21.2869 7.1070
# 3 36.0193 39.4834 104.8437 6.6021 34.8412 6.1223
# 4 -3.0170 12.3384 6.6021 38.5937 9.3361 14.4982
# 5 35.1050 21.2869 34.8412 9.3361 39.9486 -10.1017
# 6 -11.2453 7.1070 6.1223 14.4982 -10.1017 31.3923
#
#
#
# Elastic Compliance Matrix: (Units=1/GPa)
#
#
# Indices 1 2 3 4 5 6 
#
# 1 0.016740 -0.003620 0.000081 0.006240 -0.014500 -0.000748
# 2 -0.003620 0.026057 -0.005848 -0.003663 -0.006370 -0.006413
# 3 0.000081 -0.005848 0.017281 0.006727 -0.016214 -0.010341
# 4 0.006240 -0.003663 0.006727 0.042578 -0.025993 -0.026276
# 5 -0.014500 -0.006370 -0.016214 -0.025993 0.069963 0.033928
# 6 -0.000748 -0.006413 -0.010341 -0.026276 0.033928 0.058109
#
#
# Mechanical properties :
#
#
# Convention : Reuss Voigt Hill
#
# Bulk Modulus (GPa) = 24.20938 51.73716 37.97327
# Shear Modulus (GPa) = 18.99209 32.55594 25.77402
#
# Velocity S-wave (km/s) = 2.89970 3.79649 3.37798
# Velocity P-wave (km/s) = 4.68285 6.49023 5.65916
#
# Compressibility (1/GPa) = 0.04130630
#
# Stress axis : x y z
#
# Youngs Moduli (GPa) = 59.73789 38.37686 57.86844
#
# Poissons Ratio (x) = 0.13891 -0.00471
# Poissons Ratio (y) = 0.21623 0.33839
# Poissons Ratio (z) = -0.00486 0.22441
#
# Static dielectric constant tensor:
#      x y z
#    x 1.828810 0.056670 -0.000520 
#    y 0.056670 1.893210 -0.046020 
#    z -0.000520 -0.046020 1.904480 
# 
# From -- ./inp_files/332115.got.cif
#   From: 2010.05.17/outbox.cif.g08.bks.cpg/sg2_167_cif.got.tgz:332115.got - 2010.06.03 11:33:40.
