data_PCOD9091006
_publ_section_title
;
Structure prediction by ZEFSAII (Michael W. Deem and Ramdas Pophale) SiO2 
 PCOD9091006
Probable space group: P -1
;
_chemical_formula_sum "Si O2"
_cell_formula_units_Z 12
_cell_length_a 10.589719
_cell_length_b 9.901738
_cell_length_c 7.761278
_cell_angle_alpha 95.460458
_cell_angle_beta 123.701779
_cell_angle_gamma 122.695254
_cell_volume 470.496232
_symmetry_space_group_name_H-M "P -1"
_symmetry_group_IT_number 2
_symmetry_cell_setting 'triclinic'
loop_
_space_group_symop_operation_xyz
x,y,z
-x,-y,-z
loop_
_atom_site_type_symbol
_atom_site_label
_atom_site_fract_x
_atom_site_fract_y
_atom_site_fract_z
Si Si1 0.678734 0.226284 0.201793
Si Si2 0.158298 0.180873 0.955581
Si Si3 0.068178 0.387280 0.733016
Si Si4 0.396648 0.612555 0.531207
Si Si5 0.042616 0.823878 0.871535
Si Si6 0.713187 0.222615 0.738879
O O1 0.739351 0.386089 0.136700
O O2 0.606489 0.266394 0.319747
O O3 0.900337 0.291731 0.435096
O O4 0.500000 0.000000 0.000000
O O5 0.381523 0.321774 0.250636
O O6 0.976588 0.116509 0.945950
O O7 0.155019 0.292980 0.821547
O O8 0.114634 0.999863 0.837575
O O9 0.919042 0.339566 0.776904
O O10 0.190090 0.385505 0.376553
O O11 0.363311 0.669883 0.331175
O O12 0.199382 0.797568 0.026353
O O13 0.500000 0.000000 0.500000
#
# Coordination Sequence:
#
# PCOD9091006 Si02
#       6
#     2   2   2   2   2   2
#     4  10  23  45  65  84 121 165 213 258 301 357
#     4  10  21  38  60  91 129 158 193 250 319 368
#     4   9  22  42  61  90 123 159 207 256 306 360
#     4  11  22  37  62  93 118 165 208 249 302 368
#     4  10  21  38  59  91 134 157 195 252 308 368
#     4  10  19  39  62  91 125 161 203 249 306 366
#
# _framework density 25.504985999999999
#
# number of rings (size 3 to 8) (size 9 to 14) (size 15 to 20)
#    0.000    2.000    1.667    1.000    0.000    6.000 
#   12.000    1.667    0.000    0.000    0.000    0.000 
#    0.000    0.000    0.000    0.000    0.000    0.000 
#
# Total GULP energy -67118.498880 kJ/mol
# GULP energy per Si atom -5593.208240 kJ/mol
# Density = 2.544694 g / cm^3
# Si number density = 25.504986 Si / 1000 Ang^3
#
#
#
# Elastic Constant Matrix: (Units=GPa)
#
#
# Indices 1 2 3 4 5 6 
#
# 1 50.1519 32.5014 14.0444 -10.9890 6.1568 -3.8267
# 2 32.5014 260.1283 98.8112 -13.2444 15.3679 -15.5698
# 3 14.0444 98.8112 126.0104 1.9497 21.2470 -15.9577
# 4 -10.9890 -13.2444 1.9497 62.5478 -14.2043 9.8558
# 5 6.1568 15.3679 21.2470 -14.2043 38.4777 -3.6638
# 6 -3.8267 -15.5698 -15.9577 9.8558 -3.6638 45.0241
#
#
#
# Elastic Compliance Matrix: (Units=1/GPa)
#
#
# Indices 1 2 3 4 5 6 
#
# 1 0.022469 -0.002394 -0.000455 0.003160 -0.001209 0.000130
# 2 -0.002394 0.005859 -0.004503 0.001172 0.000967 0.000049
# 3 -0.000455 -0.004503 0.013038 -0.003375 -0.006264 0.003254
# 4 0.003160 0.001172 -0.003375 0.019275 0.007613 -0.004122
# 5 -0.001209 0.000967 -0.006264 0.007613 0.031966 -0.001054
# 6 0.000130 0.000049 0.003254 -0.004122 -0.001054 0.024208
#
#
# Mechanical properties :
#
#
# Convention : Reuss Voigt Hill
#
# Bulk Modulus (GPa) = 37.50676 80.77829 59.14253
# Shear Modulus (GPa) = 35.61076 48.60549 42.10813
#
# Velocity S-wave (km/s) = 3.74067 4.37020 4.06763
# Velocity P-wave (km/s) = 5.77879 7.56341 6.73051
#
# Compressibility (1/GPa) = 0.02666186
#
# Stress axis : x y z
#
# Youngs Moduli (GPa) = 44.50514 170.67002 76.69929
#
# Poissons Ratio (x) = 0.40864 0.03493
# Poissons Ratio (y) = 0.10656 0.34535
# Poissons Ratio (z) = 0.02027 0.76846
#
# Static dielectric constant tensor:
#      x y z
#    x 2.147350 -0.008600 -0.096590 
#    y -0.008600 2.017980 -0.034050 
#    z -0.096590 -0.034050 2.069440 
# 
# From -- ./inp_files/26319.got.cif
#   From: 2010.05.17/outbox.cif.g08.bks.cpg/sg2_14_cif.got.tgz:26319.got - 2010.06.03 11:33:40.
