data_PCOD9091606
_publ_section_title
;
Structure prediction by ZEFSAII (Michael W. Deem and Ramdas Pophale) SiO2 
 PCOD9091606
Probable space group: P -1
;
_chemical_formula_sum "Si O2"
_cell_formula_units_Z 16
_cell_length_a 7.174115
_cell_length_b 12.043902
_cell_length_c 9.399506
_cell_angle_alpha 56.792676
_cell_angle_beta 93.884075
_cell_angle_gamma 92.951763
_cell_volume 677.866442
_symmetry_space_group_name_H-M "P -1"
_symmetry_group_IT_number 2
_symmetry_cell_setting 'triclinic'
loop_
_space_group_symop_operation_xyz
x,y,z
-x,-y,-z
loop_
_atom_site_type_symbol
_atom_site_label
_atom_site_fract_x
_atom_site_fract_y
_atom_site_fract_z
Si Si1 0.738052 0.292354 0.566491
Si Si2 0.054842 0.371749 0.951164
Si Si3 0.458456 0.140517 0.318718
Si Si4 0.677243 0.796079 0.457543
Si Si5 0.946938 0.150478 0.916427
Si Si6 0.834029 0.514049 0.596078
Si Si7 0.602287 0.047293 0.114406
Si Si8 0.211175 0.639802 0.794753
O O1 0.546171 0.217850 0.571157
O O2 0.882582 0.207929 0.722641
O O3 0.687698 0.413930 0.582433
O O4 0.827812 0.331900 0.392888
O O5 0.092286 0.245936 0.940501
O O6 0.904022 0.453308 0.790864
O O7 0.223385 0.477970 0.913120
O O8 0.951934 0.334104 0.118660
O O9 0.297139 0.191320 0.379358
O O10 0.615039 0.259614 0.239083
O O11 0.500000 0.000000 0.500000
O O12 0.452218 0.098560 0.184025
O O13 0.763814 0.661428 0.503189
O O14 0.719112 0.929966 0.279310
O O15 0.759172 0.153046 0.001080
O O16 0.000000 0.000000 0.000000
O O17 0.000000 0.500000 0.500000
O O18 0.500000 0.000000 0.000000
#
# Coordination Sequence:
#
# PCOD9091606 Si02
#       8
#     2   2   2   2   2   2   2   2
#     4  10  21  40  62  92 128 167 223 266 325 386
#     4  10  22  39  63  91 134 171 215 270 334 393
#     4   9  20  40  65  91 127 170 220 270 324 394
#     4  10  22  39  66  87 128 175 215 268 332 389
#     4  11  24  39  63  98 133 173 218 276 330 390
#     4  11  22  39  62  96 130 170 214 271 329 398
#     4  11  21  40  65  93 128 170 221 276 322 392
#     4  10  19  39  68  88 127 175 213 274 329 387
#
# _framework density 23.603470999999999
#
# number of rings (size 3 to 8) (size 9 to 14) (size 15 to 20)
#    0.000    1.750    3.750    0.375    3.500    0.000 
#    0.000    6.875    0.000    0.000    0.000    0.000 
#    0.000    0.000    0.000    0.000    0.000    0.000 
#
# Total GULP energy -89269.582351 kJ/mol
# GULP energy per Si atom -5579.348897 kJ/mol
# Density = 2.354975 g / cm^3
# Si number density = 23.603471 Si / 1000 Ang^3
#
#
#
# Elastic Constant Matrix: (Units=GPa)
#
#
# Indices 1 2 3 4 5 6 
#
# 1 41.4148 25.5859 36.6505 -6.3328 -2.5952 2.9253
# 2 25.5859 163.5220 49.4079 6.6884 9.4683 -5.8669
# 3 36.6505 49.4079 140.9864 13.5165 -21.3779 -19.2389
# 4 -6.3328 6.6884 13.5165 50.5762 2.3309 -6.9002
# 5 -2.5952 9.4683 -21.3779 2.3309 27.1879 -10.1530
# 6 2.9253 -5.8669 -19.2389 -6.9002 -10.1530 36.8217
#
#
#
# Elastic Compliance Matrix: (Units=1/GPa)
#
#
# Indices 1 2 3 4 5 6 
#
# 1 0.038575 -0.002083 -0.013379 0.007553 -0.011271 -0.012080
# 2 -0.002083 0.007781 -0.003420 -0.000383 -0.006393 -0.002217
# 3 -0.013379 -0.003420 0.016923 -0.004749 0.018719 0.013632
# 4 0.007553 -0.000383 -0.004749 0.022219 -0.004908 -0.000332
# 5 -0.011271 -0.006393 0.018719 -0.004908 0.062800 0.026053
# 6 -0.012080 -0.002217 0.013632 -0.000332 0.026053 0.042008
#
#
# Mechanical properties :
#
#
# Convention : Reuss Voigt Hill
#
# Bulk Modulus (GPa) = 39.19438 63.24577 51.22007
# Shear Modulus (GPa) = 21.13482 38.53576 29.83529
#
# Velocity S-wave (km/s) = 2.99559 4.04497 3.55916
# Velocity P-wave (km/s) = 5.34847 6.97631 6.21591
#
# Compressibility (1/GPa) = 0.02551386
#
# Stress axis : x y z
#
# Youngs Moduli (GPa) = 25.92365 128.51665 59.08971
#
# Poissons Ratio (x) = 0.26768 0.79059
# Poissons Ratio (y) = 0.05399 0.20211
# Poissons Ratio (z) = 0.34684 0.43959
#
# Static dielectric constant tensor:
#      x y z
#    x 1.934430 0.056730 -0.020710 
#    y 0.056730 1.983220 -0.000950 
#    z -0.020710 -0.000950 1.910070 
# 
# From -- ./inp_files/175181.got.cif
#   From: 2010.05.17/outbox.cif.g08.bks.cpg/sg2_88_cif.got.tgz:175181.got - 2010.06.03 11:33:40.
