data_PCOD9091437
_publ_section_title
;
Structure prediction by ZEFSAII (Michael W. Deem and Ramdas Pophale) SiO2 
 PCOD9091437
Probable space group: P -1
;
_chemical_formula_sum "Si O2"
_cell_formula_units_Z 12
_cell_length_a 13.326867
_cell_length_b 13.332329
_cell_length_c 8.463470
_cell_angle_alpha 45.377796
_cell_angle_beta 133.623111
_cell_angle_gamma 148.623157
_cell_volume 540.514905
_symmetry_space_group_name_H-M "P -1"
_symmetry_group_IT_number 2
_symmetry_cell_setting 'triclinic'
loop_
_space_group_symop_operation_xyz
x,y,z
-x,-y,-z
loop_
_atom_site_type_symbol
_atom_site_label
_atom_site_fract_x
_atom_site_fract_y
_atom_site_fract_z
Si Si1 0.587265 0.945313 0.271016
Si Si2 0.617593 0.369255 0.034551
Si Si3 0.095713 0.638081 0.801482
Si Si4 0.504478 0.586674 0.652581
Si Si5 0.311716 0.083317 0.271559
Si Si6 0.878615 0.640301 0.319806
O O1 0.821975 0.148518 0.293249
O O2 0.567103 0.932638 0.456761
O O3 0.520504 0.737398 0.393747
O O4 0.500000 0.000000 0.000000
O O5 0.575918 0.489413 0.775699
O O6 0.724190 0.329094 0.093360
O O7 0.766514 0.512988 0.181843
O O8 0.417541 0.168503 0.124379
O O9 0.950420 0.555273 0.589472
O O10 0.000000 0.500000 0.000000
O O11 0.285413 0.411967 0.683039
O O12 0.647386 0.740406 0.784938
O O13 0.081140 0.873880 0.247763
#
# Coordination Sequence:
#
# PCOD9091437 Si02
#       6
#     2   2   2   2   2   2
#     4   9  19  39  60  83 125 163 193 241 310 357
#     4  11  22  39  62  97 122 153 208 255 298 357
#     4  11  24  41  60  88 125 166 205 249 302 364
#     4   9  20  37  64  92 123 158 198 252 304 356
#     4   8  19  35  64  92 120 158 201 244 303 359
#     4  10  19  39  66  89 125 160 199 245 307 364
#
# _framework density 22.201055
#
# number of rings (size 3 to 8) (size 9 to 14) (size 15 to 20)
#    1.000    1.333    0.000    3.500    0.000    5.333 
#    6.000    4.167    0.000    0.000    0.000    0.000 
#    0.000    0.000    0.000    0.000    0.000    0.000 
#
# Total GULP energy -66834.128523 kJ/mol
# GULP energy per Si atom -5569.510710 kJ/mol
# Density = 2.215052 g / cm^3
# Si number density = 22.201055 Si / 1000 Ang^3
#
#
#
# Elastic Constant Matrix: (Units=GPa)
#
#
# Indices 1 2 3 4 5 6 
#
# 1 80.8158 43.5263 21.6699 -15.7953 12.8217 -4.3151
# 2 43.5263 127.9211 36.9972 -8.5873 -1.3430 22.4959
# 3 21.6699 36.9972 137.9440 -22.5206 16.3650 -3.3929
# 4 -15.7953 -8.5873 -22.5206 38.9409 3.0181 -5.9700
# 5 12.8217 -1.3430 16.3650 3.0181 21.5777 -2.6324
# 6 -4.3151 22.4959 -3.3929 -5.9700 -2.6324 18.6527
#
#
#
# Elastic Compliance Matrix: (Units=1/GPa)
#
#
# Indices 1 2 3 4 5 6 
#
# 1 0.026412 -0.014372 0.005356 0.016282 -0.019652 0.026855
# 2 -0.014372 0.019347 -0.007033 -0.011190 0.013023 -0.029681
# 3 0.005356 -0.007033 0.011807 0.010476 -0.012396 0.013472
# 4 0.016282 -0.011190 0.010476 0.042025 -0.020569 0.029716
# 5 -0.019652 0.013023 -0.012396 -0.020569 0.068746 -0.019389
# 6 0.026855 -0.029681 0.013472 0.029716 -0.019389 0.104846
#
#
# Mechanical properties :
#
#
# Convention : Reuss Voigt Hill
#
# Bulk Modulus (GPa) = 39.26708 61.22972 50.24840
# Shear Modulus (GPa) = 15.93525 32.13341 24.03433
#
# Velocity S-wave (km/s) = 2.68203 3.80857 3.29382
# Velocity P-wave (km/s) = 5.22652 6.85418 6.09493
#
# Compressibility (1/GPa) = 0.02546662
#
# Stress axis : x y z
#
# Youngs Moduli (GPa) = 37.86103 51.68829 84.69899
#
# Poissons Ratio (x) = 0.74287 -0.45361
# Poissons Ratio (y) = 0.54414 0.59569
# Poissons Ratio (z) = -0.20277 0.36353
#
# Static dielectric constant tensor:
#      x y z
#    x 1.795200 -0.026780 0.014730 
#    y -0.026780 1.869560 -0.006500 
#    z 0.014730 -0.006500 1.939440 
# 
# From -- ./inp_files/309322.got.cif
#   From: 2010.05.17/outbox.cif.g08.bks.cpg/sg2_155_cif.got.tgz:309322.got - 2010.06.03 11:33:40.
