data_PCOD9091172
_publ_section_title
;
Structure prediction by ZEFSAII (Michael W. Deem and Ramdas Pophale) SiO2 
 PCOD9091172
Probable space group: P -1
;
_chemical_formula_sum "Si O2"
_cell_formula_units_Z 14
_cell_length_a 5.180675
_cell_length_b 26.370190
_cell_length_c 5.451327
_cell_angle_alpha 45.681537
_cell_angle_beta 84.342307
_cell_angle_gamma 85.729710
_cell_volume 530.221941
_symmetry_space_group_name_H-M "P -1"
_symmetry_group_IT_number 2
_symmetry_cell_setting 'triclinic'
loop_
_space_group_symop_operation_xyz
x,y,z
-x,-y,-z
loop_
_atom_site_type_symbol
_atom_site_label
_atom_site_fract_x
_atom_site_fract_y
_atom_site_fract_z
Si Si1 0.393229 0.190196 0.640158
Si Si2 0.840577 0.453374 0.982161
Si Si3 0.993698 0.857450 0.797139
Si Si4 0.353092 0.679590 0.688464
Si Si5 0.077749 0.279310 0.017206
Si Si6 0.506939 0.080787 0.647178
Si Si7 0.716612 0.586032 0.320845
O O1 0.492123 0.248677 0.626866
O O2 0.320201 0.238422 0.252647
O O3 0.569088 0.128919 0.718166
O O4 0.142205 0.151854 0.898175
O O5 0.636389 0.511871 0.698316
O O6 0.041236 0.432189 0.818356
O O7 0.725717 0.376710 0.323153
O O8 0.000000 0.500000 0.000000
O O9 0.037748 0.776299 0.973512
O O10 0.769283 0.895275 0.524409
O O11 0.257825 0.900501 0.619556
O O12 0.116897 0.708976 0.775838
O O13 0.513134 0.627525 0.031832
O O14 0.179365 0.357272 0.679865
O O15 0.500000 0.000000 0.000000
#
# Coordination Sequence:
#
# PCOD9091172 Si02
#       7
#     2   2   2   2   2   2   2
#     4  10  23  41  65  97 135 171 228 271 331 407
#     4  10  21  37  55  87 126 166 223 277 336 400
#     4  11  24  42  70 101 133 184 220 270 344 395
#     4  10  19  39  64  84 128 175 216 285 331 397
#     4   9  20  39  61  88 130 165 222 280 323 393
#     4  11  25  45  69 102 140 175 222 277 332 403
#     4   9  20  37  57  86 119 176 217 273 342 393
#
# _framework density 26.404035
#
# number of rings (size 3 to 8) (size 9 to 14) (size 15 to 20)
#    0.000    2.000    1.429    0.857    2.000    5.143 
#    0.000    4.286    0.000    0.000    0.000    0.000 
#    0.000    0.000    0.000    0.000    0.000    0.000 
#
# Total GULP energy -78325.412452 kJ/mol
# GULP energy per Si atom -5594.672318 kJ/mol
# Density = 2.634394 g / cm^3
# Si number density = 26.404035 Si / 1000 Ang^3
#
#
#
# Elastic Constant Matrix: (Units=GPa)
#
#
# Indices 1 2 3 4 5 6 
#
# 1 93.6964 28.2206 34.4535 -14.8848 -1.1472 5.9491
# 2 28.2206 50.9646 53.3394 -21.7561 8.9250 -1.5614
# 3 34.4535 53.3394 104.8050 -31.2169 -14.4600 -2.1709
# 4 -14.8848 -21.7561 -31.2169 44.9381 -2.1241 0.8439
# 5 -1.1472 8.9250 -14.4600 -2.1241 56.1438 8.0036
# 6 5.9491 -1.5614 -2.1709 0.8439 8.0036 34.4971
#
#
#
# Elastic Compliance Matrix: (Units=1/GPa)
#
#
# Indices 1 2 3 4 5 6 
#
# 1 0.013268 -0.006993 -0.000354 0.000904 0.001762 -0.003058
# 2 -0.006993 0.058431 -0.028045 0.005561 -0.017294 0.005962
# 3 -0.000354 -0.028045 0.027295 0.005881 0.012050 -0.002430
# 4 0.000904 0.005561 0.005881 0.029431 0.001860 -0.000686
# 5 0.001762 -0.017294 0.012050 0.001860 0.024639 -0.006090
# 6 -0.003058 0.005962 -0.002430 -0.000686 -0.006090 0.031062
#
#
# Mechanical properties :
#
#
# Convention : Reuss Voigt Hill
#
# Bulk Modulus (GPa) = 35.44795 53.49925 44.47360
# Shear Modulus (GPa) = 18.91696 36.01262 27.46479
#
# Velocity S-wave (km/s) = 2.67955 3.69712 3.22867
# Velocity P-wave (km/s) = 4.79871 6.20731 5.54790
#
# Compressibility (1/GPa) = 0.02821037
#
# Stress axis : x y z
#
# Youngs Moduli (GPa) = 75.36649 17.11428 36.63674
#
# Poissons Ratio (x) = 0.11968 0.01296
# Poissons Ratio (y) = 0.52705 1.02748
# Poissons Ratio (z) = 0.02665 0.47997
#
# Static dielectric constant tensor:
#      x y z
#    x 2.173620 0.080540 0.014950 
#    y 0.080540 2.113010 0.036140 
#    z 0.014950 0.036140 2.066820 
# 
# From -- ./inp_files/7960.got.cif
#   From: 2010.05.17/outbox.cif.g08.bks.cpg/sg2_4_cif.got.tgz:7960.got - 2010.06.03 11:33:40.
