data_PCOD9091017
_publ_section_title
;
Structure prediction by ZEFSAII (Michael W. Deem and Ramdas Pophale) SiO2 
 PCOD9091017
Probable space group: P -1
;
_chemical_formula_sum "Si O2"
_cell_formula_units_Z 14
_cell_length_a 12.045201
_cell_length_b 14.935605
_cell_length_c 12.491152
_cell_angle_alpha 31.963939
_cell_angle_beta 40.792959
_cell_angle_gamma 29.260904
_cell_volume 580.227116
_symmetry_space_group_name_H-M "P -1"
_symmetry_group_IT_number 2
_symmetry_cell_setting 'triclinic'
loop_
_space_group_symop_operation_xyz
x,y,z
-x,-y,-z
loop_
_atom_site_type_symbol
_atom_site_label
_atom_site_fract_x
_atom_site_fract_y
_atom_site_fract_z
Si Si1 0.723332 0.907072 0.731022
Si Si2 0.759830 0.404634 0.287493
Si Si3 0.401130 0.928546 0.788460
Si Si4 0.957645 0.835701 0.024979
Si Si5 0.353703 0.701353 0.736572
Si Si6 0.710729 0.632806 0.671909
Si Si7 0.623812 0.147162 0.765554
O O1 0.980649 0.707428 0.782909
O O2 0.592320 0.857104 0.807637
O O3 0.730347 0.066890 0.487917
O O4 0.583053 0.052872 0.790575
O O5 0.677390 0.414344 0.217819
O O6 0.733673 0.244740 0.533894
O O7 0.598814 0.643493 0.222629
O O8 0.191850 0.991120 0.944641
O O9 0.307104 0.164239 0.563447
O O10 0.535144 0.740190 0.790737
O O11 0.042506 0.592195 0.242661
O O12 0.189737 0.771194 0.884857
O O13 0.802386 0.951021 0.916586
O O14 0.609078 0.572601 0.718487
#
# Coordination Sequence:
#
# PCOD9091017 Si02
#       7
#     2   2   2   2   2   2   2
#     4  10  19  42  63  87 125 163 191 246 298 368
#     4  10  19  39  62  93 125 157 190 248 307 363
#     4  10  25  42  64  85 120 168 205 232 310 360
#     4  12  22  39  62  95 121 151 204 261 288 353
#     4  10  20  40  66  89 121 154 203 250 304 344
#     4  10  24  46  59  85 123 166 199 249 297 360
#     4  10  21  35  63  95 122 153 203 241 305 356
#
# _framework density 24.128482999999999
#
# number of rings (size 3 to 8) (size 9 to 14) (size 15 to 20)
#    0.000    1.714    2.857    1.714    2.000    2.286 
#    2.571    5.714    0.000    0.000    0.000    0.000 
#    0.000    0.000    0.000    0.000    0.000    0.000 
#
# Total GULP energy -78381.546652 kJ/mol
# GULP energy per Si atom -5598.681904 kJ/mol
# Density = 2.407357 g / cm^3
# Si number density = 24.128483 Si / 1000 Ang^3
#
#
#
# Elastic Constant Matrix: (Units=GPa)
#
#
# Indices 1 2 3 4 5 6 
#
# 1 105.7340 45.3064 33.2612 -20.5700 13.1261 8.6071
# 2 45.3064 126.6316 30.3125 7.7037 4.5082 12.7972
# 3 33.2612 30.3125 88.7691 -2.9966 14.6079 0.0037
# 4 -20.5700 7.7037 -2.9966 44.4776 -0.7800 13.4676
# 5 13.1261 4.5082 14.6079 -0.7800 32.1207 0.7411
# 6 8.6071 12.7972 0.0037 13.4676 0.7411 19.1864
#
#
#
# Elastic Compliance Matrix: (Units=1/GPa)
#
#
# Indices 1 2 3 4 5 6 
#
# 1 0.016162 -0.004238 -0.003587 0.011676 -0.003807 -0.012472
# 2 -0.004238 0.010395 -0.002277 -0.002987 0.001305 -0.002986
# 3 -0.003587 -0.002277 0.014114 -0.001778 -0.004781 0.004558
# 4 0.011676 -0.002987 -0.001778 0.037089 -0.001969 -0.029204
# 5 -0.003807 0.001305 -0.004781 -0.001969 0.034611 0.000884
# 6 -0.012472 -0.002986 0.004558 -0.029204 0.000884 0.080171
#
#
# Mechanical properties :
#
#
# Convention : Reuss Voigt Hill
#
# Bulk Modulus (GPa) = 48.86315 59.87720 54.37018
# Shear Modulus (GPa) = 22.77193 33.30725 28.03959
#
# Velocity S-wave (km/s) = 3.07543 3.71942 3.41265
# Velocity P-wave (km/s) = 5.73639 6.58144 6.17339
#
# Compressibility (1/GPa) = 0.02046532
#
# Stress axis : x y z
#
# Youngs Moduli (GPa) = 61.87520 96.19724 70.85385
#
# Poissons Ratio (x) = 0.40769 0.25418
# Poissons Ratio (y) = 0.26223 0.16135
# Poissons Ratio (z) = 0.22197 0.21906
#
# Static dielectric constant tensor:
#      x y z
#    x 1.857790 -0.011190 -0.015440 
#    y -0.011190 1.882690 0.010330 
#    z -0.015440 0.010330 2.005660 
# 
# From -- ./inp_files/184832.got.cif
#   From: 2010.05.17/outbox.cif.g08.bks.cpg/sg2_93_cif.got.tgz:184832.got - 2010.06.03 11:33:40.
