data_PCOD9091916
_publ_section_title
;
Structure prediction by ZEFSAII (Michael W. Deem and Ramdas Pophale) SiO2 
 PCOD9091916
Probable space group: P -1
;
_chemical_formula_sum "Si O2"
_cell_formula_units_Z 12
_cell_length_a 16.907245
_cell_length_b 7.945656
_cell_length_c 6.820256
_cell_angle_alpha 105.619986
_cell_angle_beta 140.623272
_cell_angle_gamma 60.082355
_cell_volume 492.418753
_symmetry_space_group_name_H-M "P -1"
_symmetry_group_IT_number 2
_symmetry_cell_setting 'triclinic'
loop_
_space_group_symop_operation_xyz
x,y,z
-x,-y,-z
loop_
_atom_site_type_symbol
_atom_site_label
_atom_site_fract_x
_atom_site_fract_y
_atom_site_fract_z
Si Si1 0.646142 0.000404 0.260545
Si Si2 0.361128 0.571293 0.023902
Si Si3 0.808697 0.073493 0.915714
Si Si4 0.326293 0.633304 0.563240
Si Si5 0.033057 0.358346 0.829427
Si Si6 0.788415 0.628929 0.156816
O O1 0.707767 0.998545 0.593015
O O2 0.752731 0.824605 0.273448
O O3 0.633065 0.203480 0.216104
O O4 0.500000 0.000000 0.000000
O O5 0.526890 0.508075 0.307461
O O6 0.264480 0.788631 0.996282
O O7 0.305809 0.541905 0.693990
O O8 0.340914 0.417232 0.077201
O O9 0.802771 0.233086 0.788663
O O10 0.943835 0.863092 0.149486
O O11 0.169906 0.348618 0.975956
O O12 0.916511 0.451654 0.463827
O O13 0.000000 0.500000 0.000000
#
# Coordination Sequence:
#
# PCOD9091916 Si02
#       6
#     2   2   2   2   2   2
#     4  10  19  40  63  92 123 158 202 252 303 368
#     4  11  21  40  61  93 125 165 196 258 310 367
#     4  10  22  39  61  87 125 159 208 247 308 362
#     4   9  21  37  63  87 133 157 199 249 313 366
#     4  11  23  43  65  87 122 167 212 260 292 363
#     4  11  23  40  66  92 123 160 213 252 306 357
#
# _framework density 24.369499000000001
#
# number of rings (size 3 to 8) (size 9 to 14) (size 15 to 20)
#    1.000    0.667    3.333    1.500    0.000    2.000 
#    0.000   10.833    0.000    0.000    0.000    0.000 
#    0.000    0.000    0.000    0.000    0.000    0.000 
#
# Total GULP energy -66951.620283 kJ/mol
# GULP energy per Si atom -5579.301690 kJ/mol
# Density = 2.431403 g / cm^3
# Si number density = 24.369499 Si / 1000 Ang^3
#
#
#
# Elastic Constant Matrix: (Units=GPa)
#
#
# Indices 1 2 3 4 5 6 
#
# 1 122.3058 15.2941 14.3126 6.1230 -27.8566 -14.9040
# 2 15.2941 132.0663 17.1687 -9.3652 -18.1518 -32.2094
# 3 14.3126 17.1687 69.3086 -4.1165 -27.2934 -5.8235
# 4 6.1230 -9.3652 -4.1165 41.9011 1.1603 -10.9736
# 5 -27.8566 -18.1518 -27.2934 1.1603 25.3963 4.3133
# 6 -14.9040 -32.2094 -5.8235 -10.9736 4.3133 32.0440
#
#
#
# Elastic Compliance Matrix: (Units=1/GPa)
#
#
# Indices 1 2 3 4 5 6 
#
# 1 0.012594 0.002186 0.005263 0.000298 0.019927 0.006431
# 2 0.002186 0.012592 0.002481 0.006293 0.011269 0.014763
# 3 0.005263 0.002481 0.027625 0.003120 0.036043 0.006179
# 4 0.000298 0.006293 0.003120 0.029799 0.003979 0.016700
# 5 0.019927 0.011269 0.036043 0.003979 0.105409 0.014320
# 6 0.006431 0.014763 0.006179 0.016700 0.014320 0.053951
#
#
# Mechanical properties :
#
#
# Convention : Reuss Voigt Hill
#
# Bulk Modulus (GPa) = 13.76064 46.35903 30.05984
# Shear Modulus (GPa) = 20.29771 38.32863 29.31317
#
# Velocity S-wave (km/s) = 2.88916 3.97017 3.47199
# Velocity P-wave (km/s) = 4.09738 6.33096 5.33243
#
# Compressibility (1/GPa) = 0.07267102
#
# Stress axis : x y z
#
# Youngs Moduli (GPa) = 79.40041 79.41663 36.19957
#
# Poissons Ratio (x) = -0.17358 -0.19052
# Poissons Ratio (y) = -0.17354 -0.08983
# Poissons Ratio (z) = -0.41788 -0.19707
#
# Static dielectric constant tensor:
#      x y z
#    x 2.078220 0.055390 -0.091550 
#    y 0.055390 1.991160 -0.056370 
#    z -0.091550 -0.056370 2.109840 
# 
# From -- ./inp_files/90846.got.cif
#   From: 2010.05.17/outbox.cif.g08.bks.cpg/sg2_46_cif.got.tgz:90846.got - 2010.06.03 11:33:40.
