data_PCOD9091367
_publ_section_title
;
Structure prediction by ZEFSAII (Michael W. Deem and Ramdas Pophale) SiO2 
 PCOD9091367
Probable space group: P -1
;
_chemical_formula_sum "Si O2"
_cell_formula_units_Z 16
_cell_length_a 11.862226
_cell_length_b 12.217053
_cell_length_c 9.867235
_cell_angle_alpha 127.460011
_cell_angle_beta 51.047896
_cell_angle_gamma 142.734050
_cell_volume 655.451204
_symmetry_space_group_name_H-M "P -1"
_symmetry_group_IT_number 2
_symmetry_cell_setting 'triclinic'
loop_
_space_group_symop_operation_xyz
x,y,z
-x,-y,-z
loop_
_atom_site_type_symbol
_atom_site_label
_atom_site_fract_x
_atom_site_fract_y
_atom_site_fract_z
Si Si1 0.988108 0.756080 0.980657
Si Si2 0.552837 0.808030 0.357989
Si Si3 0.533683 0.087203 0.736477
Si Si4 0.718198 0.371007 0.997276
Si Si5 0.708579 0.250198 0.184848
Si Si6 0.585352 0.692967 0.510879
Si Si7 0.300148 0.412763 0.169699
Si Si8 0.738376 0.846408 0.782876
O O1 0.827398 0.584603 0.070377
O O2 0.875091 0.721378 0.903784
O O3 0.129943 0.714489 0.815407
O O4 0.111830 0.951358 0.110383
O O5 0.557652 0.960464 0.540810
O O6 0.652549 0.764788 0.357355
O O7 0.350483 0.598771 0.322583
O O8 0.602691 0.892471 0.230145
O O9 0.454156 0.971323 0.848805
O O10 0.724388 0.291377 0.791977
O O11 0.788923 0.322474 0.029522
O O12 0.489315 0.258367 0.102316
O O13 0.602165 0.323487 0.356721
O O14 0.500000 0.500000 0.500000
O O15 0.748462 0.843420 0.609815
O O16 0.253504 0.290920 0.243842
O O17 0.500000 0.500000 0.000000
#
# Coordination Sequence:
#
# PCOD9091367 Si02
#       8
#     2   2   2   2   2   2   2   2
#     4  12  24  39  67 102 132 168 229 277 324 387
#     4  10  21  37  68  96 124 179 224 259 332 395
#     4  10  19  39  65  93 132 170 220 269 327 391
#     4  11  21  41  66  96 137 169 214 280 333 388
#     4  10  23  38  66 102 129 169 223 271 328 389
#     4  10  21  41  71  93 134 181 215 266 337 398
#     4  12  23  43  68  94 134 181 220 271 334 394
#     4  11  23  41  69  98 132 176 226 268 330 395
#
# _framework density 24.410665999999999
#
# number of rings (size 3 to 8) (size 9 to 14) (size 15 to 20)
#    0.000    1.250    5.000    1.125    3.500    0.000 
#    0.000    2.500    2.750    3.750    0.000    0.000 
#    0.000    0.000    0.000    0.000    0.000    0.000 
#
# Total GULP energy -89085.903388 kJ/mol
# GULP energy per Si atom -5567.868962 kJ/mol
# Density = 2.435511 g / cm^3
# Si number density = 24.410666 Si / 1000 Ang^3
#
#
#
# Elastic Constant Matrix: (Units=GPa)
#
#
# Indices 1 2 3 4 5 6 
#
# 1 136.9709 42.4719 30.2838 1.4591 20.1647 -29.6731
# 2 42.4719 124.1280 33.6807 30.1720 16.1184 -22.5224
# 3 30.2838 33.6807 71.1997 20.3726 26.0843 -6.5622
# 4 1.4591 30.1720 20.3726 33.2515 -7.0648 9.7813
# 5 20.1647 16.1184 26.0843 -7.0648 42.0347 -5.3174
# 6 -29.6731 -22.5224 -6.5622 9.7813 -5.3174 59.0117
#
#
#
# Elastic Compliance Matrix: (Units=1/GPa)
#
#
# Indices 1 2 3 4 5 6 
#
# 1 0.009463 -0.002332 -0.002948 0.002391 -0.001028 0.003051
# 2 -0.002332 0.015482 0.003821 -0.020610 -0.009678 0.007705
# 3 -0.002948 0.003821 0.030917 -0.029042 -0.023343 0.006125
# 4 0.002391 -0.020610 -0.029042 0.079906 0.035687 -0.019922
# 5 -0.001028 -0.009678 -0.023343 0.035687 0.047409 -0.008450
# 6 0.003051 0.007705 0.006125 -0.019922 -0.008450 0.024643
#
#
# Mechanical properties :
#
#
# Convention : Reuss Voigt Hill
#
# Bulk Modulus (GPa) = 18.88767 60.57461 39.73114
# Shear Modulus (GPa) = 21.89296 41.91706 31.90501
#
# Velocity S-wave (km/s) = 2.99801 4.14836 3.61918
# Velocity P-wave (km/s) = 4.44279 6.91476 5.81172
#
# Compressibility (1/GPa) = 0.05294459
#
# Stress axis : x y z
#
# Youngs Moduli (GPa) = 105.67945 64.59254 32.34441
#
# Poissons Ratio (x) = 0.15062 0.09535
# Poissons Ratio (y) = 0.24642 -0.12360
# Poissons Ratio (z) = 0.31153 -0.24682
#
# Static dielectric constant tensor:
#      x y z
#    x 1.960820 0.013340 -0.010930 
#    y 0.013340 2.015410 -0.101150 
#    z -0.010930 -0.101150 2.164870 
# 
# From -- ./inp_files/426485.got.cif
#   From: 2010.05.17/outbox.cif.g08.bks.cpg/sg2_214_cif.got.tgz:426485.got - 2010.06.03 11:33:40.
