data_PCOD9091417
_publ_section_title
;
Structure prediction by ZEFSAII (Michael W. Deem and Ramdas Pophale) SiO2 
 PCOD9091417
Probable space group: P -1
;
_chemical_formula_sum "Si O2"
_cell_formula_units_Z 16
_cell_length_a 9.458521
_cell_length_b 9.161052
_cell_length_c 17.726413
_cell_angle_alpha 68.516918
_cell_angle_beta 126.069275
_cell_angle_gamma 134.661525
_cell_volume 880.046055
_symmetry_space_group_name_H-M "P -1"
_symmetry_group_IT_number 2
_symmetry_cell_setting 'triclinic'
loop_
_space_group_symop_operation_xyz
x,y,z
-x,-y,-z
loop_
_atom_site_type_symbol
_atom_site_label
_atom_site_fract_x
_atom_site_fract_y
_atom_site_fract_z
Si Si1 0.692897 0.987957 0.077746
Si Si2 0.414323 0.829238 0.442420
Si Si3 0.500639 0.449560 0.422756
Si Si4 0.456702 0.456816 0.905070
Si Si5 0.025564 0.816673 0.253862
Si Si6 0.756279 0.902024 0.406103
Si Si7 0.096533 0.111226 0.089628
Si Si8 0.028037 0.914017 0.712734
O O1 0.579145 0.748283 0.085472
O O2 0.894385 0.104282 0.057814
O O3 0.831231 0.094367 0.177884
O O4 0.500000 0.000000 0.000000
O O5 0.378191 0.648799 0.513820
O O6 0.198563 0.783070 0.341549
O O7 0.600685 0.895958 0.422238
O O8 0.500000 0.000000 0.500000
O O9 0.500000 0.500000 0.500000
O O10 0.632036 0.669321 0.384264
O O11 0.239693 0.283882 0.343735
O O12 0.666822 0.660343 0.890213
O O13 0.214855 0.388397 0.814502
O O14 0.500000 0.500000 0.000000
O O15 0.116343 0.982488 0.182440
O O16 0.979705 0.910265 0.291600
O O17 0.000000 0.000000 0.500000
O O18 0.832332 0.033952 0.329701
O O19 0.000000 0.000000 0.000000
#
# Coordination Sequence:
#
# PCOD9091417 Si02
#       8
#     2   2   2   2   2   2   2   2
#     4  10  24  40  61  94 124 152 204 258 291 356
#     4  11  21  41  60  90 125 148 202 257 286 356
#     4  10  20  38  64  80 121 161 192 237 306 348
#     4  10  19  41  64  86 122 162 197 244 306 361
#     4  10  22  38  61  92 120 154 201 255 294 351
#     4  11  21  39  63  84 118 165 197 237 306 360
#     4  10  19  39  66  85 122 163 193 242 313 354
#     4  10  20  41  60  83 124 156 198 241 302 358
#
# _framework density 18.180866000000002
#
# number of rings (size 3 to 8) (size 9 to 14) (size 15 to 20)
#    0.000    2.000    6.250    0.000    0.000    5.500 
#    6.750    1.250    0.000    0.000    0.000    0.000 
#    0.000    0.000    0.000    0.000    0.000    0.000 
#
# Total GULP energy -89100.829216 kJ/mol
# GULP energy per Si atom -5568.801826 kJ/mol
# Density = 1.813949 g / cm^3
# Si number density = 18.180866 Si / 1000 Ang^3
#
#
#
# Elastic Constant Matrix: (Units=GPa)
#
#
# Indices 1 2 3 4 5 6 
#
# 1 105.6058 42.8747 72.2397 -0.6258 16.8932 14.8373
# 2 42.8747 103.2015 41.1563 20.2089 15.5375 20.1735
# 3 72.2397 41.1563 146.1123 21.8958 25.9373 5.4365
# 4 -0.6258 20.2089 21.8958 28.8537 1.0034 2.2907
# 5 16.8932 15.5375 25.9373 1.0034 46.4188 0.2996
# 6 14.8373 20.1735 5.4365 2.2907 0.2996 34.2498
#
#
#
# Elastic Compliance Matrix: (Units=1/GPa)
#
#
# Indices 1 2 3 4 5 6 
#
# 1 0.018732 -0.005552 -0.009295 0.011678 0.000009 -0.004150
# 2 -0.005552 0.015518 0.000854 -0.011035 -0.003372 -0.006103
# 3 -0.009295 0.000854 0.013534 -0.011093 -0.004239 0.002155
# 4 0.011678 -0.011035 -0.011093 0.050919 0.004543 -0.000244
# 5 0.000009 -0.003372 -0.004239 0.004543 0.024925 0.002133
# 6 -0.004150 -0.006103 0.002155 -0.000244 0.002133 0.034245
#
#
# Mechanical properties :
#
#
# Convention : Reuss Voigt Hill
#
# Bulk Modulus (GPa) = 50.51329 74.16235 62.33782
# Shear Modulus (GPa) = 25.97952 35.14771 30.56362
#
# Velocity S-wave (km/s) = 3.78424 4.40162 4.10455
# Velocity P-wave (km/s) = 6.85114 8.16776 7.53825
#
# Compressibility (1/GPa) = 0.01979677
#
# Stress axis : x y z
#
# Youngs Moduli (GPa) = 53.38396 64.44310 73.88907
#
# Poissons Ratio (x) = 0.35781 0.68677
# Poissons Ratio (y) = 0.29641 -0.06307
# Poissons Ratio (z) = 0.49618 -0.05501
#
# Static dielectric constant tensor:
#      x y z
#    x 1.604950 -0.017250 -0.008560 
#    y -0.017250 1.681230 -0.011280 
#    z -0.008560 -0.011280 1.648350 
# 
# From -- ./inp_files/214823.got.cif
#   From: 2010.05.17/outbox.cif.g08.bks.cpg/sg2_108_cif.got.tgz:214823.got - 2010.06.03 11:33:40.
