data_PCOD9091826
_publ_section_title
;
Structure prediction by ZEFSAII (Michael W. Deem and Ramdas Pophale) SiO2 
 PCOD9091826
Probable space group: P -1
;
_chemical_formula_sum "Si O2"
_cell_formula_units_Z 16
_cell_length_a 14.989344
_cell_length_b 9.835016
_cell_length_c 7.904677
_cell_angle_alpha 105.814067
_cell_angle_beta 77.079384
_cell_angle_gamma 45.858757
_cell_volume 644.459708
_symmetry_space_group_name_H-M "P -1"
_symmetry_group_IT_number 2
_symmetry_cell_setting 'triclinic'
loop_
_space_group_symop_operation_xyz
x,y,z
-x,-y,-z
loop_
_atom_site_type_symbol
_atom_site_label
_atom_site_fract_x
_atom_site_fract_y
_atom_site_fract_z
Si Si1 0.923678 0.812709 0.021295
Si Si2 0.832948 0.414791 0.443295
Si Si3 0.277068 0.159443 0.477417
Si Si4 0.350537 0.595997 0.348075
Si Si5 0.866376 0.940047 0.608923
Si Si6 0.310206 0.713050 0.873170
Si Si7 0.618224 0.634929 0.074538
Si Si8 0.825038 0.633247 0.027869
O O1 0.052036 0.717729 0.810059
O O2 0.017656 0.649841 0.093095
O O3 0.860674 0.737706 0.959098
O O4 0.784777 0.097443 0.175508
O O5 0.741259 0.675411 0.565880
O O6 0.712706 0.437792 0.503116
O O7 0.955039 0.248006 0.489584
O O8 0.159020 0.191830 0.464534
O O9 0.241609 0.239986 0.715307
O O10 0.447596 0.883515 0.295774
O O11 0.508232 0.479501 0.286000
O O12 0.213353 0.869978 0.439628
O O13 0.390182 0.451004 0.116755
O O14 0.764145 0.109194 0.875048
O O15 0.296210 0.567859 0.888529
O O16 0.706425 0.670691 0.013167
#
# Coordination Sequence:
#
# PCOD9091826 Si02
#       8
#     2   2   2   2   2   2   2   2
#     4   9  22  45  61  86 119 158 204 249 285 356
#     4  10  23  35  62  94 122 154 196 247 300 352
#     4  11  21  39  59  88 124 156 197 245 291 355
#     4  11  21  38  63  94 120 155 191 248 307 347
#     4  10  19  40  61  88 124 154 195 246 300 351
#     4  10  20  40  66  87 120 153 198 251 299 344
#     4  11  22  39  62  91 123 156 195 246 294 360
#     4  10  23  41  63  83 119 164 201 237 300 344
#
# _framework density 24.826998
#
# number of rings (size 3 to 8) (size 9 to 14) (size 15 to 20)
#    0.000    1.750    2.500    1.875    1.750    6.000 
#    0.000    3.125    0.000    0.000    0.000    0.000 
#    0.000    0.000    0.000    0.000    0.000    0.000 
#
# Total GULP energy -89615.583546 kJ/mol
# GULP energy per Si atom -5600.973972 kJ/mol
# Density = 2.477049 g / cm^3
# Si number density = 24.826998 Si / 1000 Ang^3
#
#
#
# Elastic Constant Matrix: (Units=GPa)
#
#
# Indices 1 2 3 4 5 6 
#
# 1 80.0928 -1.6195 24.5603 3.3531 -13.0407 20.9577
# 2 -1.6195 113.8026 49.9245 15.0458 -4.5842 15.3986
# 3 24.5603 49.9245 87.9691 1.5983 -0.2260 7.0575
# 4 3.3531 15.0458 1.5983 40.7869 6.5559 0.4327
# 5 -13.0407 -4.5842 -0.2260 6.5559 35.7768 -8.9386
# 6 20.9577 15.3986 7.0575 0.4327 -8.9386 33.6192
#
#
#
# Elastic Compliance Matrix: (Units=1/GPa)
#
#
# Indices 1 2 3 4 5 6 
#
# 1 0.019058 0.005992 -0.007710 -0.004250 0.005579 -0.011468
# 2 0.005992 0.014991 -0.009446 -0.006092 0.003243 -0.007678
# 3 -0.007710 -0.009446 0.018459 0.003922 -0.003558 0.004261
# 4 -0.004250 -0.006092 0.003922 0.028033 -0.006833 0.002439
# 5 0.005579 0.003243 -0.003558 -0.006833 0.032776 0.004585
# 6 -0.011468 -0.007678 0.004261 0.002439 0.004585 0.040704
#
#
# Mechanical properties :
#
#
# Convention : Reuss Voigt Hill
#
# Bulk Modulus (GPa) = 33.13384 47.51056 40.32220
# Shear Modulus (GPa) = 26.82288 35.96986 31.39637
#
# Velocity S-wave (km/s) = 3.29050 3.81047 3.55999
# Velocity P-wave (km/s) = 5.27365 6.20788 5.75973
#
# Compressibility (1/GPa) = 0.03018062
#
# Stress axis : x y z
#
# Youngs Moduli (GPa) = 52.47110 66.70581 54.17553
#
# Poissons Ratio (x) = -0.39969 0.41768
# Poissons Ratio (y) = -0.31440 0.51173
# Poissons Ratio (z) = 0.40454 0.63008
#
# Static dielectric constant tensor:
#      x y z
#    x 1.930550 -0.029820 0.058390 
#    y -0.029820 1.966370 -0.063810 
#    z 0.058390 -0.063810 2.005120 
# 
# From -- ./inp_files/206440.got.cif
#   From: 2010.05.17/outbox.cif.g08.bks.cpg/sg2_104_cif.got.tgz:206440.got - 2010.06.03 11:33:40.
