data_PCOD9091990
_publ_section_title
;
Structure prediction by ZEFSAII (Michael W. Deem and Ramdas Pophale) SiO2 
 PCOD9091990
Probable space group: P -1
;
_chemical_formula_sum "Si O2"
_cell_formula_units_Z 14
_cell_length_a 7.469876
_cell_length_b 16.343026
_cell_length_c 12.079080
_cell_angle_alpha 46.640981
_cell_angle_beta 85.944988
_cell_angle_gamma 122.449107
_cell_volume 631.920175
_symmetry_space_group_name_H-M "P -1"
_symmetry_group_IT_number 2
_symmetry_cell_setting 'triclinic'
loop_
_space_group_symop_operation_xyz
x,y,z
-x,-y,-z
loop_
_atom_site_type_symbol
_atom_site_label
_atom_site_fract_x
_atom_site_fract_y
_atom_site_fract_z
Si Si1 0.186717 0.257731 0.542289
Si Si2 0.208888 0.548364 0.604133
Si Si3 0.764118 0.089176 0.323467
Si Si4 0.723550 0.700695 0.741909
Si Si5 0.142216 0.805618 0.180258
Si Si6 0.757686 0.963225 0.211777
Si Si7 0.128478 0.501646 0.888572
O O1 0.547396 0.426652 0.394462
O O2 0.143945 0.276992 0.400969
O O3 0.076998 0.071669 0.734710
O O4 0.029687 0.254055 0.643599
O O5 0.442745 0.761700 0.356114
O O6 0.070938 0.520855 0.751627
O O7 0.970269 0.369398 0.701952
O O8 0.000207 0.133727 0.343019
O O9 0.500000 0.000000 0.500000
O O10 0.677632 0.985607 0.308980
O O11 0.964112 0.298239 0.085265
O O12 0.489217 0.677068 0.733662
O O13 0.500000 0.500000 0.000000
O O14 0.500000 0.000000 0.000000
O O15 0.068202 0.866057 0.036545
O O16 0.000000 0.500000 0.000000
#
# Coordination Sequence:
#
# PCOD9091990 Si02
#       7
#     2   2   2   2   2   2   2
#     4   9  22  43  67  88 130 171 215 263 320 388
#     4   9  21  42  64  86 128 164 214 255 325 376
#     4  11  22  37  66  91 134 169 207 269 327 387
#     4   9  21  40  63  98 126 169 216 256 325 395
#     4  12  24  42  68  96 127 166 220 274 321 379
#     4  10  23  42  65  91 127 169 217 254 333 379
#     4  10  19  40  64  93 127 169 208 267 322 382
#
# _framework density 22.154696999999999
#
# number of rings (size 3 to 8) (size 9 to 14) (size 15 to 20)
#    0.857    1.143    1.429    1.714    2.000    1.143 
#    2.571    0.000    0.000    0.000    0.000    0.000 
#    0.000    0.000    0.000    0.000    0.000    0.000 
#
# Total GULP energy -78075.209530 kJ/mol
# GULP energy per Si atom -5576.800681 kJ/mol
# Density = 2.210427 g / cm^3
# Si number density = 22.154697 Si / 1000 Ang^3
#
#
#
# Elastic Constant Matrix: (Units=GPa)
#
#
# Indices 1 2 3 4 5 6 
#
# 1 29.2748 26.8110 2.4741 1.6801 -6.8280 -9.1588
# 2 26.8110 139.7402 40.0248 -1.2659 -8.0424 -17.9009
# 3 2.4741 40.0248 92.9449 9.4325 9.6072 -6.2207
# 4 1.6801 -1.2659 9.4325 52.1164 -6.8536 -7.3752
# 5 -6.8280 -8.0424 9.6072 -6.8536 38.7711 2.6251
# 6 -9.1588 -17.9009 -6.2207 -7.3752 2.6251 30.9200
#
#
#
# Elastic Compliance Matrix: (Units=1/GPa)
#
#
# Indices 1 2 3 4 5 6 
#
# 1 0.045151 -0.007892 0.002269 -0.000139 0.005133 0.008793
# 2 -0.007892 0.010506 -0.004524 0.002045 0.002059 0.003148
# 3 0.002269 -0.004524 0.013453 -0.003149 -0.004455 0.000387
# 4 -0.000139 0.002045 -0.003149 0.021143 0.004568 0.005164
# 5 0.005133 0.002059 -0.004455 0.004568 0.029005 0.000443
# 6 0.008793 0.003148 0.000387 0.005164 0.000443 0.038040
#
#
# Mechanical properties :
#
#
# Convention : Reuss Voigt Hill
#
# Bulk Modulus (GPa) = 20.48523 44.50887 32.49705
# Shear Modulus (GPa) = 25.79110 37.20483 31.49797
#
# Velocity S-wave (km/s) = 3.41565 4.10240 3.77467
# Velocity P-wave (km/s) = 4.98217 6.52481 5.80497
#
# Compressibility (1/GPa) = 0.04881565
#
# Stress axis : x y z
#
# Youngs Moduli (GPa) = 22.14779 95.18085 74.33426
#
# Poissons Ratio (x) = 0.75119 -0.16865
# Poissons Ratio (y) = 0.17480 0.33628
# Poissons Ratio (z) = -0.05025 0.43059
#
# Static dielectric constant tensor:
#      x y z
#    x 1.886200 0.035040 0.041590 
#    y 0.035040 1.841660 0.032680 
#    z 0.041590 0.032680 1.841050 
# 
# From -- ./inp_files/401105.got.cif
#   From: 2010.05.17/outbox.cif.g08.bks.cpg/sg2_201_cif.got.tgz:401105.got - 2010.06.03 11:33:40.
