data_PCOD9091054
_publ_section_title
;
Structure prediction by ZEFSAII (Michael W. Deem and Ramdas Pophale) SiO2 
 PCOD9091054
Probable space group: P -1
;
_chemical_formula_sum "Si O2"
_cell_formula_units_Z 16
_cell_length_a 20.698204
_cell_length_b 8.441392
_cell_length_c 11.800266
_cell_angle_alpha 100.925829
_cell_angle_beta 138.790816
_cell_angle_gamma 47.977585
_cell_volume 773.884531
_symmetry_space_group_name_H-M "P -1"
_symmetry_group_IT_number 2
_symmetry_cell_setting 'triclinic'
loop_
_space_group_symop_operation_xyz
x,y,z
-x,-y,-z
loop_
_atom_site_type_symbol
_atom_site_label
_atom_site_fract_x
_atom_site_fract_y
_atom_site_fract_z
Si Si1 0.383480 0.680702 0.759511
Si Si2 0.245069 0.120267 0.768024
Si Si3 0.007218 0.823829 0.055430
Si Si4 0.636851 0.819625 0.555282
Si Si5 0.092317 0.643326 0.620318
Si Si6 0.437871 0.789754 0.208281
Si Si7 0.354987 0.834895 0.357381
Si Si8 0.056519 0.890281 0.379107
O O1 0.473510 0.500388 0.740919
O O2 0.223242 0.777108 0.572616
O O3 0.331065 0.934353 0.743083
O O4 0.500000 0.500000 0.000000
O O5 0.240113 0.318133 0.781380
O O6 0.070489 0.252621 0.559380
O O7 0.325687 0.970117 0.974864
O O8 0.171225 0.491428 0.200435
O O9 0.018510 0.855148 0.207112
O O10 0.000000 0.000000 0.000000
O O11 0.825843 0.987080 0.818107
O O12 0.571546 0.758104 0.384226
O O13 0.500000 0.000000 0.500000
O O14 0.620561 0.028308 0.524510
O O15 0.081649 0.734450 0.494762
O O16 0.088524 0.791936 0.726449
O O17 0.344314 0.902729 0.219635
O O18 0.500000 0.500000 0.500000
#
# Coordination Sequence:
#
# PCOD9091054 Si02
#       8
#     2   2   2   2   2   2   2   2
#     4   9  18  35  58  86 118 162 197 252 313 373
#     4   9  18  34  60  89 121 160 200 253 319 380
#     4  12  24  42  68  94 128 174 220 267 326 382
#     4  10  22  42  64  89 128 166 214 272 314 380
#     4   9  19  36  56  92 126 156 207 256 314 383
#     4  10  19  39  63  85 126 163 204 262 323 371
#     4  11  25  42  62  94 127 168 221 269 320 382
#     4  10  20  36  61  86 126 165 206 261 314 378
#
# _framework density 20.674918999999999
#
# number of rings (size 3 to 8) (size 9 to 14) (size 15 to 20)
#    0.000    2.000    1.250    2.625    0.000    4.000 
#    2.250    5.000    0.000    0.000    0.000    0.000 
#    0.000    0.000    0.000    0.000    0.000    0.000 
#
# Total GULP energy -89100.305323 kJ/mol
# GULP energy per Si atom -5568.769083 kJ/mol
# Density = 2.062786 g / cm^3
# Si number density = 20.674919 Si / 1000 Ang^3
#
#
#
# Elastic Constant Matrix: (Units=GPa)
#
#
# Indices 1 2 3 4 5 6 
#
# 1 42.5497 53.4631 -16.2796 1.9998 7.5224 6.3494
# 2 53.4631 94.4324 34.6877 -29.3295 -16.7608 0.8867
# 3 -16.2796 34.6877 27.5853 3.1099 18.7110 5.3318
# 4 1.9998 -29.3295 3.1099 24.5746 -3.7580 -7.1798
# 5 7.5224 -16.7608 18.7110 -3.7580 22.7725 4.0860
# 6 6.3494 0.8867 5.3318 -7.1798 4.0860 30.5301
#
#
#
# Elastic Compliance Matrix: (Units=1/GPa)
#
#
# Indices 1 2 3 4 5 6 
#
# 1 0.008222 0.005752 -0.013054 0.010235 0.013759 0.000968
# 2 0.005752 0.000538 0.010615 -0.003482 -0.010352 -0.002499
# 3 -0.013054 0.010615 0.007560 0.015005 0.007747 0.003578
# 4 0.010235 -0.003482 0.015005 0.033167 -0.013694 0.004985
# 5 0.013759 -0.010352 0.007747 -0.013694 0.025003 -0.010480
# 6 0.000968 -0.002499 0.003578 0.004985 -0.010480 0.034576
#
#
# Mechanical properties :
#
#
# Convention : Reuss Voigt Hill
#
# Bulk Modulus (GPa) = 43.57876 34.25665 38.91770
# Shear Modulus (GPa) = 45.41775 21.75521 33.58648
#
# Velocity S-wave (km/s) = 4.69204 3.24736 4.03489
# Velocity P-wave (km/s) = 7.10475 5.53766 6.36958
#
# Compressibility (1/GPa) = 0.02294696
#
# Stress axis : x y z
#
# Youngs Moduli (GPa) = 121.62454 1858.08321 132.26739
#
# Poissons Ratio (x) = -10.68775 1.72665
# Poissons Ratio (y) = -0.69959 -1.40407
# Poissons Ratio (z) = 1.58772 -19.72426
#
# Static dielectric constant tensor:
#      x y z
#    x 1.704690 0.020400 0.021040 
#    y 0.020400 1.566130 -0.000110 
#    z 0.021040 -0.000110 1.746260 
# 
# From -- ./inp_files/469453.got.cif
#   From: 2010.05.17/outbox.cif.g08.bks.cpg/sg2_235_cif.got.tgz:469453.got - 2010.06.03 11:33:40.
