data_PCOD9091828
_publ_section_title
;
Structure prediction by ZEFSAII (Michael W. Deem and Ramdas Pophale) SiO2 
 PCOD9091828
Probable space group: P -1
;
_chemical_formula_sum "Si O2"
_cell_formula_units_Z 14
_cell_length_a 9.860078
_cell_length_b 14.639719
_cell_length_c 19.082778
_cell_angle_alpha 35.253228
_cell_angle_beta 158.139733
_cell_angle_gamma 139.013164
_cell_volume 591.937541
_symmetry_space_group_name_H-M "P -1"
_symmetry_group_IT_number 2
_symmetry_cell_setting 'triclinic'
loop_
_space_group_symop_operation_xyz
x,y,z
-x,-y,-z
loop_
_atom_site_type_symbol
_atom_site_label
_atom_site_fract_x
_atom_site_fract_y
_atom_site_fract_z
Si Si1 0.245369 0.432281 0.545262
Si Si2 0.318115 0.075237 0.797985
Si Si3 0.398026 0.966265 0.749379
Si Si4 0.275588 0.382415 0.244173
Si Si5 0.430307 0.686183 0.845915
Si Si6 0.421304 0.767644 0.643817
Si Si7 0.354905 0.292710 0.491030
O O1 0.436672 0.260154 0.734390
O O2 0.385155 0.512057 0.633940
O O3 0.376850 0.560189 0.472141
O O4 0.822237 0.393350 0.370058
O O5 0.884205 0.096083 0.589205
O O6 0.387288 0.980497 0.818985
O O7 0.500000 0.000000 0.000000
O O8 0.540462 0.801967 0.889166
O O9 0.578791 0.129572 0.708113
O O10 0.000000 0.000000 0.500000
O O11 0.361055 0.248020 0.312934
O O12 0.166408 0.310029 0.312410
O O13 0.000000 0.500000 0.000000
O O14 0.600995 0.759650 0.811033
O O15 0.983879 0.701849 0.621102
O O16 0.500000 0.500000 0.000000
#
# Coordination Sequence:
#
# PCOD9091828 Si02
#       7
#     2   2   2   2   2   2   2
#     4   8  20  36  61  90 127 165 212 256 327 371
#     4  10  21  37  64  94 125 172 217 262 316 384
#     4  10  19  40  61  89 126 173 212 262 327 374
#     4  10  20  36  60  96 131 165 212 265 315 379
#     4  11  22  38  64  92 125 171 216 265 321 390
#     4  10  20  39  62  93 125 173 215 253 328 380
#     4   9  19  37  61  87 125 166 209 256 321 371
#
# _framework density 23.651145
#
# number of rings (size 3 to 8) (size 9 to 14) (size 15 to 20)
#    1.714    0.571    2.857    1.286    0.000    5.714 
#    0.000    2.143    0.000    2.571    0.000    0.000 
#    0.000    0.000    0.000    0.000    0.000    0.000 
#
# Total GULP energy -78013.570954 kJ/mol
# GULP energy per Si atom -5572.397925 kJ/mol
# Density = 2.359731 g / cm^3
# Si number density = 23.651145 Si / 1000 Ang^3
#
#
#
# Elastic Constant Matrix: (Units=GPa)
#
#
# Indices 1 2 3 4 5 6 
#
# 1 111.0180 37.7956 31.2608 -3.1302 -21.2798 -48.7792
# 2 37.7956 121.9680 32.2561 -39.9511 -0.6042 -16.3381
# 3 31.2608 32.2561 77.2233 -29.2308 -21.5688 -16.4834
# 4 -3.1302 -39.9511 -29.2308 37.2370 -2.1659 6.5284
# 5 -21.2798 -0.6042 -21.5688 -2.1659 31.5276 5.1635
# 6 -48.7792 -16.3381 -16.4834 6.5284 5.1635 49.4821
#
#
#
# Elastic Compliance Matrix: (Units=1/GPa)
#
#
# Indices 1 2 3 4 5 6 
#
# 1 0.021986 -0.007026 -0.004244 -0.011834 0.007930 0.018674
# 2 -0.007026 0.015233 0.002305 0.018097 -0.001073 -0.003405
# 3 -0.004244 0.002305 0.028725 0.025590 0.018451 0.000845
# 4 -0.011834 0.018097 0.025590 0.067638 0.015780 -0.007737
# 5 0.007930 -0.001073 0.018451 0.015780 0.049719 0.006340
# 6 0.018674 -0.003405 0.000845 -0.007737 0.006340 0.038134
#
#
# Mechanical properties :
#
#
# Convention : Reuss Voigt Hill
#
# Bulk Modulus (GPa) = 20.82756 56.98157 38.90456
# Shear Modulus (GPa) = 19.57949 37.57580 28.57764
#
# Velocity S-wave (km/s) = 2.88035 3.99024 3.47983
# Velocity P-wave (km/s) = 4.45950 6.73603 5.71233
#
# Compressibility (1/GPa) = 0.04801332
#
# Stress axis : x y z
#
# Youngs Moduli (GPa) = 45.48353 65.64796 34.81314
#
# Poissons Ratio (x) = 0.46127 0.14775
# Poissons Ratio (y) = 0.31958 -0.08025
# Poissons Ratio (z) = 0.19303 -0.15133
#
# Static dielectric constant tensor:
#      x y z
#    x 1.931990 0.017820 -0.007220 
#    y 0.017820 2.006190 0.007140 
#    z -0.007220 0.007140 1.925140 
# 
# From -- ./inp_files/559729.got.cif
#   From: 2010.05.17/outbox.cif.g08.bks.cpg/sg2_280_cif.got.tgz:559729.got - 2010.06.03 11:33:40.
