data_PCOD9091255
_publ_section_title
;
Structure prediction by ZEFSAII (Michael W. Deem and Ramdas Pophale) SiO2 
 PCOD9091255
Probable space group: P -1
;
_chemical_formula_sum "Si O2"
_cell_formula_units_Z 15
_cell_length_a 21.952353
_cell_length_b 6.887459
_cell_length_c 10.836313
_cell_angle_alpha 119.984436
_cell_angle_beta 31.369577
_cell_angle_gamma 94.717393
_cell_volume 476.652781
_symmetry_space_group_name_H-M "P -1"
_symmetry_group_IT_number 2
_symmetry_cell_setting 'triclinic'
loop_
_space_group_symop_operation_xyz
x,y,z
-x,-y,-z
loop_
_atom_site_type_symbol
_atom_site_label
_atom_site_fract_x
_atom_site_fract_y
_atom_site_fract_z
Si Si1 0.456939 0.927695 0.288061
Si Si2 0.981920 0.453230 0.307478
Si Si3 0.281915 0.952051 0.386523
Si Si4 0.832572 0.406242 0.339650
Si Si5 0.771771 0.698865 0.971533
Si Si6 0.855731 0.074893 0.601789
Si Si7 0.349420 0.555049 0.543763
Si Si8 0.500000 0.500000 0.500000
O O1 0.313049 0.974625 0.482178
O O2 0.414797 0.229210 0.393605
O O3 0.414123 0.027427 0.538896
O O4 0.658645 0.581761 0.780616
O O5 0.978340 0.269893 0.148690
O O6 0.791421 0.693082 0.788378
O O7 0.116768 0.283383 0.135130
O O8 0.980718 0.700370 0.324618
O O9 0.221126 0.272046 0.524793
O O10 0.155404 0.958241 0.536214
O O11 0.488853 0.602717 0.875561
O O12 0.816518 0.272172 0.202825
O O13 0.866454 0.314585 0.701784
O O14 0.655875 0.300684 0.065733
O O15 0.343880 0.715634 0.724201
#
# Coordination Sequence:
#
# PCOD9091255 Si02
#       8
#     2   2   2   2   2   2   2   1
#     4   9  15  30  54  82 101 142 185 222 269 334
#     4  10  23  38  53  79 115 150 180 230 277 321
#     4   7  14  27  52  77 110 136 169 224 284 314
#     4   8  15  31  51  75 112 143 176 224 281 317
#     4  11  22  36  59  79 109 148 194 222 271 327
#     4  10  19  36  58  81 110 145 177 232 276 327
#     4   8  13  25  49  82 110 139 173 224 277 323
#     4  10  16  28  58  92 108 132 188 228 268 324
#
# _framework density 31.469450999999999
#
# number of rings (size 3 to 8) (size 9 to 14) (size 15 to 20)
#    0.000    2.933    1.333    2.800    0.000    0.533 
#    0.000    6.000    2.933    4.000    0.000    0.000 
#    0.000    0.000    0.000    0.000    0.000    0.000 
#
# Total GULP energy -83785.251018 kJ/mol
# GULP energy per Si atom -5585.683401 kJ/mol
# Density = 3.139782 g / cm^3
# Si number density = 31.469451 Si / 1000 Ang^3
#
#
#
# Elastic Constant Matrix: (Units=GPa)
#
#
# Indices 1 2 3 4 5 6 
#
# 1 263.2563 44.7850 71.2498 -2.8792 40.1030 -18.1369
# 2 44.7850 121.3971 4.9877 -6.3133 9.4200 -20.9221
# 3 71.2498 4.9877 69.9656 -5.4095 37.5706 1.2526
# 4 -2.8792 -6.3133 -5.4095 28.9631 -11.4670 7.0630
# 5 40.1030 9.4200 37.5706 -11.4670 88.1111 -3.1390
# 6 -18.1369 -20.9221 1.2526 7.0630 -3.1390 64.9271
#
#
#
# Elastic Compliance Matrix: (Units=1/GPa)
#
#
# Indices 1 2 3 4 5 6 
#
# 1 0.005751 -0.001718 -0.005816 -0.001232 -0.000068 0.001296
# 2 -0.001718 0.009326 0.001458 0.001338 -0.000580 0.002324
# 3 -0.005816 0.001458 0.024472 0.001760 -0.007792 -0.002195
# 4 -0.001232 0.001338 0.001760 0.037717 0.004439 -0.003835
# 5 -0.000068 -0.000580 -0.007792 0.004439 0.015350 0.000204
# 6 0.001296 0.002324 -0.002195 -0.003835 0.000204 0.016982
#
#
# Mechanical properties :
#
#
# Convention : Reuss Voigt Hill
#
# Bulk Modulus (GPa) = 36.50074 77.40713 56.95393
# Shear Modulus (GPa) = 38.20195 58.64003 48.42099
#
# Velocity S-wave (km/s) = 3.48794 4.32139 3.92684
# Velocity P-wave (km/s) = 5.27683 7.03919 6.22074
#
# Compressibility (1/GPa) = 0.02739671
#
# Stress axis : x y z
#
# Youngs Moduli (GPa) = 173.87747 107.22206 40.86377
#
# Poissons Ratio (x) = 0.18423 0.23767
# Poissons Ratio (y) = 0.29875 -0.05958
# Poissons Ratio (z) = 1.01130 -0.15634
#
# Static dielectric constant tensor:
#      x y z
#    x 2.298840 0.113660 -0.127270 
#    y 0.113660 2.511930 0.095890 
#    z -0.127270 0.095890 2.485230 
# 
# From -- ./inp_files/342850.got.cif
#   From: 2010.05.17/outbox.cif.g08.bks.cpg/sg2_172_cif.got.tgz:342850.got - 2010.06.03 11:33:40.
