data_PCOD9091026
_publ_section_title
;
Structure prediction by ZEFSAII (Michael W. Deem and Ramdas Pophale) SiO2 
 PCOD9091026
Probable space group: P -1
;
_chemical_formula_sum "Si O2"
_cell_formula_units_Z 14
_cell_length_a 9.637775
_cell_length_b 15.786537
_cell_length_c 25.703980
_cell_angle_alpha 162.450971
_cell_angle_beta 33.458847
_cell_angle_gamma 144.414858
_cell_volume 646.393982
_symmetry_space_group_name_H-M "P -1"
_symmetry_group_IT_number 2
_symmetry_cell_setting 'triclinic'
loop_
_space_group_symop_operation_xyz
x,y,z
-x,-y,-z
loop_
_atom_site_type_symbol
_atom_site_label
_atom_site_fract_x
_atom_site_fract_y
_atom_site_fract_z
Si Si1 0.793244 0.685474 0.149988
Si Si2 0.385402 0.324807 0.634209
Si Si3 0.915133 0.138908 0.939795
Si Si4 0.907530 0.155678 0.069292
Si Si5 0.371476 0.312381 0.310508
Si Si6 0.223550 0.663213 0.306925
Si Si7 0.118504 0.709766 0.480210
O O1 0.502357 0.560429 0.166087
O O2 0.863692 0.795875 0.134090
O O3 0.816725 0.952207 0.337342
O O4 0.000000 0.500000 0.000000
O O5 0.512339 0.396023 0.580386
O O6 0.621765 0.384651 0.634481
O O7 0.268127 0.000393 0.481624
O O8 0.201753 0.562951 0.842639
O O9 0.727728 0.903577 0.830931
O O10 0.955907 0.037234 0.926711
O O11 0.608620 0.179579 0.183466
O O12 0.060818 0.468981 0.203623
O O13 0.000000 0.000000 0.000000
O O14 0.131940 0.357467 0.446858
O O15 0.079767 0.618097 0.380009
#
# Coordination Sequence:
#
# PCOD9091026 Si02
#       7
#     2   2   2   2   2   2   2
#     4  10  20  38  67  97 123 165 216 260 312 378
#     4  10  19  39  62  95 122 159 211 267 308 368
#     4  10  22  41  70  93 124 171 218 257 310 380
#     4  11  26  42  61  94 132 170 208 263 323 374
#     4  10  23  41  68  92 121 172 217 255 312 378
#     4  11  24  38  62  93 134 162 205 264 328 368
#     4  10  21  36  63  97 123 162 209 261 315 372
#
# _framework density 21.658619000000002
#
# number of rings (size 3 to 8) (size 9 to 14) (size 15 to 20)
#    0.000    1.714    0.000    5.571    8.000    3.429 
#    0.000    0.000    0.000    0.000    0.000    0.000 
#    0.000    0.000    0.000    0.000    0.000    0.000 
#
# Total GULP energy -78188.568535 kJ/mol
# GULP energy per Si atom -5584.897753 kJ/mol
# Density = 2.160932 g / cm^3
# Si number density = 21.658619 Si / 1000 Ang^3
#
#
#
# Elastic Constant Matrix: (Units=GPa)
#
#
# Indices 1 2 3 4 5 6 
#
# 1 106.6320 41.7645 42.2025 -4.7609 11.6403 -16.9287
# 2 41.7645 95.6767 36.4882 -3.4168 14.8486 -1.5798
# 3 42.2025 36.4882 69.6371 2.7144 6.0492 1.2783
# 4 -4.7609 -3.4168 2.7144 31.8022 -4.7588 0.4213
# 5 11.6403 14.8486 6.0492 -4.7588 21.3297 12.0796
# 6 -16.9287 -1.5798 1.2783 0.4213 12.0796 26.9683
#
#
#
# Elastic Compliance Matrix: (Units=1/GPa)
#
#
# Indices 1 2 3 4 5 6 
#
# 1 0.018942 -0.001490 -0.009530 0.000531 -0.017973 0.020297
# 2 -0.001490 0.015273 -0.006257 0.000254 -0.010894 0.005131
# 3 -0.009530 -0.006257 0.022948 -0.002571 0.008929 -0.011396
# 4 0.000531 0.000254 -0.002571 0.033385 0.010371 -0.004697
# 5 -0.017973 -0.010894 0.008929 0.010371 0.095318 -0.055200
# 6 0.020297 0.005131 -0.011396 -0.004697 -0.055200 0.075460
#
#
# Mechanical properties :
#
#
# Convention : Reuss Voigt Hill
#
# Bulk Modulus (GPa) = 44.23408 56.98401 50.60905
# Shear Modulus (GPa) = 16.47890 26.11940 21.29915
#
# Velocity S-wave (km/s) = 2.76134 3.47646 3.13933
# Velocity P-wave (km/s) = 5.53483 6.51779 6.04632
#
# Compressibility (1/GPa) = 0.02260700
#
# Stress axis : x y z
#
# Youngs Moduli (GPa) = 52.79392 65.47368 43.57605
#
# Poissons Ratio (x) = 0.09758 0.41530
# Poissons Ratio (y) = 0.07868 0.27267
# Poissons Ratio (z) = 0.50315 0.40970
#
# Static dielectric constant tensor:
#      x y z
#    x 1.805480 -0.047290 -0.048930 
#    y -0.047290 1.820880 0.018930 
#    z -0.048930 0.018930 1.792810 
# 
# From -- ./inp_files/461171.got.cif
#   From: 2010.05.17/outbox.cif.g08.bks.cpg/sg2_231_cif.got.tgz:461171.got - 2010.06.03 11:33:40.
