data_PCOD9091565
_publ_section_title
;
Structure prediction by ZEFSAII (Michael W. Deem and Ramdas Pophale) SiO2 
 PCOD9091565
Probable space group: P -1
;
_chemical_formula_sum "Si O2"
_cell_formula_units_Z 16
_cell_length_a 10.047316
_cell_length_b 16.733670
_cell_length_c 11.689840
_cell_angle_alpha 138.654717
_cell_angle_beta 145.748392
_cell_angle_gamma 47.223834
_cell_volume 721.606140
_symmetry_space_group_name_H-M "P -1"
_symmetry_group_IT_number 2
_symmetry_cell_setting 'triclinic'
loop_
_space_group_symop_operation_xyz
x,y,z
-x,-y,-z
loop_
_atom_site_type_symbol
_atom_site_label
_atom_site_fract_x
_atom_site_fract_y
_atom_site_fract_z
Si Si1 0.973931 0.941160 0.040913
Si Si2 0.398225 0.738704 0.654177
Si Si3 0.099974 0.161626 0.473265
Si Si4 0.218015 0.203059 0.833305
Si Si5 0.191447 0.585604 0.192546
Si Si6 0.412548 0.481639 0.787845
Si Si7 0.978992 0.695315 0.668543
Si Si8 0.538154 0.043682 0.202000
O O1 0.021239 0.795600 0.902089
O O2 0.696349 0.971957 0.911280
O O3 0.132688 0.015685 0.314894
O O4 0.000000 0.000000 0.000000
O O5 0.362787 0.606578 0.442567
O O6 0.452478 0.814975 0.661956
O O7 0.153523 0.806261 0.608311
O O8 0.589262 0.746288 0.896433
O O9 0.264413 0.213003 0.740650
O O10 0.077349 0.234020 0.416103
O O11 0.973712 0.280737 0.789269
O O12 0.243199 0.056109 0.707603
O O13 0.354251 0.543396 0.154412
O O14 0.000000 0.500000 0.000000
O O15 0.249858 0.372936 0.546793
O O16 0.500000 0.500000 0.000000
O O17 0.222348 0.597974 0.735156
O O18 0.500000 0.000000 0.000000
#
# Coordination Sequence:
#
# PCOD9091565 Si02
#       8
#     2   2   2   2   2   2   2   2
#     4  10  20  40  65 102 134 174 220 273 344 407
#     4  10  22  43  67  97 142 174 217 281 344 403
#     4  10  21  40  69 104 131 174 223 272 345 409
#     4  10  23  41  70 102 137 177 219 277 344 405
#     4  11  27  43  68 106 131 176 237 280 340 401
#     4  11  27  49  70  98 131 187 236 277 338 400
#     4  10  25  47  71  90 145 182 224 286 336 399
#     4  10  19  39  67  94 137 172 209 270 345 403
#
# _framework density 22.172761000000001
#
# number of rings (size 3 to 8) (size 9 to 14) (size 15 to 20)
#    0.000    1.750    2.500    0.750    5.250    6.500 
#    4.500    1.250    0.000    0.000    0.000    0.000 
#    0.000    0.000    0.000    0.000    0.000    0.000 
#
# Total GULP energy -89208.078830 kJ/mol
# GULP energy per Si atom -5575.504927 kJ/mol
# Density = 2.212229 g / cm^3
# Si number density = 22.172761 Si / 1000 Ang^3
#
#
#
# Elastic Constant Matrix: (Units=GPa)
#
#
# Indices 1 2 3 4 5 6 
#
# 1 138.1909 47.3687 66.0211 13.7736 2.3701 -16.6712
# 2 47.3687 97.7929 41.2865 12.4673 -6.1943 0.3747
# 3 66.0211 41.2865 161.9998 15.8518 -15.0408 5.4858
# 4 13.7736 12.4673 15.8518 23.4386 2.0773 -9.3295
# 5 2.3701 -6.1943 -15.0408 2.0773 40.4854 0.8076
# 6 -16.6712 0.3747 5.4858 -9.3295 0.8076 24.2706
#
#
#
# Elastic Compliance Matrix: (Units=1/GPa)
#
#
# Indices 1 2 3 4 5 6 
#
# 1 0.012127 -0.004517 -0.004794 0.003136 -0.003559 0.010807
# 2 -0.004517 0.013704 -0.000536 -0.006862 0.002632 -0.005918
# 3 -0.004794 -0.000536 0.009644 -0.007124 0.004313 -0.008347
# 4 0.003136 -0.006862 -0.007124 0.060921 -0.007555 0.027539
# 5 -0.003559 0.002632 0.004313 -0.007555 0.027447 -0.007278
# 6 0.010807 -0.005918 -0.008347 0.027539 -0.007278 0.061432
#
#
# Mechanical properties :
#
#
# Convention : Reuss Voigt Hill
#
# Bulk Modulus (GPa) = 63.36594 78.59292 70.97943
# Shear Modulus (GPa) = 23.78366 33.85940 28.82153
#
# Velocity S-wave (km/s) = 3.27869 3.91202 3.60927
# Velocity P-wave (km/s) = 6.55541 7.47849 7.03211
#
# Compressibility (1/GPa) = 0.01578135
#
# Stress axis : x y z
#
# Youngs Moduli (GPa) = 82.45747 72.97263 103.69671
#
# Poissons Ratio (x) = 0.32959 0.49717
# Poissons Ratio (y) = 0.37243 0.05553
# Poissons Ratio (z) = 0.39534 0.03908
#
# Static dielectric constant tensor:
#      x y z
#    x 1.789640 0.053850 -0.003730 
#    y 0.053850 1.902350 0.016250 
#    z -0.003730 0.016250 1.941150 
# 
# From -- ./inp_files/523980.got.cif
#   From: 2010.05.17/outbox.cif.g08.bks.cpg/sg2_262_cif.got.tgz:523980.got - 2010.06.03 11:33:40.
