data_PCOD9091893
_publ_section_title
;
Structure prediction by ZEFSAII (Michael W. Deem and Ramdas Pophale) SiO2 
 PCOD9091893
Probable space group: P -1
;
_chemical_formula_sum "Si O2"
_cell_formula_units_Z 16
_cell_length_a 19.535743
_cell_length_b 16.440325
_cell_length_c 7.171207
_cell_angle_alpha 62.019530
_cell_angle_beta 53.610634
_cell_angle_gamma 21.130364
_cell_volume 639.623818
_symmetry_space_group_name_H-M "P -1"
_symmetry_group_IT_number 2
_symmetry_cell_setting 'triclinic'
loop_
_space_group_symop_operation_xyz
x,y,z
-x,-y,-z
loop_
_atom_site_type_symbol
_atom_site_label
_atom_site_fract_x
_atom_site_fract_y
_atom_site_fract_z
Si Si1 0.225387 0.647882 0.303675
Si Si2 0.640841 0.166462 0.238665
Si Si3 0.431169 0.197334 0.534755
Si Si4 0.190345 0.049657 0.407153
Si Si5 0.012220 0.035298 0.152790
Si Si6 0.434545 0.469336 0.745044
Si Si7 0.515041 0.875898 0.067872
Si Si8 0.788574 0.678543 0.538839
O O1 0.420076 0.439437 0.357058
O O2 0.065450 0.891925 0.338574
O O3 0.360596 0.536682 0.012296
O O4 0.056142 0.731681 0.477216
O O5 0.539384 0.179277 0.286314
O O6 0.782897 0.988230 0.372584
O O7 0.791976 0.091445 0.985836
O O8 0.391641 0.260731 0.746760
O O9 0.222953 0.357752 0.604804
O O10 0.625564 0.927896 0.513960
O O11 0.370504 0.797216 0.311505
O O12 0.287169 0.053738 0.201704
O O13 0.800871 0.308848 0.207657
O O14 0.000000 0.000000 0.000000
O O15 0.500000 0.500000 0.500000
O O16 0.676270 0.712298 0.811405
O O17 0.500000 0.000000 0.000000
O O18 0.000000 0.500000 0.500000
#
# Coordination Sequence:
#
# PCOD9091893 Si02
#       8
#     2   2   2   2   2   2   2   2
#     4  11  23  41  66  90 127 179 216 271 336 389
#     4  11  22  40  64  92 131 168 220 267 331 390
#     4   9  22  40  62  98 131 168 216 281 321 402
#     4  11  22  43  64  92 133 170 221 274 329 397
#     4  10  19  40  63  86 128 175 207 271 330 383
#     4  11  21  39  67  91 127 171 220 274 326 394
#     4   9  21  41  64  93 134 175 211 274 339 393
#     4  10  21  41  68  94 131 172 221 269 342 402
#
# _framework density 25.014703000000001
#
# number of rings (size 3 to 8) (size 9 to 14) (size 15 to 20)
#    0.000    1.750    3.750    1.125    1.750    4.500 
#    2.250    7.500    0.000    0.000    0.000    0.000 
#    0.000    0.000    0.000    0.000    0.000    0.000 
#
# Total GULP energy -89211.367511 kJ/mol
# GULP energy per Si atom -5575.710469 kJ/mol
# Density = 2.495777 g / cm^3
# Si number density = 25.014703 Si / 1000 Ang^3
#
#
#
# Elastic Constant Matrix: (Units=GPa)
#
#
# Indices 1 2 3 4 5 6 
#
# 1 95.6884 24.7335 52.3094 10.4851 -24.1582 -10.4761
# 2 24.7335 91.2037 15.7316 19.1371 -20.1402 -18.5792
# 3 52.3094 15.7316 99.6673 8.6166 -34.5981 -4.0716
# 4 10.4851 19.1371 8.6166 35.4931 0.7313 -18.2558
# 5 -24.1582 -20.1402 -34.5981 0.7313 47.6998 14.0415
# 6 -10.4761 -18.5792 -4.0716 -18.2558 14.0415 41.3288
#
#
#
# Elastic Compliance Matrix: (Units=1/GPa)
#
#
# Indices 1 2 3 4 5 6 
#
# 1 0.015555 -0.002195 -0.007212 -0.000992 0.001337 0.001353
# 2 -0.002195 0.014259 0.001612 -0.007115 0.005936 0.000853
# 3 -0.007212 0.001612 0.018091 -0.006666 0.012133 -0.006388
# 4 -0.000992 -0.007115 -0.006666 0.045002 -0.015194 0.020934
# 5 0.001337 0.005936 0.012133 -0.015194 0.037689 -0.015314
# 6 0.001353 0.000853 -0.006388 0.020934 -0.015314 0.038743
#
#
# Mechanical properties :
#
#
# Convention : Reuss Voigt Hill
#
# Bulk Modulus (GPa) = 30.94603 52.45648 41.70126
# Shear Modulus (GPa) = 25.54896 37.82333 31.68614
#
# Velocity S-wave (km/s) = 3.19934 3.89272 3.56294
# Velocity P-wave (km/s) = 5.10349 6.42029 5.79939
#
# Compressibility (1/GPa) = 0.03231432
#
# Stress axis : x y z
#
# Youngs Moduli (GPa) = 64.28761 70.13005 55.27534
#
# Poissons Ratio (x) = 0.15396 0.39866
# Poissons Ratio (y) = 0.14113 -0.08911
# Poissons Ratio (z) = 0.46366 -0.11305
#
# Static dielectric constant tensor:
#      x y z
#    x 2.090710 0.043750 0.073470 
#    y 0.043750 2.033070 -0.042580 
#    z 0.073470 -0.042580 2.116230 
# 
# From -- ./inp_files/348417.got.cif
#   From: 2010.05.17/outbox.cif.g08.bks.cpg/sg2_175_cif.got.tgz:348417.got - 2010.06.03 11:33:40.
