data_PCOD9091508
_publ_section_title
;
Structure prediction by ZEFSAII (Michael W. Deem and Ramdas Pophale) SiO2 
 PCOD9091508
Probable space group: P -1
;
_chemical_formula_sum "Si O2"
_cell_formula_units_Z 16
_cell_length_a 17.165675
_cell_length_b 15.665920
_cell_length_c 24.045697
_cell_angle_alpha 19.129161
_cell_angle_beta 160.684325
_cell_angle_gamma 151.628699
_cell_volume 696.798885
_symmetry_space_group_name_H-M "P -1"
_symmetry_group_IT_number 2
_symmetry_cell_setting 'triclinic'
loop_
_space_group_symop_operation_xyz
x,y,z
-x,-y,-z
loop_
_atom_site_type_symbol
_atom_site_label
_atom_site_fract_x
_atom_site_fract_y
_atom_site_fract_z
Si Si1 0.934282 0.864726 0.909790
Si Si2 0.751136 0.019568 0.852022
Si Si3 0.094159 0.927237 0.780843
Si Si4 0.884225 0.092501 0.424204
Si Si5 0.665106 0.571050 0.717881
Si Si6 0.071167 0.740445 0.436871
Si Si7 0.269539 0.444691 0.347038
Si Si8 0.584231 0.650161 0.887000
O O1 0.706510 0.844326 0.807311
O O2 0.154592 0.961919 0.033163
O O3 0.036051 0.570066 0.142883
O O4 0.887246 0.037993 0.717028
O O5 0.588181 0.271863 0.562380
O O6 0.621672 0.771198 0.898656
O O7 0.000000 0.000000 0.000000
O O8 0.857271 0.779817 0.727204
O O9 0.294120 0.677955 0.061098
O O10 0.057031 0.068212 0.609242
O O11 0.107620 0.134676 0.712201
O O12 0.718726 0.863158 0.465021
O O13 0.734601 0.371466 0.152664
O O14 0.000000 0.000000 0.500000
O O15 0.734758 0.429082 0.793815
O O16 0.314218 0.650909 0.687923
O O17 0.000000 0.500000 0.500000
O O18 0.500000 0.500000 0.500000
#
# Coordination Sequence:
#
# PCOD9091508 Si02
#       8
#     2   2   2   2   2   2   2   2
#     4  11  23  44  69  98 139 182 232 277 346 414
#     4  10  22  40  67 101 134 184 225 277 340 416
#     4  10  23  40  68  97 134 177 228 287 338 408
#     4  11  25  44  67  99 132 181 234 281 349 405
#     4  10  19  39  66  98 129 175 232 276 339 398
#     4  12  27  43  68 106 140 178 232 289 349 408
#     4  11  21  37  70  97 128 172 230 283 325 407
#     4  11  25  45  68  95 145 184 227 286 349 414
#
# _framework density 22.962150000000001
#
# number of rings (size 3 to 8) (size 9 to 14) (size 15 to 20)
#    0.000    1.250    5.000    0.375    3.500    0.500 
#    4.500    0.000    0.000    4.500    0.000    0.000 
#    0.000    0.000    0.000    0.000    0.000    0.000 
#
# Total GULP energy -89329.834997 kJ/mol
# GULP energy per Si atom -5583.114687 kJ/mol
# Density = 2.290989 g / cm^3
# Si number density = 22.962150 Si / 1000 Ang^3
#
#
#
# Elastic Constant Matrix: (Units=GPa)
#
#
# Indices 1 2 3 4 5 6 
#
# 1 75.0332 8.1573 33.1590 -9.5077 -4.0889 -20.3367
# 2 8.1573 89.5907 32.7481 -6.1826 -3.6299 -31.2441
# 3 33.1590 32.7481 149.6133 -3.3556 -6.7157 -12.3321
# 4 -9.5077 -6.1826 -3.3556 37.2766 -1.3604 4.6108
# 5 -4.0889 -3.6299 -6.7157 -1.3604 35.0621 0.2414
# 6 -20.3367 -31.2441 -12.3321 4.6108 0.2414 35.1406
#
#
#
# Elastic Compliance Matrix: (Units=1/GPa)
#
#
# Indices 1 2 3 4 5 6 
#
# 1 0.018645 0.004597 -0.003896 0.003628 0.001955 0.013021
# 2 0.004597 0.018293 -0.003466 0.001797 0.001716 0.017461
# 3 -0.003896 -0.003466 0.008128 -0.000510 0.000741 -0.002422
# 4 0.003628 0.001797 -0.000510 0.028084 0.001602 -0.000177
# 5 0.001955 0.001716 0.000741 0.001602 0.029113 0.002506
# 6 0.013021 0.017461 -0.002422 -0.000177 0.002506 0.050674
#
#
# Mechanical properties :
#
#
# Convention : Reuss Voigt Hill
#
# Bulk Modulus (GPa) = 25.29379 51.37400 38.33390
# Shear Modulus (GPa) = 29.12953 37.50738 33.31846
#
# Velocity S-wave (km/s) = 3.56559 4.04597 3.81335
# Velocity P-wave (km/s) = 5.29061 6.65195 6.00995
#
# Compressibility (1/GPa) = 0.03953540
#
# Stress axis : x y z
#
# Youngs Moduli (GPa) = 53.63436 54.66440 123.02749
#
# Poissons Ratio (x) = -0.25129 0.47933
# Poissons Ratio (y) = -0.24656 0.42646
# Poissons Ratio (z) = 0.20896 0.18949
#
# Static dielectric constant tensor:
#      x y z
#    x 1.966490 0.002210 -0.023490 
#    y 0.002210 1.881080 -0.030610 
#    z -0.023490 -0.030610 1.866760 
# 
# From -- ./inp_files/613239.got.cif
#   From: 2010.05.17/outbox.cif.g08.bks.cpg/sg2_307_cif.got.tgz:613239.got - 2010.06.03 11:33:40.
