data_PCOD9091848
_publ_section_title
;
Structure prediction by ZEFSAII (Michael W. Deem and Ramdas Pophale) SiO2 
 PCOD9091848
Probable space group: P -1
;
_chemical_formula_sum "Si O2"
_cell_formula_units_Z 15
_cell_length_a 11.358280
_cell_length_b 10.831834
_cell_length_c 9.997802
_cell_angle_alpha 108.664600
_cell_angle_beta 93.428022
_cell_angle_gamma 143.004426
_cell_volume 584.167704
_symmetry_space_group_name_H-M "P -1"
_symmetry_group_IT_number 2
_symmetry_cell_setting 'triclinic'
loop_
_space_group_symop_operation_xyz
x,y,z
-x,-y,-z
loop_
_atom_site_type_symbol
_atom_site_label
_atom_site_fract_x
_atom_site_fract_y
_atom_site_fract_z
Si Si1 0.687154 0.679202 0.352073
Si Si2 0.000000 0.500000 0.500000
Si Si3 0.629468 0.233320 0.909850
Si Si4 0.929971 0.103103 0.692292
Si Si5 0.673194 0.296515 0.239733
Si Si6 0.347464 0.222944 0.874618
Si Si7 0.759765 0.229331 0.658762
Si Si8 0.752079 0.907881 0.888659
O O1 0.772464 0.829446 0.543227
O O2 0.754705 0.851058 0.303745
O O3 0.418362 0.380131 0.240710
O O4 0.831304 0.692805 0.306016
O O5 0.861782 0.505855 0.439548
O O6 0.918981 0.439992 0.626928
O O7 0.525944 0.275180 0.893686
O O8 0.784117 0.331176 0.833307
O O9 0.405466 0.922130 0.786228
O O10 0.734941 0.334408 0.100668
O O11 0.946826 0.108596 0.856822
O O12 0.807385 0.121840 0.652616
O O13 0.432578 0.149793 0.169026
O O14 0.500000 0.500000 0.000000
O O15 0.189229 0.043618 0.932600
O O16 0.500000 0.000000 0.500000
#
# Coordination Sequence:
#
# PCOD9091848 Si02
#       8
#     2   1   2   2   2   2   2   2
#     4  10  22  37  57  88 122 156 204 246 295 363
#     4  12  24  38  60  96 128 160 206 258 308 374
#     4  10  20  40  67  89 124 167 203 253 320 367
#     4  11  22  37  60  87 119 163 198 250 306 355
#     4  10  21  38  64  94 122 162 207 256 313 372
#     4   9  20  38  64  87 119 160 201 250 301 367
#     4  12  23  40  63  92 127 165 208 262 312 367
#     4  10  19  40  62  84 118 160 200 249 302 359
#
# _framework density 25.677558000000001
#
# number of rings (size 3 to 8) (size 9 to 14) (size 15 to 20)
#    0.000    1.600    2.667    2.000    0.000    1.067 
#    0.000    5.333    0.000    0.000    0.000    0.000 
#    0.000    0.000    0.000    0.000    0.000    0.000 
#
# Total GULP energy -83596.866678 kJ/mol
# GULP energy per Si atom -5573.124445 kJ/mol
# Density = 2.561911 g / cm^3
# Si number density = 25.677558 Si / 1000 Ang^3
#
#
#
# Elastic Constant Matrix: (Units=GPa)
#
#
# Indices 1 2 3 4 5 6 
#
# 1 118.1681 18.7350 41.0804 -33.6408 2.8533 -21.2353
# 2 18.7350 79.1154 30.8103 -32.3335 -6.7900 2.2803
# 3 41.0804 30.8103 120.3009 -68.7939 -8.7835 3.0550
# 4 -33.6408 -32.3335 -68.7939 58.7085 -6.3350 -1.3188
# 5 2.8533 -6.7900 -8.7835 -6.3350 46.4078 -3.6714
# 6 -21.2353 2.2803 3.0550 -1.3188 -3.6714 27.9975
#
#
#
# Elastic Compliance Matrix: (Units=1/GPa)
#
#
# Indices 1 2 3 4 5 6 
#
# 1 0.012316 -0.000236 -0.000623 0.006499 0.000755 0.009834
# 2 -0.000236 0.017993 0.005696 0.017081 0.006003 -0.000674
# 3 -0.000623 0.005696 0.031288 0.040751 0.012291 -0.000819
# 4 0.006499 0.017081 0.040751 0.080334 0.021226 0.005659
# 5 0.000755 0.006003 0.012291 0.021226 0.027873 0.003398
# 6 0.009834 -0.000674 -0.000819 0.005659 0.003398 0.044032
#
#
# Mechanical properties :
#
#
# Convention : Reuss Voigt Hill
#
# Bulk Modulus (GPa) = 14.03113 55.42622 34.72867
# Shear Modulus (GPa) = 21.93758 41.75331 31.84544
#
# Velocity S-wave (km/s) = 2.92609 4.03682 3.52548
# Velocity P-wave (km/s) = 4.11002 6.58485 5.48874
#
# Compressibility (1/GPa) = 0.07127009
#
# Stress axis : x y z
#
# Youngs Moduli (GPa) = 81.19703 55.57677 31.96111
#
# Poissons Ratio (x) = 0.01313 0.01991
# Poissons Ratio (y) = 0.01918 -0.18204
# Poissons Ratio (z) = 0.05058 -0.31655
#
# Static dielectric constant tensor:
#      x y z
#    x 2.266590 0.265470 0.294140 
#    y 0.265470 2.414300 0.391140 
#    z 0.294140 0.391140 2.405260 
# 
# From -- ./inp_files/254211.got.cif
#   From: 2010.05.17/outbox.cif.g08.bks.cpg/sg2_128_cif.got.tgz:254211.got - 2010.06.03 11:33:40.
