data_PCOD9091495
_publ_section_title
;
Structure prediction by ZEFSAII (Michael W. Deem and Ramdas Pophale) SiO2 
 PCOD9091495
Probable space group: P -1
;
_chemical_formula_sum "Si O2"
_cell_formula_units_Z 16
_cell_length_a 10.420058
_cell_length_b 12.792226
_cell_length_c 18.088723
_cell_angle_alpha 28.805033
_cell_angle_beta 127.024229
_cell_angle_gamma 143.931970
_cell_volume 634.294788
_symmetry_space_group_name_H-M "P -1"
_symmetry_group_IT_number 2
_symmetry_cell_setting 'triclinic'
loop_
_space_group_symop_operation_xyz
x,y,z
-x,-y,-z
loop_
_atom_site_type_symbol
_atom_site_label
_atom_site_fract_x
_atom_site_fract_y
_atom_site_fract_z
Si Si1 0.482975 0.845516 0.460806
Si Si2 0.778803 0.950206 0.958289
Si Si3 0.834354 0.142742 0.693321
Si Si4 0.766332 0.145167 0.092518
Si Si5 0.577185 0.330294 0.619599
Si Si6 0.795100 0.834504 0.187292
Si Si7 0.961575 0.121151 0.481732
Si Si8 0.754797 0.571267 0.861699
O O1 0.401642 0.015076 0.332711
O O2 0.402752 0.697140 0.442541
O O3 0.355997 0.530770 0.660270
O O4 0.757545 0.088048 0.412765
O O5 0.816877 0.033992 0.006605
O O6 0.494793 0.623563 0.065604
O O7 0.807222 0.111322 0.792392
O O8 0.000000 0.000000 0.000000
O O9 0.000000 0.500000 0.500000
O O10 0.958447 0.036637 0.784708
O O11 0.035930 0.334335 0.076670
O O12 0.631084 0.013245 0.205152
O O13 0.665368 0.843564 0.199103
O O14 0.728551 0.353235 0.925246
O O15 0.500000 0.500000 0.500000
O O16 0.809372 0.533609 0.622692
O O17 0.867923 0.885016 0.664356
O O18 0.000000 0.000000 0.500000
#
# Coordination Sequence:
#
# PCOD9091495 Si02
#       8
#     2   2   2   2   2   2   2   2
#     4  11  20  39  64  93 135 178 222 272 337 399
#     4  10  21  40  65  94 129 177 222 274 335 396
#     4   9  21  39  68  90 126 176 224 275 338 401
#     4  11  23  41  66  99 136 179 220 282 346 402
#     4  12  21  38  66  98 138 176 220 279 343 407
#     4  10  19  39  66  95 126 174 224 277 337 396
#     4  12  22  38  65 100 138 179 224 274 341 409
#     4  11  23  40  66 100 141 176 225 277 338 411
#
# _framework density 25.224865000000001
#
# number of rings (size 3 to 8) (size 9 to 14) (size 15 to 20)
#    0.000    1.250    5.000    0.750    0.000    1.500 
#    2.250    2.500    8.250    3.000    0.000    0.000 
#    0.000    0.000    0.000    0.000    0.000    0.000 
#
# Total GULP energy -89195.944651 kJ/mol
# GULP energy per Si atom -5574.746541 kJ/mol
# Density = 2.516745 g / cm^3
# Si number density = 25.224865 Si / 1000 Ang^3
#
#
#
# Elastic Constant Matrix: (Units=GPa)
#
#
# Indices 1 2 3 4 5 6 
#
# 1 84.6593 37.6735 35.9785 -5.6950 -9.7389 20.4587
# 2 37.6735 128.6341 35.5578 -2.0925 4.7617 54.3515
# 3 35.9785 35.5578 130.2423 12.6275 -17.6986 5.5594
# 4 -5.6950 -2.0925 12.6275 31.0213 5.1424 -3.6883
# 5 -9.7389 4.7617 -17.6986 5.1424 41.3042 2.7963
# 6 20.4587 54.3515 5.5594 -3.6883 2.7963 45.2482
#
#
#
# Elastic Compliance Matrix: (Units=1/GPa)
#
#
# Indices 1 2 3 4 5 6 
#
# 1 0.015708 -0.001731 -0.003708 0.003387 0.002192 -0.004427
# 2 -0.001731 0.018029 -0.004045 0.000636 -0.002935 -0.020144
# 3 -0.003708 -0.004045 0.010782 -0.005574 0.004603 0.004472
# 4 0.003387 0.000636 -0.005574 0.036424 -0.006316 0.001749
# 5 0.002192 -0.002935 0.004603 -0.006316 0.027843 -0.000267
# 6 -0.004427 -0.020144 0.004472 0.001749 -0.000267 0.047908
#
#
# Mechanical properties :
#
#
# Convention : Reuss Voigt Hill
#
# Bulk Modulus (GPa) = 39.13732 62.43951 50.78841
# Shear Modulus (GPa) = 27.14755 39.13646 33.14200
#
# Velocity S-wave (km/s) = 3.28414 3.94319 3.62866
# Velocity P-wave (km/s) = 5.47082 6.74822 6.14281
#
# Compressibility (1/GPa) = 0.02555106
#
# Stress axis : x y z
#
# Youngs Moduli (GPa) = 63.66160 55.46533 92.75025
#
# Poissons Ratio (x) = 0.09601 0.34393
# Poissons Ratio (y) = 0.11020 0.37515
# Poissons Ratio (z) = 0.23606 0.22435
#
# Static dielectric constant tensor:
#      x y z
#    x 2.074620 -0.026530 0.124330 
#    y -0.026530 2.154670 -0.134280 
#    z 0.124330 -0.134280 2.486870 
# 
# From -- ./inp_files/569940.got.cif
#   From: 2010.05.17/outbox.cif.g08.bks.cpg/sg2_285_cif.got.tgz:569940.got - 2010.06.03 11:33:40.
