data_PCOD9091978
_publ_section_title
;
Structure prediction by ZEFSAII (Michael W. Deem and Ramdas Pophale) SiO2 
 PCOD9091978
Probable space group: P -1
;
_chemical_formula_sum "Si O2"
_cell_formula_units_Z 16
_cell_length_a 12.433635
_cell_length_b 5.301369
_cell_length_c 14.389684
_cell_angle_alpha 104.534619
_cell_angle_beta 131.891629
_cell_angle_gamma 94.951787
_cell_volume 639.644687
_symmetry_space_group_name_H-M "P -1"
_symmetry_group_IT_number 2
_symmetry_cell_setting 'triclinic'
loop_
_space_group_symop_operation_xyz
x,y,z
-x,-y,-z
loop_
_atom_site_type_symbol
_atom_site_label
_atom_site_fract_x
_atom_site_fract_y
_atom_site_fract_z
Si Si1 0.434772 0.660676 0.866569
Si Si2 0.639511 0.691520 0.538019
Si Si3 0.426671 0.594605 0.236634
Si Si4 0.880541 0.312122 0.339264
Si Si5 0.013290 0.197139 0.875844
Si Si6 0.259750 0.241020 0.883867
Si Si7 0.750441 0.994976 0.817355
Si Si8 0.931320 0.561615 0.715260
O O1 0.486009 0.467691 0.806858
O O2 0.295251 0.723270 0.742315
O O3 0.352075 0.494078 0.894684
O O4 0.605544 0.873694 0.012891
O O5 0.500000 0.500000 0.500000
O O6 0.561354 0.742479 0.404201
O O7 0.765291 0.545253 0.578268
O O8 0.710916 0.923710 0.679005
O O9 0.340350 0.808602 0.185763
O O10 0.311575 0.299939 0.190279
O O11 0.000000 0.500000 0.500000
O O12 0.953617 0.464508 0.299670
O O13 0.862680 0.994798 0.272433
O O14 0.933143 0.179866 0.929170
O O15 0.927842 0.347933 0.773029
O O16 0.183078 0.324680 0.937456
O O17 0.995123 0.874390 0.820049
#
# Coordination Sequence:
#
# PCOD9091978 Si02
#       8
#     2   2   2   2   2   2   2   2
#     4  11  24  45  67  98 137 185 233 280 344 417
#     4   9  18  35  58  89 130 175 217 271 340 407
#     4  11  23  38  60  97 131 180 225 280 340 409
#     4  11  23  42  66 102 136 176 227 289 348 408
#     4  10  19  40  64  91 124 173 225 272 334 407
#     4  10  24  45  70  95 134 188 230 283 345 414
#     4  10  21  38  61  91 134 174 224 281 346 405
#     4  10  20  35  58  94 125 169 218 271 336 398
#
# _framework density 25.013888000000001
#
# number of rings (size 3 to 8) (size 9 to 14) (size 15 to 20)
#    0.000    1.750    1.250    3.750    1.750    3.500 
#    4.500    1.250    0.000    0.000    0.000    0.000 
#    0.000    0.000    0.000    0.000    0.000    0.000 
#
# Total GULP energy -89188.327055 kJ/mol
# GULP energy per Si atom -5574.270441 kJ/mol
# Density = 2.495696 g / cm^3
# Si number density = 25.013888 Si / 1000 Ang^3
#
#
#
# Elastic Constant Matrix: (Units=GPa)
#
#
# Indices 1 2 3 4 5 6 
#
# 1 122.8175 6.0269 8.4230 -6.2926 14.3586 -10.7861
# 2 6.0269 96.9287 8.3907 7.9790 -6.3469 4.3722
# 3 8.4230 8.3907 94.8172 16.1974 -14.6641 -1.5512
# 4 -6.2926 7.9790 16.1974 24.3692 -0.3515 4.4090
# 5 14.3586 -6.3469 -14.6641 -0.3515 36.7023 -3.4365
# 6 -10.7861 4.3722 -1.5512 4.4090 -3.4365 46.3960
#
#
#
# Elastic Compliance Matrix: (Units=1/GPa)
#
#
# Indices 1 2 3 4 5 6 
#
# 1 0.009167 -0.001057 -0.002012 0.003718 -0.004398 0.001484
# 2 -0.001057 0.010860 0.000102 -0.003729 0.002227 -0.000746
# 3 -0.002012 0.000102 0.013324 -0.009562 0.006162 0.001333
# 4 0.003718 -0.003729 -0.009562 0.050268 -0.005842 -0.004313
# 5 -0.004398 0.002227 0.006162 -0.005842 0.031935 0.001894
# 6 0.001484 -0.000746 0.001333 -0.004313 0.001894 0.022564
#
#
# Mechanical properties :
#
#
# Convention : Reuss Voigt Hill
#
# Bulk Modulus (GPa) = 36.47217 40.02721 38.24969
# Shear Modulus (GPa) = 32.63876 40.94167 36.79021
#
# Velocity S-wave (km/s) = 3.61616 4.05007 3.83925
# Velocity P-wave (km/s) = 5.66108 6.15691 5.91420
#
# Compressibility (1/GPa) = 0.02741816
#
# Stress axis : x y z
#
# Youngs Moduli (GPa) = 109.08572 92.07922 75.04999
#
# Poissons Ratio (x) = 0.09732 0.15100
# Poissons Ratio (y) = 0.11529 -0.00766
# Poissons Ratio (z) = 0.21948 -0.00940
#
# Static dielectric constant tensor:
#      x y z
#    x 1.985740 -0.074370 0.107160 
#    y -0.074370 1.939250 -0.006120 
#    z 0.107160 -0.006120 2.227500 
# 
# From -- ./inp_files/511184.got.cif
#   From: 2010.05.17/outbox.cif.g08.bks.cpg/sg2_256_cif.got.tgz:511184.got - 2010.06.03 11:33:40.
