data_PCOD9091933
_publ_section_title
;
Structure prediction by ZEFSAII (Michael W. Deem and Ramdas Pophale) SiO2 
 PCOD9091933
Probable space group: P -1
;
_chemical_formula_sum "Si O2"
_cell_formula_units_Z 16
_cell_length_a 9.260641
_cell_length_b 11.340711
_cell_length_c 12.338490
_cell_angle_alpha 130.410934
_cell_angle_beta 81.503650
_cell_angle_gamma 126.366922
_cell_volume 732.925235
_symmetry_space_group_name_H-M "P -1"
_symmetry_group_IT_number 2
_symmetry_cell_setting 'triclinic'
loop_
_space_group_symop_operation_xyz
x,y,z
-x,-y,-z
loop_
_atom_site_type_symbol
_atom_site_label
_atom_site_fract_x
_atom_site_fract_y
_atom_site_fract_z
Si Si1 0.383573 0.005558 0.168954
Si Si2 0.939668 0.280088 0.381170
Si Si3 0.341413 0.067896 0.962435
Si Si4 0.214010 0.308648 0.661712
Si Si5 0.354927 0.531438 0.567421
Si Si6 0.298102 0.321769 0.976929
Si Si7 0.176548 0.014937 0.621144
Si Si8 0.029202 0.338512 0.909519
O O1 0.552104 0.237247 0.330721
O O2 0.470047 0.892433 0.081816
O O3 0.333818 0.028348 0.066626
O O4 0.187884 0.880134 0.184676
O O5 0.151096 0.355863 0.427199
O O6 0.000000 0.500000 0.500000
O O7 0.837538 0.144100 0.204324
O O8 0.802421 0.138345 0.416168
O O9 0.336091 0.244146 0.032051
O O10 0.331656 0.498701 0.680472
O O11 0.303119 0.209039 0.639069
O O12 0.136630 0.349842 0.797641
O O13 0.027567 0.134865 0.506120
O O14 0.500000 0.500000 0.500000
O O15 0.181146 0.122501 0.792394
O O16 0.162907 0.378525 0.020572
O O17 0.500000 0.500000 0.000000
O O18 0.000000 0.500000 0.000000
#
# Coordination Sequence:
#
# PCOD9091933 Si02
#       8
#     2   2   2   2   2   2   2   2
#     4  11  25  40  66 100 126 172 227 271 326 387
#     4  10  19  40  63  97 129 173 208 266 331 387
#     4  10  23  42  66  90 136 173 216 275 330 383
#     4   9  20  40  64  89 127 169 207 263 320 379
#     4  11  25  40  70  98 129 167 223 268 327 392
#     4  10  21  39  65  92 127 174 216 263 329 388
#     4   8  18  33  63  85 116 162 214 247 311 377
#     4  11  25  41  67  95 134 171 217 265 324 394
#
# _framework density 21.830331000000001
#
# number of rings (size 3 to 8) (size 9 to 14) (size 15 to 20)
#    0.000    2.000    1.250    0.750   17.500    0.500 
#    0.000    0.000    0.000    8.250    0.000    0.000 
#    0.000    0.000    0.000    0.000    0.000    0.000 
#
# Total GULP energy -89138.866297 kJ/mol
# GULP energy per Si atom -5571.179144 kJ/mol
# Density = 2.178064 g / cm^3
# Si number density = 21.830331 Si / 1000 Ang^3
#
#
#
# Elastic Constant Matrix: (Units=GPa)
#
#
# Indices 1 2 3 4 5 6 
#
# 1 111.2170 35.7166 20.9770 1.4047 2.5190 -13.5192
# 2 35.7166 98.6592 12.6361 15.3679 -12.3433 -3.7396
# 3 20.9770 12.6361 58.8662 6.2661 17.8440 2.9278
# 4 1.4047 15.3679 6.2661 29.8119 -0.8122 -5.6315
# 5 2.5190 -12.3433 17.8440 -0.8122 34.5612 2.7828
# 6 -13.5192 -3.7396 2.9278 -5.6315 2.7828 41.3613
#
#
#
# Elastic Compliance Matrix: (Units=1/GPa)
#
#
# Indices 1 2 3 4 5 6 
#
# 1 0.011447 -0.004114 -0.003497 0.003067 -0.000755 0.004086
# 2 -0.004114 0.013743 -0.002738 -0.006366 0.006570 -0.001217
# 3 -0.003497 -0.002738 0.023217 -0.004167 -0.012586 -0.002755
# 4 0.003067 -0.006366 -0.004167 0.038689 0.000082 0.005984
# 5 -0.000755 0.006570 -0.012586 0.000082 0.037941 -0.001303
# 6 0.004086 -0.001217 -0.002755 0.005984 -0.001303 0.026500
#
#
# Mechanical properties :
#
#
# Convention : Reuss Voigt Hill
#
# Bulk Modulus (GPa) = 36.08653 45.26688 40.67670
# Shear Modulus (GPa) = 27.55265 34.44107 30.99686
#
# Velocity S-wave (km/s) = 3.55650 3.97630 3.77224
# Velocity P-wave (km/s) = 5.78197 6.47009 6.13569
#
# Compressibility (1/GPa) = 0.02771117
#
# Stress axis : x y z
#
# Youngs Moduli (GPa) = 87.35888 72.76340 43.07143
#
# Poissons Ratio (x) = 0.29931 0.15062
# Poissons Ratio (y) = 0.35935 0.11791
# Poissons Ratio (z) = 0.30550 0.19919
#
# Static dielectric constant tensor:
#      x y z
#    x 1.959340 -0.031630 0.018710 
#    y -0.031630 1.905480 0.024600 
#    z 0.018710 0.024600 1.793680 
# 
# From -- ./inp_files/393074.got.cif
#   From: 2010.05.17/outbox.cif.g08.bks.cpg/sg2_197_cif.got.tgz:393074.got - 2010.06.03 11:33:40.
