data_PCOD9091512
_publ_section_title
;
Structure prediction by ZEFSAII (Michael W. Deem and Ramdas Pophale) SiO2 
 PCOD9091512
Probable space group: P -1
;
_chemical_formula_sum "Si O2"
_cell_formula_units_Z 14
_cell_length_a 22.649679
_cell_length_b 11.731623
_cell_length_c 14.756529
_cell_angle_alpha 30.605773
_cell_angle_beta 27.758717
_cell_angle_gamma 21.834665
_cell_volume 661.558478
_symmetry_space_group_name_H-M "P -1"
_symmetry_group_IT_number 2
_symmetry_cell_setting 'triclinic'
loop_
_space_group_symop_operation_xyz
x,y,z
-x,-y,-z
loop_
_atom_site_type_symbol
_atom_site_label
_atom_site_fract_x
_atom_site_fract_y
_atom_site_fract_z
Si Si1 0.153532 0.659508 0.351261
Si Si2 0.344699 0.331453 0.142104
Si Si3 0.026902 0.279764 0.038802
Si Si4 0.282476 0.796438 0.757589
Si Si5 0.322822 0.126641 0.610056
Si Si6 0.070826 0.484030 0.290652
Si Si7 0.701399 0.613415 0.115252
O O1 0.313861 0.451371 0.203276
O O2 0.218183 0.477896 0.481084
O O3 0.006036 0.665225 0.515862
O O4 0.080200 0.995455 0.216583
O O5 0.180519 0.374640 0.308247
O O6 0.523604 0.968165 0.138471
O O7 0.316488 0.572724 0.945079
O O8 0.850933 0.439504 0.109408
O O9 0.186964 0.155286 0.838447
O O10 0.000000 0.500000 0.000000
O O11 0.335932 0.589203 0.736907
O O12 0.365174 0.919793 0.605055
O O13 0.083075 0.136796 0.774108
O O14 0.500000 0.000000 0.500000
O O15 0.210194 0.361750 0.105165
#
# Coordination Sequence:
#
# PCOD9091512 Si02
#       7
#     2   2   2   2   2   2   2
#     4  11  23  45  70  96 131 186 223 275 337 407
#     4  11  21  36  68 105 139 175 223 281 338 399
#     4  12  27  49  69  97 140 180 223 283 338 403
#     4  10  19  41  71  96 140 178 217 281 336 392
#     4  11  26  47  71 102 133 180 231 273 338 405
#     4  10  19  39  66  99 138 175 225 272 339 401
#     4  11  22  41  66 106 138 175 226 282 337 391
#
# _framework density 21.16215
#
# number of rings (size 3 to 8) (size 9 to 14) (size 15 to 20)
#    0.000    1.143    4.286    4.714    2.000    3.429 
#    5.143    3.571    0.000    0.000    0.000    0.000 
#    0.000    0.000    0.000    0.000    0.000    0.000 
#
# Total GULP energy -78130.858498 kJ/mol
# GULP energy per Si atom -5580.775607 kJ/mol
# Density = 2.111398 g / cm^3
# Si number density = 21.162150 Si / 1000 Ang^3
#
#
#
# Elastic Constant Matrix: (Units=GPa)
#
#
# Indices 1 2 3 4 5 6 
#
# 1 107.0579 36.3573 29.8015 -8.8645 -28.6154 -1.3471
# 2 36.3573 106.7199 53.5590 -20.2322 -43.6807 12.9949
# 3 29.8015 53.5590 82.6910 -41.4007 -5.6644 -8.0148
# 4 -8.8645 -20.2322 -41.4007 29.9338 4.5895 -6.2770
# 5 -28.6154 -43.6807 -5.6644 4.5895 12.4875 6.0950
# 6 -1.3471 12.9949 -8.0148 -6.2770 6.0950 38.5620
#
#
#
# Elastic Compliance Matrix: (Units=1/GPa)
#
#
# Indices 1 2 3 4 5 6 
#
# 1 0.009747 -0.007086 0.004030 0.005592 -0.005268 0.005309
# 2 -0.007086 0.000215 0.010525 0.017525 -0.021083 0.008053
# 3 0.004030 0.010525 0.025492 0.037127 0.043447 0.001069
# 4 0.005592 0.017525 0.037127 0.091940 0.052967 0.008600
# 5 -0.005268 -0.021083 0.043447 0.052967 -0.018955 0.027568
# 6 0.005309 0.008053 0.001069 0.008600 0.027568 0.020669
#
#
# Mechanical properties :
#
#
# Convention : Reuss Voigt Hill
#
# Bulk Modulus (GPa) = 19.84431 59.54493 39.69462
# Shear Modulus (GPa) = 38.17772 27.98008 33.07890
#
# Velocity S-wave (km/s) = 4.25203 3.64012 3.95792
# Velocity P-wave (km/s) = 5.78826 6.77243 6.29959
#
# Compressibility (1/GPa) = 0.05039227
#
# Stress axis : x y z
#
# Youngs Moduli (GPa) = 102.59598 4661.08288 39.22798
#
# Poissons Ratio (x) = 33.02654 -0.15809
# Poissons Ratio (y) = 0.72695 -0.41287
# Poissons Ratio (z) = -0.41347 -49.05743
#
# Static dielectric constant tensor:
#      x y z
#    x 2.534400 -0.091790 -0.009120 
#    y -0.091790 1.759630 0.012700 
#    z -0.009120 0.012700 1.805110 
# 
# From -- ./inp_files/379492.got.cif
#   From: 2010.05.17/outbox.cif.g08.bks.cpg/sg2_190_cif.got.tgz:379492.got - 2010.06.03 11:33:40.
