data_PCOD9091426
_publ_section_title
;
Structure prediction by ZEFSAII (Michael W. Deem and Ramdas Pophale) SiO2 
 PCOD9091426
Probable space group: P -1
;
_chemical_formula_sum "Si O2"
_cell_formula_units_Z 16
_cell_length_a 14.551181
_cell_length_b 9.773195
_cell_length_c 8.213123
_cell_angle_alpha 42.857002
_cell_angle_beta 88.907171
_cell_angle_gamma 104.375117
_cell_volume 732.857928
_symmetry_space_group_name_H-M "P -1"
_symmetry_group_IT_number 2
_symmetry_cell_setting 'triclinic'
loop_
_space_group_symop_operation_xyz
x,y,z
-x,-y,-z
loop_
_atom_site_type_symbol
_atom_site_label
_atom_site_fract_x
_atom_site_fract_y
_atom_site_fract_z
Si Si1 0.697785 0.625479 0.243534
Si Si2 0.685920 0.077167 0.456689
Si Si3 0.849130 0.047959 0.702064
Si Si4 0.531710 0.673699 0.994717
Si Si5 0.803640 0.382097 0.629398
Si Si6 0.255758 0.161459 0.594869
Si Si7 0.682820 0.379329 0.939878
Si Si8 0.947049 0.876504 0.272514
O O1 0.728335 0.423964 0.465015
O O2 0.699974 0.737055 0.321858
O O3 0.595592 0.594462 0.186338
O O4 0.785209 0.803430 0.979101
O O5 0.790809 0.101141 0.509479
O O6 0.601005 0.914198 0.716301
O O7 0.681228 0.954567 0.392899
O O8 0.681461 0.297725 0.195689
O O9 0.844076 0.211870 0.701984
O O10 0.963428 0.088383 0.636851
O O11 0.500000 0.500000 0.000000
O O12 0.430521 0.683097 0.057953
O O13 0.744479 0.307114 0.865589
O O14 0.888245 0.621106 0.452593
O O15 0.266437 0.359883 0.299348
O O16 0.137633 0.041961 0.733357
O O17 0.000000 0.000000 0.000000
#
# Coordination Sequence:
#
# PCOD9091426 Si02
#       8
#     2   2   2   2   2   2   2   2
#     4   9  21  39  61  88 114 160 201 242 297 344
#     4  11  24  39  62  86 127 157 193 249 302 349
#     4  11  21  38  61  93 117 157 201 242 296 354
#     4  11  22  40  64  86 121 160 198 247 299 357
#     4  10  22  38  66  87 122 155 198 250 288 352
#     4  10  21  41  62  86 121 158 193 253 294 348
#     4  10  22  41  57  88 119 157 197 242 298 347
#     4  10  19  39  66  88 117 156 202 242 293 355
#
# _framework density 21.832335
#
# number of rings (size 3 to 8) (size 9 to 14) (size 15 to 20)
#    0.000    2.000    3.750    1.500    1.750    2.500 
#    0.000    5.625    0.000    0.000    0.000    0.000 
#    0.000    0.000    0.000    0.000    0.000    0.000 
#
# Total GULP energy -89347.543508 kJ/mol
# GULP energy per Si atom -5584.221469 kJ/mol
# Density = 2.178264 g / cm^3
# Si number density = 21.832335 Si / 1000 Ang^3
#
#
#
# Elastic Constant Matrix: (Units=GPa)
#
#
# Indices 1 2 3 4 5 6 
#
# 1 75.2568 9.0160 13.6941 7.1181 -20.0519 25.6361
# 2 9.0160 37.0110 -8.0265 5.5635 -1.1110 14.9492
# 3 13.6941 -8.0265 98.4965 8.3759 2.8085 16.2327
# 4 7.1181 5.5635 8.3759 14.8267 6.3780 4.9568
# 5 -20.0519 -1.1110 2.8085 6.3780 32.8441 5.9959
# 6 25.6361 14.9492 16.2327 4.9568 5.9959 42.4951
#
#
#
# Elastic Compliance Matrix: (Units=1/GPa)
#
#
# Indices 1 2 3 4 5 6 
#
# 1 0.027711 0.005201 0.000839 -0.019560 0.024479 -0.020040
# 2 0.005201 0.037779 0.006678 -0.019024 0.010917 -0.018300
# 3 0.000839 0.006678 0.012391 -0.008723 0.002640 -0.006944
# 4 -0.019560 -0.019024 -0.008723 0.098347 -0.033696 0.015107
# 5 0.024479 0.010917 0.002640 -0.033696 0.056395 -0.023643
# 6 -0.020040 -0.018300 -0.006944 0.015107 -0.023643 0.046286
#
#
# Mechanical properties :
#
#
# Convention : Reuss Voigt Hill
#
# Bulk Modulus (GPa) = 9.67891 26.68128 18.18009
# Shear Modulus (GPa) = 17.36636 31.10520 24.23578
#
# Velocity S-wave (km/s) = 2.82342 3.77866 3.33541
# Velocity P-wave (km/s) = 3.88225 5.59331 4.81441
#
# Compressibility (1/GPa) = 0.10331740
#
# Stress axis : x y z
#
# Youngs Moduli (GPa) = 36.08657 26.46952 80.70362
#
# Poissons Ratio (x) = -0.13767 -0.06772
# Poissons Ratio (y) = -0.18768 -0.53893
# Poissons Ratio (z) = -0.03028 -0.17676
#
# Static dielectric constant tensor:
#      x y z
#    x 1.825770 -0.025600 0.045450 
#    y -0.025600 1.849720 -0.011080 
#    z 0.045450 -0.011080 1.818720 
# 
# From -- ./inp_files/306267.got.cif
#   From: 2010.05.17/outbox.cif.g08.bks.cpg/sg2_154_cif.got.tgz:306267.got - 2010.06.03 11:33:40.
