data_PCOD9091340
_publ_section_title
;
Structure prediction by ZEFSAII (Michael W. Deem and Ramdas Pophale) SiO2 
 PCOD9091340
Probable space group: P -1
;
_chemical_formula_sum "Si O2"
_cell_formula_units_Z 14
_cell_length_a 11.282641
_cell_length_b 9.189620
_cell_length_c 20.616800
_cell_angle_alpha 118.046966
_cell_angle_beta 158.962254
_cell_angle_gamma 57.964569
_cell_volume 648.333195
_symmetry_space_group_name_H-M "P -1"
_symmetry_group_IT_number 2
_symmetry_cell_setting 'triclinic'
loop_
_space_group_symop_operation_xyz
x,y,z
-x,-y,-z
loop_
_atom_site_type_symbol
_atom_site_label
_atom_site_fract_x
_atom_site_fract_y
_atom_site_fract_z
Si Si1 0.293585 0.088196 0.810975
Si Si2 0.699418 0.031834 0.672097
Si Si3 0.772102 0.576052 0.826415
Si Si4 0.605151 0.340713 0.782110
Si Si5 0.273062 0.209678 0.964457
Si Si6 0.455130 0.840251 0.612338
Si Si7 0.402296 0.896948 0.168041
O O1 0.346213 0.196613 0.922863
O O2 0.515746 0.105495 0.865747
O O3 0.896627 0.151999 0.601201
O O4 0.394751 0.888396 0.844417
O O5 0.532376 0.200673 0.666750
O O6 0.033087 0.083089 0.829113
O O7 0.500000 0.000000 0.500000
O O8 0.712737 0.877873 0.697230
O O9 0.518621 0.517432 0.734498
O O10 0.602656 0.672332 0.696013
O O11 0.058781 0.401037 0.913926
O O12 0.986958 0.683707 0.997866
O O13 0.489313 0.291859 0.782754
O O14 0.392052 0.992055 0.665123
O O15 0.000000 0.000000 0.000000
#
# Coordination Sequence:
#
# PCOD9091340 Si02
#       7
#     2   2   2   2   2   2   2
#     4  11  23  40  61  94 124 164 210 260 305 368
#     4  10  19  39  65  91 120 167 209 245 296 386
#     4  10  20  39  65  94 120 163 206 258 308 373
#     4   9  20  35  62  88 120 160 211 241 306 367
#     4  10  23  41  65  87 132 167 203 249 320 372
#     4  11  22  36  67  96 120 158 215 262 298 359
#     4  11  20  39  65  87 121 168 215 248 303 386
#
# _framework density 21.593833
#
# number of rings (size 3 to 8) (size 9 to 14) (size 15 to 20)
#    0.000    1.714    2.857    3.000    2.000    0.571 
#    0.000    1.429    6.286    0.000    0.000    0.000 
#    0.000    0.000    0.000    0.000    0.000    0.000 
#
# Total GULP energy -78011.130043 kJ/mol
# GULP energy per Si atom -5572.223575 kJ/mol
# Density = 2.154468 g / cm^3
# Si number density = 21.593833 Si / 1000 Ang^3
#
#
#
# Elastic Constant Matrix: (Units=GPa)
#
#
# Indices 1 2 3 4 5 6 
#
# 1 157.0831 42.4197 12.5688 -3.4617 -29.5646 26.6366
# 2 42.4197 113.1288 29.6561 -13.6759 -18.5520 30.8182
# 3 12.5688 29.6561 72.4292 -10.2433 -28.6267 3.4072
# 4 -3.4617 -13.6759 -10.2433 24.6407 7.1837 -10.0492
# 5 -29.5646 -18.5520 -28.6267 7.1837 33.6825 -9.8846
# 6 26.6366 30.8182 3.4072 -10.0492 -9.8846 36.2770
#
#
#
# Elastic Compliance Matrix: (Units=1/GPa)
#
#
# Indices 1 2 3 4 5 6 
#
# 1 0.008768 -0.001900 0.002233 -0.002710 0.008073 -0.003584
# 2 -0.001900 0.013420 -0.005222 0.001655 -0.001875 -0.009567
# 3 0.002233 -0.005222 0.024026 0.004376 0.020743 0.007404
# 4 -0.002710 0.001655 0.004376 0.049422 -0.004587 0.012613
# 5 0.008073 -0.001875 0.020743 -0.004587 0.056665 0.007886
# 6 -0.003584 -0.009567 0.007404 0.012613 0.007886 0.043272
#
#
# Mechanical properties :
#
#
# Convention : Reuss Voigt Hill
#
# Bulk Modulus (GPa) = 27.44622 56.88113 42.16367
# Shear Modulus (GPa) = 22.98886 36.11982 29.55434
#
# Velocity S-wave (km/s) = 3.26636 4.09429 3.70354
# Velocity P-wave (km/s) = 5.19262 6.98209 6.15276
#
# Compressibility (1/GPa) = 0.03643490
#
# Stress axis : x y z
#
# Youngs Moduli (GPa) = 114.04952 74.51691 41.62122
#
# Poissons Ratio (x) = 0.14160 -0.09293
# Poissons Ratio (y) = 0.21673 0.21735
# Poissons Ratio (z) = -0.25464 0.38913
#
# Static dielectric constant tensor:
#      x y z
#    x 1.843930 0.016400 0.035610 
#    y 0.016400 1.837990 -0.013730 
#    z 0.035610 -0.013730 1.844140 
# 
# From -- ./inp_files/278589.got.cif
#   From: 2010.05.17/outbox.cif.g08.bks.cpg/sg2_140_cif.got.tgz:278589.got - 2010.06.03 11:33:40.
