data_PCOD9091583
_publ_section_title
;
Structure prediction by ZEFSAII (Michael W. Deem and Ramdas Pophale) SiO2 
 PCOD9091583
Probable space group: P -1
;
_chemical_formula_sum "Si O2"
_cell_formula_units_Z 14
_cell_length_a 8.456680
_cell_length_b 8.971168
_cell_length_c 13.173798
_cell_angle_alpha 134.727829
_cell_angle_beta 113.717425
_cell_angle_gamma 67.726948
_cell_volume 642.980030
_symmetry_space_group_name_H-M "P -1"
_symmetry_group_IT_number 2
_symmetry_cell_setting 'triclinic'
loop_
_space_group_symop_operation_xyz
x,y,z
-x,-y,-z
loop_
_atom_site_type_symbol
_atom_site_label
_atom_site_fract_x
_atom_site_fract_y
_atom_site_fract_z
Si Si1 0.515146 0.352175 0.313155
Si Si2 0.375490 0.873586 0.334930
Si Si3 0.676482 0.613934 0.900142
Si Si4 0.839728 0.957546 0.008644
Si Si5 0.497302 0.092017 0.842408
Si Si6 0.200106 0.501735 0.443834
Si Si7 0.987600 0.843249 0.672447
O O1 0.489720 0.284959 0.160989
O O2 0.331018 0.466270 0.366318
O O3 0.657707 0.505565 0.432313
O O4 0.567373 0.137790 0.287283
O O5 0.337357 0.633675 0.233220
O O6 0.458657 0.855280 0.235136
O O7 0.500000 0.000000 0.500000
O O8 0.181734 0.002850 0.334203
O O9 0.828502 0.716618 0.930312
O O10 0.637005 0.721333 0.050869
O O11 0.872139 0.064346 0.176636
O O12 0.673010 0.038702 0.932236
O O13 0.000000 0.000000 0.000000
O O14 0.087013 0.319102 0.347227
O O15 0.074885 0.718489 0.537533
#
# Coordination Sequence:
#
# PCOD9091583 Si02
#       7
#     2   2   2   2   2   2   2
#     4  10  19  39  67  98 123 166 225 274 321 389
#     4  12  26  44  64  96 139 178 221 269 329 401
#     4  11  24  40  68  97 129 179 217 264 338 395
#     4  11  21  42  69  96 129 165 224 281 326 384
#     4  11  22  44  68  96 128 172 223 279 320 392
#     4  10  20  34  67  94 129 164 217 276 326 371
#     4  11  21  40  61  97 130 171 215 274 325 386
#
# _framework density 21.773613999999998
#
# number of rings (size 3 to 8) (size 9 to 14) (size 15 to 20)
#    0.000    1.143    2.857    5.571    2.000    1.714 
#    0.000    0.714    0.000    0.000    0.000    0.000 
#    0.000    0.000    0.000    0.000    0.000    0.000 
#
# Total GULP energy -77937.397191 kJ/mol
# GULP energy per Si atom -5566.956942 kJ/mol
# Density = 2.172406 g / cm^3
# Si number density = 21.773614 Si / 1000 Ang^3
#
#
#
# Elastic Constant Matrix: (Units=GPa)
#
#
# Indices 1 2 3 4 5 6 
#
# 1 103.4386 38.5034 41.1416 11.3175 -6.1482 9.9067
# 2 38.5034 82.9886 36.3318 14.1634 -0.4811 24.0862
# 3 41.1416 36.3318 112.8045 14.0058 6.4193 12.6583
# 4 11.3175 14.1634 14.0058 30.3136 2.7792 4.1001
# 5 -6.1482 -0.4811 6.4193 2.7792 45.7480 3.2572
# 6 9.9067 24.0862 12.6583 4.1001 3.2572 30.5701
#
#
#
# Elastic Compliance Matrix: (Units=1/GPa)
#
#
# Indices 1 2 3 4 5 6 
#
# 1 0.012856 -0.004461 -0.003265 -0.001497 0.002182 0.000669
# 2 -0.004461 0.019785 -0.002831 -0.004693 0.001178 -0.012467
# 3 -0.003265 -0.002831 0.011485 -0.002467 -0.001864 -0.000938
# 4 -0.001497 -0.004693 -0.002467 0.037016 -0.002187 0.000472
# 5 0.002182 0.001178 -0.001864 -0.002187 0.022772 -0.002997
# 6 0.000669 -0.012467 -0.000938 0.000472 -0.002997 0.042962
#
#
# Mechanical properties :
#
#
# Convention : Reuss Voigt Hill
#
# Bulk Modulus (GPa) = 43.45603 59.02058 51.23831
# Shear Modulus (GPa) = 28.46363 33.54332 31.00348
#
# Velocity S-wave (km/s) = 3.61952 3.92924 3.77756
# Velocity P-wave (km/s) = 6.12122 6.91018 6.52763
#
# Compressibility (1/GPa) = 0.02301177
#
# Stress axis : x y z
#
# Youngs Moduli (GPa) = 77.78169 50.54331 87.06901
#
# Poissons Ratio (x) = 0.22549 0.28432
# Poissons Ratio (y) = 0.34701 0.24646
# Poissons Ratio (z) = 0.25399 0.14307
#
# Static dielectric constant tensor:
#      x y z
#    x 1.819120 0.001210 -0.001950 
#    y 0.001210 1.829570 0.024350 
#    z -0.001950 0.024350 1.872540 
# 
# From -- ./inp_files/380692.got.cif
#   From: 2010.05.17/outbox.cif.g08.bks.cpg/sg2_191_cif.got.tgz:380692.got - 2010.06.03 11:33:40.
