data_PCOD9091104
_publ_section_title
;
Structure prediction by ZEFSAII (Michael W. Deem and Ramdas Pophale) SiO2 
 PCOD9091104
Probable space group: P -1
;
_chemical_formula_sum "Si O2"
_cell_formula_units_Z 16
_cell_length_a 16.339512
_cell_length_b 9.644282
_cell_length_c 15.754799
_cell_angle_alpha 46.806881
_cell_angle_beta 152.634276
_cell_angle_gamma 135.048531
_cell_volume 794.218645
_symmetry_space_group_name_H-M "P -1"
_symmetry_group_IT_number 2
_symmetry_cell_setting 'triclinic'
loop_
_space_group_symop_operation_xyz
x,y,z
-x,-y,-z
loop_
_atom_site_type_symbol
_atom_site_label
_atom_site_fract_x
_atom_site_fract_y
_atom_site_fract_z
Si Si1 0.247418 0.304169 0.736098
Si Si2 0.854021 0.679276 0.766476
Si Si3 0.277032 0.718026 0.111061
Si Si4 0.962179 0.025076 0.855475
Si Si5 0.439739 0.165112 0.824926
Si Si6 0.148290 0.980350 0.496346
Si Si7 0.647826 0.840584 0.934073
Si Si8 0.751126 0.269903 0.454511
O O1 0.379925 0.303009 0.779669
O O2 0.169272 0.491877 0.574367
O O3 0.072940 0.103091 0.659169
O O4 0.350572 0.291959 0.925186
O O5 0.715645 0.461884 0.745734
O O6 0.893201 0.809688 0.834929
O O7 0.788098 0.815887 0.583364
O O8 0.052831 0.670660 0.915818
O O9 0.395424 0.722294 0.133893
O O10 0.347759 0.938928 0.122421
O O11 0.824807 0.154371 0.645672
O O12 0.159456 0.135780 0.946595
O O13 0.000000 0.000000 0.000000
O O14 0.261326 0.035959 0.662333
O O15 0.500000 0.000000 0.000000
O O16 0.197887 0.820056 0.548560
O O17 0.470889 0.767291 0.740806
#
# Coordination Sequence:
#
# PCOD9091104 Si02
#       8
#     2   2   2   2   2   2   2   2
#     4  12  23  41  63 101 132 169 217 265 326 394
#     4   9  20  40  66  87 119 168 219 257 325 382
#     4  10  19  39  63  91 121 168 208 263 319 381
#     4  10  23  44  63  92 131 169 218 275 322 382
#     4  12  23  39  61  97 136 163 215 270 317 379
#     4  11  21  42  65  88 127 176 210 266 319 384
#     4  11  21  42  68  91 131 169 220 264 325 394
#     4  11  23  42  67  94 127 177 215 264 332 389
#
# _framework density 20.145586999999999
#
# number of rings (size 3 to 8) (size 9 to 14) (size 15 to 20)
#    0.000    1.250    6.250    1.125    0.000    2.000 
#    9.000    0.000    0.000    0.000    0.000    0.000 
#    0.000    0.000    0.000    0.000    0.000    0.000 
#
# Total GULP energy -89299.313353 kJ/mol
# GULP energy per Si atom -5581.207085 kJ/mol
# Density = 2.009973 g / cm^3
# Si number density = 20.145587 Si / 1000 Ang^3
#
#
#
# Elastic Constant Matrix: (Units=GPa)
#
#
# Indices 1 2 3 4 5 6 
#
# 1 99.0233 34.2331 42.6496 -7.0944 -9.2398 0.9586
# 2 34.2331 68.4406 32.4779 -22.9057 -8.0296 16.3053
# 3 42.6496 32.4779 113.0812 -4.8678 -20.7062 -5.3859
# 4 -7.0944 -22.9057 -4.8678 33.5393 -3.7756 3.6681
# 5 -9.2398 -8.0296 -20.7062 -3.7756 29.2611 3.3435
# 6 0.9586 16.3053 -5.3859 3.6681 3.3435 22.9964
#
#
#
# Elastic Compliance Matrix: (Units=1/GPa)
#
#
# Indices 1 2 3 4 5 6 
#
# 1 0.013758 -0.008086 -0.002972 -0.003732 -0.001055 0.005212
# 2 -0.008086 0.044986 -0.007941 0.033799 0.013187 -0.040728
# 3 -0.002972 -0.007941 0.013336 -0.004562 0.004712 0.008920
# 4 -0.003732 0.033799 -0.004562 0.057277 0.016418 -0.036401
# 5 -0.001055 0.013187 0.004712 0.016418 0.044896 -0.017349
# 6 0.005212 -0.040728 0.008920 -0.036401 -0.017349 0.082563
#
#
# Mechanical properties :
#
#
# Convention : Reuss Voigt Hill
#
# Bulk Modulus (GPa) = 29.34070 55.47405 42.40738
# Shear Modulus (GPa) = 16.33060 28.57166 22.45113
#
# Velocity S-wave (km/s) = 2.85024 3.77006 3.34195
# Velocity P-wave (km/s) = 5.04260 6.82258 5.99897
#
# Compressibility (1/GPa) = 0.03408235
#
# Stress axis : x y z
#
# Youngs Moduli (GPa) = 72.68634 22.22919 74.98420
#
# Poissons Ratio (x) = 0.17974 0.22287
# Poissons Ratio (y) = 0.58771 0.59545
# Poissons Ratio (z) = 0.21604 0.17652
#
# Static dielectric constant tensor:
#      x y z
#    x 1.675210 0.029050 0.029640 
#    y 0.029050 1.716450 -0.003230 
#    z 0.029640 -0.003230 1.746100 
# 
# From -- ./inp_files/262155.got.cif
#   From: 2010.05.17/outbox.cif.g08.bks.cpg/sg2_132_cif.got.tgz:262155.got - 2010.06.03 11:33:40.
