data_PCOD9091738
_publ_section_title
;
Structure prediction by ZEFSAII (Michael W. Deem and Ramdas Pophale) SiO2 
 PCOD9091738
Probable space group: P -1
;
_chemical_formula_sum "Si O2"
_cell_formula_units_Z 16
_cell_length_a 7.884832
_cell_length_b 14.041554
_cell_length_c 13.507124
_cell_angle_alpha 128.553162
_cell_angle_beta 124.879248
_cell_angle_gamma 96.897326
_cell_volume 642.411912
_symmetry_space_group_name_H-M "P -1"
_symmetry_group_IT_number 2
_symmetry_cell_setting 'triclinic'
loop_
_space_group_symop_operation_xyz
x,y,z
-x,-y,-z
loop_
_atom_site_type_symbol
_atom_site_label
_atom_site_fract_x
_atom_site_fract_y
_atom_site_fract_z
Si Si1 0.384911 0.367923 0.467483
Si Si2 0.443407 0.142745 0.018147
Si Si3 0.908661 0.898587 0.552364
Si Si4 0.136227 0.838060 0.297676
Si Si5 0.744760 0.027681 0.961069
Si Si6 0.246728 0.526427 0.159068
Si Si7 0.841832 0.525403 0.387256
Si Si8 0.212831 0.802430 0.509416
O O1 0.500000 0.500000 0.500000
O O2 0.650637 0.415457 0.652182
O O3 0.255172 0.403970 0.531320
O O4 0.106639 0.172492 0.194437
O O5 0.441764 0.139615 0.133806
O O6 0.646607 0.120165 0.029013
O O7 0.557501 0.317562 0.123718
O O8 0.086769 0.965944 0.759520
O O9 0.566267 0.695585 0.317070
O O10 0.121492 0.903758 0.562345
O O11 0.928418 0.048478 0.630663
O O12 0.112813 0.743163 0.325848
O O13 0.500000 0.000000 0.500000
O O14 0.911045 0.675986 0.038001
O O15 0.576742 0.945228 0.746114
O O16 0.000000 0.500000 0.000000
O O17 0.000000 0.500000 0.500000
O O18 0.022728 0.648234 0.430280
#
# Coordination Sequence:
#
# PCOD9091738 Si02
#       8
#     2   2   2   2   2   2   2   2
#     4  12  26  44  70 106 144 192 239 301 373 433
#     4  10  19  39  72 100 137 181 228 305 353 426
#     4  11  23  48  73 101 141 193 249 293 362 430
#     4  12  28  49  73 102 148 198 246 297 370 438
#     4  10  19  40  68 101 142 176 233 295 366 419
#     4  12  26  50  75 102 153 197 246 305 365 443
#     4  12  21  42  71 109 145 182 241 299 367 441
#     4  11  25  45  74 109 143 189 242 305 366 439
#
# _framework density 24.906137000000001
#
# number of rings (size 3 to 8) (size 9 to 14) (size 15 to 20)
#    0.000    0.750    6.250    1.875    1.750    1.500 
#    4.500    0.625    0.000    0.000    0.000    0.000 
#    0.000    0.000    0.000    0.000    0.000    0.000 
#
# Total GULP energy -89335.933710 kJ/mol
# GULP energy per Si atom -5583.495857 kJ/mol
# Density = 2.484945 g / cm^3
# Si number density = 24.906137 Si / 1000 Ang^3
#
#
#
# Elastic Constant Matrix: (Units=GPa)
#
#
# Indices 1 2 3 4 5 6 
#
# 1 48.7420 37.0747 32.4201 -8.8816 1.4263 -12.2483
# 2 37.0747 135.5044 43.7097 -1.8080 4.4656 -7.3552
# 3 32.4201 43.7097 175.4104 2.1980 13.5888 -4.5370
# 4 -8.8816 -1.8080 2.1980 54.8590 -6.0536 0.7521
# 5 1.4263 4.4656 13.5888 -6.0536 31.7816 -9.3231
# 6 -12.2483 -7.3552 -4.5370 0.7521 -9.3231 42.5083
#
#
#
# Elastic Compliance Matrix: (Units=1/GPa)
#
#
# Indices 1 2 3 4 5 6 
#
# 1 0.031630 -0.006877 -0.004365 0.005498 0.004937 0.008444
# 2 -0.006877 0.009586 -0.001051 -0.000850 -0.000934 -0.000625
# 3 -0.004365 -0.001051 0.007008 -0.001370 -0.003323 -0.001396
# 4 0.005498 -0.000850 -0.001370 0.019646 0.004785 0.001993
# 5 0.004937 -0.000934 -0.003323 0.004785 0.036282 0.008779
# 6 0.008444 -0.000625 -0.001396 0.001993 0.008779 0.027591
#
#
# Mechanical properties :
#
#
# Convention : Reuss Voigt Hill
#
# Bulk Modulus (GPa) = 42.30555 65.11843 53.71199
# Shear Modulus (GPa) = 30.44915 42.25994 36.35454
#
# Velocity S-wave (km/s) = 3.50030 4.12365 3.82470
# Velocity P-wave (km/s) = 5.77573 6.99106 6.41225
#
# Compressibility (1/GPa) = 0.02363756
#
# Stress axis : x y z
#
# Youngs Moduli (GPa) = 31.61588 104.32002 142.69260
#
# Poissons Ratio (x) = 0.71741 0.62289
# Poissons Ratio (y) = 0.21742 0.14994
# Poissons Ratio (z) = 0.13801 0.10962
#
# Static dielectric constant tensor:
#      x y z
#    x 2.034100 -0.026380 -0.097490 
#    y -0.026380 2.005010 -0.061550 
#    z -0.097490 -0.061550 2.414370 
# 
# From -- ./inp_files/504297.got.cif
#   From: 2010.05.17/outbox.cif.g08.bks.cpg/sg2_253_cif.got.tgz:504297.got - 2010.06.03 11:33:40.
