data_PCOD9091981
_publ_section_title
;
Structure prediction by ZEFSAII (Michael W. Deem and Ramdas Pophale) SiO2 
 PCOD9091981
Probable space group: P -1
;
_chemical_formula_sum "Si O2"
_cell_formula_units_Z 16
_cell_length_a 11.403541
_cell_length_b 14.804850
_cell_length_c 9.368032
_cell_angle_alpha 105.236411
_cell_angle_beta 109.044274
_cell_angle_gamma 29.797725
_cell_volume 742.235776
_symmetry_space_group_name_H-M "P -1"
_symmetry_group_IT_number 2
_symmetry_cell_setting 'triclinic'
loop_
_space_group_symop_operation_xyz
x,y,z
-x,-y,-z
loop_
_atom_site_type_symbol
_atom_site_label
_atom_site_fract_x
_atom_site_fract_y
_atom_site_fract_z
Si Si1 0.973027 0.278755 0.316783
Si Si2 0.529716 0.102880 0.299946
Si Si3 0.404087 0.813806 0.881634
Si Si4 0.591066 0.032351 0.823168
Si Si5 0.766134 0.712101 0.463034
Si Si6 0.524142 0.595426 0.083672
Si Si7 0.970343 0.168114 0.526564
Si Si8 0.141030 0.882292 0.296893
O O1 0.774469 0.449607 0.205227
O O2 0.143010 0.242590 0.448868
O O3 0.849516 0.301018 0.403800
O O4 0.163989 0.100792 0.220386
O O5 0.470430 0.231637 0.232636
O O6 0.428735 0.185013 0.451480
O O7 0.423286 0.070405 0.199313
O O8 0.819688 0.909585 0.343176
O O9 0.405578 0.908562 0.011098
O O10 0.512848 0.662742 0.962019
O O11 0.131256 0.960217 0.799622
O O12 0.364135 0.207298 0.706732
O O13 0.000000 0.500000 0.500000
O O14 0.318246 0.762254 0.183007
O O15 0.500000 0.500000 0.000000
O O16 0.804181 0.232226 0.609267
O O17 0.116395 0.991629 0.427382
#
# Coordination Sequence:
#
# PCOD9091981 Si02
#       8
#     2   2   2   2   2   2   2   2
#     4  11  21  37  63  87 122 162 207 248 311 367
#     4  10  21  40  64  94 124 159 206 257 311 373
#     4  11  23  41  64  91 124 169 206 256 314 369
#     4  11  20  41  66  93 124 161 209 250 316 380
#     4  11  22  38  61  96 121 162 200 252 310 374
#     4  12  25  41  58  91 130 171 212 256 314 372
#     4  10  19  40  64  92 117 163 210 265 307 362
#     4  10  23  39  64  89 123 162 218 259 309 362
#
# _framework density 21.556491999999999
#
# number of rings (size 3 to 8) (size 9 to 14) (size 15 to 20)
#    0.000    1.250    2.500    4.500    1.750    0.500 
#    2.250    6.875    0.000    0.000    0.000    0.000 
#    0.000    0.000    0.000    0.000    0.000    0.000 
#
# Total GULP energy -89330.334803 kJ/mol
# GULP energy per Si atom -5583.145925 kJ/mol
# Density = 2.150743 g / cm^3
# Si number density = 21.556492 Si / 1000 Ang^3
#
#
#
# Elastic Constant Matrix: (Units=GPa)
#
#
# Indices 1 2 3 4 5 6 
#
# 1 79.6332 8.1344 38.8387 -12.9212 -16.1028 5.3434
# 2 8.1344 29.5730 1.8997 -19.0075 -10.8326 4.2812
# 3 38.8387 1.8997 84.9774 -22.9020 -9.2580 7.3080
# 4 -12.9212 -19.0075 -22.9020 37.2783 12.1683 4.7031
# 5 -16.1028 -10.8326 -9.2580 12.1683 46.4979 -11.7592
# 6 5.3434 4.2812 7.3080 4.7031 -11.7592 16.2145
#
#
#
# Elastic Compliance Matrix: (Units=1/GPa)
#
#
# Indices 1 2 3 4 5 6 
#
# 1 0.017604 -0.006559 -0.009266 -0.005501 0.005625 0.005782
# 2 -0.006559 0.075452 0.020179 0.057542 -0.008262 -0.049538
# 3 -0.009266 0.020179 0.024652 0.028244 -0.007896 -0.027304
# 4 -0.005501 0.057542 0.028244 0.087785 -0.023135 -0.068351
# 5 0.005625 -0.008262 -0.007896 -0.023135 0.035136 0.036078
# 6 0.005782 -0.049538 -0.027304 -0.068351 0.036078 0.131144
#
#
# Mechanical properties :
#
#
# Convention : Reuss Voigt Hill
#
# Bulk Modulus (GPa) = 7.91047 32.43660 20.17353
# Shear Modulus (GPa) = 12.33951 29.68552 21.01252
#
# Velocity S-wave (km/s) = 2.39514 3.71496 3.12551
# Velocity P-wave (km/s) = 3.36549 5.78629 4.73327
#
# Compressibility (1/GPa) = 0.12641478
#
# Stress axis : x y z
#
# Youngs Moduli (GPa) = 56.80603 13.25352 40.56539
#
# Poissons Ratio (x) = 0.08693 0.37588
# Poissons Ratio (y) = 0.37259 -0.81857
# Poissons Ratio (z) = 0.52637 -0.26744
#
# Static dielectric constant tensor:
#      x y z
#    x 1.848440 0.047300 -0.031110 
#    y 0.047300 1.818300 0.027020 
#    z -0.031110 0.027020 1.806120 
# 
# From -- ./inp_files/273172.got.cif
#   From: 2010.05.17/outbox.cif.g08.bks.cpg/sg2_137_cif.got.tgz:273172.got - 2010.06.03 11:33:40.
