data_PCOD9091779
_publ_section_title
;
Structure prediction by ZEFSAII (Michael W. Deem and Ramdas Pophale) SiO2 
 PCOD9091779
Probable space group: P -1
;
_chemical_formula_sum "Si O2"
_cell_formula_units_Z 15
_cell_length_a 11.541721
_cell_length_b 10.923416
_cell_length_c 8.918606
_cell_angle_alpha 114.760402
_cell_angle_beta 34.169151
_cell_angle_gamma 112.154103
_cell_volume 572.425328
_symmetry_space_group_name_H-M "P -1"
_symmetry_group_IT_number 2
_symmetry_cell_setting 'triclinic'
loop_
_space_group_symop_operation_xyz
x,y,z
-x,-y,-z
loop_
_atom_site_type_symbol
_atom_site_label
_atom_site_fract_x
_atom_site_fract_y
_atom_site_fract_z
Si Si1 0.665303 0.156419 0.887444
Si Si2 0.000000 0.000000 0.500000
Si Si3 0.964946 0.066785 0.911403
Si Si4 0.330083 0.276091 0.521740
Si Si5 0.537957 0.310741 0.842073
Si Si6 0.691562 0.304331 0.350794
Si Si7 0.802737 0.539474 0.826085
Si Si8 0.964607 0.386687 0.828511
O O1 0.751173 0.012893 0.750808
O O2 0.592721 0.180074 0.808719
O O3 0.876589 0.251043 0.759912
O O4 0.499518 0.207345 0.205247
O O5 0.965497 0.982469 0.714169
O O6 0.155642 0.176609 0.732081
O O7 0.757034 0.149733 0.186404
O O8 0.000000 0.000000 0.000000
O O9 0.471042 0.337584 0.535771
O O10 0.204491 0.366895 0.588636
O O11 0.678239 0.330718 0.554392
O O12 0.616781 0.426797 0.934895
O O13 0.302684 0.327484 0.049915
O O14 0.853776 0.378751 0.103282
O O15 0.884306 0.512697 0.890169
O O16 0.000000 0.500000 0.500000
#
# Coordination Sequence:
#
# PCOD9091779 Si02
#       8
#     2   1   2   2   2   2   2   2
#     4  10  20  38  60  86 120 157 206 248 305 363
#     4  12  20  42  62  90 122 164 206 256 310 356
#     4  11  24  41  59  90 128 160 211 266 301 365
#     4  10  19  40  60  82 121 165 199 244 312 372
#     4  10  22  39  61  89 123 157 196 263 305 359
#     4  10  21  41  57  86 122 160 200 250 315 363
#     4  10  21  38  62  92 117 153 209 246 307 374
#     4   9  19  38  59  82 122 155 193 257 295 362
#
# _framework density 26.204291000000001
#
# number of rings (size 3 to 8) (size 9 to 14) (size 15 to 20)
#    0.000    1.867    4.000    1.600    0.000    4.800 
#    2.400    1.333    0.000    0.000    0.000    0.000 
#    0.000    0.000    0.000    0.000    0.000    0.000 
#
# Total GULP energy -83642.670009 kJ/mol
# GULP energy per Si atom -5576.178001 kJ/mol
# Density = 2.614465 g / cm^3
# Si number density = 26.204291 Si / 1000 Ang^3
#
#
#
# Elastic Constant Matrix: (Units=GPa)
#
#
# Indices 1 2 3 4 5 6 
#
# 1 210.6787 56.6582 60.4674 1.9897 2.4773 -60.1929
# 2 56.6582 47.6813 21.8114 -8.2016 -0.9219 -31.5183
# 3 60.4674 21.8114 123.8645 4.1562 -0.1715 -33.6195
# 4 1.9897 -8.2016 4.1562 26.7462 -10.3389 1.9402
# 5 2.4773 -0.9219 -0.1715 -10.3389 58.2656 0.8553
# 6 -60.1929 -31.5183 -33.6195 1.9402 0.8553 66.1020
#
#
#
# Elastic Compliance Matrix: (Units=1/GPa)
#
#
# Indices 1 2 3 4 5 6 
#
# 1 0.008184 -0.007450 -0.001724 -0.003277 -0.001098 0.003134
# 2 -0.007450 0.040163 -0.000743 0.013366 0.003152 0.011556
# 3 -0.001724 -0.000743 0.009986 -0.002006 -0.000312 0.003217
# 4 -0.003277 0.013366 -0.002006 0.045203 0.008352 0.000934
# 5 -0.001098 0.003152 -0.000312 0.008352 0.018743 -0.000144
# 6 0.003134 0.011556 0.003217 0.000934 -0.000144 0.025102
#
#
# Mechanical properties :
#
#
# Convention : Reuss Voigt Hill
#
# Bulk Modulus (GPa) = 25.97495 73.34428 49.65962
# Shear Modulus (GPa) = 27.77013 46.44192 37.10602
#
# Velocity S-wave (km/s) = 3.25892 4.21444 3.76710
# Velocity P-wave (km/s) = 4.90864 7.19251 6.15739
#
# Compressibility (1/GPa) = 0.03849862
#
# Stress axis : x y z
#
# Youngs Moduli (GPa) = 122.18723 24.89846 100.13891
#
# Poissons Ratio (x) = 0.18548 0.17269
# Poissons Ratio (y) = 0.91024 0.07444
# Poissons Ratio (z) = 0.21071 0.01851
#
# Static dielectric constant tensor:
#      x y z
#    x 2.058120 -0.069450 -0.066670 
#    y -0.069450 1.724150 -0.247920 
#    z -0.066670 -0.247920 1.898400 
# 
# From -- ./inp_files/45015.got.cif
#   From: 2010.05.17/outbox.cif.g08.bks.cpg/sg2_23_cif.got.tgz:45015.got - 2010.06.03 11:33:40.
