data_PCOD9091085
_publ_section_title
;
Structure prediction by ZEFSAII (Michael W. Deem and Ramdas Pophale) SiO2 
 PCOD9091085
Probable space group: P -1
;
_chemical_formula_sum "Si O2"
_cell_formula_units_Z 14
_cell_length_a 10.760231
_cell_length_b 13.972828
_cell_length_c 6.736289
_cell_angle_alpha 48.745241
_cell_angle_beta 91.438975
_cell_angle_gamma 111.318915
_cell_volume 675.182650
_symmetry_space_group_name_H-M "P -1"
_symmetry_group_IT_number 2
_symmetry_cell_setting 'triclinic'
loop_
_space_group_symop_operation_xyz
x,y,z
-x,-y,-z
loop_
_atom_site_type_symbol
_atom_site_label
_atom_site_fract_x
_atom_site_fract_y
_atom_site_fract_z
Si Si1 0.081530 0.146928 0.183187
Si Si2 0.649804 0.861887 0.679763
Si Si3 0.835922 0.400305 0.768019
Si Si4 0.116633 0.445882 0.841989
Si Si5 0.636556 0.322262 0.214551
Si Si6 0.173240 0.895825 0.974153
Si Si7 0.616072 0.033225 0.787843
O O1 0.240877 0.176322 0.148812
O O2 0.985122 0.127094 0.014311
O O3 0.078478 0.282180 0.105918
O O4 0.000000 0.000000 0.500000
O O5 0.528695 0.729509 0.738358
O O6 0.734925 0.989702 0.349749
O O7 0.580537 0.920239 0.763642
O O8 0.852092 0.513188 0.445456
O O9 0.973299 0.460234 0.833521
O O10 0.701226 0.360804 0.946681
O O11 0.826423 0.255297 0.867002
O O12 0.256732 0.549078 0.821141
O O13 0.645889 0.182575 0.485603
O O14 0.246984 0.949992 0.112902
O O15 0.500000 0.000000 0.000000
#
# Coordination Sequence:
#
# PCOD9091085 Si02
#       7
#     2   2   2   2   2   2   2
#     4   9  22  44  63  84 120 163 200 244 299 362
#     4  11  23  38  60  90 127 161 197 244 294 364
#     4  10  20  38  60  92 122 151 199 257 297 349
#     4  10  22  39  62  87 121 156 201 246 303 356
#     4  12  22  35  62  92 124 154 199 250 305 346
#     4  10  19  39  63  89 121 159 202 247 296 351
#     4  12  22  35  62  96 123 155 201 250 303 347
#
# _framework density 20.735130000000002
#
# number of rings (size 3 to 8) (size 9 to 14) (size 15 to 20)
#    0.000    1.429    4.286    1.714    0.000    1.143 
#    0.000    3.571    0.000    0.000    0.000    0.000 
#    0.000    0.000    0.000    0.000    0.000    0.000 
#
# Total GULP energy -78102.975509 kJ/mol
# GULP energy per Si atom -5578.783965 kJ/mol
# Density = 2.068794 g / cm^3
# Si number density = 20.735130 Si / 1000 Ang^3
#
#
#
# Elastic Constant Matrix: (Units=GPa)
#
#
# Indices 1 2 3 4 5 6 
#
# 1 84.0204 27.4537 12.3568 -2.9559 13.8870 36.5774
# 2 27.4537 97.6956 7.0192 -5.4678 10.7871 39.1628
# 3 12.3568 7.0192 53.5439 -7.4279 1.9770 6.5465
# 4 -2.9559 -5.4678 -7.4279 25.5386 6.6220 -0.3096
# 5 13.8870 10.7871 1.9770 6.6220 28.7870 3.0064
# 6 36.5774 39.1628 6.5465 -0.3096 3.0064 37.2184
#
#
#
# Elastic Compliance Matrix: (Units=1/GPa)
#
#
# Indices 1 2 3 4 5 6 
#
# 1 0.026295 0.007672 -0.001569 0.007405 -0.013765 -0.032466
# 2 0.007672 0.021347 0.000493 0.007977 -0.010522 -0.029173
# 3 -0.001569 0.000493 0.020205 0.006297 -0.002022 -0.002315
# 4 0.007405 0.007977 0.006297 0.047616 -0.016374 -0.015060
# 5 -0.013765 -0.010522 -0.002022 -0.016374 0.047031 0.021020
# 6 -0.032466 -0.029173 -0.002315 -0.015060 0.021020 0.088056
#
#
# Mechanical properties :
#
#
# Convention : Reuss Voigt Hill
#
# Bulk Modulus (GPa) = 12.33977 36.54658 24.44317
# Shear Modulus (GPa) = 18.91280 30.87081 24.89180
#
# Velocity S-wave (km/s) = 3.02340 3.86270 3.46853
# Velocity P-wave (km/s) = 4.26051 6.12843 5.27777
#
# Compressibility (1/GPa) = 0.08103881
#
# Stress axis : x y z
#
# Youngs Moduli (GPa) = 38.03016 46.84464 49.49284
#
# Poissons Ratio (x) = -0.35940 0.07766
# Poissons Ratio (y) = -0.29178 -0.02439
# Poissons Ratio (z) = 0.05968 -0.02309
#
# Static dielectric constant tensor:
#      x y z
#    x 1.804730 0.043620 -0.002450 
#    y 0.043620 1.760110 -0.000200 
#    z -0.002450 -0.000200 1.710230 
# 
# From -- ./inp_files/66189.got.cif
#   From: 2010.05.17/outbox.cif.g08.bks.cpg/sg2_34_cif.got.tgz:66189.got - 2010.06.03 11:33:40.
