data_PCOD9091304
_publ_section_title
;
Structure prediction by ZEFSAII (Michael W. Deem and Ramdas Pophale) SiO2 
 PCOD9091304
Probable space group: P -1
;
_chemical_formula_sum "Si O2"
_cell_formula_units_Z 16
_cell_length_a 10.632468
_cell_length_b 8.962376
_cell_length_c 21.927172
_cell_angle_alpha 80.388870
_cell_angle_beta 21.156085
_cell_angle_gamma 83.039080
_cell_volume 740.025937
_symmetry_space_group_name_H-M "P -1"
_symmetry_group_IT_number 2
_symmetry_cell_setting 'triclinic'
loop_
_space_group_symop_operation_xyz
x,y,z
-x,-y,-z
loop_
_atom_site_type_symbol
_atom_site_label
_atom_site_fract_x
_atom_site_fract_y
_atom_site_fract_z
Si Si1 0.727792 0.592127 0.442650
Si Si2 0.221009 0.679628 0.488488
Si Si3 0.983923 0.152963 0.537290
Si Si4 0.644475 0.339761 0.926914
Si Si5 0.859012 0.892105 0.223909
Si Si6 0.196992 0.165969 0.232460
Si Si7 0.700241 0.987622 0.085091
Si Si8 0.627274 0.899327 0.517318
O O1 0.500000 0.500000 0.500000
O O2 0.693534 0.489724 0.525751
O O3 0.569302 0.750340 0.513963
O O4 0.139528 0.627136 0.235645
O O5 0.003798 0.708808 0.524708
O O6 0.556049 0.805096 0.325171
O O7 0.030377 0.724472 0.634128
O O8 0.292588 0.154643 0.446405
O O9 0.613906 0.133090 0.742477
O O10 0.000000 0.000000 0.500000
O O11 0.942043 0.248459 0.832325
O O12 0.500000 0.500000 0.000000
O O13 0.320656 0.226034 0.106234
O O14 0.667070 0.985623 0.354417
O O15 0.098324 0.020267 0.069582
O O16 0.503170 0.136564 0.145299
O O17 0.981356 0.003427 0.333758
O O18 0.000000 0.000000 0.000000
#
# Coordination Sequence:
#
# PCOD9091304 Si02
#       8
#     2   2   2   2   2   2   2   2
#     4  12  26  43  63  86 127 176 214 264 320 370
#     4  11  19  37  63  92 122 163 211 243 325 377
#     4  11  18  35  65  95 128 161 204 265 314 380
#     4  11  22  40  64  92 127 167 205 264 323 369
#     4  10  20  36  62  95 119 160 212 258 306 379
#     4   9  20  36  62  93 118 159 213 256 303 384
#     4  10  16  28  58  95 121 154 194 253 311 361
#     4  10  23  42  63  96 124 163 220 262 310 377
#
# _framework density 21.620864999999998
#
# number of rings (size 3 to 8) (size 9 to 14) (size 15 to 20)
#    0.000    1.500    7.500    0.000    0.000    1.500 
#    0.000    3.750    0.000    0.750    0.000    0.000 
#    0.000    0.000    0.000    0.000    0.000    0.000 
#
# Total GULP energy -89069.869053 kJ/mol
# GULP energy per Si atom -5566.866816 kJ/mol
# Density = 2.157165 g / cm^3
# Si number density = 21.620865 Si / 1000 Ang^3
#
#
#
# Elastic Constant Matrix: (Units=GPa)
#
#
# Indices 1 2 3 4 5 6 
#
# 1 91.4691 43.2903 7.5404 3.3608 -1.8589 -21.2229
# 2 43.2903 118.3046 26.8314 10.5920 6.0203 -16.3823
# 3 7.5404 26.8314 89.9668 -0.3521 9.5877 -4.0901
# 4 3.3608 10.5920 -0.3521 32.5980 -18.6625 6.9831
# 5 -1.8589 6.0203 9.5877 -18.6625 25.8305 -2.2986
# 6 -21.2229 -16.3823 -4.0901 6.9831 -2.2986 34.8004
#
#
#
# Elastic Compliance Matrix: (Units=1/GPa)
#
#
# Indices 1 2 3 4 5 6 
#
# 1 0.014792 -0.004617 0.000167 0.000030 0.002727 0.007041
# 2 -0.004617 0.012563 -0.002239 -0.009729 -0.009086 0.004188
# 3 0.000167 -0.002239 0.012427 -0.002725 -0.005989 0.000659
# 4 0.000030 -0.009729 -0.002725 0.064946 0.048898 -0.014685
# 5 0.002727 -0.009086 -0.005989 0.048898 0.077869 -0.007987
# 6 0.007041 0.004188 0.000659 -0.014685 -0.007987 0.037497
#
#
# Mechanical properties :
#
#
# Convention : Reuss Voigt Hill
#
# Bulk Modulus (GPa) = 37.87427 50.56275 44.21851
# Shear Modulus (GPa) = 20.63784 33.45100 27.04442
#
# Velocity S-wave (km/s) = 3.09290 3.93767 3.54057
# Velocity P-wave (km/s) = 5.50547 6.64157 6.10003
#
# Compressibility (1/GPa) = 0.02640315
#
# Stress axis : x y z
#
# Youngs Moduli (GPa) = 67.60394 79.59627 80.47248
#
# Poissons Ratio (x) = 0.36749 -0.01342
# Poissons Ratio (y) = 0.31212 0.18020
# Poissons Ratio (z) = -0.01128 0.17824
#
# Static dielectric constant tensor:
#      x y z
#    x 1.852590 -0.032170 -0.003660 
#    y -0.032170 1.798430 0.001710 
#    z -0.003660 0.001710 1.909720 
# 
# From -- ./inp_files/610008.got.cif
#   From: 2010.05.17/outbox.cif.g08.bks.cpg/sg2_306_cif.got.tgz:610008.got - 2010.06.03 11:33:40.
