data_PCOD9091844
_publ_section_title
;
Structure prediction by ZEFSAII (Michael W. Deem and Ramdas Pophale) SiO2 
 PCOD9091844
Probable space group: P -1
;
_chemical_formula_sum "Si O2"
_cell_formula_units_Z 14
_cell_length_a 11.205852
_cell_length_b 9.748391
_cell_length_c 11.795647
_cell_angle_alpha 143.161954
_cell_angle_beta 105.230275
_cell_angle_gamma 101.270498
_cell_volume 531.400346
_symmetry_space_group_name_H-M "P -1"
_symmetry_group_IT_number 2
_symmetry_cell_setting 'triclinic'
loop_
_space_group_symop_operation_xyz
x,y,z
-x,-y,-z
loop_
_atom_site_type_symbol
_atom_site_label
_atom_site_fract_x
_atom_site_fract_y
_atom_site_fract_z
Si Si1 0.528235 0.762050 0.067422
Si Si2 0.817738 0.054260 0.782098
Si Si3 0.338186 0.519718 0.097607
Si Si4 0.203650 0.201715 0.181176
Si Si5 0.778750 0.348316 0.662890
Si Si6 0.700684 0.176471 0.022720
Si Si7 0.043655 0.084045 0.436618
O O1 0.543871 0.535339 0.864101
O O2 0.705875 0.053696 0.371142
O O3 0.390925 0.580686 0.018293
O O4 0.469293 0.887647 0.052114
O O5 0.756166 0.758077 0.648144
O O6 0.703491 0.101224 0.840182
O O7 0.843361 0.989393 0.622108
O O8 0.014813 0.387622 0.089777
O O9 0.140568 0.178888 0.843957
O O10 0.322980 0.743880 0.305578
O O11 0.276970 0.496183 0.318190
O O12 0.258285 0.014278 0.034152
O O13 0.000000 0.000000 0.000000
O O14 0.857586 0.556742 0.330893
O O15 0.000000 0.000000 0.500000
#
# Coordination Sequence:
#
# PCOD9091844 Si02
#       7
#     2   2   2   2   2   2   2
#     4  11  22  38  56  84 123 149 187 234 285 343
#     4   8  20  38  58  85 111 144 194 233 283 327
#     4  10  23  39  55  88 116 152 193 227 286 344
#     4   8  18  40  59  84 114 142 198 235 275 340
#     4  10  19  40  62  80 113 159 186 232 286 336
#     4  10  21  38  58  88 113 149 189 235 286 331
#     4  11  20  38  61  86 116 146 191 241 280 336
#
# _framework density 26.345486999999999
#
# number of rings (size 3 to 8) (size 9 to 14) (size 15 to 20)
#    0.857    1.429    1.429    1.286    0.000    2.286 
#    5.143    2.857    0.000    0.000    0.000    0.000 
#    0.000    0.000    0.000    0.000    0.000    0.000 
#
# Total GULP energy -78057.669274 kJ/mol
# GULP energy per Si atom -5575.547805 kJ/mol
# Density = 2.628552 g / cm^3
# Si number density = 26.345487 Si / 1000 Ang^3
#
#
#
# Elastic Constant Matrix: (Units=GPa)
#
#
# Indices 1 2 3 4 5 6 
#
# 1 120.0991 -5.9299 -2.4346 -6.0541 -26.7133 -31.4309
# 2 -5.9299 47.8992 -7.0606 6.0952 -8.8582 -12.9295
# 3 -2.4346 -7.0606 49.2496 6.7524 4.0779 -0.7201
# 4 -6.0541 6.0952 6.7524 22.2357 -3.6303 -8.6745
# 5 -26.7133 -8.8582 4.0779 -3.6303 43.0176 1.8859
# 6 -31.4309 -12.9295 -0.7201 -8.6745 1.8859 41.6860
#
#
#
# Elastic Compliance Matrix: (Units=1/GPa)
#
#
# Indices 1 2 3 4 5 6 
#
# 1 0.015913 0.006975 -0.000393 0.010606 0.011556 0.015839
# 2 0.006975 0.027616 0.003761 -0.000081 0.009065 0.013463
# 3 -0.000393 0.003761 0.022156 -0.008387 -0.002260 -0.000390
# 4 0.010606 -0.000081 -0.008387 0.060041 0.011563 0.019797
# 5 0.011556 0.009065 -0.002260 0.011563 0.032935 0.012402
# 6 0.015839 0.013463 -0.000390 0.019797 0.012402 0.043659
#
#
# Mechanical properties :
#
#
# Convention : Reuss Voigt Hill
#
# Bulk Modulus (GPa) = 11.57776 20.71084 16.14430
# Shear Modulus (GPa) = 23.76164 36.89940 30.33052
#
# Velocity S-wave (km/s) = 3.00646 3.74651 3.39670
# Velocity P-wave (km/s) = 4.05659 5.15689 4.63947
#
# Compressibility (1/GPa) = 0.08637250
#
# Stress axis : x y z
#
# Youngs Moduli (GPa) = 62.84130 36.21115 45.13456
#
# Poissons Ratio (x) = -0.25258 0.01772
# Poissons Ratio (y) = -0.43833 -0.16977
# Poissons Ratio (z) = 0.02468 -0.13620
#
# Static dielectric constant tensor:
#      x y z
#    x 2.066850 -0.044820 0.020630 
#    y -0.044820 2.167590 -0.029910 
#    z 0.020630 -0.029910 2.153810 
# 
# From -- ./inp_files/272306.got.cif
#   From: 2010.05.17/outbox.cif.g08.bks.cpg/sg2_137_cif.got.tgz:272306.got - 2010.06.03 11:33:40.
