data_PCOD9091183
_publ_section_title
;
Structure prediction by ZEFSAII (Michael W. Deem and Ramdas Pophale) SiO2 
 PCOD9091183
Probable space group: P -1
;
_chemical_formula_sum "Si O2"
_cell_formula_units_Z 12
_cell_length_a 12.680943
_cell_length_b 9.106645
_cell_length_c 9.195976
_cell_angle_alpha 77.630533
_cell_angle_beta 36.405902
_cell_angle_gamma 55.225722
_cell_volume 447.696206
_symmetry_space_group_name_H-M "P -1"
_symmetry_group_IT_number 2
_symmetry_cell_setting 'triclinic'
loop_
_space_group_symop_operation_xyz
x,y,z
-x,-y,-z
loop_
_atom_site_type_symbol
_atom_site_label
_atom_site_fract_x
_atom_site_fract_y
_atom_site_fract_z
Si Si1 0.686280 0.295001 0.744447
Si Si2 0.462848 0.013240 0.789572
Si Si3 0.838010 0.206458 0.278711
Si Si4 0.645358 0.105629 0.307084
Si Si5 0.761200 0.628967 0.840849
Si Si6 0.020559 0.192310 0.650147
O O1 0.737299 0.323269 0.518057
O O2 0.924798 0.181784 0.604885
O O3 0.500000 0.500000 0.000000
O O4 0.520707 0.238814 0.925470
O O5 0.492873 0.104000 0.596201
O O6 0.444354 0.861312 0.765807
O O7 0.256795 0.216097 0.068574
O O8 0.716075 0.879718 0.622910
O O9 0.664261 0.258376 0.328282
O O10 0.937634 0.983233 0.267810
O O11 0.087342 0.130460 0.957760
O O12 0.831438 0.424412 0.875429
O O13 0.000000 0.500000 0.500000
#
# Coordination Sequence:
#
# PCOD9091183 Si02
#       6
#     2   2   2   2   2   2
#     4  10  21  38  61  88 124 151 196 255 292 352
#     4  10  21  42  62  88 127 151 201 247 288 364
#     4  10  19  39  64  86 119 158 203 240 294 359
#     4   9  20  37  65  86 116 168 192 241 301 339
#     4  11  24  39  59  91 125 156 192 250 306 348
#     4  10  22  39  63  92 115 157 201 244 304 346
#
# _framework density 26.803891
#
# number of rings (size 3 to 8) (size 9 to 14) (size 15 to 20)
#    0.000    2.000    3.333    0.500    4.667    2.000 
#    0.000    8.333    3.667    0.000    0.000    0.000 
#    0.000    0.000    0.000    0.000    0.000    0.000 
#
# Total GULP energy -66862.216989 kJ/mol
# GULP energy per Si atom -5571.851416 kJ/mol
# Density = 2.674288 g / cm^3
# Si number density = 26.803891 Si / 1000 Ang^3
#
#
#
# Elastic Constant Matrix: (Units=GPa)
#
#
# Indices 1 2 3 4 5 6 
#
# 1 206.7581 25.1794 79.4301 15.1989 16.8796 18.5304
# 2 25.1794 60.2709 15.2241 13.1118 5.2241 -4.2960
# 3 79.4301 15.2241 175.7988 1.8947 32.5574 7.8033
# 4 15.1989 13.1118 1.8947 42.4289 15.6990 -4.4940
# 5 16.8796 5.2241 32.5574 15.6990 58.7951 -1.6499
# 6 18.5304 -4.2960 7.8033 -4.4940 -1.6499 26.8301
#
#
#
# Elastic Compliance Matrix: (Units=1/GPa)
#
#
# Indices 1 2 3 4 5 6 
#
# 1 0.006639 -0.001964 -0.002642 -0.002200 0.000193 -0.004488
# 2 -0.001964 0.018971 -0.001043 -0.005035 0.000910 0.003910
# 3 -0.002642 -0.001043 0.007721 0.002385 -0.004073 -0.000438
# 4 -0.002200 -0.005035 0.002385 0.029204 -0.007915 0.004425
# 5 0.000193 0.000910 -0.004073 -0.007915 0.021274 0.001179
# 6 -0.004488 0.003910 -0.000438 0.004425 0.001179 0.041938
#
#
# Mechanical properties :
#
#
# Convention : Reuss Voigt Hill
#
# Bulk Modulus (GPa) = 45.39064 75.83279 60.61172
# Shear Modulus (GPa) = 34.62837 47.14376 40.88606
#
# Velocity S-wave (km/s) = 3.59822 4.19840 3.90985
# Velocity P-wave (km/s) = 5.85099 7.20106 6.56084
#
# Compressibility (1/GPa) = 0.02203098
#
# Stress axis : x y z
#
# Youngs Moduli (GPa) = 150.62260 52.71198 129.52227
#
# Poissons Ratio (x) = 0.10353 0.34226
# Poissons Ratio (y) = 0.29585 0.13513
# Poissons Ratio (z) = 0.39802 0.05499
#
# Static dielectric constant tensor:
#      x y z
#    x 2.325380 0.014750 -0.041970 
#    y 0.014750 2.365840 -0.113770 
#    z -0.041970 -0.113770 2.126820 
# 
# From -- ./inp_files/259346.got.cif
#   From: 2010.05.17/outbox.cif.g08.bks.cpg/sg2_130_cif.got.tgz:259346.got - 2010.06.03 11:33:40.
