data_PCOD9091987
_publ_section_title
;
Structure prediction by ZEFSAII (Michael W. Deem and Ramdas Pophale) SiO2 
 PCOD9091987
Probable space group: P -1
;
_chemical_formula_sum "Si O2"
_cell_formula_units_Z 16
_cell_length_a 9.194279
_cell_length_b 13.943360
_cell_length_c 12.650500
_cell_angle_alpha 69.687727
_cell_angle_beta 133.817342
_cell_angle_gamma 73.541269
_cell_volume 695.039628
_symmetry_space_group_name_H-M "P -1"
_symmetry_group_IT_number 2
_symmetry_cell_setting 'triclinic'
loop_
_space_group_symop_operation_xyz
x,y,z
-x,-y,-z
loop_
_atom_site_type_symbol
_atom_site_label
_atom_site_fract_x
_atom_site_fract_y
_atom_site_fract_z
Si Si1 0.127310 0.130680 0.783953
Si Si2 0.691687 0.586431 0.096221
Si Si3 0.587520 0.711271 0.377737
Si Si4 0.261292 0.658556 0.698087
Si Si5 0.814499 0.320232 0.760752
Si Si6 0.285766 0.840657 0.962690
Si Si7 0.120083 0.201834 0.168145
Si Si8 0.294752 0.139709 0.498268
O O1 0.892973 0.263759 0.523254
O O2 0.052376 0.216698 0.822918
O O3 0.500000 0.000000 0.000000
O O4 0.093455 0.020894 0.810684
O O5 0.657774 0.492731 0.182336
O O6 0.463456 0.757177 0.972664
O O7 0.066122 0.463045 0.342255
O O8 0.556743 0.611289 0.903180
O O9 0.302987 0.748644 0.249586
O O10 0.566412 0.729815 0.234014
O O11 0.534839 0.841755 0.353527
O O12 0.986925 0.789674 0.596952
O O13 0.500000 0.500000 0.500000
O O14 0.932512 0.321354 0.929725
O O15 0.058338 0.833113 0.873264
O O16 0.162992 0.242090 0.284760
O O17 0.459361 0.040249 0.349827
#
# Coordination Sequence:
#
# PCOD9091987 Si02
#       8
#     2   2   2   2   2   2   2   2
#     4  12  26  41  64  95 132 165 207 263 318 369
#     4  10  21  39  64  93 122 169 207 257 311 372
#     4  10  22  39  65  88 123 162 221 252 306 375
#     4  10  22  39  64  94 131 159 209 259 315 371
#     4  11  26  42  62  92 127 169 207 260 313 370
#     4  11  22  39  65  93 123 166 210 259 309 372
#     4  10  21  39  66  88 124 159 213 255 310 378
#     4  10  19  40  64  93 116 165 204 264 308 369
#
# _framework density 23.020268000000002
#
# number of rings (size 3 to 8) (size 9 to 14) (size 15 to 20)
#    0.000    1.500    1.250    4.125    5.250    2.500 
#    0.000    3.750    0.000    0.000    0.000    0.000 
#    0.000    0.000    0.000    0.000    0.000    0.000 
#
# Total GULP energy -89442.018440 kJ/mol
# GULP energy per Si atom -5590.126153 kJ/mol
# Density = 2.296787 g / cm^3
# Si number density = 23.020268 Si / 1000 Ang^3
#
#
#
# Elastic Constant Matrix: (Units=GPa)
#
#
# Indices 1 2 3 4 5 6 
#
# 1 29.7954 0.3257 6.1347 0.9328 3.1611 -15.8382
# 2 0.3257 38.2274 -9.1797 9.2786 8.3332 -4.7979
# 3 6.1347 -9.1797 97.1699 22.8759 -10.6118 -0.5956
# 4 0.9328 9.2786 22.8759 44.8570 -8.7335 -0.1430
# 5 3.1611 8.3332 -10.6118 -8.7335 29.9523 -2.0847
# 6 -15.8382 -4.7979 -0.5956 -0.1430 -2.0847 18.5514
#
#
#
# Elastic Compliance Matrix: (Units=1/GPa)
#
#
# Indices 1 2 3 4 5 6 
#
# 1 0.065111 0.007954 -0.003173 -0.002565 -0.007008 0.056736
# 2 0.007954 0.034187 0.004318 -0.011572 -0.011191 0.014424
# 3 -0.003173 0.004318 0.012711 -0.007017 0.001516 -0.001068
# 4 -0.002565 -0.011572 -0.007017 0.030157 0.009511 -0.004106
# 5 -0.007008 -0.011191 0.001516 0.009511 0.040256 -0.004232
# 6 0.056736 0.014424 -0.001068 -0.004106 -0.004232 0.105532
#
#
# Mechanical properties :
#
#
# Convention : Reuss Voigt Hill
#
# Bulk Modulus (GPa) = 7.68007 17.75047 12.71527
# Shear Modulus (GPa) = 15.96639 29.86627 22.91633
#
# Velocity S-wave (km/s) = 2.63645 3.60584 3.15855
# Velocity P-wave (km/s) = 3.55123 5.00636 4.34021
#
# Compressibility (1/GPa) = 0.13020718
#
# Stress axis : x y z
#
# Youngs Moduli (GPa) = 15.35832 29.25088 78.67438
#
# Poissons Ratio (x) = -0.23267 0.24964
# Poissons Ratio (y) = -0.12216 -0.33972
# Poissons Ratio (z) = 0.04873 -0.12630
#
# Static dielectric constant tensor:
#      x y z
#    x 1.934640 0.025980 -0.020300 
#    y 0.025980 1.844330 0.020850 
#    z -0.020300 0.020850 1.916400 
# 
# From -- ./inp_files/205607.got.cif
#   From: 2010.05.17/outbox.cif.g08.bks.cpg/sg2_103_cif.got.tgz:205607.got - 2010.06.03 11:33:40.
