data_PCOD9091435
_publ_section_title
;
Structure prediction by ZEFSAII (Michael W. Deem and Ramdas Pophale) SiO2 
 PCOD9091435
Probable space group: P -1
;
_chemical_formula_sum "Si O2"
_cell_formula_units_Z 14
_cell_length_a 7.484492
_cell_length_b 14.029668
_cell_length_c 9.660273
_cell_angle_alpha 114.351948
_cell_angle_beta 93.063848
_cell_angle_gamma 130.510717
_cell_volume 622.432325
_symmetry_space_group_name_H-M "P -1"
_symmetry_group_IT_number 2
_symmetry_cell_setting 'triclinic'
loop_
_space_group_symop_operation_xyz
x,y,z
-x,-y,-z
loop_
_atom_site_type_symbol
_atom_site_label
_atom_site_fract_x
_atom_site_fract_y
_atom_site_fract_z
Si Si1 0.664521 0.943414 0.019016
Si Si2 0.825911 0.583857 0.988016
Si Si3 0.363678 0.568621 0.577397
Si Si4 0.279442 0.389460 0.724255
Si Si5 0.107077 0.652339 0.778142
Si Si6 0.922301 0.857747 0.623056
Si Si7 0.938321 0.875867 0.110773
O O1 0.359328 0.837790 0.919052
O O2 0.690796 0.832421 0.006845
O O3 0.832748 0.021255 0.933401
O O4 0.837574 0.072425 0.223542
O O5 0.523087 0.438132 0.840494
O O6 0.004409 0.595339 0.897225
O O7 0.845608 0.584866 0.154492
O O8 0.884735 0.733169 0.055146
O O9 0.387404 0.496458 0.659039
O O10 0.231181 0.611060 0.671555
O O11 0.640231 0.719229 0.606888
O O12 0.152455 0.432978 0.374725
O O13 0.083459 0.217000 0.555460
O O14 0.967893 0.001965 0.694091
#
# Coordination Sequence:
#
# PCOD9091435 Si02
#       7
#     2   2   2   2   2   2   2
#     4   9  18  35  62  90 118 151 196 248 303 336
#     4  11  24  39  61  91 123 162 202 237 305 363
#     4  11  22  39  65  92 120 151 209 252 298 342
#     4  11  24  41  61  86 124 169 198 240 294 373
#     4  11  22  37  62  97 119 152 198 262 298 344
#     4  10  19  39  66  89 115 159 202 250 288 359
#     4   9  19  37  64  88 119 157 200 241 298 364
#
# _framework density 22.492407
#
# number of rings (size 3 to 8) (size 9 to 14) (size 15 to 20)
#    0.857    0.857    2.857    2.143    2.000    1.714 
#    0.000    0.714    0.000    0.000    0.000    0.000 
#    0.000    0.000    0.000    0.000    0.000    0.000 
#
# Total GULP energy -78080.532606 kJ/mol
# GULP energy per Si atom -5577.180900 kJ/mol
# Density = 2.244121 g / cm^3
# Si number density = 22.492407 Si / 1000 Ang^3
#
#
#
# Elastic Constant Matrix: (Units=GPa)
#
#
# Indices 1 2 3 4 5 6 
#
# 1 65.5103 22.5737 37.5702 -0.2456 -0.6493 7.0128
# 2 22.5737 59.7167 34.6583 8.1565 7.4796 14.2193
# 3 37.5702 34.6583 172.5879 21.6836 -3.7647 26.8145
# 4 -0.2456 8.1565 21.6836 38.6671 11.5636 -6.8803
# 5 -0.6493 7.4796 -3.7647 11.5636 24.6062 5.2593
# 6 7.0128 14.2193 26.8145 -6.8803 5.2593 37.1065
#
#
#
# Elastic Compliance Matrix: (Units=1/GPa)
#
#
# Indices 1 2 3 4 5 6 
#
# 1 0.019366 -0.006110 -0.003913 0.004257 -0.000745 0.002404
# 2 -0.006110 0.022668 -0.001908 -0.003552 -0.004351 -0.006195
# 3 -0.003913 -0.001908 0.009576 -0.008788 0.007822 -0.008187
# 4 0.004257 -0.003552 -0.008788 0.041853 -0.023674 0.018023
# 5 -0.000745 -0.004351 0.007822 -0.023674 0.057775 -0.016423
# 6 0.002404 -0.006195 -0.008187 0.018023 -0.016423 0.040455
#
#
# Mechanical properties :
#
#
# Convention : Reuss Voigt Hill
#
# Bulk Modulus (GPa) = 36.04031 54.15769 45.09900
# Shear Modulus (GPa) = 22.24153 33.61012 27.92582
#
# Velocity S-wave (km/s) = 3.14800 3.86980 3.52741
# Velocity P-wave (km/s) = 5.41030 6.64060 6.05677
#
# Compressibility (1/GPa) = 0.02774671
#
# Stress axis : x y z
#
# Youngs Moduli (GPa) = 51.63785 44.11525 104.42707
#
# Poissons Ratio (x) = 0.26954 0.40866
# Poissons Ratio (y) = 0.31550 0.19927
# Poissons Ratio (z) = 0.20207 0.08418
#
# Static dielectric constant tensor:
#      x y z
#    x 1.881970 -0.047060 -0.029530 
#    y -0.047060 1.851520 0.015150 
#    z -0.029530 0.015150 1.891870 
# 
# From -- ./inp_files/218250.got.cif
#   From: 2010.05.17/outbox.cif.g08.bks.cpg/sg2_110_cif.got.tgz:218250.got - 2010.06.03 11:33:40.
