data_PCOD9091554
_publ_section_title
;
Structure prediction by ZEFSAII (Michael W. Deem and Ramdas Pophale) SiO2 
 PCOD9091554
Probable space group: P -1
;
_chemical_formula_sum "Si O2"
_cell_formula_units_Z 14
_cell_length_a 20.222413
_cell_length_b 9.176723
_cell_length_c 5.498197
_cell_angle_alpha 75.801182
_cell_angle_beta 89.560115
_cell_angle_gamma 38.656040
_cell_volume 588.701603
_symmetry_space_group_name_H-M "P -1"
_symmetry_group_IT_number 2
_symmetry_cell_setting 'triclinic'
loop_
_space_group_symop_operation_xyz
x,y,z
-x,-y,-z
loop_
_atom_site_type_symbol
_atom_site_label
_atom_site_fract_x
_atom_site_fract_y
_atom_site_fract_z
Si Si1 0.985500 0.161089 0.120377
Si Si2 0.400570 0.739831 0.566933
Si Si3 0.080305 0.424473 0.332235
Si Si4 0.748524 0.635072 0.134275
Si Si5 0.266279 0.014094 0.855048
Si Si6 0.184267 0.976989 0.247787
Si Si7 0.619797 0.861690 0.561230
O O1 0.879875 0.351724 0.229087
O O2 0.954035 0.356753 0.864272
O O3 0.108018 0.973471 0.304518
O O4 0.000000 0.000000 0.000000
O O5 0.500000 0.500000 0.500000
O O6 0.298017 0.817688 0.442587
O O7 0.384522 0.754087 0.852369
O O8 0.401814 0.920534 0.483263
O O9 0.195593 0.218629 0.558016
O O10 0.000000 0.500000 0.500000
O O11 0.100368 0.264550 0.194831
O O12 0.736205 0.840773 0.022730
O O13 0.685602 0.715024 0.360197
O O14 0.689655 0.680022 0.872041
O O15 0.211727 0.960881 0.973438
O O16 0.500000 0.000000 0.500000
#
# Coordination Sequence:
#
# PCOD9091554 Si02
#       7
#     2   2   2   2   2   2   2
#     4  12  25  41  65 107 145 176 226 300 360 409
#     4  10  23  41  63 100 128 169 233 293 345 404
#     4  11  20  37  68  92 126 186 233 268 332 430
#     4  11  22  45  68 101 136 187 235 283 346 435
#     4  10  19  39  67  93 124 175 237 274 326 424
#     4  11  21  41  66  92 131 180 233 267 347 427
#     4  11  24  46  72  98 134 186 238 287 351 424
#
# _framework density 23.781147000000001
#
# number of rings (size 3 to 8) (size 9 to 14) (size 15 to 20)
#    0.000    1.143    4.286    3.429    0.000    1.714 
#    2.571    6.429    0.000    0.000    0.000    0.000 
#    0.000    0.000    0.000    0.000    0.000    0.000 
#
# Total GULP energy -77980.851892 kJ/mol
# GULP energy per Si atom -5570.060849 kJ/mol
# Density = 2.372702 g / cm^3
# Si number density = 23.781147 Si / 1000 Ang^3
#
#
#
# Elastic Constant Matrix: (Units=GPa)
#
#
# Indices 1 2 3 4 5 6 
#
# 1 154.6366 77.3018 42.8173 15.3299 19.1277 -33.2517
# 2 77.3018 158.6024 27.6880 40.9047 -2.2145 -31.5587
# 3 42.8173 27.6880 75.4712 20.7231 1.4003 -8.8616
# 4 15.3299 40.9047 20.7231 29.8348 -8.7424 -3.7854
# 5 19.1277 -2.2145 1.4003 -8.7424 44.7410 -0.2054
# 6 -33.2517 -31.5587 -8.8616 -3.7854 -0.2054 42.6564
#
#
#
# Elastic Compliance Matrix: (Units=1/GPa)
#
#
# Indices 1 2 3 4 5 6 
#
# 1 0.011400 -0.004694 -0.005066 0.003439 -0.004254 0.004646
# 2 -0.004694 0.013910 0.003340 -0.018555 -0.001009 0.005675
# 3 -0.005066 0.003340 0.019360 -0.015668 -0.001331 0.001147
# 4 0.003439 -0.018555 -0.015668 0.070532 0.011847 -0.007986
# 5 -0.004254 -0.001009 -0.001331 0.011847 0.026462 -0.003161
# 6 0.004646 0.005675 0.001147 -0.007986 -0.003161 0.030778
#
#
# Mechanical properties :
#
#
# Convention : Reuss Voigt Hill
#
# Bulk Modulus (GPa) = 31.41541 76.03604 53.72573
# Shear Modulus (GPa) = 25.52415 39.50664 32.51540
#
# Velocity S-wave (km/s) = 3.27967 4.08028 3.70168
# Velocity P-wave (km/s) = 5.25172 7.36484 6.39615
#
# Compressibility (1/GPa) = 0.03183152
#
# Stress axis : x y z
#
# Youngs Moduli (GPa) = 87.71740 71.88835 51.65200
#
# Poissons Ratio (x) = 0.33744 0.26164
# Poissons Ratio (y) = 0.41174 -0.17250
# Poissons Ratio (z) = 0.44433 -0.24009
#
# Static dielectric constant tensor:
#      x y z
#    x 1.935930 -0.089660 0.112220 
#    y -0.089660 1.954190 0.021250 
#    z 0.112220 0.021250 1.969110 
# 
# From -- ./inp_files/116161.got.cif
#   From: 2010.05.17/outbox.cif.g08.bks.cpg/sg2_59_cif.got.tgz:116161.got - 2010.06.03 11:33:40.
