data_PCOD9091778
_publ_section_title
;
Structure prediction by ZEFSAII (Michael W. Deem and Ramdas Pophale) SiO2 
 PCOD9091778
Probable space group: P -1
;
_chemical_formula_sum "Si O2"
_cell_formula_units_Z 14
_cell_length_a 5.378202
_cell_length_b 11.331149
_cell_length_c 11.018671
_cell_angle_alpha 92.795935
_cell_angle_beta 113.589757
_cell_angle_gamma 82.674194
_cell_volume 610.352363
_symmetry_space_group_name_H-M "P -1"
_symmetry_group_IT_number 2
_symmetry_cell_setting 'triclinic'
loop_
_space_group_symop_operation_xyz
x,y,z
-x,-y,-z
loop_
_atom_site_type_symbol
_atom_site_label
_atom_site_fract_x
_atom_site_fract_y
_atom_site_fract_z
Si Si1 0.840994 0.574734 0.154880
Si Si2 0.173634 0.870198 0.015420
Si Si3 0.593408 0.864415 0.472881
Si Si4 0.091061 0.798032 0.257582
Si Si5 0.732046 0.803425 0.754563
Si Si6 0.649557 0.959914 0.227457
Si Si7 0.395410 0.427913 0.156736
O O1 0.663045 0.495871 0.199461
O O2 0.899454 0.696331 0.235280
O O3 0.134856 0.509155 0.167236
O O4 0.676356 0.601827 0.998338
O O5 0.165475 0.789140 0.129549
O O6 0.483880 0.900742 0.085353
O O7 0.026096 0.807134 0.876589
O O8 0.000000 0.000000 0.000000
O O9 0.339802 0.790154 0.397601
O O10 0.765355 0.808559 0.616374
O O11 0.691860 0.884314 0.356851
O O12 0.500000 0.000000 0.500000
O O13 0.959721 0.937890 0.243582
O O14 0.593158 0.690869 0.768160
O O15 0.521464 0.916812 0.764710
#
# Coordination Sequence:
#
# PCOD9091778 Si02
#       7
#     2   2   2   2   2   2   2
#     4  10  23  40  67  88 131 167 219 263 324 378
#     4   9  19  35  56  91 120 154 201 266 316 377
#     4   9  21  40  59  88 127 170 201 255 319 395
#     4  11  21  39  62  92 121 171 206 258 322 387
#     4  10  19  40  59  92 125 160 214 263 320 372
#     4   9  21  37  62  89 125 163 205 258 326 387
#     4  10  22  43  61  97 122 172 215 270 318 376
#
# _framework density 22.937570999999998
#
# number of rings (size 3 to 8) (size 9 to 14) (size 15 to 20)
#    0.000    2.286    1.429    0.857    4.000    5.714 
#   12.857    1.429    0.000    0.000    0.000    0.000 
#    0.000    0.000    0.000    0.000    0.000    0.000 
#
# Total GULP energy -78086.530504 kJ/mol
# GULP energy per Si atom -5577.609322 kJ/mol
# Density = 2.288536 g / cm^3
# Si number density = 22.937571 Si / 1000 Ang^3
#
#
#
# Elastic Constant Matrix: (Units=GPa)
#
#
# Indices 1 2 3 4 5 6 
#
# 1 49.5319 29.6204 31.2745 0.9660 -12.4701 14.9344
# 2 29.6204 100.2492 39.2321 5.8179 -12.8370 20.9397
# 3 31.2745 39.2321 154.2672 10.0312 -7.3715 15.2607
# 4 0.9660 5.8179 10.0312 29.5285 6.5866 -2.2300
# 5 -12.4701 -12.8370 -7.3715 6.5866 19.6345 -5.6048
# 6 14.9344 20.9397 15.2607 -2.2300 -5.6048 37.3006
#
#
#
# Elastic Compliance Matrix: (Units=1/GPa)
#
#
# Indices 1 2 3 4 5 6 
#
# 1 0.030639 -0.004318 -0.003631 -0.002594 0.014328 -0.006360
# 2 -0.004318 0.013807 -0.001671 -0.003599 0.005515 -0.004725
# 3 -0.003631 -0.001671 0.007893 -0.002321 0.000068 -0.000966
# 4 -0.002594 -0.003599 -0.002321 0.039539 -0.017048 0.003811
# 5 0.014328 0.005515 0.000068 -0.017048 0.069544 0.000570
# 6 -0.006360 -0.004725 -0.000966 0.003811 0.000570 0.032717
#
#
# Mechanical properties :
#
#
# Convention : Reuss Voigt Hill
#
# Bulk Modulus (GPa) = 30.21231 56.03358 43.12295
# Shear Modulus (GPa) = 22.28055 30.88747 26.58401
#
# Velocity S-wave (km/s) = 3.12004 3.67357 3.40806
# Velocity P-wave (km/s) = 5.11661 6.51730 5.85896
#
# Compressibility (1/GPa) = 0.03309909
#
# Stress axis : x y z
#
# Youngs Moduli (GPa) = 32.63804 72.42724 126.69406
#
# Poissons Ratio (x) = 0.31277 0.46000
# Poissons Ratio (y) = 0.14094 0.21169
# Poissons Ratio (z) = 0.11850 0.12102
#
# Static dielectric constant tensor:
#      x y z
#    x 2.024500 -0.010700 -0.034150 
#    y -0.010700 1.899990 0.004470 
#    z -0.034150 0.004470 1.839810 
# 
# From -- ./inp_files/60754.got.cif
#   From: 2010.05.17/outbox.cif.g08.bks.cpg/sg2_31_cif.got.tgz:60754.got - 2010.06.03 11:33:40.
