data_PCOD9091926
_publ_section_title
;
Structure prediction by ZEFSAII (Michael W. Deem and Ramdas Pophale) SiO2 
 PCOD9091926
Probable space group: P -1
;
_chemical_formula_sum "Si O2"
_cell_formula_units_Z 14
_cell_length_a 14.866344
_cell_length_b 15.003130
_cell_length_c 9.405367
_cell_angle_alpha 38.022806
_cell_angle_beta 141.908644
_cell_angle_gamma 152.070260
_cell_volume 574.337499
_symmetry_space_group_name_H-M "P -1"
_symmetry_group_IT_number 2
_symmetry_cell_setting 'triclinic'
loop_
_space_group_symop_operation_xyz
x,y,z
-x,-y,-z
loop_
_atom_site_type_symbol
_atom_site_label
_atom_site_fract_x
_atom_site_fract_y
_atom_site_fract_z
Si Si1 0.915680 0.068151 0.002092
Si Si2 0.453930 0.754336 0.886302
Si Si3 0.318410 0.531286 0.394809
Si Si4 0.891807 0.088505 0.642472
Si Si5 0.458227 0.639437 0.736526
Si Si6 0.311694 0.824272 0.885112
Si Si7 0.279726 0.343229 0.322049
O O1 0.080505 0.201606 0.159823
O O2 0.947418 0.181236 0.754052
O O3 0.945725 0.922551 0.176246
O O4 0.692997 0.939522 0.942199
O O5 0.385291 0.680638 0.730655
O O6 0.375423 0.826909 0.799004
O O7 0.396031 0.565013 0.129194
O O8 0.310390 0.534567 0.549643
O O9 0.234074 0.342791 0.430499
O O10 0.562621 0.678243 0.481039
O O11 0.238658 0.625498 0.113482
O O12 0.855389 0.170265 0.362713
O O13 0.672595 0.858923 0.682081
O O14 0.500000 0.500000 0.000000
O O15 0.500000 0.000000 0.000000
#
# Coordination Sequence:
#
# PCOD9091926 Si02
#       7
#     2   2   2   2   2   2   2
#     4  10  20  39  66  96 124 161 221 269 307 374
#     4  10  23  36  70  98 116 170 222 257 312 384
#     4  10  20  35  63  87 125 170 205 256 324 375
#     4  10  21  37  63  95 130 168 205 267 326 374
#     4  11  18  35  62  94 120 160 218 262 302 371
#     4  11  21  41  62  93 134 172 202 258 336 382
#     4  10  19  40  63  93 128 166 212 268 317 367
#
# _framework density 24.375910000000001
#
# number of rings (size 3 to 8) (size 9 to 14) (size 15 to 20)
#    0.000    1.714    4.286    0.000    0.000    2.286 
#    0.000   14.286    0.000   21.429    0.000    0.000 
#    0.000    0.000    0.000    0.000    0.000    0.000 
#
# Total GULP energy -78275.470491 kJ/mol
# GULP energy per Si atom -5591.105035 kJ/mol
# Density = 2.432043 g / cm^3
# Si number density = 24.375910 Si / 1000 Ang^3
#
#
#
# Elastic Constant Matrix: (Units=GPa)
#
#
# Indices 1 2 3 4 5 6 
#
# 1 110.6628 16.7957 28.1480 19.6024 -32.9339 -23.5640
# 2 16.7957 80.4304 21.7031 31.3343 -22.2269 -24.2265
# 3 28.1480 21.7031 138.6614 24.8680 -11.5077 -11.0176
# 4 19.6024 31.3343 24.8680 47.6198 -14.4071 -18.6545
# 5 -32.9339 -22.2269 -11.5077 -14.4071 37.7558 11.4502
# 6 -23.5640 -24.2265 -11.0176 -18.6545 11.4502 37.8213
#
#
#
# Elastic Compliance Matrix: (Units=1/GPa)
#
#
# Indices 1 2 3 4 5 6 
#
# 1 0.013755 0.002803 -0.001671 -0.000934 0.010930 0.006109
# 2 0.002803 0.019940 -0.000902 -0.008262 0.008444 0.007625
# 3 -0.001671 -0.000902 0.008207 -0.003482 -0.000582 -0.000769
# 4 -0.000934 -0.008262 -0.003482 0.032902 0.003284 0.008345
# 5 0.010930 0.008444 -0.000582 0.003284 0.041755 0.001028
# 6 0.006109 0.007625 -0.000769 0.008345 0.001028 0.038711
#
#
# Mechanical properties :
#
#
# Convention : Reuss Voigt Hill
#
# Bulk Modulus (GPa) = 23.60531 51.44980 37.52756
# Shear Modulus (GPa) = 29.59785 42.17992 35.88888
#
# Velocity S-wave (km/s) = 3.48835 4.16431 3.84123
# Velocity P-wave (km/s) = 5.09212 6.65392 5.92471
#
# Compressibility (1/GPa) = 0.04236334
#
# Stress axis : x y z
#
# Youngs Moduli (GPa) = 72.69959 50.15046 121.84388
#
# Poissons Ratio (x) = -0.14057 0.20360
# Poissons Ratio (y) = -0.20378 0.10986
# Poissons Ratio (z) = 0.12148 0.04522
#
# Static dielectric constant tensor:
#      x y z
#    x 1.982200 -0.005950 -0.065690 
#    y -0.005950 1.976320 -0.018900 
#    z -0.065690 -0.018900 1.942550 
# 
# From -- ./inp_files/314524.got.cif
#   From: 2010.05.17/outbox.cif.g08.bks.cpg/sg2_158_cif.got.tgz:314524.got - 2010.06.03 11:33:40.
