data_PCOD9091246
_publ_section_title
;
Structure prediction by ZEFSAII (Michael W. Deem and Ramdas Pophale) SiO2 
 PCOD9091246
Probable space group: P -1
;
_chemical_formula_sum "Si O2"
_cell_formula_units_Z 14
_cell_length_a 12.296418
_cell_length_b 9.373411
_cell_length_c 8.876925
_cell_angle_alpha 132.509196
_cell_angle_beta 78.025002
_cell_angle_gamma 77.446972
_cell_volume 640.745548
_symmetry_space_group_name_H-M "P -1"
_symmetry_group_IT_number 2
_symmetry_cell_setting 'triclinic'
loop_
_space_group_symop_operation_xyz
x,y,z
-x,-y,-z
loop_
_atom_site_type_symbol
_atom_site_label
_atom_site_fract_x
_atom_site_fract_y
_atom_site_fract_z
Si Si1 0.126681 0.494905 0.019439
Si Si2 0.809388 0.009271 0.118414
Si Si3 0.065558 0.618714 0.473421
Si Si4 0.653547 0.016793 0.424271
Si Si5 0.684193 0.743853 0.797004
Si Si6 0.459016 0.966127 0.236835
Si Si7 0.080119 0.857384 0.061323
O O1 0.098856 0.552334 0.242938
O O2 0.134591 0.685001 0.057844
O O3 0.249683 0.251550 0.786875
O O4 0.000000 0.500000 0.000000
O O5 0.731930 0.100570 0.360685
O O6 0.814112 0.174713 0.113482
O O7 0.958758 0.855255 0.015111
O O8 0.747243 0.877510 0.958019
O O9 0.205513 0.507989 0.427354
O O10 0.000000 0.500000 0.500000
O O11 0.980544 0.883912 0.690329
O O12 0.531993 0.058654 0.388166
O O13 0.612321 0.102608 0.667084
O O14 0.634834 0.852729 0.726226
O O15 0.567712 0.780886 0.965496
#
# Coordination Sequence:
#
# PCOD9091246 Si02
#       7
#     2   2   2   2   2   2   2
#     4  12  23  39  62  95 124 163 199 252 312 371
#     4  10  20  39  58  90 121 161 196 254 293 379
#     4  12  23  39  62  95 124 163 199 252 312 371
#     4  10  19  39  64  93 121 157 215 246 303 363
#     4  10  19  39  64  93 121 157 215 246 303 363
#     4   9  20  35  66  92 113 170 210 253 291 354
#     4  11  23  36  62  93 135 154 194 251 323 360
#
# _framework density 21.849546
#
# number of rings (size 3 to 8) (size 9 to 14) (size 15 to 20)
#    0.000    1.429    5.714    0.429    4.000    0.000 
#    2.571    0.000    0.000   32.571    0.000    0.000 
#    0.000    0.000    0.000    0.000    0.000    0.000 
#
# Total GULP energy -78146.138439 kJ/mol
# GULP energy per Si atom -5581.867031 kJ/mol
# Density = 2.179982 g / cm^3
# Si number density = 21.849546 Si / 1000 Ang^3
#
#
#
# Elastic Constant Matrix: (Units=GPa)
#
#
# Indices 1 2 3 4 5 6 
#
# 1 59.7963 50.7134 31.0277 -5.3681 -9.0349 -3.8801
# 2 50.7134 179.8244 67.7364 -35.1112 -15.3042 8.7353
# 3 31.0277 67.7364 97.8498 -29.5328 -10.8338 11.1585
# 4 -5.3681 -35.1112 -29.5328 46.6867 11.5420 -6.6153
# 5 -9.0349 -15.3042 -10.8338 11.5420 27.0262 -9.3805
# 6 -3.8801 8.7353 11.1585 -6.6153 -9.3805 39.0897
#
#
#
# Elastic Compliance Matrix: (Units=1/GPa)
#
#
# Indices 1 2 3 4 5 6 
#
# 1 0.025816 -0.005953 -0.005801 -0.006202 0.007794 0.006369
# 2 -0.005953 0.009291 -0.003177 0.004180 -0.000166 -0.001093
# 3 -0.005801 -0.003177 0.016747 0.007371 -0.001475 -0.003753
# 4 -0.006202 0.004180 0.007371 0.030925 -0.010265 -0.000884
# 5 0.007794 -0.000166 -0.001475 -0.010265 0.047048 0.010785
# 6 0.006369 -0.001093 -0.003753 -0.000884 0.010785 0.029969
#
#
# Mechanical properties :
#
#
# Convention : Reuss Voigt Hill
#
# Bulk Modulus (GPa) = 45.46495 70.71394 58.08944
# Shear Modulus (GPa) = 25.38223 35.09339 30.23781
#
# Velocity S-wave (km/s) = 3.41204 4.01201 3.72413
# Velocity P-wave (km/s) = 6.03126 7.34139 6.71833
#
# Compressibility (1/GPa) = 0.02199497
#
# Stress axis : x y z
#
# Youngs Moduli (GPa) = 38.73585 107.62693 59.71052
#
# Poissons Ratio (x) = 0.64065 0.34637
# Poissons Ratio (y) = 0.23058 0.18968
# Poissons Ratio (z) = 0.22470 0.34189
#
# Static dielectric constant tensor:
#      x y z
#    x 1.843020 0.030800 -0.007230 
#    y 0.030800 1.827560 -0.023340 
#    z -0.007230 -0.023340 1.863440 
# 
# From -- ./inp_files/240877.got.cif
#   From: 2010.05.17/outbox.cif.g08.bks.cpg/sg2_121_cif.got.tgz:240877.got - 2010.06.03 11:33:40.
