data_PCOD9091007
_publ_section_title
;
Structure prediction by ZEFSAII (Michael W. Deem and Ramdas Pophale) SiO2 
 PCOD9091007
Probable space group: P -1
;
_chemical_formula_sum "Si O2"
_cell_formula_units_Z 16
_cell_length_a 9.435888
_cell_length_b 16.118292
_cell_length_c 11.559691
_cell_angle_alpha 112.930397
_cell_angle_beta 78.558611
_cell_angle_gamma 151.036377
_cell_volume 742.987447
_symmetry_space_group_name_H-M "P -1"
_symmetry_group_IT_number 2
_symmetry_cell_setting 'triclinic'
loop_
_space_group_symop_operation_xyz
x,y,z
-x,-y,-z
loop_
_atom_site_type_symbol
_atom_site_label
_atom_site_fract_x
_atom_site_fract_y
_atom_site_fract_z
Si Si1 0.798822 0.298580 0.416086
Si Si2 0.633831 0.814786 0.464406
Si Si3 0.856557 0.808642 0.113839
Si Si4 0.626324 0.330186 0.831334
Si Si5 0.536642 0.508663 0.184268
Si Si6 0.552122 0.965598 0.863210
Si Si7 0.669918 0.524260 0.566789
Si Si8 0.047724 0.666930 0.124845
O O1 0.475232 0.149906 0.444334
O O2 0.746260 0.239752 0.260471
O O3 0.000000 0.500000 0.500000
O O4 0.995846 0.324535 0.449098
O O5 0.449325 0.708776 0.314096
O O6 0.517865 0.671214 0.488708
O O7 0.000000 0.000000 0.500000
O O8 0.703686 0.822686 0.141832
O O9 0.732200 0.696366 0.193304
O O10 0.699731 0.659771 0.962311
O O11 0.215886 0.990879 0.135624
O O12 0.765525 0.311542 0.836696
O O13 0.867718 0.533210 0.964168
O O14 0.346454 0.437802 0.284934
O O15 0.783876 0.564690 0.193566
O O16 0.721154 0.126697 0.835197
O O17 0.500000 0.000000 0.000000
O O18 0.500000 0.500000 0.500000
#
# Coordination Sequence:
#
# PCOD9091007 Si02
#       8
#     2   2   2   2   2   2   2   2
#     4  10  25  42  59  93 130 171 210 259 334 387
#     4  11  24  42  67  87 128 182 217 263 319 403
#     4   9  17  33  62  90 116 159 214 261 311 383
#     4  10  19  39  62  91 127 156 216 270 324 369
#     4   9  17  34  60  89 122 157 208 265 321 369
#     4  11  22  38  64  92 127 163 215 264 325 382
#     4  11  24  41  61  91 131 169 216 266 329 385
#     4   9  22  35  64  98 120 162 217 276 314 385
#
# _framework density 21.534685
#
# number of rings (size 3 to 8) (size 9 to 14) (size 15 to 20)
#    0.000    2.000    1.250    2.250    7.000    1.000 
#    0.000    1.875    0.000    0.000    0.000    0.000 
#    0.000    0.000    0.000    0.000    0.000    0.000 
#
# Total GULP energy -89205.551845 kJ/mol
# GULP energy per Si atom -5575.346990 kJ/mol
# Density = 2.148567 g / cm^3
# Si number density = 21.534685 Si / 1000 Ang^3
#
#
#
# Elastic Constant Matrix: (Units=GPa)
#
#
# Indices 1 2 3 4 5 6 
#
# 1 166.6343 40.7149 48.1619 -1.6429 4.4996 51.8231
# 2 40.7149 52.5546 25.5998 4.5738 2.7093 27.0821
# 3 48.1619 25.5998 104.5521 2.6353 -5.8087 16.8742
# 4 -1.6429 4.5738 2.6353 26.1441 7.4612 -4.8458
# 5 4.4996 2.7093 -5.8087 7.4612 34.2015 2.0168
# 6 51.8231 27.0821 16.8742 -4.8458 2.0168 37.7857
#
#
#
# Elastic Compliance Matrix: (Units=1/GPa)
#
#
# Indices 1 2 3 4 5 6 
#
# 1 0.011319 0.000388 -0.002954 -0.001537 -0.000823 -0.014636
# 2 0.000388 0.034366 -0.004373 -0.010131 0.000140 -0.024517
# 3 -0.002954 -0.004373 0.011939 -0.001172 0.002927 0.001548
# 4 -0.001537 -0.010131 -0.001172 0.045978 -0.010188 0.016333
# 5 -0.000823 0.000140 0.002927 -0.010188 0.032250 -0.003306
# 6 -0.014636 -0.024517 0.001548 0.016333 -0.003306 0.065691
#
#
# Mechanical properties :
#
#
# Convention : Reuss Voigt Hill
#
# Bulk Modulus (GPa) = 22.85952 61.41045 42.13499
# Shear Modulus (GPa) = 21.73891 33.57724 27.65808
#
# Velocity S-wave (km/s) = 3.18068 3.95298 3.58767
# Velocity P-wave (km/s) = 4.91195 7.02948 6.06386
#
# Compressibility (1/GPa) = 0.04374545
#
# Stress axis : x y z
#
# Youngs Moduli (GPa) = 88.34680 29.09871 83.76233
#
# Poissons Ratio (x) = -0.01130 0.24743
# Poissons Ratio (y) = -0.03431 0.36632
# Poissons Ratio (z) = 0.26097 0.12726
#
# Static dielectric constant tensor:
#      x y z
#    x 1.812260 0.051940 0.005070 
#    y 0.051940 1.825880 0.010980 
#    z 0.005070 0.010980 1.872030 
# 
# From -- ./inp_files/403139.got.cif
#   From: 2010.05.17/outbox.cif.g08.bks.cpg/sg2_202_cif.got.tgz:403139.got - 2010.06.03 11:33:40.
