data_PCOD9091593
_publ_section_title
;
Structure prediction by ZEFSAII (Michael W. Deem and Ramdas Pophale) SiO2 
 PCOD9091593
Probable space group: P -1
;
_chemical_formula_sum "Si O2"
_cell_formula_units_Z 15
_cell_length_a 8.481216
_cell_length_b 23.808372
_cell_length_c 5.016928
_cell_angle_alpha 83.819916
_cell_angle_beta 87.337084
_cell_angle_gamma 144.889849
_cell_volume 563.003783
_symmetry_space_group_name_H-M "P -1"
_symmetry_group_IT_number 2
_symmetry_cell_setting 'triclinic'
loop_
_space_group_symop_operation_xyz
x,y,z
-x,-y,-z
loop_
_atom_site_type_symbol
_atom_site_label
_atom_site_fract_x
_atom_site_fract_y
_atom_site_fract_z
Si Si1 0.298466 0.448050 0.793474
Si Si2 0.458095 0.688329 0.066335
Si Si3 0.112902 0.875234 0.953253
Si Si4 0.000000 0.000000 0.500000
Si Si5 0.013109 0.268678 0.612679
Si Si6 0.396809 0.045271 0.239418
Si Si7 0.507847 0.824713 0.230768
Si Si8 0.611975 0.405335 0.362388
O O1 0.500000 0.500000 0.500000
O O2 0.195870 0.482529 0.763691
O O3 0.092230 0.334475 0.820430
O O4 0.500000 0.500000 0.000000
O O5 0.410431 0.735170 0.175894
O O6 0.385328 0.618903 0.328413
O O7 0.333135 0.628724 0.829817
O O8 0.795660 0.790920 0.931916
O O9 0.325402 0.906077 0.722572
O O10 0.084527 0.818096 0.209392
O O11 0.257743 0.968234 0.054273
O O12 0.182240 0.994880 0.517189
O O13 0.211905 0.093575 0.656437
O O14 0.743360 0.222203 0.548649
O O15 0.291992 0.335773 0.390193
O O16 0.428835 0.117319 0.064569
#
# Coordination Sequence:
#
# PCOD9091593 Si02
#       8
#     2   2   2   1   2   2   2   2
#     4  10  19  39  68 100 130 164 208 265 327 378
#     4  11  23  40  63  94 130 171 209 266 317 387
#     4   9  19  39  57  87 118 162 214 260 318 365
#     4  12  24  38  60  88 122 172 216 268 328 368
#     4   9  21  41  64  95 126 166 216 266 315 393
#     4  10  22  39  59  81 121 164 214 268 313 379
#     4  11  25  41  59  91 129 173 215 265 326 380
#     4  10  22  40  66  95 127 165 213 264 321 378
#
# _framework density 26.642807999999999
#
# number of rings (size 3 to 8) (size 9 to 14) (size 15 to 20)
#    0.000    1.867    1.333    2.800    3.733    0.000 
#    2.400    3.333    0.000    0.000    0.000    0.000 
#    0.000    0.000    0.000    0.000    0.000    0.000 
#
# Total GULP energy -83706.809355 kJ/mol
# GULP energy per Si atom -5580.453957 kJ/mol
# Density = 2.658217 g / cm^3
# Si number density = 26.642808 Si / 1000 Ang^3
#
#
#
# Elastic Constant Matrix: (Units=GPa)
#
#
# Indices 1 2 3 4 5 6 
#
# 1 98.5098 14.2141 4.1183 1.8226 -27.3701 -9.2877
# 2 14.2141 122.9360 32.9279 6.2167 12.8509 -22.1333
# 3 4.1183 32.9279 86.8499 10.7534 10.5684 -2.3984
# 4 1.8226 6.2167 10.7534 32.6051 -14.8828 2.4612
# 5 -27.3701 12.8509 10.5684 -14.8828 37.7856 2.4696
# 6 -9.2877 -22.1333 -2.3984 2.4612 2.4696 48.3732
#
#
#
# Elastic Compliance Matrix: (Units=1/GPa)
#
#
# Indices 1 2 3 4 5 6 
#
# 1 0.014848 -0.003049 -0.002354 0.007551 0.015414 0.000168
# 2 -0.003049 0.011072 -0.002368 -0.005013 -0.007614 0.005007
# 3 -0.002354 -0.002368 0.014476 -0.007863 -0.008045 -0.000007
# 4 0.007551 -0.005013 -0.007863 0.047073 0.028246 -0.005071
# 5 0.015414 -0.007614 -0.008045 0.028246 0.053929 -0.005113
# 6 0.000168 0.005007 -0.000007 -0.005071 -0.005113 0.023514
#
#
# Mechanical properties :
#
#
# Convention : Reuss Voigt Hill
#
# Bulk Modulus (GPa) = 40.23447 45.64626 42.94036
# Shear Modulus (GPa) = 26.49156 40.88847 33.69002
#
# Velocity S-wave (km/s) = 3.15671 3.92176 3.55985
# Velocity P-wave (km/s) = 5.33110 6.13815 5.74880
#
# Compressibility (1/GPa) = 0.02485431
#
# Stress axis : x y z
#
# Youngs Moduli (GPa) = 67.34716 90.31904 69.08090
#
# Poissons Ratio (x) = 0.27540 0.16262
# Poissons Ratio (y) = 0.20535 0.16356
# Poissons Ratio (z) = 0.15853 0.21385
#
# Static dielectric constant tensor:
#      x y z
#    x 2.253960 0.138950 -0.263470 
#    y 0.138950 2.255280 -0.249580 
#    z -0.263470 -0.249580 2.355190 
# 
# From -- ./inp_files/51494.got.cif
#   From: 2010.05.17/outbox.cif.g08.bks.cpg/sg2_26_cif.got.tgz:51494.got - 2010.06.03 11:33:40.
