data_PCOD9091846
_publ_section_title
;
Structure prediction by ZEFSAII (Michael W. Deem and Ramdas Pophale) SiO2 
 PCOD9091846
Probable space group: P -1
;
_chemical_formula_sum "Si O2"
_cell_formula_units_Z 16
_cell_length_a 22.563403
_cell_length_b 17.182994
_cell_length_c 6.785873
_cell_angle_alpha 99.056106
_cell_angle_beta 112.309794
_cell_angle_gamma 22.517323
_cell_volume 781.219634
_symmetry_space_group_name_H-M "P -1"
_symmetry_group_IT_number 2
_symmetry_cell_setting 'triclinic'
loop_
_space_group_symop_operation_xyz
x,y,z
-x,-y,-z
loop_
_atom_site_type_symbol
_atom_site_label
_atom_site_fract_x
_atom_site_fract_y
_atom_site_fract_z
Si Si1 0.921436 0.915776 0.178405
Si Si2 0.227370 0.025351 0.307617
Si Si3 0.919286 0.629962 0.746425
Si Si4 0.878170 0.385804 0.311526
Si Si5 0.273258 0.266543 0.753870
Si Si6 0.108715 0.769465 0.970228
Si Si7 0.423219 0.500775 0.434713
Si Si8 0.176512 0.845384 0.573130
O O1 0.065127 0.718324 0.451241
O O2 0.033709 0.832714 0.116053
O O3 0.773921 0.145620 0.201107
O O4 0.833235 0.944507 0.963604
O O5 0.210389 0.139049 0.307070
O O6 0.070425 0.185525 0.344228
O O7 0.423885 0.748271 0.497288
O O8 0.788682 0.717776 0.499016
O O9 0.115369 0.424867 0.786426
O O10 0.000000 0.500000 0.000000
O O11 0.764553 0.598151 0.287405
O O12 0.777867 0.435527 0.069574
O O13 0.500000 0.000000 0.000000
O O14 0.245935 0.685201 0.136335
O O15 0.923612 0.998694 0.684584
O O16 0.500000 0.500000 0.500000
O O17 0.344964 0.594757 0.598174
O O18 0.000000 0.000000 0.500000
#
# Coordination Sequence:
#
# PCOD9091846 Si02
#       8
#     2   2   2   2   2   2   2   2
#     4  10  19  40  62  83 117 165 207 248 315 369
#     4  10  23  40  61  92 127 161 204 259 318 371
#     4  10  22  44  67  96 139 171 207 275 331 386
#     4   9  20  41  64  87 122 164 201 257 315 376
#     4  10  22  40  68 101 128 168 218 263 328 400
#     4  10  22  39  61  83 121 163 206 255 306 372
#     4  12  24  39  59  89 123 160 207 260 308 365
#     4  11  23  40  61  82 115 165 209 252 309 362
#
# _framework density 20.480796000000002
#
# number of rings (size 3 to 8) (size 9 to 14) (size 15 to 20)
#    0.000    1.750    1.250    3.375    3.500    1.000 
#    4.500    0.000    0.000    0.000    0.000    0.000 
#    0.000    0.000    0.000    0.000    0.000    0.000 
#
# Total GULP energy -89269.573107 kJ/mol
# GULP energy per Si atom -5579.348319 kJ/mol
# Density = 2.043418 g / cm^3
# Si number density = 20.480796 Si / 1000 Ang^3
#
#
#
# Elastic Constant Matrix: (Units=GPa)
#
#
# Indices 1 2 3 4 5 6 
#
# 1 91.1798 35.9937 47.0930 9.3603 4.5360 26.8485
# 2 35.9937 107.8345 45.8524 3.2124 9.1561 28.8676
# 3 47.0930 45.8524 121.6448 16.2605 4.8319 10.3289
# 4 9.3603 3.2124 16.2605 30.3403 3.7414 2.3885
# 5 4.5360 9.1561 4.8319 3.7414 43.8527 6.8654
# 6 26.8485 28.8676 10.3289 2.3885 6.8654 34.9409
#
#
#
# Elastic Compliance Matrix: (Units=1/GPa)
#
#
# Indices 1 2 3 4 5 6 
#
# 1 0.017458 -0.000472 -0.005422 -0.001629 0.000825 -0.011473
# 2 -0.000472 0.013988 -0.004479 0.001962 -0.001011 -0.009805
# 3 -0.005422 -0.004479 0.012261 -0.004766 -0.000169 0.004601
# 4 -0.001629 0.001962 -0.004766 0.036209 -0.002662 -0.000912
# 5 0.000825 -0.001011 -0.000169 -0.002662 0.023841 -0.004252
# 6 -0.011473 -0.009805 0.004601 -0.000912 -0.004252 0.045074
#
#
# Mechanical properties :
#
#
# Convention : Reuss Voigt Hill
#
# Bulk Modulus (GPa) = 43.55194 64.28193 53.91694
# Shear Modulus (GPa) = 28.21180 34.60809 31.40995
#
# Velocity S-wave (km/s) = 3.71546 4.11516 3.92041
# Velocity P-wave (km/s) = 6.30215 7.35078 6.84657
#
# Compressibility (1/GPa) = 0.02296109
#
# Stress axis : x y z
#
# Youngs Moduli (GPa) = 57.27899 71.48989 81.55924
#
# Poissons Ratio (x) = 0.03376 0.44218
# Poissons Ratio (y) = 0.02705 0.36533
# Poissons Ratio (z) = 0.31054 0.32022
#
# Static dielectric constant tensor:
#      x y z
#    x 1.764450 0.025670 -0.001750 
#    y 0.025670 1.804080 -0.018700 
#    z -0.001750 -0.018700 1.740630 
# 
# From -- ./inp_files/124835.got.cif
#   From: 2010.05.17/outbox.cif.g08.bks.cpg/sg2_63_cif.got.tgz:124835.got - 2010.06.03 11:33:40.
