data_PCOD9091966
_publ_section_title
;
Structure prediction by ZEFSAII (Michael W. Deem and Ramdas Pophale) SiO2 
 PCOD9091966
Probable space group: P -1
;
_chemical_formula_sum "Si O2"
_cell_formula_units_Z 16
_cell_length_a 13.641018
_cell_length_b 14.352583
_cell_length_c 13.815289
_cell_angle_alpha 40.519219
_cell_angle_beta 150.268896
_cell_angle_gamma 144.693863
_cell_volume 762.617466
_symmetry_space_group_name_H-M "P -1"
_symmetry_group_IT_number 2
_symmetry_cell_setting 'triclinic'
loop_
_space_group_symop_operation_xyz
x,y,z
-x,-y,-z
loop_
_atom_site_type_symbol
_atom_site_label
_atom_site_fract_x
_atom_site_fract_y
_atom_site_fract_z
Si Si1 0.649924 0.913885 0.719589
Si Si2 0.107662 0.776962 0.191163
Si Si3 0.973462 0.936118 0.810119
Si Si4 0.694347 0.693364 0.223438
Si Si5 0.742891 0.406875 0.393273
Si Si6 0.213693 0.439655 0.397947
Si Si7 0.283750 0.316876 0.353965
Si Si8 0.210006 0.509104 0.960112
O O1 0.772407 0.886418 0.754506
O O2 0.460625 0.731921 0.735966
O O3 0.500000 0.000000 0.500000
O O4 0.841119 0.061852 0.830637
O O5 0.249550 0.698615 0.423350
O O6 0.864110 0.614293 0.097860
O O7 0.126910 0.853210 0.040246
O O8 0.859032 0.866100 0.664180
O O9 0.119649 0.129222 0.788153
O O10 0.692622 0.548592 0.272949
O O11 0.752428 0.661734 0.406582
O O12 0.444950 0.671544 0.018842
O O13 0.000000 0.500000 0.500000
O O14 0.192815 0.352382 0.346728
O O15 0.448224 0.612088 0.459058
O O16 0.999410 0.462230 0.219555
O O17 0.257032 0.422168 0.160507
#
# Coordination Sequence:
#
# PCOD9091966 Si02
#       8
#     2   2   2   2   2   2   2   2
#     4  10  21  37  60  86 120 160 201 248 301 367
#     4  10  21  38  61  85 117 163 200 245 303 354
#     4  11  23  41  58  90 128 156 208 251 302 370
#     4  11  23  39  60  91 129 161 201 258 303 361
#     4  11  22  40  61  89 123 160 206 253 303 362
#     4  10  19  40  64  90 122 161 207 251 311 359
#     4   9  21  37  65  91 119 165 202 257 303 368
#     4  10  20  38  63  91 124 157 212 248 301 369
#
# _framework density 20.980374000000001
#
# number of rings (size 3 to 8) (size 9 to 14) (size 15 to 20)
#    0.000    1.750    1.250    4.500    1.750    1.500 
#    4.500    3.125    0.000    0.000    0.000    0.000 
#    0.000    0.000    0.000    0.000    0.000    0.000 
#
# Total GULP energy -89130.746038 kJ/mol
# GULP energy per Si atom -5570.671627 kJ/mol
# Density = 2.093262 g / cm^3
# Si number density = 20.980374 Si / 1000 Ang^3
#
#
#
# Elastic Constant Matrix: (Units=GPa)
#
#
# Indices 1 2 3 4 5 6 
#
# 1 79.0117 44.3871 33.2060 25.5012 12.7508 -12.2122
# 2 44.3871 143.8251 34.3373 20.1953 14.6985 -4.8205
# 3 33.2060 34.3373 90.4987 15.5117 21.4023 -6.8125
# 4 25.5012 20.1953 15.5117 32.2322 1.7242 -5.4331
# 5 12.7508 14.6985 21.4023 1.7242 29.4043 4.9571
# 6 -12.2122 -4.8205 -6.8125 -5.4331 4.9571 28.7549
#
#
#
# Elastic Compliance Matrix: (Units=1/GPa)
#
#
# Indices 1 2 3 4 5 6 
#
# 1 0.021714 -0.003504 -0.002548 -0.012281 -0.006233 0.006785
# 2 -0.003504 0.008805 -0.001321 -0.002088 -0.001727 -0.000422
# 3 -0.002548 -0.001321 0.015749 -0.003610 -0.010073 0.003482
# 4 -0.012281 -0.002088 -0.003610 0.043570 0.006320 0.000722
# 5 -0.006233 -0.001727 -0.010073 0.006320 0.046587 -0.012160
# 6 0.006785 -0.000422 0.003482 0.000722 -0.012160 0.040645
#
#
# Mechanical properties :
#
#
# Convention : Reuss Voigt Hill
#
# Bulk Modulus (GPa) = 31.72300 59.68847 45.70574
# Shear Modulus (GPa) = 24.71297 31.50530 28.10913
#
# Velocity S-wave (km/s) = 3.43579 3.87932 3.66427
# Velocity P-wave (km/s) = 5.55812 6.96972 6.30356
#
# Compressibility (1/GPa) = 0.03152287
#
# Stress axis : x y z
#
# Youngs Moduli (GPa) = 46.05324 113.56985 63.49600
#
# Poissons Ratio (x) = 0.39797 0.16178
# Poissons Ratio (y) = 0.16138 0.08385
# Poissons Ratio (z) = 0.11734 0.14997
#
# Static dielectric constant tensor:
#      x y z
#    x 1.755870 -0.003230 -0.022830 
#    y -0.003230 1.801480 0.028800 
#    z -0.022830 0.028800 1.809470 
# 
# From -- ./inp_files/534288.got.cif
#   From: 2010.05.17/outbox.cif.g08.bks.cpg/sg2_268_cif.got.tgz:534288.got - 2010.06.03 11:33:40.
