data_PCOD9091297
_publ_section_title
;
Structure prediction by ZEFSAII (Michael W. Deem and Ramdas Pophale) SiO2 
 PCOD9091297
Probable space group: P -1
;
_chemical_formula_sum "Si O2"
_cell_formula_units_Z 16
_cell_length_a 7.649542
_cell_length_b 14.451794
_cell_length_c 10.581466
_cell_angle_alpha 118.416472
_cell_angle_beta 133.690215
_cell_angle_gamma 49.190153
_cell_volume 639.569758
_symmetry_space_group_name_H-M "P -1"
_symmetry_group_IT_number 2
_symmetry_cell_setting 'triclinic'
loop_
_space_group_symop_operation_xyz
x,y,z
-x,-y,-z
loop_
_atom_site_type_symbol
_atom_site_label
_atom_site_fract_x
_atom_site_fract_y
_atom_site_fract_z
Si Si1 0.843499 0.925501 0.871664
Si Si2 0.674240 0.989039 0.206473
Si Si3 0.802328 0.185719 0.492113
Si Si4 0.257126 0.143528 0.481742
Si Si5 0.112928 0.691803 0.006122
Si Si6 0.531228 0.422111 0.654347
Si Si7 0.864619 0.528063 0.809827
Si Si8 0.303798 0.368826 0.728210
O O1 0.517136 0.025182 0.793230
O O2 0.886212 0.842719 0.717705
O O3 0.950784 0.831711 0.979804
O O4 0.000000 0.000000 0.000000
O O5 0.656406 0.115922 0.314645
O O6 0.998822 0.892128 0.339391
O O7 0.500000 0.000000 0.000000
O O8 0.575312 0.322402 0.508457
O O9 0.019610 0.175417 0.487696
O O10 0.286845 0.450254 0.650625
O O11 0.366842 0.237946 0.620767
O O12 0.500000 0.000000 0.500000
O O13 0.199959 0.660227 0.174501
O O14 0.425515 0.641258 0.069417
O O15 0.927688 0.629961 0.851534
O O16 0.575244 0.528973 0.692780
O O17 0.044045 0.420763 0.727546
O O18 0.000000 0.500000 0.000000
#
# Coordination Sequence:
#
# PCOD9091297 Si02
#       8
#     2   2   2   2   2   2   2   2
#     4  12  24  41  62  95 134 173 225 283 337 404
#     4  11  24  38  62  91 133 175 230 281 337 405
#     4  11  22  41  63  94 133 181 226 278 343 404
#     4  12  23  39  62  90 129 183 220 269 339 413
#     4   9  22  37  64  94 129 165 223 277 342 391
#     4   9  20  35  66  94 129 168 221 275 333 407
#     4  10  19  39  65 101 127 167 227 280 334 408
#     4  10  21  38  65  96 131 170 222 269 341 400
#
# _framework density 25.016819000000002
#
# number of rings (size 3 to 8) (size 9 to 14) (size 15 to 20)
#    0.750    0.750    2.500    3.375    1.750    0.000 
#    0.000    0.625    0.000    1.500    0.000    0.000 
#    0.000    0.000    0.000    0.000    0.000    0.000 
#
# Total GULP energy -89208.502630 kJ/mol
# GULP energy per Si atom -5575.531414 kJ/mol
# Density = 2.495988 g / cm^3
# Si number density = 25.016819 Si / 1000 Ang^3
#
#
#
# Elastic Constant Matrix: (Units=GPa)
#
#
# Indices 1 2 3 4 5 6 
#
# 1 121.9728 11.4095 31.0484 5.5129 6.3297 11.6292
# 2 11.4095 71.5194 40.0571 13.4168 10.9366 25.2981
# 3 31.0484 40.0571 161.7012 8.0691 5.7379 16.6040
# 4 5.5129 13.4168 8.0691 40.7139 9.4404 7.8748
# 5 6.3297 10.9366 5.7379 9.4404 51.5870 8.4993
# 6 11.6292 25.2981 16.6040 7.8748 8.4993 33.6686
#
#
#
# Elastic Compliance Matrix: (Units=1/GPa)
#
#
# Indices 1 2 3 4 5 6 
#
# 1 0.008819 0.000461 -0.001519 -0.000457 -0.000531 -0.002402
# 2 0.000461 0.021671 -0.003859 -0.003536 -0.001373 -0.013366
# 3 -0.001519 -0.003859 0.007456 0.000008 0.000225 -0.000311
# 4 -0.000457 -0.003536 0.000008 0.027156 -0.003737 -0.002598
# 5 -0.000531 -0.001373 0.000225 -0.003737 0.020945 -0.003310
# 6 -0.002402 -0.013366 -0.000311 -0.002598 -0.003310 0.042170
#
#
# Mechanical properties :
#
#
# Convention : Reuss Voigt Hill
#
# Bulk Modulus (GPa) = 35.57404 57.80261 46.68833
# Shear Modulus (GPa) = 33.91591 43.37245 38.64418
#
# Velocity S-wave (km/s) = 3.68601 4.16833 3.93457
# Velocity P-wave (km/s) = 5.68916 6.80605 6.27251
#
# Compressibility (1/GPa) = 0.02811038
#
# Stress axis : x y z
#
# Youngs Moduli (GPa) = 113.38587 46.14401 134.12846
#
# Poissons Ratio (x) = -0.02125 0.20377
# Poissons Ratio (y) = -0.05223 0.51765
# Poissons Ratio (z) = 0.17226 0.17809
#
# Static dielectric constant tensor:
#      x y z
#    x 2.126550 0.044520 -0.245390 
#    y 0.044520 2.175370 -0.344870 
#    z -0.245390 -0.344870 2.801170 
# 
# From -- ./inp_files/399486.got.cif
#   From: 2010.05.17/outbox.cif.g08.bks.cpg/sg2_200_cif.got.tgz:399486.got - 2010.06.03 11:33:40.
