data_PCOD9091239
_publ_section_title
;
Structure prediction by ZEFSAII (Michael W. Deem and Ramdas Pophale) SiO2 
 PCOD9091239
Probable space group: P -1
;
_chemical_formula_sum "Si O2"
_cell_formula_units_Z 16
_cell_length_a 8.953653
_cell_length_b 7.088527
_cell_length_c 15.513771
_cell_angle_alpha 105.619581
_cell_angle_beta 42.647326
_cell_angle_gamma 107.299184
_cell_volume 634.950544
_symmetry_space_group_name_H-M "P -1"
_symmetry_group_IT_number 2
_symmetry_cell_setting 'triclinic'
loop_
_space_group_symop_operation_xyz
x,y,z
-x,-y,-z
loop_
_atom_site_type_symbol
_atom_site_label
_atom_site_fract_x
_atom_site_fract_y
_atom_site_fract_z
Si Si1 0.488862 0.516258 0.188095
Si Si2 0.861993 0.003983 0.799638
Si Si3 0.944610 0.738443 0.587072
Si Si4 0.766530 0.510473 0.482684
Si Si5 0.162261 0.237226 0.825361
Si Si6 0.744084 0.411859 0.287329
Si Si7 0.534043 0.781118 0.043578
Si Si8 0.738196 0.164234 0.108303
O O1 0.238905 0.430783 0.310896
O O2 0.599846 0.698120 0.223870
O O3 0.518364 0.588632 0.086397
O O4 0.622569 0.337143 0.133901
O O5 0.905069 0.935054 0.676693
O O6 0.702365 0.172685 0.886079
O O7 0.719140 0.828198 0.895511
O O8 0.091737 0.076958 0.760988
O O9 0.893573 0.702574 0.503676
O O10 0.176055 0.677493 0.511455
O O11 0.831775 0.462213 0.351784
O O12 0.508847 0.538775 0.597227
O O13 0.119486 0.437268 0.818904
O O14 0.988033 0.185614 0.969779
O O15 0.733806 0.202109 0.217330
O O16 0.608245 0.962537 0.101334
#
# Coordination Sequence:
#
# PCOD9091239 Si02
#       8
#     2   2   2   2   2   2   2   2
#     4  11  21  38  64  90 126 165 205 247 306 373
#     4  10  22  41  58  91 133 157 200 260 309 372
#     4  11  22  41  61  88 123 165 213 256 305 362
#     4  10  22  37  65  84 120 170 215 255 300 361
#     4  10  22  38  64  94 128 155 204 259 308 378
#     4  10  19  39  64  92 120 164 213 250 310 366
#     4  10  22  38  63  93 130 164 195 255 318 373
#     4  10  20  41  65  94 130 159 200 256 316 371
#
# _framework density 25.198813999999999
#
# number of rings (size 3 to 8) (size 9 to 14) (size 15 to 20)
#    0.000    1.750    3.750    1.500    1.750    5.500 
#    0.000    1.250   11.000    0.000    0.000    0.000 
#    0.000    0.000    0.000    0.000    0.000    0.000 
#
# Total GULP energy -89421.532081 kJ/mol
# GULP energy per Si atom -5588.845755 kJ/mol
# Density = 2.514146 g / cm^3
# Si number density = 25.198814 Si / 1000 Ang^3
#
#
#
# Elastic Constant Matrix: (Units=GPa)
#
#
# Indices 1 2 3 4 5 6 
#
# 1 118.2158 26.1747 33.9587 2.2770 28.3848 16.8468
# 2 26.1747 52.7916 7.3033 -0.8391 10.6221 6.5576
# 3 33.9587 7.3033 81.7588 29.3371 27.8802 17.6370
# 4 2.2770 -0.8391 29.3371 36.2480 10.5197 14.9648
# 5 28.3848 10.6221 27.8802 10.5197 52.6294 4.4783
# 6 16.8468 6.5576 17.6370 14.9648 4.4783 42.4380
#
#
#
# Elastic Compliance Matrix: (Units=1/GPa)
#
#
# Indices 1 2 3 4 5 6 
#
# 1 0.012026 -0.003962 -0.004364 0.005473 -0.004142 -0.003841
# 2 -0.003962 0.021738 0.000326 0.002271 -0.002669 -0.002441
# 3 -0.004364 0.000326 0.021796 -0.014979 -0.006141 -0.001446
# 4 0.005473 0.002271 -0.014979 0.045366 -0.003528 -0.011923
# 5 -0.004142 -0.002669 -0.006141 -0.003528 0.025462 0.003166
# 6 -0.003841 -0.002441 -0.001446 -0.011923 0.003166 0.029937
#
#
# Mechanical properties :
#
#
# Convention : Reuss Voigt Hill
#
# Bulk Modulus (GPa) = 25.27806 43.07106 34.17456
# Shear Modulus (GPa) = 26.95241 38.61839 32.78540
#
# Velocity S-wave (km/s) = 3.27401 3.91902 3.61095
# Velocity P-wave (km/s) = 4.93410 6.13253 5.56567
#
# Compressibility (1/GPa) = 0.03956000
#
# Stress axis : x y z
#
# Youngs Moduli (GPa) = 83.15081 46.00250 45.88066
#
# Poissons Ratio (x) = 0.18224 0.20022
# Poissons Ratio (y) = 0.32941 -0.01494
# Poissons Ratio (z) = 0.36287 -0.01498
#
# Static dielectric constant tensor:
#      x y z
#    x 2.044660 0.009570 0.029540 
#    y 0.009570 2.073870 0.037960 
#    z 0.029540 0.037960 2.003730 
# 
# From -- ./inp_files/493323.got.cif
#   From: 2010.05.17/outbox.cif.g08.bks.cpg/sg2_247_cif.got.tgz:493323.got - 2010.06.03 11:33:40.
