data_PCOD9091199
_publ_section_title
;
Structure prediction by ZEFSAII (Michael W. Deem and Ramdas Pophale) SiO2 
 PCOD9091199
Probable space group: P -1
;
_chemical_formula_sum "Si O2"
_cell_formula_units_Z 13
_cell_length_a 11.603830
_cell_length_b 7.455586
_cell_length_c 11.655509
_cell_angle_alpha 101.587135
_cell_angle_beta 146.711316
_cell_angle_gamma 95.390477
_cell_volume 473.530321
_symmetry_space_group_name_H-M "P -1"
_symmetry_group_IT_number 2
_symmetry_cell_setting 'triclinic'
loop_
_space_group_symop_operation_xyz
x,y,z
-x,-y,-z
loop_
_atom_site_type_symbol
_atom_site_label
_atom_site_fract_x
_atom_site_fract_y
_atom_site_fract_z
Si Si1 0.608641 0.823017 0.826416
Si Si2 0.292742 0.758972 0.935245
Si Si3 0.948881 0.305290 0.692712
Si Si4 0.207764 0.139903 0.509788
Si Si5 0.383609 0.549101 0.800391
Si Si6 0.559599 0.808349 0.530858
Si Si7 0.000000 0.500000 0.000000
O O1 0.330059 0.763964 0.568830
O O2 0.566601 0.643874 0.859344
O O3 0.685032 0.822571 0.759215
O O4 0.749078 0.052514 0.031194
O O5 0.327633 0.727401 0.825687
O O6 0.101604 0.528278 0.789126
O O7 0.539828 0.811832 0.214084
O O8 0.993746 0.349498 0.870243
O O9 0.966713 0.103327 0.640555
O O10 0.168584 0.325501 0.551987
O O11 0.269847 0.171361 0.430555
O O12 0.500000 0.500000 0.000000
O O13 0.500000 0.000000 0.500000
O O14 0.299129 0.605287 0.274162
#
# Coordination Sequence:
#
# PCOD9091199 Si02
#       7
#     2   2   2   2   2   2   1
#     4  10  21  36  59  88 109 145 196 232 274 329
#     4  10  19  37  60  82 111 150 193 229 273 330
#     4  10  19  32  61  87 109 144 191 233 275 332
#     4  10  20  35  56  88 115 150 179 227 292 332
#     4  10  23  40  56  78 120 156 186 226 282 336
#     4  11  17  33  60  86 112 140 183 237 279 333
#     4  10  16  28  56  86 110 138 180 228 278 324
#
# _framework density 27.453361999999998
#
# number of rings (size 3 to 8) (size 9 to 14) (size 15 to 20)
#    0.000    1.846    6.154    0.462    0.000    1.846 
#    0.000    3.077    0.000    1.846    0.000    0.000 
#    0.000    0.000    0.000    0.000    0.000    0.000 
#
# Total GULP energy -72540.280852 kJ/mol
# GULP energy per Si atom -5580.021604 kJ/mol
# Density = 2.739088 g / cm^3
# Si number density = 27.453362 Si / 1000 Ang^3
#
#
#
# Elastic Constant Matrix: (Units=GPa)
#
#
# Indices 1 2 3 4 5 6 
#
# 1 73.4609 24.4061 39.4902 -3.3987 -23.5037 4.3099
# 2 24.4061 138.7434 63.1426 9.3775 -24.8339 4.3384
# 3 39.4902 63.1426 182.7740 43.1972 -34.0417 5.3628
# 4 -3.3987 9.3775 43.1972 52.4494 -2.4487 -1.6425
# 5 -23.5037 -24.8339 -34.0417 -2.4487 58.0999 -7.0854
# 6 4.3099 4.3384 5.3628 -1.6425 -7.0854 37.2713
#
#
#
# Elastic Compliance Matrix: (Units=1/GPa)
#
#
# Indices 1 2 3 4 5 6 
#
# 1 0.017635 -0.000869 -0.003691 0.004551 0.004755 -0.000303
# 2 -0.000869 0.008877 -0.002675 0.000643 0.001882 -0.000162
# 3 -0.003691 -0.002675 0.009431 -0.007425 0.002519 -0.000467
# 4 0.004551 0.000643 -0.007425 0.025358 -0.000996 0.001396
# 5 0.004755 0.001882 0.002519 -0.000996 0.021734 0.002956
# 6 -0.000303 -0.000162 -0.000467 0.001396 0.002956 0.027575
#
#
# Mechanical properties :
#
#
# Convention : Reuss Voigt Hill
#
# Bulk Modulus (GPa) = 46.57440 72.11738 59.34589
# Shear Modulus (GPa) = 37.81049 47.42672 42.61861
#
# Velocity S-wave (km/s) = 3.71518 4.16088 3.94433
# Velocity P-wave (km/s) = 5.95022 7.02922 6.51211
#
# Compressibility (1/GPa) = 0.02147102
#
# Stress axis : x y z
#
# Youngs Moduli (GPa) = 56.70460 112.65622 106.03731
#
# Poissons Ratio (x) = 0.09795 0.39138
# Poissons Ratio (y) = 0.04930 0.28368
# Poissons Ratio (z) = 0.20929 0.30139
#
# Static dielectric constant tensor:
#      x y z
#    x 2.234860 -0.081270 0.067910 
#    y -0.081270 2.243750 -0.078860 
#    z 0.067910 -0.078860 2.140240 
# 
# From -- ./inp_files/199956.got.cif
#   From: 2010.05.17/outbox.cif.g08.bks.cpg/sg2_100_cif.got.tgz:199956.got - 2010.06.03 11:33:40.
