data_PCOD9091149
_publ_section_title
;
Structure prediction by ZEFSAII (Michael W. Deem and Ramdas Pophale) SiO2 
 PCOD9091149
Probable space group: P -1
;
_chemical_formula_sum "Si O2"
_cell_formula_units_Z 14
_cell_length_a 18.374223
_cell_length_b 18.712600
_cell_length_c 12.279901
_cell_angle_alpha 28.434276
_cell_angle_beta 151.644404
_cell_angle_gamma 159.552803
_cell_volume 661.236445
_symmetry_space_group_name_H-M "P -1"
_symmetry_group_IT_number 2
_symmetry_cell_setting 'triclinic'
loop_
_space_group_symop_operation_xyz
x,y,z
-x,-y,-z
loop_
_atom_site_type_symbol
_atom_site_label
_atom_site_fract_x
_atom_site_fract_y
_atom_site_fract_z
Si Si1 0.500152 0.296788 0.352015
Si Si2 0.051917 0.102819 0.048904
Si Si3 0.864672 0.670915 0.479981
Si Si4 0.489457 0.395918 0.777639
Si Si5 0.400916 0.095401 0.253882
Si Si6 0.317541 0.965572 0.743816
Si Si7 0.237284 0.175278 0.523997
O O1 0.318034 0.299682 0.134811
O O2 0.737197 0.518056 0.411435
O O3 0.479821 0.228333 0.293031
O O4 0.421854 0.104414 0.583841
O O5 0.975036 0.910071 0.280643
O O6 0.000000 0.000000 0.000000
O O7 0.869826 0.100647 0.835478
O O8 0.673606 0.580120 0.435311
O O9 0.075788 0.723666 0.724412
O O10 0.406416 0.280531 0.706196
O O11 0.722436 0.640799 0.734207
O O12 0.472577 0.256034 0.033970
O O13 0.500000 0.000000 0.500000
O O14 0.269924 0.065993 0.629711
O O15 0.500000 0.000000 0.000000
O O16 0.000000 0.000000 0.500000
#
# Coordination Sequence:
#
# PCOD9091149 Si02
#       7
#     2   2   2   2   2   2   2
#     4  10  21  41  65  93 131 171 219 264 326 399
#     4   8  18  35  61  88 119 169 208 257 306 392
#     4  10  19  39  63  96 121 168 221 261 322 390
#     4  10  22  39  68  99 125 173 230 266 319 404
#     4  10  22  40  68  99 137 171 216 277 338 384
#     4  11  24  40  66  98 134 170 215 279 332 384
#     4  11  22  43  69  93 129 176 225 271 324 389
#
# _framework density 21.172456
#
# number of rings (size 3 to 8) (size 9 to 14) (size 15 to 20)
#    0.000    2.000    2.857    0.000    2.000    5.714 
#    0.000    1.429    3.143   15.429    0.000    0.000 
#    0.000    0.000    0.000    0.000    0.000    0.000 
#
# Total GULP energy -78100.544031 kJ/mol
# GULP energy per Si atom -5578.610288 kJ/mol
# Density = 2.112427 g / cm^3
# Si number density = 21.172456 Si / 1000 Ang^3
#
#
#
# Elastic Constant Matrix: (Units=GPa)
#
#
# Indices 1 2 3 4 5 6 
#
# 1 108.8813 42.4658 57.0835 -2.5980 -20.9007 -1.9828
# 2 42.4658 126.1575 57.9651 23.3888 10.5656 0.5438
# 3 57.0835 57.9651 122.6954 17.9356 -6.0633 13.4673
# 4 -2.5980 23.3888 17.9356 31.2758 3.6086 -7.6780
# 5 -20.9007 10.5656 -6.0633 3.6086 32.6972 7.5777
# 6 -1.9828 0.5438 13.4673 -7.6780 7.5777 33.5846
#
#
#
# Elastic Compliance Matrix: (Units=1/GPa)
#
#
# Indices 1 2 3 4 5 6 
#
# 1 0.016623 -0.004961 -0.006606 0.008707 0.009202 0.003625
# 2 -0.004961 0.013049 -0.003248 -0.007260 -0.007375 0.000803
# 3 -0.006606 -0.003248 0.015312 -0.009515 0.002872 -0.009301
# 4 0.008707 -0.007260 -0.009515 0.047846 -0.002848 0.016028
# 5 0.009202 -0.007375 0.002872 -0.002848 0.042165 -0.010654
# 6 0.003625 0.000803 -0.009301 0.016028 -0.010654 0.039774
#
#
# Mechanical properties :
#
#
# Convention : Reuss Voigt Hill
#
# Bulk Modulus (GPa) = 65.12915 74.75145 69.94030
# Shear Modulus (GPa) = 23.86455 32.85951 28.36203
#
# Velocity S-wave (km/s) = 3.36095 3.94381 3.66399
# Velocity P-wave (km/s) = 6.77417 7.49138 7.14178
#
# Compressibility (1/GPa) = 0.01535411
#
# Stress axis : x y z
#
# Youngs Moduli (GPa) = 60.15902 76.63514 65.30893
#
# Poissons Ratio (x) = 0.38016 0.43142
# Poissons Ratio (y) = 0.29843 0.21213
# Poissons Ratio (z) = 0.39740 0.24891
#
# Static dielectric constant tensor:
#      x y z
#    x 1.772680 0.020880 -0.024170 
#    y 0.020880 1.855680 0.039180 
#    z -0.024170 0.039180 1.834580 
# 
# From -- ./inp_files/236300.got.cif
#   From: 2010.05.17/outbox.cif.g08.bks.cpg/sg2_119_cif.got.tgz:236300.got - 2010.06.03 11:33:40.
