data_PCOD9091092
_publ_section_title
;
Structure prediction by ZEFSAII (Michael W. Deem and Ramdas Pophale) SiO2 
 PCOD9091092
Probable space group: P -1
;
_chemical_formula_sum "Si O2"
_cell_formula_units_Z 12
_cell_length_a 13.516408
_cell_length_b 12.558984
_cell_length_c 14.157756
_cell_angle_alpha 136.277338
_cell_angle_beta 36.031015
_cell_angle_gamma 108.517938
_cell_volume 737.187954
_symmetry_space_group_name_H-M "P -1"
_symmetry_group_IT_number 2
_symmetry_cell_setting 'triclinic'
loop_
_space_group_symop_operation_xyz
x,y,z
-x,-y,-z
loop_
_atom_site_type_symbol
_atom_site_label
_atom_site_fract_x
_atom_site_fract_y
_atom_site_fract_z
Si Si1 0.807680 0.637384 0.160999
Si Si2 0.855389 0.549098 0.851771
Si Si3 0.076138 0.709129 0.694387
Si Si4 0.317777 0.844973 0.673057
Si Si5 0.332513 0.931263 0.497035
Si Si6 0.241279 0.665187 0.334180
O O1 0.573392 0.701387 0.413351
O O2 0.753114 0.850376 0.323922
O O3 0.874202 0.532289 0.939329
O O4 0.000000 0.500000 0.000000
O O5 0.887207 0.364343 0.659748
O O6 0.012138 0.585503 0.709859
O O7 0.598283 0.755526 0.161683
O O8 0.222884 0.729557 0.663037
O O9 0.198755 0.622434 0.443935
O O10 0.850270 0.945612 0.005409
O O11 0.306933 0.917848 0.620472
O O12 0.202728 0.871326 0.506185
O O13 0.500000 0.500000 0.000000
#
# Coordination Sequence:
#
# PCOD9091092 Si02
#       6
#     2   2   2   2   2   2
#     4  11  20  33  52  73 101 136 168 199 241 294
#     4  10  17  32  52  77  99 129 165 204 242 293
#     4  10  16  28  55  78 102 120 163 209 250 285
#     4   9  17  30  52  78  98 128 162 206 248 286
#     4   9  16  33  51  74 101 128 164 205 244 292
#     4   9  19  29  50  80 101 124 161 207 254 291
#
# _framework density 16.278072999999999
#
# number of rings (size 3 to 8) (size 9 to 14) (size 15 to 20)
#    0.000    2.333    3.333    2.500    0.000    0.000 
#    0.000    1.667    0.000    1.000    0.000    0.000 
#    0.000    0.000    0.000    0.000    0.000    0.000 
#
# Total GULP energy -66853.654786 kJ/mol
# GULP energy per Si atom -5571.137899 kJ/mol
# Density = 1.624102 g / cm^3
# Si number density = 16.278073 Si / 1000 Ang^3
#
#
#
# Elastic Constant Matrix: (Units=GPa)
#
#
# Indices 1 2 3 4 5 6 
#
# 1 110.4777 39.0212 34.0220 5.4043 -7.2333 13.8086
# 2 39.0212 46.7076 14.9618 -11.3814 -11.3192 18.4222
# 3 34.0220 14.9618 66.9564 -20.9042 -1.0506 -2.3656
# 4 5.4043 -11.3814 -20.9042 27.3441 2.7412 -3.6626
# 5 -7.2333 -11.3192 -1.0506 2.7412 29.3350 -1.2156
# 6 13.8086 18.4222 -2.3656 -3.6626 -1.2156 25.2475
#
#
#
# Elastic Compliance Matrix: (Units=1/GPa)
#
#
# Indices 1 2 3 4 5 6 
#
# 1 0.020881 -0.017036 -0.013894 -0.022314 0.000017 -0.003528
# 2 -0.017036 0.053537 0.003329 0.023458 0.013332 -0.025390
# 3 -0.013894 0.003329 0.030914 0.029734 -0.003306 0.012221
# 4 -0.022314 0.023458 0.029734 0.074835 -0.002021 0.008632
# 5 0.000017 0.013332 -0.003306 -0.002021 0.038957 -0.008464
# 6 -0.003528 -0.025390 0.012221 0.008632 -0.008464 0.062053
#
#
# Mechanical properties :
#
#
# Convention : Reuss Voigt Hill
#
# Bulk Modulus (GPa) = 19.94813 44.46131 32.20472
# Shear Modulus (GPa) = 14.16070 25.46111 19.81090
#
# Velocity S-wave (km/s) = 2.95265 3.95921 3.49238
# Velocity P-wave (km/s) = 4.88931 6.94790 6.00744
#
# Compressibility (1/GPa) = 0.05013000
#
# Stress axis : x y z
#
# Youngs Moduli (GPa) = 47.88998 18.67867 32.34767
#
# Poissons Ratio (x) = 0.31821 0.44945
# Poissons Ratio (y) = 0.81585 -0.10769
# Poissons Ratio (z) = 0.66540 -0.06218
#
# Static dielectric constant tensor:
#      x y z
#    x 1.566530 0.048110 0.018690 
#    y 0.048110 1.533950 -0.025550 
#    z 0.018690 -0.025550 1.570380 
# 
# From -- ./inp_files/145636.got.cif
#   From: 2010.05.17/outbox.cif.g08.bks.cpg/sg2_73_cif.got.tgz:145636.got - 2010.06.03 11:33:40.
