data_PCOD9091198
_publ_section_title
;
Structure prediction by ZEFSAII (Michael W. Deem and Ramdas Pophale) SiO2 
 PCOD9091198
Probable space group: P -1
;
_chemical_formula_sum "Si O2"
_cell_formula_units_Z 16
_cell_length_a 8.717394
_cell_length_b 15.755648
_cell_length_c 7.739781
_cell_angle_alpha 80.485092
_cell_angle_beta 50.522909
_cell_angle_gamma 106.727781
_cell_volume 693.126601
_symmetry_space_group_name_H-M "P -1"
_symmetry_group_IT_number 2
_symmetry_cell_setting 'triclinic'
loop_
_space_group_symop_operation_xyz
x,y,z
-x,-y,-z
loop_
_atom_site_type_symbol
_atom_site_label
_atom_site_fract_x
_atom_site_fract_y
_atom_site_fract_z
Si Si1 0.738832 0.921070 0.925278
Si Si2 0.156299 0.546088 0.041678
Si Si3 0.569253 0.520680 0.649388
Si Si4 0.707060 0.769905 0.280836
Si Si5 0.963012 0.293436 0.859708
Si Si6 0.281434 0.625587 0.418984
Si Si7 0.134215 0.147072 0.481727
Si Si8 0.245179 0.812257 0.264619
O O1 0.730265 0.863933 0.771932
O O2 0.767351 0.864929 0.087094
O O3 0.483302 0.904759 0.129833
O O4 0.944105 0.034366 0.718269
O O5 0.177311 0.653408 0.006878
O O6 0.976722 0.466324 0.334203
O O7 0.384186 0.540072 0.866082
O O8 0.000000 0.500000 0.000000
O O9 0.500000 0.500000 0.500000
O O10 0.823242 0.620128 0.436141
O O11 0.586554 0.427146 0.739450
O O12 0.887761 0.733917 0.111864
O O13 0.446544 0.682587 0.447559
O O14 0.733880 0.795360 0.457190
O O15 0.797990 0.192394 0.907728
O O16 0.261588 0.713894 0.318148
O O17 0.981772 0.191804 0.499413
#
# Coordination Sequence:
#
# PCOD9091198 Si02
#       8
#     2   2   2   2   2   2   2   2
#     4  10  22  41  63  89 120 155 193 241 305 360
#     4  11  19  32  56  78 112 157 191 240 290 335
#     4  11  19  36  52  80 116 157 196 245 288 338
#     4  10  19  39  64  88 122 152 200 249 285 354
#     4  10  21  36  55  84 114 152 202 238 289 349
#     4  10  21  36  55  84 114 152 202 238 289 349
#     4  10  22  41  63  89 120 155 193 241 305 360
#     4  10  23  39  58  86 118 152 192 255 293 348
#
# _framework density 23.083805000000002
#
# number of rings (size 3 to 8) (size 9 to 14) (size 15 to 20)
#    0.000    1.750    3.750    0.750    0.000    8.000 
#    0.000    5.000    0.000   13.500    0.000    1.750 
#    0.000    0.000    0.000    0.000    0.000    0.000 
#
# Total GULP energy -89289.644112 kJ/mol
# GULP energy per Si atom -5580.602757 kJ/mol
# Density = 2.303127 g / cm^3
# Si number density = 23.083805 Si / 1000 Ang^3
#
#
#
# Elastic Constant Matrix: (Units=GPa)
#
#
# Indices 1 2 3 4 5 6 
#
# 1 111.6389 34.8574 41.6866 7.8915 -15.2525 -11.3168
# 2 34.8574 84.4349 19.0380 8.7532 -4.3036 -15.1428
# 3 41.6866 19.0380 57.4946 10.0759 -15.4662 -6.3034
# 4 7.8915 8.7532 10.0759 35.1143 -6.5262 4.5878
# 5 -15.2525 -4.3036 -15.4662 -6.5262 33.6265 3.8976
# 6 -11.3168 -15.1428 -6.3034 4.5878 3.8976 46.1792
#
#
#
# Elastic Compliance Matrix: (Units=1/GPa)
#
#
# Indices 1 2 3 4 5 6 
#
# 1 0.013351 -0.003508 -0.007984 0.000413 0.001919 0.000829
# 2 -0.003508 0.014682 -0.001731 -0.003221 -0.001617 0.004175
# 3 -0.007984 -0.001731 0.026588 -0.004128 0.007482 0.000884
# 4 0.000413 -0.003221 -0.004128 0.031902 0.004657 -0.005081
# 5 0.001919 -0.001617 0.007482 0.004657 0.035032 -0.002458
# 6 0.000829 0.004175 0.000884 -0.005081 -0.002458 0.024060
#
#
# Mechanical properties :
#
#
# Convention : Reuss Voigt Hill
#
# Bulk Modulus (GPa) = 35.49222 49.41472 42.45347
# Shear Modulus (GPa) = 27.55530 33.51642 30.53586
#
# Velocity S-wave (km/s) = 3.45875 3.81457 3.64101
# Velocity P-wave (km/s) = 5.59995 6.39175 6.00890
#
# Compressibility (1/GPa) = 0.02817519
#
# Stress axis : x y z
#
# Youngs Moduli (GPa) = 74.90089 68.10978 37.61082
#
# Poissons Ratio (x) = 0.23892 0.30028
# Poissons Ratio (y) = 0.26275 0.06511
# Poissons Ratio (z) = 0.59801 0.11791
#
# Static dielectric constant tensor:
#      x y z
#    x 1.800600 -0.305850 -0.372250 
#    y -0.305850 1.046220 -1.103140 
#    z -0.372250 -1.103140 0.409860 
# 
# From -- ./inp_files/206675.got.cif
#   From: 2010.05.17/outbox.cif.g08.bks.cpg/sg2_104_cif.got.tgz:206675.got - 2010.06.03 11:33:40.
