data_PCOD9091971
_publ_section_title
;
Structure prediction by ZEFSAII (Michael W. Deem and Ramdas Pophale) SiO2 
 PCOD9091971
Probable space group: P -1
;
_chemical_formula_sum "Si O2"
_cell_formula_units_Z 14
_cell_length_a 16.899579
_cell_length_b 19.154668
_cell_length_c 8.854450
_cell_angle_alpha 137.645753
_cell_angle_beta 37.424223
_cell_angle_gamma 158.593584
_cell_volume 635.739699
_symmetry_space_group_name_H-M "P -1"
_symmetry_group_IT_number 2
_symmetry_cell_setting 'triclinic'
loop_
_space_group_symop_operation_xyz
x,y,z
-x,-y,-z
loop_
_atom_site_type_symbol
_atom_site_label
_atom_site_fract_x
_atom_site_fract_y
_atom_site_fract_z
Si Si1 0.183396 0.213314 0.540485
Si Si2 0.539542 0.369538 0.012368
Si Si3 0.082698 0.317823 0.465005
Si Si4 0.927203 0.630512 0.082909
Si Si5 0.326479 0.127156 0.658389
Si Si6 0.381178 0.369807 0.805321
Si Si7 0.843806 0.413870 0.250401
O O1 0.049672 0.234193 0.787294
O O2 0.368700 0.327644 0.580747
O O3 0.322491 0.285397 0.289851
O O4 0.000000 0.000000 0.500000
O O5 0.429423 0.217314 0.814740
O O6 0.703697 0.440908 0.016263
O O7 0.690414 0.558191 0.994428
O O8 0.089697 0.359638 0.696234
O O9 0.347931 0.448359 0.253103
O O10 0.056370 0.408430 0.558870
O O11 0.879599 0.096660 0.392736
O O12 0.118474 0.665138 0.836094
O O13 0.250611 0.188850 0.803185
O O14 0.558400 0.243959 0.395997
O O15 0.000000 0.500000 0.000000
#
# Coordination Sequence:
#
# PCOD9091971 Si02
#       7
#     2   2   2   2   2   2   2
#     4  11  21  39  66  97 121 165 213 249 307 375
#     4  11  22  40  62  93 131 158 200 265 314 360
#     4  10  19  40  64  90 123 161 212 247 300 375
#     4  10  19  41  63  83 122 166 202 252 300 367
#     4  11  24  39  64  97 126 159 206 259 313 359
#     4  10  20  40  63  90 129 167 202 243 315 382
#     4   9  22  41  65  88 121 168 211 250 302 372
#
# _framework density 22.021591999999998
#
# number of rings (size 3 to 8) (size 9 to 14) (size 15 to 20)
#    0.000    1.714    2.857    2.143    0.000    3.429 
#   12.857    0.714    0.000    0.000    0.000    0.000 
#    0.000    0.000    0.000    0.000    0.000    0.000 
#
# Total GULP energy -77953.532399 kJ/mol
# GULP energy per Si atom -5568.109457 kJ/mol
# Density = 2.197147 g / cm^3
# Si number density = 22.021592 Si / 1000 Ang^3
#
#
#
# Elastic Constant Matrix: (Units=GPa)
#
#
# Indices 1 2 3 4 5 6 
#
# 1 87.1498 23.9017 41.2851 16.5555 -16.0796 -2.3001
# 2 23.9017 121.3296 49.5048 24.9339 -20.7128 -11.3825
# 3 41.2851 49.5048 106.8690 13.9144 -5.0335 4.9775
# 4 16.5555 24.9339 13.9144 23.9797 -1.1968 -0.0776
# 5 -16.0796 -20.7128 -5.0335 -1.1968 49.9348 13.0379
# 6 -2.3001 -11.3825 4.9775 -0.0776 13.0379 26.8301
#
#
#
# Elastic Compliance Matrix: (Units=1/GPa)
#
#
# Indices 1 2 3 4 5 6 
#
# 1 0.016546 0.002162 -0.005891 -0.009993 0.005158 0.000893
# 2 0.002162 0.013885 -0.005685 -0.012402 0.004275 0.005017
# 3 -0.005891 -0.005685 0.014204 0.001644 -0.001530 -0.004804
# 4 -0.009993 -0.012402 0.001644 0.060238 -0.005865 -0.003399
# 5 0.005158 0.004275 -0.001530 -0.005865 0.025778 -0.010004
# 6 0.000893 0.005017 -0.004804 -0.003399 -0.010004 0.045219
#
#
# Mechanical properties :
#
#
# Convention : Reuss Voigt Hill
#
# Bulk Modulus (GPa) = 38.74869 60.52573 49.63721
# Shear Modulus (GPa) = 24.59425 33.52602 29.06013
#
# Velocity S-wave (km/s) = 3.34552 3.90605 3.63660
# Velocity P-wave (km/s) = 5.70590 6.92007 6.34211
#
# Compressibility (1/GPa) = 0.02580733
#
# Stress axis : x y z
#
# Youngs Moduli (GPa) = 60.43815 72.02172 70.40279
#
# Poissons Ratio (x) = -0.15572 0.41475
# Poissons Ratio (y) = -0.13067 0.40021
# Poissons Ratio (z) = 0.35604 0.40942
#
# Static dielectric constant tensor:
#      x y z
#    x 1.917710 -0.025690 0.063840 
#    y -0.025690 1.833540 -0.014810 
#    z 0.063840 -0.014810 1.953380 
# 
# From -- ./inp_files/338170.got.cif
#   From: 2010.05.17/outbox.cif.g08.bks.cpg/sg2_170_cif.got.tgz:338170.got - 2010.06.03 11:33:40.
