data_PCOD9091976
_publ_section_title
;
Structure prediction by ZEFSAII (Michael W. Deem and Ramdas Pophale) SiO2 
 PCOD9091976
Probable space group: P -1
;
_chemical_formula_sum "Si O2"
_cell_formula_units_Z 16
_cell_length_a 16.150595
_cell_length_b 10.226571
_cell_length_c 10.449736
_cell_angle_alpha 107.128549
_cell_angle_beta 100.544136
_cell_angle_gamma 139.615895
_cell_volume 804.837189
_symmetry_space_group_name_H-M "P -1"
_symmetry_group_IT_number 2
_symmetry_cell_setting 'triclinic'
loop_
_space_group_symop_operation_xyz
x,y,z
-x,-y,-z
loop_
_atom_site_type_symbol
_atom_site_label
_atom_site_fract_x
_atom_site_fract_y
_atom_site_fract_z
Si Si1 0.936213 0.926225 0.315566
Si Si2 0.926713 0.294586 0.024954
Si Si3 0.917963 0.572790 0.529064
Si Si4 0.556102 0.420830 0.974200
Si Si5 0.716698 0.242048 0.613555
Si Si6 0.894555 0.938444 0.842546
Si Si7 0.582887 0.345140 0.673429
Si Si8 0.781872 0.189836 0.198051
O O1 0.733245 0.646443 0.162557
O O2 0.000000 0.000000 0.500000
O O3 0.016950 0.183512 0.369098
O O4 0.008520 0.928283 0.226926
O O5 0.869183 0.061625 0.904139
O O6 0.793889 0.178964 0.048113
O O7 0.000000 0.500000 0.000000
O O8 0.093449 0.504835 0.215623
O O9 0.749688 0.313319 0.493085
O O10 0.855045 0.440110 0.332421
O O11 0.082284 0.716296 0.661466
O O12 0.583560 0.420610 0.832320
O O13 0.403749 0.111223 0.892720
O O14 0.500000 0.500000 0.000000
O O15 0.644175 0.272613 0.674425
O O16 0.606720 0.950198 0.516079
O O17 0.712439 0.607151 0.694718
O O18 0.000000 0.000000 0.000000
#
# Coordination Sequence:
#
# PCOD9091976 Si02
#       8
#     2   2   2   2   2   2   2   2
#     4  12  26  41  64  96 132 168 212 274 328 376
#     4  11  24  41  62  92 132 168 205 263 332 379
#     4  10  19  40  64  91 119 165 211 257 317 380
#     4  12  22  39  64  96 124 164 218 263 315 385
#     4  10  20  39  65  93 120 161 219 265 304 381
#     4  12  21  44  69  90 122 178 227 254 308 399
#     4  11  21  37  68  94 115 160 228 264 299 374
#     4  10  21  38  64  91 121 161 212 259 310 386
#
# _framework density 19.879797
#
# number of rings (size 3 to 8) (size 9 to 14) (size 15 to 20)
#    0.000    1.000    6.250    1.500    1.750    0.000 
#    2.250    1.250    0.000    0.000    0.000    0.000 
#    0.000    0.000    0.000    0.000    0.000    0.000 
#
# Total GULP energy -89180.491720 kJ/mol
# GULP energy per Si atom -5573.780732 kJ/mol
# Density = 1.983455 g / cm^3
# Si number density = 19.879797 Si / 1000 Ang^3
#
#
#
# Elastic Constant Matrix: (Units=GPa)
#
#
# Indices 1 2 3 4 5 6 
#
# 1 47.9545 14.5816 32.1196 -0.3299 -20.0897 17.2155
# 2 14.5816 86.7258 26.2271 16.9425 -5.3375 18.7267
# 3 32.1196 26.2271 76.8721 14.1249 -25.1326 12.3391
# 4 -0.3299 16.9425 14.1249 46.6803 4.3684 -6.3641
# 5 -20.0897 -5.3375 -25.1326 4.3684 16.6324 3.6813
# 6 17.2155 18.7267 12.3391 -6.3641 3.6813 34.1319
#
#
#
# Elastic Compliance Matrix: (Units=1/GPa)
#
#
# Indices 1 2 3 4 5 6 
#
# 1 -0.086121 -0.021841 -0.093100 0.082631 -0.303792 0.137251
# 2 -0.021841 0.011256 -0.017843 0.009027 -0.056319 0.019049
# 3 -0.093100 -0.017843 -0.033833 0.048822 -0.204285 0.100115
# 4 0.082631 0.009027 0.048822 -0.027594 0.203959 -0.091423
# 5 -0.303792 -0.056319 -0.204285 0.203959 -0.771071 0.379172
# 6 0.137251 0.019049 0.100115 -0.091423 0.379172 -0.144515
#
#
# Mechanical properties :
#
#
# Convention : Reuss Voigt Hill
#
# Bulk Modulus (GPa) = -2.67189 39.71210 18.52010
# Shear Modulus (GPa) = -5.48809 28.73053 11.62122
#
# Velocity S-wave (km/s) = -1.66332 3.80572 2.42042
# Velocity P-wave (km/s) = 2.24405 6.27143 4.14096
#
# Compressibility (1/GPa) = -0.37426701
#
# Stress axis : x y z
#
# Youngs Moduli (GPa) = -11.61163 88.83966 -29.55674
#
# Poissons Ratio (x) = 1.94038 -2.75173
# Poissons Ratio (y) = -0.25361 -0.52739
# Poissons Ratio (z) = -1.08104 1.58521
#
# Static dielectric constant tensor:
#      x y z
#    x 1.689540 0.300780 -0.393890 
#    y 0.300780 1.181700 0.909680 
#    z -0.393890 0.909680 0.221380 
# 
# From -- ./inp_files/346187.got.cif
#   From: 2010.05.17/outbox.cif.g08.bks.cpg/sg2_174_cif.got.tgz:346187.got - 2010.06.03 11:33:40.
