data_PCOD9091507
_publ_section_title
;
Structure prediction by ZEFSAII (Michael W. Deem and Ramdas Pophale) SiO2 
 PCOD9091507
Probable space group: P -1
;
_chemical_formula_sum "Si O2"
_cell_formula_units_Z 16
_cell_length_a 9.200012
_cell_length_b 20.188410
_cell_length_c 11.374305
_cell_angle_alpha 30.352965
_cell_angle_beta 39.141495
_cell_angle_gamma 46.033905
_cell_volume 671.810061
_symmetry_space_group_name_H-M "P -1"
_symmetry_group_IT_number 2
_symmetry_cell_setting 'triclinic'
loop_
_space_group_symop_operation_xyz
x,y,z
-x,-y,-z
loop_
_atom_site_type_symbol
_atom_site_label
_atom_site_fract_x
_atom_site_fract_y
_atom_site_fract_z
Si Si1 0.615593 0.258978 0.813768
Si Si2 0.744117 0.140262 0.559883
Si Si3 0.879354 0.751194 0.436924
Si Si4 0.415577 0.337291 0.591802
Si Si5 0.724190 0.508405 0.767066
Si Si6 0.537534 0.151681 0.278609
Si Si7 0.715539 0.985564 0.039769
Si Si8 0.958510 0.219834 0.073002
O O1 0.458287 0.348670 0.685947
O O2 0.878784 0.295026 0.586689
O O3 0.543754 0.239365 0.022674
O O4 0.631201 0.112773 0.972593
O O5 0.648040 0.275188 0.477006
O O6 0.516683 0.087210 0.724890
O O7 0.926106 0.158768 0.315670
O O8 0.817251 0.040982 0.770911
O O9 0.827955 0.639167 0.548571
O O10 0.672268 0.786124 0.604133
O O11 0.893302 0.887422 0.148604
O O12 0.334827 0.465771 0.371987
O O13 0.226918 0.228599 0.861699
O O14 0.500000 0.500000 0.000000
O O15 0.876956 0.374866 0.893897
O O16 0.772722 0.163350 0.188068
O O17 0.500000 0.000000 0.500000
#
# Coordination Sequence:
#
# PCOD9091507 Si02
#       8
#     2   2   2   2   2   2   2   2
#     4  11  26  41  63 100 142 178 213 274 344 399
#     4  10  20  39  66 101 132 169 226 281 332 380
#     4  12  23  45  69  98 136 181 220 273 337 398
#     4  11  24  43  67 102 133 174 229 278 330 395
#     4  12  22  47  76  94 128 177 232 281 325 396
#     4  12  24  41  67 102 135 176 221 268 339 401
#     4  10  19  39  66  97 136 175 218 273 332 397
#     4  12  24  44  73 100 131 178 229 279 331 393
#
# _framework density 23.816255999999999
#
# number of rings (size 3 to 8) (size 9 to 14) (size 15 to 20)
#    0.000    0.750    6.250    1.500    0.000    2.000 
#    0.000    9.375    0.000    0.000    0.000    0.000 
#    0.000    0.000    0.000    0.000    0.000    0.000 
#
# Total GULP energy -89604.672789 kJ/mol
# GULP energy per Si atom -5600.292049 kJ/mol
# Density = 2.376205 g / cm^3
# Si number density = 23.816256 Si / 1000 Ang^3
#
#
#
# Elastic Constant Matrix: (Units=GPa)
#
#
# Indices 1 2 3 4 5 6 
#
# 1 116.7300 20.6027 40.8014 15.7759 18.4044 9.4907
# 2 20.6027 79.1012 24.5057 6.8471 5.2346 5.5529
# 3 40.8014 24.5057 77.2263 22.7578 24.3677 2.2609
# 4 15.7759 6.8471 22.7578 49.5456 5.7178 3.5523
# 5 18.4044 5.2346 24.3677 5.7178 40.6320 5.1556
# 6 9.4907 5.5529 2.2609 3.5523 5.1556 28.3484
#
#
#
# Elastic Compliance Matrix: (Units=1/GPa)
#
#
# Indices 1 2 3 4 5 6 
#
# 1 0.010953 -0.001053 -0.004623 -0.000841 -0.001592 -0.002697
# 2 -0.001053 0.014358 -0.004567 0.000438 0.001614 -0.002444
# 3 -0.004623 -0.004567 0.021958 -0.007081 -0.009919 0.003382
# 4 -0.000841 0.000438 -0.007081 0.023641 0.001560 -0.002485
# 5 -0.001592 0.001614 -0.009919 0.001560 0.031477 -0.004912
# 6 -0.002697 -0.002444 0.003382 -0.002485 -0.004912 0.037592
#
#
# Mechanical properties :
#
#
# Convention : Reuss Voigt Hill
#
# Bulk Modulus (GPa) = 37.33723 49.43078 43.38401
# Shear Modulus (GPa) = 29.51732 36.18170 32.84951
#
# Velocity S-wave (km/s) = 3.52430 3.90192 3.71791
# Velocity P-wave (km/s) = 5.68086 6.41094 6.05691
#
# Compressibility (1/GPa) = 0.02678292
#
# Stress axis : x y z
#
# Youngs Moduli (GPa) = 91.30242 69.64814 45.54135
#
# Poissons Ratio (x) = 0.07333 0.21055
# Poissons Ratio (y) = 0.09613 0.20797
# Poissons Ratio (z) = 0.42212 0.31806
#
# Static dielectric constant tensor:
#      x y z
#    x 1.922820 0.020100 -0.000860 
#    y 0.020100 1.947910 -0.001090 
#    z -0.000860 -0.001090 1.893670 
# 
# From -- ./inp_files/405231.got.cif
#   From: 2010.05.17/outbox.cif.g08.bks.cpg/sg2_203_cif.got.tgz:405231.got - 2010.06.03 11:33:40.
