data_PCOD9091604
_publ_section_title
;
Structure prediction by ZEFSAII (Michael W. Deem and Ramdas Pophale) SiO2 
 PCOD9091604
Probable space group: P -1
;
_chemical_formula_sum "Si O2"
_cell_formula_units_Z 14
_cell_length_a 11.656541
_cell_length_b 9.744138
_cell_length_c 9.134678
_cell_angle_alpha 137.348997
_cell_angle_beta 125.182280
_cell_angle_gamma 50.407583
_cell_volume 530.113187
_symmetry_space_group_name_H-M "P -1"
_symmetry_group_IT_number 2
_symmetry_cell_setting 'triclinic'
loop_
_space_group_symop_operation_xyz
x,y,z
-x,-y,-z
loop_
_atom_site_type_symbol
_atom_site_label
_atom_site_fract_x
_atom_site_fract_y
_atom_site_fract_z
Si Si1 0.079267 0.777729 0.791176
Si Si2 0.667372 0.710188 0.714705
Si Si3 0.051529 0.919353 0.313930
Si Si4 0.614075 0.212980 0.580459
Si Si5 0.389613 0.817023 0.096632
Si Si6 0.673806 0.758315 0.097976
Si Si7 0.000905 0.442731 0.179106
O O1 0.049208 0.601542 0.731297
O O2 0.256977 0.736968 0.887334
O O3 0.986680 0.861619 0.639921
O O4 0.000000 0.000000 0.000000
O O5 0.542896 0.634055 0.489462
O O6 0.838215 0.535585 0.685600
O O7 0.659736 0.930357 0.795580
O O8 0.634177 0.768789 0.906297
O O9 0.228528 0.758509 0.306235
O O10 0.965196 0.779182 0.067010
O O11 0.000000 0.000000 0.500000
O O12 0.597732 0.186148 0.720623
O O13 0.647171 0.988538 0.337102
O O14 0.554081 0.683330 0.039732
O O15 0.851594 0.618935 0.137441
#
# Coordination Sequence:
#
# PCOD9091604 Si02
#       7
#     2   2   2   2   2   2   2
#     4  10  19  39  68  86 119 167 206 244 303 365
#     4  11  21  38  64  88 127 163 202 248 309 366
#     4  11  22  39  69  92 118 160 216 248 292 374
#     4  11  22  40  63  96 117 163 215 249 291 369
#     4  11  20  41  65  91 119 165 214 245 291 378
#     4  11  25  37  64  93 130 159 198 259 318 347
#     4  11  22  44  63  90 128 163 201 250 315 364
#
# _framework density 26.409455000000001
#
# number of rings (size 3 to 8) (size 9 to 14) (size 15 to 20)
#    0.000    1.143    5.714    4.714    2.000    0.571 
#    0.000   10.000    0.000    0.000    0.000    0.000 
#    0.000    0.000    0.000    0.000    0.000    0.000 
#
# Total GULP energy -78485.829449 kJ/mol
# GULP energy per Si atom -5606.130675 kJ/mol
# Density = 2.634935 g / cm^3
# Si number density = 26.409455 Si / 1000 Ang^3
#
#
#
# Elastic Constant Matrix: (Units=GPa)
#
#
# Indices 1 2 3 4 5 6 
#
# 1 150.6755 45.0505 50.6783 -34.0813 -10.0549 -21.6682
# 2 45.0505 93.0782 42.3165 -20.8392 -6.6884 -29.4158
# 3 50.6783 42.3165 139.5644 -39.9254 -3.0729 -1.1802
# 4 -34.0813 -20.8392 -39.9254 50.4183 -1.8060 6.4573
# 5 -10.0549 -6.6884 -3.0729 -1.8060 46.2312 -16.8093
# 6 -21.6682 -29.4158 -1.1802 6.4573 -16.8093 52.2179
#
#
#
# Elastic Compliance Matrix: (Units=1/GPa)
#
#
# Indices 1 2 3 4 5 6 
#
# 1 0.009253 -0.001519 -0.001664 0.003978 0.003092 0.003450
# 2 -0.001519 0.017598 -0.004022 0.001882 0.005979 0.010884
# 3 -0.001664 -0.004022 0.010675 0.006118 -0.001424 -0.003930
# 4 0.003978 0.001882 0.006118 0.028213 0.002734 0.000240
# 5 0.003092 0.005979 -0.001424 0.002734 0.028016 0.013299
# 6 0.003450 0.010884 -0.003930 0.000240 0.013299 0.030876
#
#
# Mechanical properties :
#
#
# Convention : Reuss Voigt Hill
#
# Bulk Modulus (GPa) = 43.26140 73.26764 58.26452
# Shear Modulus (GPa) = 34.07255 46.12501 40.09878
#
# Velocity S-wave (km/s) = 3.59578 4.18369 3.90083
# Velocity P-wave (km/s) = 5.80139 7.15128 6.51141
#
# Compressibility (1/GPa) = 0.02311529
#
# Stress axis : x y z
#
# Youngs Moduli (GPa) = 108.07557 56.82346 93.68081
#
# Poissons Ratio (x) = 0.08631 0.15589
# Poissons Ratio (y) = 0.16416 0.37681
# Poissons Ratio (z) = 0.17985 0.22856
#
# Static dielectric constant tensor:
#      x y z
#    x 2.093610 0.025360 0.060850 
#    y 0.025360 2.117130 0.026400 
#    z 0.060850 0.026400 2.103370 
# 
# From -- ./inp_files/260288.got.cif
#   From: 2010.05.17/outbox.cif.g08.bks.cpg/sg2_131_cif.got.tgz:260288.got - 2010.06.03 11:33:40.
