data_PCOD9091096
_publ_section_title
;
Structure prediction by ZEFSAII (Michael W. Deem and Ramdas Pophale) SiO2 
 PCOD9091096
Probable space group: P -1
;
_chemical_formula_sum "Si O2"
_cell_formula_units_Z 16
_cell_length_a 8.544215
_cell_length_b 13.503154
_cell_length_c 15.277721
_cell_angle_alpha 122.850859
_cell_angle_beta 146.845851
_cell_angle_gamma 75.904671
_cell_volume 719.728585
_symmetry_space_group_name_H-M "P -1"
_symmetry_group_IT_number 2
_symmetry_cell_setting 'triclinic'
loop_
_space_group_symop_operation_xyz
x,y,z
-x,-y,-z
loop_
_atom_site_type_symbol
_atom_site_label
_atom_site_fract_x
_atom_site_fract_y
_atom_site_fract_z
Si Si1 0.283373 0.245637 0.403206
Si Si2 0.262260 0.494522 0.465675
Si Si3 0.125487 0.979227 0.292759
Si Si4 0.171095 0.713241 0.447830
Si Si5 0.943037 0.905715 0.510609
Si Si6 0.686067 0.680429 0.909152
Si Si7 0.634970 0.572940 0.006693
Si Si8 0.655258 0.332083 0.801727
O O1 0.117028 0.340655 0.352846
O O2 0.480372 0.247539 0.409434
O O3 0.503205 0.313695 0.624957
O O4 0.126650 0.093921 0.286323
O O5 0.500000 0.500000 0.500000
O O6 0.063665 0.568756 0.372110
O O7 0.452584 0.592312 0.681401
O O8 0.875805 0.839177 0.068839
O O9 0.500000 0.000000 0.500000
O O10 0.979130 0.000440 0.324518
O O11 0.132096 0.818143 0.542279
O O12 0.957785 0.696598 0.253630
O O13 0.578406 0.793773 0.308332
O O14 0.000000 0.000000 0.500000
O O15 0.517044 0.635107 0.903089
O O16 0.993111 0.652689 0.034418
O O17 0.500000 0.500000 0.000000
O O18 0.675705 0.459013 0.920005
#
# Coordination Sequence:
#
# PCOD9091096 Si02
#       8
#     2   2   2   2   2   2   2   2
#     4  10  19  39  63  90 122 164 212 257 319 374
#     4  10  23  41  65  93 129 174 210 263 320 388
#     4  11  21  37  62  95 121 163 215 262 317 371
#     4  11  22  40  62  90 135 161 207 267 322 381
#     4  11  22  36  59  94 131 163 204 264 327 369
#     4  12  22  40  68  93 125 166 222 264 312 383
#     4  12  22  36  61  99 123 157 215 273 318 368
#     4  11  20  34  63  94 118 161 215 264 308 372
#
# _framework density 22.230602000000001
#
# number of rings (size 3 to 8) (size 9 to 14) (size 15 to 20)
#    0.000    1.000    6.250    3.375    0.000    0.000 
#    0.000    8.750    2.750    0.000    0.000    0.000 
#    0.000    0.000    0.000    0.000    0.000    0.000 
#
# Total GULP energy -89133.082710 kJ/mol
# GULP energy per Si atom -5570.817669 kJ/mol
# Density = 2.218000 g / cm^3
# Si number density = 22.230602 Si / 1000 Ang^3
#
#
#
# Elastic Constant Matrix: (Units=GPa)
#
#
# Indices 1 2 3 4 5 6 
#
# 1 117.2094 60.8229 26.5239 6.2213 -11.4029 1.7582
# 2 60.8229 148.6599 39.2222 17.8283 0.3800 15.1789
# 3 26.5239 39.2222 55.2900 12.8385 -18.9568 -4.6311
# 4 6.2213 17.8283 12.8385 40.9924 -4.3586 -2.7756
# 5 -11.4029 0.3800 -18.9568 -4.3586 26.4404 9.5221
# 6 1.7582 15.1789 -4.6311 -2.7756 9.5221 38.8886
#
#
#
# Elastic Compliance Matrix: (Units=1/GPa)
#
#
# Indices 1 2 3 4 5 6 
#
# 1 0.011518 -0.004613 -0.000949 0.001041 0.004472 0.000146
# 2 -0.004613 0.011444 -0.007969 -0.002775 -0.006995 -0.003693
# 3 -0.000949 -0.007969 0.032863 -0.004243 0.022079 0.001358
# 4 0.001041 -0.002775 -0.004243 0.027040 0.001116 0.002187
# 5 0.004472 -0.006995 0.022079 0.001116 0.059198 -0.009258
# 6 0.000146 -0.003693 0.001358 0.002187 -0.009258 0.029734
#
#
# Mechanical properties :
#
#
# Convention : Reuss Voigt Hill
#
# Bulk Modulus (GPa) = 34.76535 63.81080 49.28808
# Shear Modulus (GPa) = 23.98692 34.23697 29.11195
#
# Velocity S-wave (km/s) = 3.28838 3.92865 3.62269
# Velocity P-wave (km/s) = 5.48547 7.02463 6.30221
#
# Compressibility (1/GPa) = 0.02876427
#
# Stress axis : x y z
#
# Youngs Moduli (GPa) = 86.81969 87.37858 30.42897
#
# Poissons Ratio (x) = 0.40311 0.02887
# Poissons Ratio (y) = 0.40053 0.24248
# Poissons Ratio (z) = 0.08238 0.69628
#
# Static dielectric constant tensor:
#      x y z
#    x 1.092640 -0.749970 0.055230 
#    y -0.749970 1.083090 0.013770 
#    z 0.055230 0.013770 1.856370 
# 
# From -- ./inp_files/281830.got.cif
#   From: 2010.05.17/outbox.cif.g08.bks.cpg/sg2_141_cif.got.tgz:281830.got - 2010.06.03 11:33:40.
