data_PCOD9091956
_publ_section_title
;
Structure prediction by ZEFSAII (Michael W. Deem and Ramdas Pophale) SiO2 
 PCOD9091956
Probable space group: P -1
;
_chemical_formula_sum "Si O2"
_cell_formula_units_Z 16
_cell_length_a 11.837891
_cell_length_b 8.954476
_cell_length_c 12.079435
_cell_angle_alpha 126.818502
_cell_angle_beta 95.823917
_cell_angle_gamma 118.186689
_cell_volume 757.529263
_symmetry_space_group_name_H-M "P -1"
_symmetry_group_IT_number 2
_symmetry_cell_setting 'triclinic'
loop_
_space_group_symop_operation_xyz
x,y,z
-x,-y,-z
loop_
_atom_site_type_symbol
_atom_site_label
_atom_site_fract_x
_atom_site_fract_y
_atom_site_fract_z
Si Si1 0.891671 0.429260 0.240086
Si Si2 0.278724 0.671879 0.036086
Si Si3 0.872954 0.015144 0.475100
Si Si4 0.380094 0.972586 0.810640
Si Si5 0.248571 0.219807 0.868127
Si Si6 0.662713 0.299439 0.538139
Si Si7 0.977848 0.829555 0.824342
Si Si8 0.317638 0.965053 0.374527
O O1 0.027485 0.697689 0.426380
O O2 0.952481 0.287347 0.176459
O O3 0.740017 0.257047 0.222304
O O4 0.850127 0.463199 0.130479
O O5 0.443624 0.882485 0.088859
O O6 0.256274 0.806733 0.185245
O O7 0.290617 0.480768 0.008859
O O8 0.781397 0.978647 0.558249
O O9 0.760802 0.822387 0.282927
O O10 0.000000 0.000000 0.500000
O O11 0.353421 0.167086 0.900666
O O12 0.342368 0.852995 0.631249
O O13 0.081385 0.002993 0.807842
O O14 0.802457 0.595648 0.673114
O O15 0.683796 0.202294 0.608633
O O16 0.495937 0.210672 0.485701
O O17 0.000000 0.000000 0.000000
#
# Coordination Sequence:
#
# PCOD9091956 Si02
#       8
#     2   2   2   2   2   2   2   2
#     4  11  23  40  62  91 131 167 207 262 319 381
#     4  11  23  40  62  95 132 166 207 264 321 375
#     4  12  23  41  63  95 125 166 211 257 316 373
#     4  10  21  40  65  92 124 171 215 260 311 371
#     4  11  22  38  64  95 123 168 217 265 302 378
#     4  10  19  40  64  88 122 162 214 260 306 374
#     4  11  23  40  63  95 126 165 212 263 318 368
#     4  10  22  38  64  90 122 167 206 258 317 366
#
# _framework density 21.121295
#
# number of rings (size 3 to 8) (size 9 to 14) (size 15 to 20)
#    0.000    1.250    3.750    2.250    0.000    3.500 
#    4.500    0.000    0.000    3.750    0.000    0.000 
#    0.000    0.000    0.000    0.000    0.000    0.000 
#
# Total GULP energy -89427.204508 kJ/mol
# GULP energy per Si atom -5589.200282 kJ/mol
# Density = 2.107322 g / cm^3
# Si number density = 21.121295 Si / 1000 Ang^3
#
#
#
# Elastic Constant Matrix: (Units=GPa)
#
#
# Indices 1 2 3 4 5 6 
#
# 1 94.7400 24.5276 27.5890 1.9620 -23.0794 28.2927
# 2 24.5276 45.9750 3.2733 4.8086 -7.7509 21.7612
# 3 27.5890 3.2733 64.9836 2.3187 -12.2735 18.2744
# 4 1.9620 4.8086 2.3187 32.6756 0.6500 3.8223
# 5 -23.0794 -7.7509 -12.2735 0.6500 35.0838 -0.1272
# 6 28.2927 21.7612 18.2744 3.8223 -0.1272 27.2341
#
#
#
# Elastic Compliance Matrix: (Units=1/GPa)
#
#
# Indices 1 2 3 4 5 6 
#
# 1 0.020037 0.002470 0.000452 0.000835 0.013786 -0.023146
# 2 0.002470 0.044216 0.012721 -0.002489 0.015723 -0.046011
# 3 0.000452 0.012721 0.024287 -0.000720 0.011520 -0.026776
# 4 0.000835 -0.002489 -0.000720 0.031315 -0.000843 -0.002795
# 5 0.013786 0.015723 0.011520 -0.000843 0.044967 -0.034287
# 6 -0.023146 -0.046011 -0.026776 -0.002795 -0.034287 0.115728
#
#
# Mechanical properties :
#
#
# Convention : Reuss Voigt Hill
#
# Bulk Modulus (GPa) = 8.34533 35.16425 21.75479
# Shear Modulus (GPa) = 17.28867 29.01929 23.15398
#
# Velocity S-wave (km/s) = 2.86412 3.71068 3.31454
# Velocity P-wave (km/s) = 3.85970 5.91978 4.99705
#
# Compressibility (1/GPa) = 0.11982747
#
# Stress axis : x y z
#
# Youngs Moduli (GPa) = 49.90696 22.61605 41.17354
#
# Poissons Ratio (x) = -0.05587 -0.01859
# Poissons Ratio (y) = -0.12329 -0.52378
# Poissons Ratio (z) = -0.02254 -0.28771
#
# Static dielectric constant tensor:
#      x y z
#    x 1.798120 -0.013860 -0.029610 
#    y -0.013860 1.777680 0.021440 
#    z -0.029610 0.021440 1.767570 
# 
# From -- ./inp_files/185139.got.cif
#   From: 2010.05.17/outbox.cif.g08.bks.cpg/sg2_93_cif.got.tgz:185139.got - 2010.06.03 11:33:40.
