data_PCOD9091204
_publ_section_title
;
Structure prediction by ZEFSAII (Michael W. Deem and Ramdas Pophale) SiO2 
 PCOD9091204
Probable space group: P -1
;
_chemical_formula_sum "Si O2"
_cell_formula_units_Z 16
_cell_length_a 10.991918
_cell_length_b 7.723328
_cell_length_c 17.258165
_cell_angle_alpha 134.681078
_cell_angle_beta 134.044176
_cell_angle_gamma 44.352662
_cell_volume 671.476356
_symmetry_space_group_name_H-M "P -1"
_symmetry_group_IT_number 2
_symmetry_cell_setting 'triclinic'
loop_
_space_group_symop_operation_xyz
x,y,z
-x,-y,-z
loop_
_atom_site_type_symbol
_atom_site_label
_atom_site_fract_x
_atom_site_fract_y
_atom_site_fract_z
Si Si1 0.900069 0.832064 0.864723
Si Si2 0.397198 0.646764 0.597425
Si Si3 0.729513 0.120272 0.631377
Si Si4 0.396327 0.701383 0.193758
Si Si5 0.863841 0.003924 0.280177
Si Si6 0.055664 0.564893 0.364115
Si Si7 0.711388 0.821314 0.390166
Si Si8 0.869495 0.583448 0.043821
O O1 0.959702 0.688336 0.762565
O O2 0.688856 0.053564 0.829398
O O3 0.967220 0.584236 0.874218
O O4 0.000000 0.000000 0.000000
O O5 0.608840 0.415985 0.630859
O O6 0.265547 0.521568 0.461436
O O7 0.305758 0.751129 0.674601
O O8 0.370481 0.904272 0.613212
O O9 0.676809 0.173784 0.714411
O O10 0.953725 0.993553 0.678081
O O11 0.675771 0.917696 0.493410
O O12 0.615567 0.625478 0.265548
O O13 0.296315 0.509919 0.069544
O O14 0.959071 0.807820 0.335571
O O15 0.784633 0.878294 0.137993
O O16 0.930642 0.665840 0.417128
O O17 0.000000 0.500000 0.000000
#
# Coordination Sequence:
#
# PCOD9091204 Si02
#       8
#     2   2   2   2   2   2   2   2
#     4   9  21  40  60  88 118 162 206 243 308 364
#     4  11  22  38  65  94 119 166 210 252 311 359
#     4  12  22  38  63  92 126 163 204 257 303 369
#     4  11  24  39  57  92 127 161 205 249 315 369
#     4  10  20  39  63  92 121 153 217 257 297 362
#     4  10  19  39  64  89 121 165 207 252 307 369
#     4  11  22  38  61  93 127 158 201 267 307 362
#     4  10  20  39  69  86 118 167 207 255 302 367
#
# _framework density 23.828092000000002
#
# number of rings (size 3 to 8) (size 9 to 14) (size 15 to 20)
#    0.000    1.500    3.750    2.250    3.500    0.000 
#    2.250   11.875    0.000    0.000    0.000    0.000 
#    0.000    0.000    0.000    0.000    0.000    0.000 
#
# Total GULP energy -89288.046572 kJ/mol
# GULP energy per Si atom -5580.502911 kJ/mol
# Density = 2.377386 g / cm^3
# Si number density = 23.828092 Si / 1000 Ang^3
#
#
#
# Elastic Constant Matrix: (Units=GPa)
#
#
# Indices 1 2 3 4 5 6 
#
# 1 77.3576 13.7606 46.3867 -4.0111 -0.6869 -18.2511
# 2 13.7606 44.3490 14.9885 1.4939 -1.3390 5.1049
# 3 46.3867 14.9885 172.6188 13.8220 4.8151 -13.4905
# 4 -4.0111 1.4939 13.8220 25.5962 -6.6501 -9.3826
# 5 -0.6869 -1.3390 4.8151 -6.6501 45.0737 -3.9193
# 6 -18.2511 5.1049 -13.4905 -9.3826 -3.9193 23.2263
#
#
#
# Elastic Compliance Matrix: (Units=1/GPa)
#
#
# Indices 1 2 3 4 5 6 
#
# 1 0.025652 -0.009755 -0.005585 0.019386 0.005984 0.027898
# 2 -0.009755 0.028135 -0.000378 -0.010458 -0.002442 -0.018705
# 3 -0.005585 -0.000378 0.007692 -0.006617 -0.002144 -0.002873
# 4 0.019386 -0.010458 -0.006617 0.065534 0.014059 0.042534
# 5 0.005984 -0.002442 -0.002144 0.014059 0.025726 0.014014
# 6 0.027898 -0.018705 -0.002873 0.042534 0.014014 0.086967
#
#
# Mechanical properties :
#
#
# Convention : Reuss Voigt Hill
#
# Bulk Modulus (GPa) = 33.28684 49.39966 41.34325
# Shear Modulus (GPa) = 17.78378 33.39189 25.58784
#
# Velocity S-wave (km/s) = 2.73488 3.74754 3.28052
# Velocity P-wave (km/s) = 4.89619 6.28507 5.63360
#
# Compressibility (1/GPa) = 0.03004190
#
# Stress axis : x y z
#
# Youngs Moduli (GPa) = 38.98379 35.54332 130.00726
#
# Poissons Ratio (x) = 0.34674 0.72610
# Poissons Ratio (y) = 0.38030 0.04912
# Poissons Ratio (z) = 0.21773 0.01343
#
# Static dielectric constant tensor:
#      x y z
#    x 1.934610 0.082990 -0.003840 
#    y 0.082990 2.118970 0.088760 
#    z -0.003840 0.088760 1.963910 
# 
# From -- ./inp_files/261589.got.cif
#   From: 2010.05.17/outbox.cif.g08.bks.cpg/sg2_131_cif.got.tgz:261589.got - 2010.06.03 11:33:40.
