data_PCOD9091480
_publ_section_title
;
Structure prediction by ZEFSAII (Michael W. Deem and Ramdas Pophale) SiO2 
 PCOD9091480
Probable space group: P -1
;
_chemical_formula_sum "Si O2"
_cell_formula_units_Z 14
_cell_length_a 12.565846
_cell_length_b 5.223102
_cell_length_c 11.999995
_cell_angle_alpha 50.477168
_cell_angle_beta 90.389699
_cell_angle_gamma 88.982604
_cell_volume 607.262584
_symmetry_space_group_name_H-M "P -1"
_symmetry_group_IT_number 2
_symmetry_cell_setting 'triclinic'
loop_
_space_group_symop_operation_xyz
x,y,z
-x,-y,-z
loop_
_atom_site_type_symbol
_atom_site_label
_atom_site_fract_x
_atom_site_fract_y
_atom_site_fract_z
Si Si1 0.724270 0.354678 0.204739
Si Si2 0.827284 0.709623 0.464845
Si Si3 0.549408 0.360747 0.382689
Si Si4 0.345877 0.718564 0.360941
Si Si5 0.775155 0.647299 0.889495
Si Si6 0.918813 0.358335 0.359024
Si Si7 0.913710 0.169525 0.870462
O O1 0.616061 0.400798 0.260279
O O2 0.823227 0.498468 0.236442
O O3 0.754842 0.963819 0.319181
O O4 0.724493 0.492189 0.042827
O O5 0.749784 0.528123 0.599657
O O6 0.882056 0.441271 0.460107
O O7 0.910284 0.967010 0.443552
O O8 0.452809 0.626022 0.320966
O O9 0.627991 0.368972 0.486576
O O10 0.500000 0.000000 0.500000
O O11 0.306883 0.095687 0.241396
O O12 0.823733 0.360377 0.890558
O O13 0.868073 0.885435 0.869460
O O14 0.021971 0.556440 0.272668
O O15 0.000000 0.000000 0.000000
#
# Coordination Sequence:
#
# PCOD9091480 Si02
#       7
#     2   2   2   2   2   2   2
#     4  10  22  39  71  97 132 178 231 271 335 408
#     4  10  19  39  66  93 132 177 220 273 327 409
#     4  11  22  45  75  94 130 192 225 267 354 430
#     4  11  25  43  68 104 139 173 230 288 344 398
#     4  12  28  41  70 106 143 170 229 298 329 384
#     4  10  20  36  69  92 127 175 240 253 319 407
#     4  12  23  45  67 101 141 189 222 269 348 413
#
# _framework density 23.054276000000002
#
# number of rings (size 3 to 8) (size 9 to 14) (size 15 to 20)
#    0.857    0.286    4.286    2.143    2.000    0.571 
#    0.000    5.000    0.000    0.000    0.000    0.000 
#    0.000    0.000    0.000    0.000    0.000    0.000 
#
# Total GULP energy -78334.038015 kJ/mol
# GULP energy per Si atom -5595.288430 kJ/mol
# Density = 2.300180 g / cm^3
# Si number density = 23.054276 Si / 1000 Ang^3
#
#
#
# Elastic Constant Matrix: (Units=GPa)
#
#
# Indices 1 2 3 4 5 6 
#
# 1 89.1206 18.6004 44.4722 7.0324 -13.4211 -16.3234
# 2 18.6004 91.2738 9.8071 0.6131 -0.2946 -11.9121
# 3 44.4722 9.8071 86.4038 -10.6434 -20.0981 -19.9687
# 4 7.0324 0.6131 -10.6434 35.4221 -9.5785 2.0792
# 5 -13.4211 -0.2946 -20.0981 -9.5785 42.9947 -3.2047
# 6 -16.3234 -11.9121 -19.9687 2.0792 -3.2047 49.0999
#
#
#
# Elastic Compliance Matrix: (Units=1/GPa)
#
#
# Indices 1 2 3 4 5 6 
#
# 1 0.016856 -0.002223 -0.008789 -0.006074 -0.000085 0.001742
# 2 -0.002223 0.011662 0.000266 0.000110 -0.000303 0.002174
# 3 -0.008789 0.000266 0.020983 0.010353 0.009812 0.005878
# 4 -0.006074 0.000110 0.010353 0.035421 0.010942 0.001432
# 5 -0.000085 -0.000303 0.009812 0.010942 0.030659 0.005426
# 6 0.001742 0.002174 0.005878 0.001432 0.005426 0.024157
#
#
# Mechanical properties :
#
#
# Convention : Reuss Voigt Hill
#
# Bulk Modulus (GPa) = 35.70210 45.83973 40.77091
# Shear Modulus (GPa) = 29.31394 38.43125 33.87260
#
# Velocity S-wave (km/s) = 3.56970 4.08731 3.83724
# Velocity P-wave (km/s) = 5.70176 6.49626 6.11193
#
# Compressibility (1/GPa) = 0.02800956
#
# Stress axis : x y z
#
# Youngs Moduli (GPa) = 59.32608 85.74499 47.65691
#
# Poissons Ratio (x) = 0.19060 0.41886
# Poissons Ratio (y) = 0.13187 -0.01267
# Poissons Ratio (z) = 0.52142 -0.02279
#
# Static dielectric constant tensor:
#      x y z
#    x 1.946910 0.038220 0.079320 
#    y 0.038220 1.846540 0.006680 
#    z 0.079320 0.006680 1.869500 
# 
# From -- ./inp_files/65265.got.cif
#   From: 2010.05.17/outbox.cif.g08.bks.cpg/sg2_33_cif.got.tgz:65265.got - 2010.06.03 11:33:40.
