data_PCOD9091855
_publ_section_title
;
Structure prediction by ZEFSAII (Michael W. Deem and Ramdas Pophale) SiO2 
 PCOD9091855
Probable space group: P -1
;
_chemical_formula_sum "Si O2"
_cell_formula_units_Z 16
_cell_length_a 9.483636
_cell_length_b 20.525416
_cell_length_c 9.536871
_cell_angle_alpha 143.253524
_cell_angle_beta 71.462125
_cell_angle_gamma 126.495740
_cell_volume 842.873729
_symmetry_space_group_name_H-M "P -1"
_symmetry_group_IT_number 2
_symmetry_cell_setting 'triclinic'
loop_
_space_group_symop_operation_xyz
x,y,z
-x,-y,-z
loop_
_atom_site_type_symbol
_atom_site_label
_atom_site_fract_x
_atom_site_fract_y
_atom_site_fract_z
Si Si1 0.220977 0.652985 0.311670
Si Si2 0.064286 0.162905 0.630299
Si Si3 0.273862 0.844647 0.165919
Si Si4 0.066366 0.633329 0.624668
Si Si5 0.196494 0.144393 0.845923
Si Si6 0.131111 0.375007 0.745591
Si Si7 0.715287 0.614360 0.585062
Si Si8 0.528721 0.149008 0.642134
O O1 0.185133 0.650640 0.482366
O O2 0.413605 0.769721 0.379987
O O3 0.071987 0.674872 0.331917
O O4 0.192939 0.514679 0.040316
O O5 0.188075 0.202739 0.798906
O O6 0.130890 0.272562 0.675426
O O7 0.884094 0.142794 0.714364
O O8 0.990210 0.010659 0.345250
O O9 0.304113 0.777088 0.170556
O O10 0.461514 0.998027 0.363288
O O11 0.200817 0.760381 0.902611
O O12 0.000000 0.500000 0.500000
O O13 0.876483 0.612059 0.603990
O O14 0.368368 0.139735 0.760964
O O15 0.232414 0.241734 0.129729
O O16 0.253426 0.396614 0.608363
O O17 0.500000 0.500000 0.500000
#
# Coordination Sequence:
#
# PCOD9091855 Si02
#       8
#     2   2   2   2   2   2   2   2
#     4  10  21  37  60  90 118 155 199 249 295 343
#     4  10  19  40  62  87 117 159 202 237 297 359
#     4  10  20  38  65  88 118 159 200 241 294 350
#     4  11  24  39  62  87 119 159 200 246 296 352
#     4  10  22  37  62  88 121 156 193 247 297 353
#     4  10  21  38  62  86 120 158 199 244 296 355
#     4  11  24  41  59  87 122 158 198 247 298 352
#     4  10  21  38  63  92 119 155 198 246 291 353
#
# _framework density 18.982679000000001
#
# number of rings (size 3 to 8) (size 9 to 14) (size 15 to 20)
#    0.000    1.750    2.500    1.500    5.250    1.000 
#    2.250    1.250    0.000    0.000    0.000    0.000 
#    0.000    0.000    0.000    0.000    0.000    0.000 
#
# Total GULP energy -89125.956288 kJ/mol
# GULP energy per Si atom -5570.372268 kJ/mol
# Density = 1.893947 g / cm^3
# Si number density = 18.982679 Si / 1000 Ang^3
#
#
#
# Elastic Constant Matrix: (Units=GPa)
#
#
# Indices 1 2 3 4 5 6 
#
# 1 36.7004 8.2672 53.2476 -11.4111 -9.6692 -11.7514
# 2 8.2672 113.3687 74.2260 -14.1781 -10.3881 -10.5207
# 3 53.2476 74.2260 95.1906 -26.6386 3.1058 4.1551
# 4 -11.4111 -14.1781 -26.6386 26.8011 0.1370 -5.4371
# 5 -9.6692 -10.3881 3.1058 0.1370 24.4238 -3.8814
# 6 -11.7514 -10.5207 4.1551 -5.4371 -3.8814 30.8930
#
#
#
# Elastic Compliance Matrix: (Units=1/GPa)
#
#
# Indices 1 2 3 4 5 6 
#
# 1 -0.015040 -0.018552 0.026038 0.006331 -0.019881 -0.016925
# 2 -0.018552 0.002727 0.009186 0.001041 -0.008673 -0.008270
# 3 0.026038 0.009186 -0.009897 0.009745 0.018341 0.018384
# 4 0.006331 0.001041 0.009745 0.052477 0.003177 0.011087
# 5 -0.019881 -0.008673 0.018341 0.003177 0.025570 -0.009211
# 6 -0.016925 -0.008270 0.018384 0.011087 -0.009211 0.021437
#
#
# Mechanical properties :
#
#
# Convention : Reuss Voigt Hill
#
# Bulk Modulus (GPa) = 89.80333 57.41569 73.60951
# Shear Modulus (GPa) = 104.95105 23.72482 64.33794
#
# Velocity S-wave (km/s) = 7.44364 3.53911 5.82808
# Velocity P-wave (km/s) = 11.01308 6.85656 9.17334
#
# Compressibility (1/GPa) = 0.01113544
#
# Stress axis : x y z
#
# Youngs Moduli (GPa) = -66.49002 366.68404 -101.04317
#
# Poissons Ratio (x) = 6.80262 2.63096
# Poissons Ratio (y) = -1.23350 0.92820
# Poissons Ratio (z) = 1.73126 -3.36844
#
# Static dielectric constant tensor:
#      x y z
#    x 1.714590 -0.015070 0.016370 
#    y -0.015070 1.672220 0.042350 
#    z 0.016370 0.042350 1.688340 
# 
# From -- ./inp_files/216516.got.cif
#   From: 2010.05.17/outbox.cif.g08.bks.cpg/sg2_109_cif.got.tgz:216516.got - 2010.06.03 11:33:40.
