data_PCOD9091789
_publ_section_title
;
Structure prediction by ZEFSAII (Michael W. Deem and Ramdas Pophale) SiO2 
 PCOD9091789
Probable space group: P -1
;
_chemical_formula_sum "Si O2"
_cell_formula_units_Z 15
_cell_length_a 9.833927
_cell_length_b 11.569100
_cell_length_c 11.325775
_cell_angle_alpha 62.051371
_cell_angle_beta 38.633255
_cell_angle_gamma 65.480367
_cell_volume 707.846866
_symmetry_space_group_name_H-M "P -1"
_symmetry_group_IT_number 2
_symmetry_cell_setting 'triclinic'
loop_
_space_group_symop_operation_xyz
x,y,z
-x,-y,-z
loop_
_atom_site_type_symbol
_atom_site_label
_atom_site_fract_x
_atom_site_fract_y
_atom_site_fract_z
Si Si1 0.477989 0.202899 0.039540
Si Si2 0.285679 0.655276 0.889728
Si Si3 0.229612 0.198404 0.970260
Si Si4 0.794528 0.071914 0.291116
Si Si5 0.000000 0.500000 0.000000
Si Si6 0.423691 0.031269 0.733155
Si Si7 0.898059 0.337462 0.747362
Si Si8 0.240768 0.362549 0.318177
O O1 0.282494 0.278192 0.212674
O O2 0.562767 0.079017 0.121723
O O3 0.384182 0.172957 0.990558
O O4 0.683300 0.290894 0.851853
O O5 0.316652 0.781124 0.728964
O O6 0.517262 0.615030 0.811911
O O7 0.119895 0.705526 0.083955
O O8 0.199187 0.537676 0.932676
O O9 0.367423 0.168280 0.772067
O O10 0.041476 0.096337 0.142339
O O11 0.110678 0.344988 0.985223
O O12 0.656644 0.017859 0.516050
O O13 0.751322 0.993160 0.238636
O O14 0.881353 0.495716 0.693674
O O15 0.106632 0.297588 0.543902
#
# Coordination Sequence:
#
# PCOD9091789 Si02
#       8
#     2   2   2   2   1   2   2   2
#     4  11  22  41  63  93 129 161 211 266 314 369
#     4  10  19  40  60  87 124 162 206 261 308 371
#     4  11  24  41  66  92 129 169 205 266 322 375
#     4  10  23  42  63  93 126 165 218 257 313 376
#     4  10  22  40  62  92 126 166 208 252 318 376
#     4  11  23  43  64  93 126 170 216 260 312 377
#     4  10  20  35  60  90 119 167 212 248 315 372
#     4  10  20  35  60  89 124 162 208 260 305 370
#
# _framework density 21.191023000000001
#
# number of rings (size 3 to 8) (size 9 to 14) (size 15 to 20)
#    0.000    1.600    2.667    4.000    0.000    4.800 
#    0.000    7.333    0.000    0.000    0.000    0.000 
#    0.000    0.000    0.000    0.000    0.000    0.000 
#
# Total GULP energy -83530.373730 kJ/mol
# GULP energy per Si atom -5568.691582 kJ/mol
# Density = 2.114279 g / cm^3
# Si number density = 21.191023 Si / 1000 Ang^3
#
#
#
# Elastic Constant Matrix: (Units=GPa)
#
#
# Indices 1 2 3 4 5 6 
#
# 1 103.2016 26.1948 35.3622 15.9837 7.5671 34.2067
# 2 26.1948 87.2263 35.4090 15.7416 11.2848 11.1640
# 3 35.3622 35.4090 102.2030 18.4396 -2.8871 13.2212
# 4 15.9837 15.7416 18.4396 25.3028 -0.3948 8.9291
# 5 7.5671 11.2848 -2.8871 -0.3948 14.5645 5.3066
# 6 34.2067 11.1640 13.2212 8.9291 5.3066 31.7392
#
#
#
# Elastic Compliance Matrix: (Units=1/GPa)
#
#
# Indices 1 2 3 4 5 6 
#
# 1 0.016583 -0.000970 -0.003119 -0.002331 -0.003057 -0.015065
# 2 -0.000970 0.016555 -0.004729 -0.006988 -0.013996 0.001498
# 3 -0.003119 -0.004729 0.013666 -0.004669 0.008126 -0.000713
# 4 -0.002331 -0.006988 -0.004669 0.052285 0.010603 -0.009567
# 5 -0.003057 -0.013996 0.008126 0.010603 0.087657 -0.012806
# 6 -0.015065 0.001498 -0.000713 -0.009567 -0.012806 0.052347
#
#
# Mechanical properties :
#
#
# Convention : Reuss Voigt Hill
#
# Bulk Modulus (GPa) = 34.28133 54.06256 44.17194
# Shear Modulus (GPa) = 18.76520 27.36561 23.06540
#
# Velocity S-wave (km/s) = 2.97901 3.59747 3.30275
# Velocity P-wave (km/s) = 5.29576 6.54394 5.95265
#
# Compressibility (1/GPa) = 0.02917040
#
# Stress axis : x y z
#
# Youngs Moduli (GPa) = 60.30211 60.40359 73.17444
#
# Poissons Ratio (x) = 0.05858 0.22821
# Poissons Ratio (y) = 0.05848 0.34601
# Poissons Ratio (z) = 0.18807 0.28562
#
# Static dielectric constant tensor:
#      x y z
#    x 1.758160 -0.026620 0.002890 
#    y -0.026620 1.790150 -0.003500 
#    z 0.002890 -0.003500 1.774290 
# 
# From -- ./inp_files/175755.got.cif
#   From: 2010.05.17/outbox.cif.g08.bks.cpg/sg2_88_cif.got.tgz:175755.got - 2010.06.03 11:33:40.
