data_PCOD9091984
_publ_section_title
;
Structure prediction by ZEFSAII (Michael W. Deem and Ramdas Pophale) SiO2 
 PCOD9091984
Probable space group: P -1
;
_chemical_formula_sum "Si O2"
_cell_formula_units_Z 12
_cell_length_a 10.813355
_cell_length_b 10.773138
_cell_length_c 11.191652
_cell_angle_alpha 31.824313
_cell_angle_beta 141.290898
_cell_angle_gamma 134.406280
_cell_volume 427.261532
_symmetry_space_group_name_H-M "P -1"
_symmetry_group_IT_number 2
_symmetry_cell_setting 'triclinic'
loop_
_space_group_symop_operation_xyz
x,y,z
-x,-y,-z
loop_
_atom_site_type_symbol
_atom_site_label
_atom_site_fract_x
_atom_site_fract_y
_atom_site_fract_z
Si Si1 0.448946 0.351708 0.201341
Si Si2 0.907621 0.039653 0.765870
Si Si3 0.198585 0.442583 0.565558
Si Si4 0.280120 0.582376 0.251640
Si Si5 0.873925 0.880355 0.611189
Si Si6 0.414079 0.792087 0.955403
O O1 0.663161 0.351488 0.427285
O O2 0.312059 0.110247 0.271462
O O3 0.500000 0.500000 0.000000
O O4 0.338086 0.538938 0.042895
O O5 0.964343 0.921758 0.776348
O O6 0.996469 0.309228 0.574964
O O7 0.000000 0.000000 0.000000
O O8 0.184356 0.554348 0.332945
O O9 0.351819 0.238199 0.845283
O O10 0.500000 0.500000 0.500000
O O11 0.164255 0.382868 0.247020
O O12 0.330472 0.799748 0.020681
O O13 0.665565 0.000725 0.350442
O O14 0.000000 0.000000 0.500000
#
# Coordination Sequence:
#
# PCOD9091984 Si02
#       6
#     2   2   2   2   2   2
#     4  10  20  41  66  89 136 166 211 274 323 383
#     4  12  21  40  69  92 130 174 216 274 324 382
#     4   9  20  38  65  97 126 171 218 263 324 394
#     4  10  19  40  64  92 131 169 212 272 325 383
#     4  12  24  41  66  97 133 170 222 272 322 392
#     4   9  22  41  65  93 133 174 212 268 336 378
#
# _framework density 28.085844999999999
#
# number of rings (size 3 to 8) (size 9 to 14) (size 15 to 20)
#    1.000    0.667    5.000    0.000    0.000    3.333 
#    0.000    4.167    3.667    0.000    0.000    0.000 
#    0.000    0.000    0.000    0.000    0.000    0.000 
#
# Total GULP energy -66989.891039 kJ/mol
# GULP energy per Si atom -5582.490920 kJ/mol
# Density = 2.802192 g / cm^3
# Si number density = 28.085845 Si / 1000 Ang^3
#
#
#
# Elastic Constant Matrix: (Units=GPa)
#
#
# Indices 1 2 3 4 5 6 
#
# 1 165.8545 89.7889 59.5050 10.8475 -54.7947 14.8297
# 2 89.7889 266.3549 53.3900 -17.3809 -21.4145 -3.6999
# 3 59.5050 53.3900 149.5198 30.4060 -6.5528 2.6453
# 4 10.8475 -17.3809 30.4060 37.6823 -3.2920 -15.7452
# 5 -54.7947 -21.4145 -6.5528 -3.2920 71.1489 7.4957
# 6 14.8297 -3.6999 2.6453 -15.7452 7.4957 57.2714
#
#
#
# Elastic Compliance Matrix: (Units=1/GPa)
#
#
# Indices 1 2 3 4 5 6 
#
# 1 0.012428 -0.003468 -0.002182 -0.005116 0.008710 -0.005888
# 2 -0.003468 0.005738 -0.002136 0.006666 -0.001185 0.003355
# 3 -0.002182 -0.002136 0.010305 -0.009878 -0.001561 -0.002560
# 4 -0.005116 0.006666 -0.009878 0.045083 -0.002328 0.014911
# 5 0.008710 -0.001185 -0.001561 -0.002328 0.020747 -0.005615
# 6 -0.005888 0.003355 -0.002560 0.014911 -0.005615 0.024155
#
#
# Mechanical properties :
#
#
# Convention : Reuss Voigt Hill
#
# Bulk Modulus (GPa) = 77.51600 109.67742 93.59671
# Shear Modulus (GPa) = 36.14685 58.49020 47.31852
#
# Velocity S-wave (km/s) = 3.59139 4.56845 4.10906
# Velocity P-wave (km/s) = 6.69754 8.18310 7.47731
#
# Compressibility (1/GPa) = 0.01290056
#
# Stress axis : x y z
#
# Youngs Moduli (GPa) = 80.46262 174.28418 97.04377
#
# Poissons Ratio (x) = 0.60434 0.21171
# Poissons Ratio (y) = 0.27901 0.20726
# Poissons Ratio (z) = 0.17554 0.37223
#
# Static dielectric constant tensor:
#      x y z
#    x 2.593670 0.283960 0.056690 
#    y 0.283960 2.547510 0.100370 
#    z 0.056690 0.100370 2.249730 
# 
# From -- ./inp_files/427325.got.cif
#   From: 2010.05.17/outbox.cif.g08.bks.cpg/sg2_214_cif.got.tgz:427325.got - 2010.06.03 11:33:40.
