data_PCOD9091469
_publ_section_title
;
Structure prediction by ZEFSAII (Michael W. Deem and Ramdas Pophale) SiO2 
 PCOD9091469
Probable space group: P -1
;
_chemical_formula_sum "Si O2"
_cell_formula_units_Z 14
_cell_length_a 11.148908
_cell_length_b 11.297013
_cell_length_c 9.354303
_cell_angle_alpha 38.372954
_cell_angle_beta 53.294037
_cell_angle_gamma 65.968183
_cell_volume 581.885489
_symmetry_space_group_name_H-M "P -1"
_symmetry_group_IT_number 2
_symmetry_cell_setting 'triclinic'
loop_
_space_group_symop_operation_xyz
x,y,z
-x,-y,-z
loop_
_atom_site_type_symbol
_atom_site_label
_atom_site_fract_x
_atom_site_fract_y
_atom_site_fract_z
Si Si1 0.429744 0.858365 0.559530
Si Si2 0.015760 0.823227 0.516797
Si Si3 0.499134 0.855781 0.004790
Si Si4 0.853157 0.081055 0.164549
Si Si5 0.169636 0.667721 0.308299
Si Si6 0.276151 0.277306 0.599064
Si Si7 0.790383 0.798298 0.946960
O O1 0.542501 0.713023 0.561761
O O2 0.500000 0.000000 0.500000
O O3 0.419451 0.011487 0.299618
O O4 0.263508 0.792492 0.795808
O O5 0.068212 0.663910 0.525807
O O6 0.935883 0.973172 0.330790
O O7 0.914787 0.739710 0.801402
O O8 0.162706 0.969184 0.319468
O O9 0.622609 0.717480 0.089016
O O10 0.334067 0.777067 0.138554
O O11 0.500000 0.000000 0.000000
O O12 0.779347 0.904968 0.285684
O O13 0.913866 0.223961 0.857948
O O14 0.213390 0.467651 0.412931
O O15 0.220666 0.245225 0.833700
#
# Coordination Sequence:
#
# PCOD9091469 Si02
#       7
#     2   2   2   2   2   2   2
#     4  10  19  39  66  92 126 166 208 267 317 362
#     4  11  23  42  70  93 126 178 213 256 327 385
#     4  12  19  41  70  90 126 170 212 268 313 376
#     4  11  22  44  66  94 130 171 213 267 313 387
#     4  12  25  40  70  98 128 169 217 262 328 374
#     4  11  24  42  66  98 132 164 216 270 319 379
#     4  11  23  41  67  96 126 172 217 260 321 380
#
# _framework density 24.059718
#
# number of rings (size 3 to 8) (size 9 to 14) (size 15 to 20)
#    0.000    0.857    8.571    0.429    0.000    2.286 
#    0.000    0.000    0.000    0.000    0.000    0.000 
#    0.000    0.000    0.000    0.000    0.000    0.000 
#
# Total GULP energy -78024.094768 kJ/mol
# GULP energy per Si atom -5573.149626 kJ/mol
# Density = 2.400496 g / cm^3
# Si number density = 24.059718 Si / 1000 Ang^3
#
#
#
# Elastic Constant Matrix: (Units=GPa)
#
#
# Indices 1 2 3 4 5 6 
#
# 1 113.3051 19.1846 32.2489 10.1313 9.2351 -3.7516
# 2 19.1846 123.2695 49.6687 22.2470 -3.9580 -23.2342
# 3 32.2489 49.6687 52.3783 32.2912 7.9248 4.7315
# 4 10.1313 22.2470 32.2912 52.6954 -0.8948 1.2774
# 5 9.2351 -3.9580 7.9248 -0.8948 30.8817 13.5165
# 6 -3.7516 -23.2342 4.7315 1.2774 13.5165 32.7268
#
#
#
# Elastic Compliance Matrix: (Units=1/GPa)
#
#
# Indices 1 2 3 4 5 6 
#
# 1 0.012519 0.004998 -0.015879 0.004976 -0.002423 0.008085
# 2 0.004998 0.022286 -0.031289 0.008325 0.000755 0.020282
# 3 -0.015879 -0.031289 0.083863 -0.034500 -0.007990 -0.031512
# 4 0.004976 0.008325 -0.034500 0.035569 0.006165 0.007534
# 5 -0.002423 0.000755 -0.007990 0.006165 0.042624 -0.016431
# 6 0.008085 0.020282 -0.031512 0.007534 -0.016431 0.056930
#
#
# Mechanical properties :
#
#
# Convention : Reuss Voigt Hill
#
# Bulk Modulus (GPa) = 29.13055 54.57301 41.85178
# Shear Modulus (GPa) = 14.30310 35.78416 25.04363
#
# Velocity S-wave (km/s) = 2.44085 3.86074 3.22979
# Velocity P-wave (km/s) = 4.48080 6.52728 5.59834
#
# Compressibility (1/GPa) = 0.03432822
#
# Stress axis : x y z
#
# Youngs Moduli (GPa) = 79.87744 44.87041 11.92415
#
# Poissons Ratio (x) = -0.22425 0.18934
# Poissons Ratio (y) = -0.39920 0.37310
# Poissons Ratio (z) = 1.26835 1.40397
#
# Static dielectric constant tensor:
#      x y z
#    x 2.091750 -0.030810 -0.034640 
#    y -0.030810 1.930420 0.030610 
#    z -0.034640 0.030610 1.870740 
# 
# From -- ./inp_files/255668.got.cif
#   From: 2010.05.17/outbox.cif.g08.bks.cpg/sg2_128_cif.got.tgz:255668.got - 2010.06.03 11:33:40.
