data_PCOD9091510
_publ_section_title
;
Structure prediction by ZEFSAII (Michael W. Deem and Ramdas Pophale) SiO2 
 PCOD9091510
Probable space group: P -1
;
_chemical_formula_sum "Si O2"
_cell_formula_units_Z 14
_cell_length_a 11.904719
_cell_length_b 10.151374
_cell_length_c 5.141182
_cell_angle_alpha 85.004655
_cell_angle_beta 66.263088
_cell_angle_gamma 105.426941
_cell_volume 534.820525
_symmetry_space_group_name_H-M "P -1"
_symmetry_group_IT_number 2
_symmetry_cell_setting 'triclinic'
loop_
_space_group_symop_operation_xyz
x,y,z
-x,-y,-z
loop_
_atom_site_type_symbol
_atom_site_label
_atom_site_fract_x
_atom_site_fract_y
_atom_site_fract_z
Si Si1 0.899077 0.542046 0.774866
Si Si2 0.252981 0.695041 0.653628
Si Si3 0.454227 0.290695 0.578584
Si Si4 0.919211 0.895302 0.369119
Si Si5 0.248813 0.987907 0.860770
Si Si6 0.108670 0.785609 0.396445
Si Si7 0.322367 0.352538 0.196787
O O1 0.767350 0.550667 0.765025
O O2 0.000000 0.500000 0.500000
O O3 0.992719 0.703136 0.723349
O O4 0.849857 0.433890 0.075602
O O5 0.393968 0.682805 0.549293
O O6 0.255421 0.845390 0.744869
O O7 0.210366 0.708008 0.394461
O O8 0.415114 0.362866 0.352688
O O9 0.376451 0.122286 0.681603
O O10 0.398471 0.347742 0.867008
O O11 0.786868 0.797068 0.634093
O O12 0.006194 0.793161 0.264241
O O13 0.867485 0.966177 0.168578
O O14 0.000000 0.000000 0.500000
O O15 0.214723 0.937082 0.199021
#
# Coordination Sequence:
#
# PCOD9091510 Si02
#       7
#     2   2   2   2   2   2   2
#     4  11  25  48  73 105 137 183 239 295 358 419
#     4  12  26  43  70 102 144 190 233 292 348 424
#     4  11  27  47  71 107 143 191 240 283 354 424
#     4  10  19  39  66  99 137 176 228 287 353 415
#     4  11  23  42  69 104 140 186 232 295 353 422
#     4  11  23  40  69 101 137 180 232 293 360 408
#     4  10  26  47  73 101 143 188 237 294 346 423
#
# _framework density 26.177005000000001
#
# number of rings (size 3 to 8) (size 9 to 14) (size 15 to 20)
#    0.000    1.143    2.857    2.143    4.000    7.429 
#    0.000    0.000    0.000    0.000    0.000    0.000 
#    0.000    0.000    0.000    0.000    0.000    0.000 
#
# Total GULP energy -78074.897693 kJ/mol
# GULP energy per Si atom -5576.778407 kJ/mol
# Density = 2.611742 g / cm^3
# Si number density = 26.177005 Si / 1000 Ang^3
#
#
#
# Elastic Constant Matrix: (Units=GPa)
#
#
# Indices 1 2 3 4 5 6 
#
# 1 238.0660 50.7657 113.3725 -15.9828 7.3248 -40.1891
# 2 50.7657 129.3500 65.2273 -24.8707 3.6365 -19.4127
# 3 113.3725 65.2273 236.7591 -53.8508 12.8093 -27.5186
# 4 -15.9828 -24.8707 -53.8508 71.7447 -4.6680 -7.3280
# 5 7.3248 3.6365 12.8093 -4.6680 56.2573 -8.6192
# 6 -40.1891 -19.4127 -27.5186 -7.3280 -8.6192 51.1072
#
#
#
# Elastic Compliance Matrix: (Units=1/GPa)
#
#
# Indices 1 2 3 4 5 6 
#
# 1 0.006000 -0.000756 -0.002406 -0.000395 0.000261 0.003123
# 2 -0.000756 0.009609 -0.001457 0.002370 0.000416 0.002681
# 3 -0.002406 -0.001457 0.007022 0.004385 -0.000540 0.001873
# 4 -0.000395 0.002370 0.004385 0.018648 0.001344 0.005851
# 5 0.000261 0.000416 -0.000540 0.001344 0.018467 0.003380
# 6 0.003123 0.002681 0.001873 0.005851 0.003380 0.025458
#
#
# Mechanical properties :
#
#
# Convention : Reuss Voigt Hill
#
# Bulk Modulus (GPa) = 74.67153 118.10069 96.38611
# Shear Modulus (GPa) = 50.55282 60.80913 55.68097
#
# Velocity S-wave (km/s) = 4.39930 4.82498 4.61705
# Velocity P-wave (km/s) = 7.37514 8.73239 8.08231
#
# Compressibility (1/GPa) = 0.01339199
#
# Stress axis : x y z
#
# Youngs Moduli (GPa) = 166.66222 104.07183 142.41782
#
# Poissons Ratio (x) = 0.07871 0.34264
# Poissons Ratio (y) = 0.12605 0.20751
# Poissons Ratio (z) = 0.40097 0.15164
#
# Static dielectric constant tensor:
#      x y z
#    x 1.979150 -0.071910 -0.006560 
#    y -0.071910 2.596360 0.154760 
#    z -0.006560 0.154760 2.116270 
# 
# From -- ./inp_files/65806.got.cif
#   From: 2010.05.17/outbox.cif.g08.bks.cpg/sg2_33_cif.got.tgz:65806.got - 2010.06.03 11:33:40.
