data_PCOD9091967
_publ_section_title
;
Structure prediction by ZEFSAII (Michael W. Deem and Ramdas Pophale) SiO2 
 PCOD9091967
Probable space group: P -1
;
_chemical_formula_sum "Si O2"
_cell_formula_units_Z 16
_cell_length_a 9.575435
_cell_length_b 15.174656
_cell_length_c 23.611740
_cell_angle_alpha 160.108309
_cell_angle_beta 48.465979
_cell_angle_gamma 133.971461
_cell_volume 839.385446
_symmetry_space_group_name_H-M "P -1"
_symmetry_group_IT_number 2
_symmetry_cell_setting 'triclinic'
loop_
_space_group_symop_operation_xyz
x,y,z
-x,-y,-z
loop_
_atom_site_type_symbol
_atom_site_label
_atom_site_fract_x
_atom_site_fract_y
_atom_site_fract_z
Si Si1 0.583566 0.762061 0.676538
Si Si2 0.611516 0.347682 0.734693
Si Si3 0.918695 0.575613 0.510209
Si Si4 0.691970 0.905919 0.006648
Si Si5 0.800321 0.036837 0.413240
Si Si6 0.047934 0.964171 0.874586
Si Si7 0.098399 0.729495 0.159236
Si Si8 0.278250 0.477809 0.062888
O O1 0.500000 0.500000 0.500000
O O2 0.720639 0.655976 0.618120
O O3 0.724759 0.022274 0.762905
O O4 0.424119 0.874249 0.819179
O O5 0.564858 0.601680 0.868959
O O6 0.763865 0.253842 0.598058
O O7 0.695215 0.392931 0.803042
O O8 0.407284 0.122898 0.651939
O O9 0.000000 0.500000 0.500000
O O10 0.069541 0.820931 0.587676
O O11 0.904169 0.315624 0.318423
O O12 0.836209 0.927754 0.034245
O O13 0.822883 0.933113 0.931493
O O14 0.922827 0.854236 0.298347
O O15 0.140994 0.175114 0.927833
O O16 0.183530 0.609365 0.117739
O O17 0.000000 0.500000 0.000000
O O18 0.500000 0.500000 0.000000
#
# Coordination Sequence:
#
# PCOD9091967 Si02
#       8
#     2   2   2   2   2   2   2   2
#     4  11  23  39  66  93 123 162 213 260 310 371
#     4  10  21  40  65  91 123 169 209 257 309 382
#     4  11  24  39  61  93 127 163 201 261 314 372
#     4  10  19  40  64  90 122 162 207 254 310 377
#     4  10  22  41  64  90 128 166 206 256 324 369
#     4  10  21  37  64  88 123 160 205 252 314 365
#     4  11  24  41  63  92 130 166 209 263 315 376
#     4  11  24  38  65  91 120 165 216 256 305 377
#
# _framework density 19.061565000000002
#
# number of rings (size 3 to 8) (size 9 to 14) (size 15 to 20)
#    0.000    1.500    2.500    3.000    5.250    0.500 
#    0.000    3.125    0.000    0.000    0.000    0.000 
#    0.000    0.000    0.000    0.000    0.000    0.000 
#
# Total GULP energy -89176.553787 kJ/mol
# GULP energy per Si atom -5573.534612 kJ/mol
# Density = 1.901818 g / cm^3
# Si number density = 19.061565 Si / 1000 Ang^3
#
#
#
# Elastic Constant Matrix: (Units=GPa)
#
#
# Indices 1 2 3 4 5 6 
#
# 1 103.4881 37.9913 30.0652 0.7911 -28.2243 -15.5603
# 2 37.9913 71.6929 31.3685 5.0521 -12.1282 -7.2552
# 3 30.0652 31.3685 99.2463 -6.2880 -20.9959 -2.3618
# 4 0.7911 5.0521 -6.2880 31.6611 8.1159 -3.8896
# 5 -28.2243 -12.1282 -20.9959 8.1159 41.0015 5.0373
# 6 -15.5603 -7.2552 -2.3618 -3.8896 5.0373 13.5682
#
#
#
# Elastic Compliance Matrix: (Units=1/GPa)
#
#
# Indices 1 2 3 4 5 6 
#
# 1 0.015809 -0.005340 -0.001304 -0.000113 0.007138 0.012365
# 2 -0.005340 0.019314 -0.004641 -0.003607 0.000088 0.002329
# 3 -0.001304 -0.004641 0.012902 0.001890 0.004305 -0.002788
# 4 -0.000113 -0.003607 0.001890 0.036267 -0.008823 0.011943
# 5 0.007138 0.000088 0.004305 -0.008823 0.034040 -0.006184
# 6 0.012365 0.002329 -0.002788 0.011943 -0.006184 0.094362
#
#
# Mechanical properties :
#
#
# Convention : Reuss Voigt Hill
#
# Bulk Modulus (GPa) = 39.28638 52.58637 45.93637
# Shear Modulus (GPa) = 20.51294 28.91299 24.71296
#
# Velocity S-wave (km/s) = 3.28402 3.89886 3.60457
# Velocity P-wave (km/s) = 5.91901 6.92212 6.44013
#
# Compressibility (1/GPa) = 0.02545412
#
# Stress axis : x y z
#
# Youngs Moduli (GPa) = 63.25469 51.77702 77.50768
#
# Poissons Ratio (x) = 0.27649 0.10107
# Poissons Ratio (y) = 0.33778 0.35972
# Poissons Ratio (z) = 0.08249 0.24030
#
# Static dielectric constant tensor:
#      x y z
#    x 1.614790 -0.053650 -0.220610 
#    y -0.053650 1.589090 -0.347810 
#    z -0.220610 -0.347810 0.475740 
# 
# From -- ./inp_files/258911.got.cif
#   From: 2010.05.17/outbox.cif.g08.bks.cpg/sg2_130_cif.got.tgz:258911.got - 2010.06.03 11:33:40.
