data_PCOD9091609
_publ_section_title
;
Structure prediction by ZEFSAII (Michael W. Deem and Ramdas Pophale) SiO2 
 PCOD9091609
Probable space group: P -1
;
_chemical_formula_sum "Si O2"
_cell_formula_units_Z 14
_cell_length_a 9.770838
_cell_length_b 9.779856
_cell_length_c 14.459518
_cell_angle_alpha 41.407264
_cell_angle_beta 65.252374
_cell_angle_gamma 41.609815
_cell_volume 574.194186
_symmetry_space_group_name_H-M "P -1"
_symmetry_group_IT_number 2
_symmetry_cell_setting 'triclinic'
loop_
_space_group_symop_operation_xyz
x,y,z
-x,-y,-z
loop_
_atom_site_type_symbol
_atom_site_label
_atom_site_fract_x
_atom_site_fract_y
_atom_site_fract_z
Si Si1 0.389258 0.511280 0.615776
Si Si2 0.355995 0.923828 0.515739
Si Si3 0.758242 0.633030 0.412106
Si Si4 0.068037 0.100919 0.737502
Si Si5 0.165183 0.557743 0.020935
Si Si6 0.684128 0.919747 0.926977
Si Si7 0.281454 0.447756 0.254402
O O1 0.500000 0.500000 0.500000
O O2 0.258899 0.811836 0.557699
O O3 0.587466 0.232971 0.762325
O O4 0.263194 0.441021 0.646059
O O5 0.544120 0.800314 0.450614
O O6 0.484077 0.755753 0.660014
O O7 0.220976 0.267333 0.386365
O O8 0.788231 0.848781 0.294556
O O9 0.943534 0.319058 0.573395
O O10 0.914516 0.728150 0.008254
O O11 0.890677 0.246026 0.796025
O O12 0.171154 0.774794 0.858933
O O13 0.281143 0.264879 0.077256
O O14 0.262650 0.491825 0.128541
O O15 0.500000 0.000000 0.000000
#
# Coordination Sequence:
#
# PCOD9091609 Si02
#       7
#     2   2   2   2   2   2   2
#     4  10  19  39  68  89 125 178 218 270 336 378
#     4   9  19  38  62  93 125 169 219 271 325 384
#     4   9  19  37  61  90 129 163 224 273 311 392
#     4  10  21  38  60  96 132 168 214 270 325 387
#     4  11  23  44  68  89 137 179 209 272 340 385
#     4  11  26  45  66 100 133 167 229 272 327 406
#     4  10  20  37  63  93 126 171 215 262 327 394
#
# _framework density 24.381995
#
# number of rings (size 3 to 8) (size 9 to 14) (size 15 to 20)
#    0.000    2.000    0.000    4.714    2.000    1.143 
#   12.857    2.143    0.000    0.000    0.000    0.000 
#    0.000    0.000    0.000    0.000    0.000    0.000 
#
# Total GULP energy -78354.091111 kJ/mol
# GULP energy per Si atom -5596.720794 kJ/mol
# Density = 2.432650 g / cm^3
# Si number density = 24.381995 Si / 1000 Ang^3
#
#
#
# Elastic Constant Matrix: (Units=GPa)
#
#
# Indices 1 2 3 4 5 6 
#
# 1 105.5100 24.7714 8.3027 3.9265 -6.3773 24.4537
# 2 24.7714 67.3901 17.1465 -5.1668 -5.6529 19.9467
# 3 8.3027 17.1465 81.8778 0.7349 -4.2915 -7.7622
# 4 3.9265 -5.1668 0.7349 36.4958 9.1242 -8.3132
# 5 -6.3773 -5.6529 -4.2915 9.1242 34.1738 -2.2205
# 6 24.4537 19.9467 -7.7622 -8.3132 -2.2205 41.0408
#
#
#
# Elastic Compliance Matrix: (Units=1/GPa)
#
#
# Indices 1 2 3 4 5 6 
#
# 1 0.011965 -0.002100 -0.001283 -0.003715 0.002262 -0.006981
# 2 -0.002100 0.019629 -0.004674 0.000684 0.001504 -0.008953
# 3 -0.001283 -0.004674 0.013922 0.000251 0.001044 0.005777
# 4 -0.003715 0.000684 0.000251 0.031828 -0.008532 0.007914
# 5 0.002262 0.001504 0.001044 -0.008532 0.032221 -0.001866
# 6 -0.006981 -0.008953 0.005777 0.007914 -0.001866 0.035471
#
#
# Mechanical properties :
#
#
# Convention : Reuss Voigt Hill
#
# Bulk Modulus (GPa) = 34.01212 39.46879 36.74046
# Shear Modulus (GPa) = 29.24827 35.97923 32.61375
#
# Velocity S-wave (km/s) = 3.46726 3.84558 3.66131
# Velocity P-wave (km/s) = 5.47806 5.99507 5.74239
#
# Compressibility (1/GPa) = 0.02940128
#
# Stress axis : x y z
#
# Youngs Moduli (GPa) = 83.57842 50.94627 71.82723
#
# Poissons Ratio (x) = 0.10700 0.09218
# Poissons Ratio (y) = 0.17553 0.33569
# Poissons Ratio (z) = 0.10726 0.23810
#
# Static dielectric constant tensor:
#      x y z
#    x 1.994360 -0.033010 -0.025910 
#    y -0.033010 1.964360 0.004850 
#    z -0.025910 0.004850 1.901330 
# 
# From -- ./inp_files/531485.got.cif
#   From: 2010.05.17/outbox.cif.g08.bks.cpg/sg2_266_cif.got.tgz:531485.got - 2010.06.03 11:33:40.
