data_PCOD9091896
_publ_section_title
;
Structure prediction by ZEFSAII (Michael W. Deem and Ramdas Pophale) SiO2 
 PCOD9091896
Probable space group: P -1
;
_chemical_formula_sum "Si O2"
_cell_formula_units_Z 14
_cell_length_a 14.522646
_cell_length_b 20.963375
_cell_length_c 6.629438
_cell_angle_alpha 105.518807
_cell_angle_beta 93.299022
_cell_angle_gamma 154.353892
_cell_volume 587.278325
_symmetry_space_group_name_H-M "P -1"
_symmetry_group_IT_number 2
_symmetry_cell_setting 'triclinic'
loop_
_space_group_symop_operation_xyz
x,y,z
-x,-y,-z
loop_
_atom_site_type_symbol
_atom_site_label
_atom_site_fract_x
_atom_site_fract_y
_atom_site_fract_z
Si Si1 0.073886 0.220809 0.875080
Si Si2 0.867773 0.944479 0.630845
Si Si3 0.503019 0.132211 0.233096
Si Si4 0.796019 0.227486 0.612486
Si Si5 0.769802 0.439494 0.718543
Si Si6 0.407534 0.546884 0.437572
Si Si7 0.990545 0.223971 0.461302
O O1 0.032686 0.197420 0.612237
O O2 0.084703 0.153191 0.896557
O O3 0.777468 0.050989 0.799446
O O4 0.351193 0.456857 0.174640
O O5 0.552639 0.767014 0.385391
O O6 0.739702 0.806138 0.665698
O O7 0.000000 0.000000 0.500000
O O8 0.694326 0.199826 0.382823
O O9 0.709480 0.338507 0.471616
O O10 0.327406 0.004622 0.892149
O O11 0.979817 0.287900 0.623581
O O12 0.500000 0.000000 0.500000
O O13 0.980081 0.397764 0.940833
O O14 0.811932 0.538402 0.693474
O O15 0.269996 0.417431 0.504779
#
# Coordination Sequence:
#
# PCOD9091896 Si02
#       7
#     2   2   2   2   2   2   2
#     4  10  19  40  63  87 127 160 200 252 306 360
#     4   9  20  40  67  89 117 160 202 251 313 367
#     4  10  21  36  57  87 124 164 206 246 293 358
#     4  12  20  36  61  85 124 166 206 242 299 362
#     4   9  20  40  57  84 127 153 202 258 295 354
#     4   9  20  39  60  87 123 160 200 254 302 357
#     4  11  20  38  61  89 124 166 201 251 300 355
#
# _framework density 23.838781999999998
#
# number of rings (size 3 to 8) (size 9 to 14) (size 15 to 20)
#    0.857    1.143    2.857    1.714    0.000    0.571 
#    7.714    2.143    0.000   14.571    0.000    0.000 
#    0.000    0.000    0.000    0.000    0.000    0.000 
#
# Total GULP energy -78194.997430 kJ/mol
# GULP energy per Si atom -5585.356959 kJ/mol
# Density = 2.378452 g / cm^3
# Si number density = 23.838782 Si / 1000 Ang^3
#
#
#
# Elastic Constant Matrix: (Units=GPa)
#
#
# Indices 1 2 3 4 5 6 
#
# 1 62.8163 21.4428 25.8611 8.2523 -6.8098 -16.4918
# 2 21.4428 73.9077 47.3657 -4.2657 3.0633 -25.2043
# 3 25.8611 47.3657 132.3015 25.8366 -3.4096 -27.8533
# 4 8.2523 -4.2657 25.8366 38.7319 -8.8432 -5.3729
# 5 -6.8098 3.0633 -3.4096 -8.8432 30.1882 4.0985
# 6 -16.4918 -25.2043 -27.8533 -5.3729 4.0985 41.1786
#
#
#
# Elastic Compliance Matrix: (Units=1/GPa)
#
#
# Indices 1 2 3 4 5 6 
#
# 1 0.019423 -0.003945 -0.000931 -0.002622 0.003358 0.004058
# 2 -0.003945 0.023142 -0.007448 0.008995 -0.002664 0.008986
# 3 -0.000931 -0.007448 0.012669 -0.008943 -0.000992 0.002570
# 4 -0.002622 0.008995 -0.008943 0.035369 0.007538 0.002272
# 5 0.003358 -0.002664 -0.000992 0.007538 0.036742 -0.003630
# 6 0.004058 0.008986 0.002570 0.002272 -0.003630 0.033806
#
#
# Mechanical properties :
#
#
# Convention : Reuss Voigt Hill
#
# Bulk Modulus (GPa) = 32.69466 50.92941 41.81203
# Shear Modulus (GPa) = 25.51094 33.64346 29.57720
#
# Velocity S-wave (km/s) = 3.27486 3.76079 3.52620
# Velocity P-wave (km/s) = 5.29568 6.34575 5.84435
#
# Compressibility (1/GPa) = 0.03058603
#
# Stress axis : x y z
#
# Youngs Moduli (GPa) = 51.48436 43.21165 78.93512
#
# Poissons Ratio (x) = 0.17047 0.07353
# Poissons Ratio (y) = 0.20310 0.58787
# Poissons Ratio (z) = 0.04796 0.32182
#
# Static dielectric constant tensor:
#      x y z
#    x 1.899470 -0.011830 0.004700 
#    y -0.011830 1.916400 0.041670 
#    z 0.004700 0.041670 1.916000 
# 
# From -- ./inp_files/106739.got.cif
#   From: 2010.05.17/outbox.cif.g08.bks.cpg/sg2_54_cif.got.tgz:106739.got - 2010.06.03 11:33:40.
