data_PCOD9091564
_publ_section_title
;
Structure prediction by ZEFSAII (Michael W. Deem and Ramdas Pophale) SiO2 
 PCOD9091564
Probable space group: P -1
;
_chemical_formula_sum "Si O2"
_cell_formula_units_Z 14
_cell_length_a 12.060984
_cell_length_b 9.653600
_cell_length_c 9.320368
_cell_angle_alpha 118.200488
_cell_angle_beta 72.822900
_cell_angle_gamma 61.708994
_cell_volume 625.801549
_symmetry_space_group_name_H-M "P -1"
_symmetry_group_IT_number 2
_symmetry_cell_setting 'triclinic'
loop_
_space_group_symop_operation_xyz
x,y,z
-x,-y,-z
loop_
_atom_site_type_symbol
_atom_site_label
_atom_site_fract_x
_atom_site_fract_y
_atom_site_fract_z
Si Si1 0.853615 0.419852 0.112190
Si Si2 0.489685 0.950345 0.141386
Si Si3 0.854517 0.570783 0.487478
Si Si4 0.366581 0.456945 0.252532
Si Si5 0.664336 0.893602 0.300769
Si Si6 0.824442 0.063094 0.328810
Si Si7 0.349421 0.665668 0.750475
O O1 0.917529 0.428326 0.245592
O O2 0.801661 0.623303 0.141729
O O3 0.699953 0.454232 0.225978
O O4 0.982133 0.181534 0.860917
O O5 0.600584 0.960329 0.195664
O O6 0.292368 0.155968 0.361103
O O7 0.588771 0.686603 0.976745
O O8 0.500000 0.000000 0.000000
O O9 0.745151 0.546469 0.602484
O O10 0.000000 0.500000 0.500000
O O11 0.252040 0.726126 0.437719
O O12 0.557835 0.312764 0.161570
O O13 0.500000 0.000000 0.500000
O O14 0.723894 0.004847 0.374662
O O15 0.796828 0.133123 0.203819
O O16 0.500000 0.500000 0.500000
#
# Coordination Sequence:
#
# PCOD9091564 Si02
#       7
#     2   2   2   2   2   2   2
#     4  12  24  40  67 105 136 176 226 285 344 390
#     4  10  23  43  67  96 131 181 226 268 330 409
#     4  11  23  38  65 103 137 171 222 281 336 399
#     4  10  22  40  65  96 129 175 229 273 326 391
#     4  12  24  45  70  97 137 182 232 275 334 408
#     4  11  23  39  65 100 136 174 223 283 334 402
#     4  10  19  39  67  94 132 175 234 272 318 407
#
# _framework density 22.371309
#
# number of rings (size 3 to 8) (size 9 to 14) (size 15 to 20)
#    0.000    1.143    4.286    4.286    6.000    0.000 
#    0.000    3.571    0.000    0.000    0.000    0.000 
#    0.000    0.000    0.000    0.000    0.000    0.000 
#
# Total GULP energy -78061.051186 kJ/mol
# GULP energy per Si atom -5575.789370 kJ/mol
# Density = 2.232039 g / cm^3
# Si number density = 22.371309 Si / 1000 Ang^3
#
#
#
# Elastic Constant Matrix: (Units=GPa)
#
#
# Indices 1 2 3 4 5 6 
#
# 1 105.5601 20.5672 19.4295 3.5425 0.3763 14.3605
# 2 20.5672 76.5221 21.0436 25.4147 -1.2638 15.0917
# 3 19.4295 21.0436 87.0037 42.9056 3.3078 14.3267
# 4 3.5425 25.4147 42.9056 45.3164 5.2564 4.1433
# 5 0.3763 -1.2638 3.3078 5.2564 20.1685 5.5528
# 6 14.3605 15.0917 14.3267 4.1433 5.5528 31.9929
#
#
#
# Elastic Compliance Matrix: (Units=1/GPa)
#
#
# Indices 1 2 3 4 5 6 
#
# 1 0.010864 -0.002915 -0.003407 0.004268 -0.000255 -0.002484
# 2 -0.002915 0.019515 0.004600 -0.015039 0.006981 -0.009221
# 3 -0.003407 0.004600 0.025400 -0.026138 0.005644 -0.009609
# 4 0.004268 -0.015039 -0.026138 0.055486 -0.014562 0.012225
# 5 -0.000255 0.006981 0.005644 -0.014562 0.056653 -0.013653
# 6 -0.002484 -0.009221 -0.009609 0.012225 -0.013653 0.041812
#
#
# Mechanical properties :
#
#
# Convention : Reuss Voigt Hill
#
# Bulk Modulus (GPa) = 19.10752 43.46295 31.28524
# Shear Modulus (GPa) = 21.68089 33.36528 27.52309
#
# Velocity S-wave (km/s) = 3.11648 3.86610 3.51135
# Velocity P-wave (km/s) = 4.63784 6.27687 5.51854
#
# Compressibility (1/GPa) = 0.05233543
#
# Stress axis : x y z
#
# Youngs Moduli (GPa) = 92.04762 51.24230 39.37070
#
# Poissons Ratio (x) = 0.14936 0.13414
# Poissons Ratio (y) = 0.26829 -0.18111
# Poissons Ratio (z) = 0.31361 -0.23572
#
# Static dielectric constant tensor:
#      x y z
#    x 1.969650 -0.066040 0.039850 
#    y -0.066040 1.969500 0.048900 
#    z 0.039850 0.048900 1.882430 
# 
# From -- ./inp_files/244956.got.cif
#   From: 2010.05.17/outbox.cif.g08.bks.cpg/sg2_123_cif.got.tgz:244956.got - 2010.06.03 11:33:40.
