data_PCOD9091145
_publ_section_title
;
Structure prediction by ZEFSAII (Michael W. Deem and Ramdas Pophale) SiO2 
 PCOD9091145
Probable space group: P -1
;
_chemical_formula_sum "Si O2"
_cell_formula_units_Z 12
_cell_length_a 11.381091
_cell_length_b 17.622698
_cell_length_c 13.169014
_cell_angle_alpha 153.798372
_cell_angle_beta 155.897513
_cell_angle_gamma 31.389173
_cell_volume 467.373787
_symmetry_space_group_name_H-M "P -1"
_symmetry_group_IT_number 2
_symmetry_cell_setting 'triclinic'
loop_
_space_group_symop_operation_xyz
x,y,z
-x,-y,-z
loop_
_atom_site_type_symbol
_atom_site_label
_atom_site_fract_x
_atom_site_fract_y
_atom_site_fract_z
Si Si1 0.188064 0.158194 0.907672
Si Si2 0.810817 0.384698 0.400294
Si Si3 0.281037 0.027956 0.623675
Si Si4 0.175332 0.034269 0.328100
Si Si5 0.122486 0.488270 0.968795
Si Si6 0.793513 0.747896 0.740732
O O1 0.377583 0.128692 0.918790
O O2 0.913287 0.309685 0.848943
O O3 0.310411 0.209298 0.172294
O O4 0.042011 0.995372 0.626149
O O5 0.464694 0.407217 0.141111
O O6 0.891480 0.536635 0.571198
O O7 0.968712 0.180464 0.271511
O O8 0.909279 0.430341 0.646005
O O9 0.220021 0.113157 0.569462
O O10 0.516348 0.848448 0.578852
O O11 0.500000 0.000000 0.500000
O O12 0.041085 0.859874 0.037437
O O13 0.000000 0.500000 0.000000
#
# Coordination Sequence:
#
# PCOD9091145 Si02
#       6
#     2   2   2   2   2   2
#     4   9  19  34  63  97 135 172 212 267 346 414
#     4  11  25  45  67 100 139 179 230 283 341 411
#     4  10  19  39  63  95 133 174 219 273 338 408
#     4  11  27  45  66  96 131 183 240 288 336 395
#     4  11  22  39  65 104 143 179 220 277 345 419
#     4  10  22  42  68  95 137 173 226 280 347 409
#
# _framework density 25.675381999999999
#
# number of rings (size 3 to 8) (size 9 to 14) (size 15 to 20)
#    0.000    1.667    1.667    2.000    4.667    1.333 
#    0.000    0.833    0.000    0.000    0.000    0.000 
#    0.000    0.000    0.000    0.000    0.000    0.000 
#
# Total GULP energy -66924.028043 kJ/mol
# GULP energy per Si atom -5577.002337 kJ/mol
# Density = 2.561694 g / cm^3
# Si number density = 25.675382 Si / 1000 Ang^3
#
#
#
# Elastic Constant Matrix: (Units=GPa)
#
#
# Indices 1 2 3 4 5 6 
#
# 1 85.2032 14.4521 16.6392 1.2384 5.3861 14.5232
# 2 14.4521 207.4787 46.1515 -19.2360 25.1583 38.7068
# 3 16.6392 46.1515 111.6958 2.9042 16.5724 17.9095
# 4 1.2384 -19.2360 2.9042 49.6335 8.7975 2.6482
# 5 5.3861 25.1583 16.5724 8.7975 32.1311 -6.5254
# 6 14.5232 38.7068 17.9095 2.6482 -6.5254 24.8202
#
#
#
# Elastic Compliance Matrix: (Units=1/GPa)
#
#
# Indices 1 2 3 4 5 6 
#
# 1 0.014717 0.003965 0.000628 0.004027 -0.010756 -0.018506
# 2 0.003965 0.013696 0.001792 0.010646 -0.021687 -0.031809
# 3 0.000628 0.001792 0.012255 0.002864 -0.011740 -0.015396
# 4 0.004027 0.010646 0.002864 0.030076 -0.024977 -0.030800
# 5 -0.010756 -0.021687 -0.011740 -0.024977 0.077338 0.071583
# 6 -0.018506 -0.031809 -0.015396 -0.030800 0.071583 0.133940
#
#
# Mechanical properties :
#
#
# Convention : Reuss Voigt Hill
#
# Bulk Modulus (GPa) = 18.71350 62.09593 40.40471
# Shear Modulus (GPa) = 17.41764 43.12595 30.27179
#
# Velocity S-wave (km/s) = 2.60740 4.10281 3.43741
# Velocity P-wave (km/s) = 4.04586 6.83239 5.61474
#
# Compressibility (1/GPa) = 0.05343737
#
# Stress axis : x y z
#
# Youngs Moduli (GPa) = 67.94721 73.01373 81.59858
#
# Poissons Ratio (x) = -0.28952 -0.05121
# Poissons Ratio (y) = -0.26943 -0.14619
# Poissons Ratio (z) = -0.04265 -0.13081
#
# Static dielectric constant tensor:
#      x y z
#    x 2.536660 -0.113190 -0.361410 
#    y -0.113190 2.155130 0.214100 
#    z -0.361410 0.214100 2.280940 
# 
# From -- ./inp_files/28678.got.cif
#   From: 2010.05.17/outbox.cif.g08.bks.cpg/sg2_15_cif.got.tgz:28678.got - 2010.06.03 11:33:40.
