data_PCOD9091908
_publ_section_title
;
Structure prediction by ZEFSAII (Michael W. Deem and Ramdas Pophale) SiO2 
 PCOD9091908
Probable space group: P -1
;
_chemical_formula_sum "Si O2"
_cell_formula_units_Z 14
_cell_length_a 13.673256
_cell_length_b 7.209811
_cell_length_c 7.450348
_cell_angle_alpha 124.751892
_cell_angle_beta 124.423994
_cell_angle_gamma 71.722155
_cell_volume 497.739013
_symmetry_space_group_name_H-M "P -1"
_symmetry_group_IT_number 2
_symmetry_cell_setting 'triclinic'
loop_
_space_group_symop_operation_xyz
x,y,z
-x,-y,-z
loop_
_atom_site_type_symbol
_atom_site_label
_atom_site_fract_x
_atom_site_fract_y
_atom_site_fract_z
Si Si1 0.188906 0.689942 0.983483
Si Si2 0.808710 0.841863 0.967782
Si Si3 0.394805 0.413419 0.723755
Si Si4 0.846690 0.677863 0.538728
Si Si5 0.441800 0.714434 0.459392
Si Si6 0.066886 0.867990 0.277656
Si Si7 0.314552 0.896224 0.746895
O O1 0.318443 0.652593 0.190728
O O2 0.096685 0.694706 0.053717
O O3 0.199216 0.932552 0.035338
O O4 0.133709 0.532122 0.685284
O O5 0.824715 0.661621 0.722788
O O6 0.935381 0.831426 0.194138
O O7 0.701980 0.884694 0.020798
O O8 0.289826 0.279806 0.637955
O O9 0.453446 0.242137 0.549213
O O10 0.344753 0.657822 0.742772
O O11 0.500000 0.500000 0.000000
O O12 0.926904 0.887724 0.679702
O O13 0.500000 0.500000 0.500000
O O14 0.407038 0.891175 0.675015
O O15 0.180309 0.861765 0.517877
#
# Coordination Sequence:
#
# PCOD9091908 Si02
#       7
#     2   2   2   2   2   2   2
#     4  10  19  40  63  90 123 158 210 255 298 363
#     4  11  22  41  64  91 126 165 205 256 306 367
#     4  11  20  41  69  91 120 168 206 254 308 368
#     4  11  22  39  67  93 123 160 217 248 301 380
#     4   9  19  36  66  85 121 167 195 253 316 346
#     4  10  24  41  63  92 129 160 204 262 310 356
#     4  10  21  43  61  89 135 159 199 266 305 363
#
# _framework density 28.127192999999998
#
# number of rings (size 3 to 8) (size 9 to 14) (size 15 to 20)
#    0.000    1.714    2.857    2.143    0.000    2.286 
#    7.714   13.571    0.000    0.000    0.000    0.000 
#    0.000    0.000    0.000    0.000    0.000    0.000 
#
# Total GULP energy -78262.957251 kJ/mol
# GULP energy per Si atom -5590.211232 kJ/mol
# Density = 2.806317 g / cm^3
# Si number density = 28.127193 Si / 1000 Ang^3
#
#
#
# Elastic Constant Matrix: (Units=GPa)
#
#
# Indices 1 2 3 4 5 6 
#
# 1 139.8981 22.4385 32.6352 17.5233 -23.3474 -49.0471
# 2 22.4385 92.8806 20.6793 -24.0852 8.2309 -13.1084
# 3 32.6352 20.6793 138.2019 5.0431 -18.8048 -19.3729
# 4 17.5233 -24.0852 5.0431 51.4671 -14.8245 6.4427
# 5 -23.3474 8.2309 -18.8048 -14.8245 53.6066 5.5520
# 6 -49.0471 -13.1084 -19.3729 6.4427 5.5520 43.5045
#
#
#
# Elastic Compliance Matrix: (Units=1/GPa)
#
#
# Indices 1 2 3 4 5 6 
#
# 1 0.015159 -0.003682 0.000057 -0.008064 0.003218 0.016790
# 2 -0.003682 0.014040 -0.002043 0.007600 -0.002201 -0.001675
# 3 0.000057 -0.002043 0.008357 -0.001441 0.002555 0.003057
# 4 -0.008064 0.007600 -0.001441 0.028541 0.003969 -0.012177
# 5 0.003218 -0.002201 0.002555 0.003969 0.022319 0.000667
# 6 0.016790 -0.001675 0.003057 -0.012177 0.000667 0.044490
#
#
# Mechanical properties :
#
#
# Convention : Reuss Voigt Hill
#
# Bulk Modulus (GPa) = 38.13798 58.05407 48.09603
# Shear Modulus (GPa) = 32.68373 49.39749 41.04061
#
# Velocity S-wave (km/s) = 3.41251 4.19527 3.82397
# Velocity P-wave (km/s) = 5.39588 6.64468 6.05257
#
# Compressibility (1/GPa) = 0.02622058
#
# Stress axis : x y z
#
# Youngs Moduli (GPa) = 65.96800 71.22384 119.66262
#
# Poissons Ratio (x) = 0.26223 -0.00682
# Poissons Ratio (y) = 0.24287 0.24447
# Poissons Ratio (z) = -0.00376 0.14551
#
# Static dielectric constant tensor:
#      x y z
#    x 2.220230 -0.035210 -0.113100 
#    y -0.035210 2.209590 -0.012670 
#    z -0.113100 -0.012670 2.354640 
# 
# From -- ./inp_files/297011.got.cif
#   From: 2010.05.17/outbox.cif.g08.bks.cpg/sg2_149_cif.got.tgz:297011.got - 2010.06.03 11:33:40.
