data_PCOD9091060
_publ_section_title
;
Structure prediction by ZEFSAII (Michael W. Deem and Ramdas Pophale) SiO2 
 PCOD9091060
Probable space group: P -1
;
_chemical_formula_sum "Si O2"
_cell_formula_units_Z 16
_cell_length_a 13.316270
_cell_length_b 9.107124
_cell_length_c 24.586785
_cell_angle_alpha 142.029410
_cell_angle_beta 24.013482
_cell_angle_gamma 137.515167
_cell_volume 744.763708
_symmetry_space_group_name_H-M "P -1"
_symmetry_group_IT_number 2
_symmetry_cell_setting 'triclinic'
loop_
_space_group_symop_operation_xyz
x,y,z
-x,-y,-z
loop_
_atom_site_type_symbol
_atom_site_label
_atom_site_fract_x
_atom_site_fract_y
_atom_site_fract_z
Si Si1 0.672142 0.536634 0.093125
Si Si2 0.768214 0.753200 0.819446
Si Si3 0.861864 0.390846 0.321654
Si Si4 0.114688 0.184449 0.633100
Si Si5 0.161170 0.181377 0.010907
Si Si6 0.895922 0.770498 0.226987
Si Si7 0.458933 0.092152 0.644967
Si Si8 0.538189 0.218591 0.914931
O O1 0.415785 0.372857 0.170097
O O2 0.645454 0.756274 0.210353
O O3 0.715652 0.627485 0.036410
O O4 0.915774 0.398495 0.944549
O O5 0.945127 0.585006 0.716671
O O6 0.588287 0.838843 0.981293
O O7 0.945687 0.973391 0.774814
O O8 0.774496 0.643029 0.419154
O O9 0.001121 0.291150 0.170247
O O10 0.662396 0.179026 0.373436
O O11 0.151390 0.303946 0.709376
O O12 0.822492 0.165781 0.760800
O O13 0.252823 0.941391 0.498873
O O14 0.382871 0.072440 0.902703
O O15 0.000000 0.000000 0.000000
O O16 0.643967 0.794145 0.325648
O O17 0.500000 0.500000 0.000000
#
# Coordination Sequence:
#
# PCOD9091060 Si02
#       8
#     2   2   2   2   2   2   2   2
#     4  12  20  38  61  89 119 150 196 250 293 335
#     4  10  20  37  64  90 108 150 210 242 278 346
#     4  10  19  39  63  87 115 155 198 237 288 361
#     4  12  21  40  64  85 118 161 197 235 292 354
#     4  11  19  34  63  94 117 142 194 252 295 333
#     4  11  23  40  63  82 115 165 204 236 280 355
#     4  11  26  37  57  91 126 150 192 249 300 339
#     4  11  18  36  65  89 111 152 202 240 280 352
#
# _framework density 21.483322999999999
#
# number of rings (size 3 to 8) (size 9 to 14) (size 15 to 20)
#    0.000    1.000    7.500    1.500    0.000    0.000 
#    0.000    3.125    2.750    0.000    0.000    0.000 
#    0.000    0.000    0.000    0.000    0.000    0.000 
#
# Total GULP energy -89324.291966 kJ/mol
# GULP energy per Si atom -5582.768248 kJ/mol
# Density = 2.143443 g / cm^3
# Si number density = 21.483323 Si / 1000 Ang^3
#
#
#
# Elastic Constant Matrix: (Units=GPa)
#
#
# Indices 1 2 3 4 5 6 
#
# 1 97.0327 10.4618 36.5868 6.5580 -34.6282 5.3018
# 2 10.4618 35.3477 2.6401 -3.6746 -9.6180 -0.6357
# 3 36.5868 2.6401 98.1516 11.5175 -33.5903 2.6931
# 4 6.5580 -3.6746 11.5175 17.7000 -4.5026 0.1050
# 5 -34.6282 -9.6180 -33.5903 -4.5026 39.1944 -2.1988
# 6 5.3018 -0.6357 2.6931 0.1050 -2.1988 28.0302
#
#
#
# Elastic Compliance Matrix: (Units=1/GPa)
#
#
# Indices 1 2 3 4 5 6 
#
# 1 0.015421 -0.001533 -0.001402 -0.002133 0.011695 -0.001891
# 2 -0.001533 0.031973 0.001797 0.008336 0.009075 0.001523
# 3 -0.001402 0.001797 0.015383 -0.006148 0.011666 -0.000234
# 4 -0.002133 0.008336 -0.006148 0.063587 0.002260 0.001122
# 5 0.011695 0.009075 0.011666 0.002260 0.048368 0.000659
# 6 -0.001891 0.001523 -0.000234 0.001122 0.000659 0.036138
#
#
# Mechanical properties :
#
#
# Convention : Reuss Voigt Hill
#
# Bulk Modulus (GPa) = 16.52870 36.65660 26.59265
# Shear Modulus (GPa) = 21.43039 29.04113 25.23576
#
# Velocity S-wave (km/s) = 3.16181 3.68067 3.43106
# Velocity P-wave (km/s) = 4.58692 5.92984 5.30107
#
# Compressibility (1/GPa) = 0.06050082
#
# Stress axis : x y z
#
# Youngs Moduli (GPa) = 64.84627 31.27635 65.00637
#
# Poissons Ratio (x) = 0.04794 0.09117
# Poissons Ratio (y) = 0.09940 -0.11682
# Poissons Ratio (z) = 0.09094 -0.05621
#
# Static dielectric constant tensor:
#      x y z
#    x 1.794050 0.010380 -0.045590 
#    y 0.010380 1.851790 -0.018700 
#    z -0.045590 -0.018700 1.819160 
# 
# From -- ./inp_files/208966.got.cif
#   From: 2010.05.17/outbox.cif.g08.bks.cpg/sg2_105_cif.got.tgz:208966.got - 2010.06.03 11:33:40.
