data_PCOD9091164
_publ_section_title
;
Structure prediction by ZEFSAII (Michael W. Deem and Ramdas Pophale) SiO2 
 PCOD9091164
Probable space group: P -1
;
_chemical_formula_sum "Si O2"
_cell_formula_units_Z 14
_cell_length_a 8.947085
_cell_length_b 9.779826
_cell_length_c 25.806140
_cell_angle_alpha 26.119005
_cell_angle_beta 49.694646
_cell_angle_gamma 43.829162
_cell_volume 688.409455
_symmetry_space_group_name_H-M "P -1"
_symmetry_group_IT_number 2
_symmetry_cell_setting 'triclinic'
loop_
_space_group_symop_operation_xyz
x,y,z
-x,-y,-z
loop_
_atom_site_type_symbol
_atom_site_label
_atom_site_fract_x
_atom_site_fract_y
_atom_site_fract_z
Si Si1 0.123852 0.710047 0.029673
Si Si2 0.934800 0.363090 0.113685
Si Si3 0.638659 0.305697 0.736907
Si Si4 0.591009 0.162847 0.629189
Si Si5 0.443945 0.952257 0.827341
Si Si6 0.467877 0.751775 0.724069
Si Si7 0.763501 0.545261 0.526607
O O1 0.960419 0.592883 0.076404
O O2 0.327990 0.380324 0.118700
O O3 0.247539 0.852139 0.913358
O O4 0.000000 0.000000 0.000000
O O5 0.704268 0.344891 0.173198
O O6 0.121131 0.988851 0.210857
O O7 0.000000 0.500000 0.000000
O O8 0.570340 0.480074 0.748198
O O9 0.644204 0.551889 0.605277
O O10 0.486195 0.132182 0.807777
O O11 0.500000 0.500000 0.500000
O O12 0.771360 0.214823 0.605376
O O13 0.415529 0.181270 0.705376
O O14 0.629028 0.832009 0.698831
O O15 0.347478 0.112076 0.598461
O O16 0.000000 0.500000 0.500000
#
# Coordination Sequence:
#
# PCOD9091164 Si02
#       7
#     2   2   2   2   2   2   2
#     4  10  20  35  57  82 106 147 194 227 270 329
#     4  11  23  36  55  83 118 151 186 233 281 328
#     4  10  21  37  59  85 110 151 192 228 283 338
#     4   9  20  36  59  83 114 150 179 227 290 330
#     4   9  19  37  56  78 115 146 182 234 275 325
#     4  11  21  37  61  84 115 149 186 233 283 335
#     4  10  19  39  64  82 113 148 187 235 281 335
#
# _framework density 20.336732999999999
#
# number of rings (size 3 to 8) (size 9 to 14) (size 15 to 20)
#    0.000    2.000    1.429    2.143    0.000    1.714 
#    0.000    0.714    3.143    0.000    0.000    0.000 
#    0.000    0.000    0.000    0.000    0.000    0.000 
#
# Total GULP energy -78084.726941 kJ/mol
# GULP energy per Si atom -5577.480496 kJ/mol
# Density = 2.029045 g / cm^3
# Si number density = 20.336733 Si / 1000 Ang^3
#
#
#
# Elastic Constant Matrix: (Units=GPa)
#
#
# Indices 1 2 3 4 5 6 
#
# 1 83.6539 46.7061 21.3317 -2.8142 -30.0759 21.5051
# 2 46.7061 94.5565 31.6344 -7.1342 -19.3334 36.5581
# 3 21.3317 31.6344 99.4505 23.4637 -12.0252 6.5402
# 4 -2.8142 -7.1342 23.4637 28.5785 9.8470 -8.2432
# 5 -30.0759 -19.3334 -12.0252 9.8470 34.2249 1.0031
# 6 21.5051 36.5581 6.5402 -8.2432 1.0031 31.3024
#
#
#
# Elastic Compliance Matrix: (Units=1/GPa)
#
#
# Indices 1 2 3 4 5 6 
#
# 1 0.029627 0.000241 0.004481 -0.020713 0.034530 -0.028133
# 2 0.000241 0.027941 -0.002905 -0.006760 0.017933 -0.034546
# 3 0.004481 -0.002905 0.018147 -0.023545 0.015746 -0.010183
# 4 -0.020713 -0.006760 -0.023545 0.084700 -0.056162 0.051149
# 5 0.034530 0.017933 0.015746 -0.056162 0.093310 -0.065735
# 6 -0.028133 -0.034546 -0.010183 0.051149 -0.065735 0.109324
#
#
# Mechanical properties :
#
#
# Convention : Reuss Voigt Hill
#
# Bulk Modulus (GPa) = 12.60253 53.00059 32.80156
# Shear Modulus (GPa) = 12.95794 30.68707 21.82250
#
# Velocity S-wave (km/s) = 2.52696 3.88873 3.27931
# Velocity P-wave (km/s) = 3.83724 6.80302 5.52293
#
# Compressibility (1/GPa) = 0.07934912
#
# Stress axis : x y z
#
# Youngs Moduli (GPa) = 33.75355 35.78911 55.10655
#
# Poissons Ratio (x) = -0.00862 -0.24692
# Poissons Ratio (y) = -0.00813 0.16006
# Poissons Ratio (z) = -0.15124 0.10395
#
# Static dielectric constant tensor:
#      x y z
#    x 1.762510 0.032880 0.030380 
#    y 0.032880 1.698210 -0.005460 
#    z 0.030380 -0.005460 1.809290 
# 
# From -- ./inp_files/36844.got.cif
#   From: 2010.05.17/outbox.cif.g08.bks.cpg/sg2_19_cif.got.tgz:36844.got - 2010.06.03 11:33:40.
