data_PCOD9091117
_publ_section_title
;
Structure prediction by ZEFSAII (Michael W. Deem and Ramdas Pophale) SiO2 
 PCOD9091117
Probable space group: P -1
;
_chemical_formula_sum "Si O2"
_cell_formula_units_Z 16
_cell_length_a 19.698314
_cell_length_b 11.049724
_cell_length_c 14.261749
_cell_angle_alpha 150.731515
_cell_angle_beta 27.108833
_cell_angle_gamma 147.108570
_cell_volume 663.165515
_symmetry_space_group_name_H-M "P -1"
_symmetry_group_IT_number 2
_symmetry_cell_setting 'triclinic'
loop_
_space_group_symop_operation_xyz
x,y,z
-x,-y,-z
loop_
_atom_site_type_symbol
_atom_site_label
_atom_site_fract_x
_atom_site_fract_y
_atom_site_fract_z
Si Si1 0.411188 0.328880 0.699445
Si Si2 0.629963 0.292147 0.251726
Si Si3 0.145682 0.139326 0.641921
Si Si4 0.245613 0.915299 0.742049
Si Si5 0.774437 0.128478 0.796732
Si Si6 0.912216 0.687635 0.973514
Si Si7 0.785109 0.910257 0.907727
Si Si8 0.291446 0.392967 0.374675
O O1 0.473762 0.317598 0.509179
O O2 0.241009 0.368232 0.938352
O O3 0.537588 0.542106 0.746046
O O4 0.385322 0.051995 0.594764
O O5 0.757665 0.565847 0.296208
O O6 0.686833 0.085057 0.101106
O O7 0.637490 0.200259 0.072741
O O8 0.121676 0.139205 0.782675
O O9 0.236388 0.960759 0.358096
O O10 0.968824 0.047306 0.759229
O O11 0.240988 0.112649 0.964870
O O12 0.249414 0.658506 0.619472
O O13 0.084584 0.827365 0.822936
O O14 0.800692 0.877689 0.647193
O O15 0.907753 0.400410 0.821921
O O16 0.727724 0.651991 0.743242
#
# Coordination Sequence:
#
# PCOD9091117 Si02
#       8
#     2   2   2   2   2   2   2   2
#     4  12  24  45  61  93 134 170 207 254 312 379
#     4  10  21  37  59  96 126 165 203 258 316 371
#     4  10  19  39  63  92 127 161 209 260 308 378
#     4  11  23  45  67  88 128 170 214 258 304 370
#     4  10  21  41  65  95 126 159 207 261 321 364
#     4  10  25  42  66  93 125 170 211 257 311 374
#     4  10  21  37  64  95 121 162 213 258 316 361
#     4  11  23  40  67  97 123 161 210 263 316 366
#
# _framework density 24.126707
#
# number of rings (size 3 to 8) (size 9 to 14) (size 15 to 20)
#    0.000    1.500    2.500    1.875    0.000    9.500 
#    6.750    0.000    0.000    4.500    0.000    0.000 
#    0.000    0.000    0.000    0.000    0.000    0.000 
#
# Total GULP energy -89285.210536 kJ/mol
# GULP energy per Si atom -5580.325659 kJ/mol
# Density = 2.407179 g / cm^3
# Si number density = 24.126707 Si / 1000 Ang^3
#
#
#
# Elastic Constant Matrix: (Units=GPa)
#
#
# Indices 1 2 3 4 5 6 
#
# 1 54.9606 11.4058 16.4920 4.7733 3.4622 13.5871
# 2 11.4058 88.9391 26.6992 -9.4392 12.1745 0.0575
# 3 16.4920 26.6992 85.8863 9.8828 28.2814 -1.1707
# 4 4.7733 -9.4392 9.8828 31.8950 7.6360 2.0269
# 5 3.4622 12.1745 28.2814 7.6360 45.6846 -2.0920
# 6 13.5871 0.0575 -1.1707 2.0269 -2.0920 36.0680
#
#
#
# Elastic Compliance Matrix: (Units=1/GPa)
#
#
# Indices 1 2 3 4 5 6 
#
# 1 0.021930 -0.002111 -0.003805 -0.002521 0.001304 -0.008164
# 2 -0.002111 0.013584 -0.003817 0.006008 -0.002092 0.000191
# 3 -0.003805 -0.003817 0.016781 -0.003868 -0.008358 0.001717
# 4 -0.002521 0.006008 -0.003868 0.036025 -0.005106 -0.001506
# 5 0.001304 -0.002092 -0.008358 -0.005106 0.028429 0.001177
# 6 -0.008164 0.000191 0.001717 -0.001506 0.001177 0.031009
#
#
# Mechanical properties :
#
#
# Convention : Reuss Voigt Hill
#
# Bulk Modulus (GPa) = 30.46125 37.66444 34.06285
# Shear Modulus (GPa) = 28.06340 34.40880 31.23610
#
# Velocity S-wave (km/s) = 3.41422 3.78056 3.60205
# Velocity P-wave (km/s) = 5.30994 5.89083 5.60791
#
# Compressibility (1/GPa) = 0.03282859
#
# Stress axis : x y z
#
# Youngs Moduli (GPa) = 45.59994 73.61512 59.59017
#
# Poissons Ratio (x) = 0.15538 0.22676
# Poissons Ratio (y) = 0.09625 0.22747
# Poissons Ratio (z) = 0.17353 0.28101
#
# Static dielectric constant tensor:
#      x y z
#    x 2.027650 -0.049190 -0.015920 
#    y -0.049190 1.896980 -0.003670 
#    z -0.015920 -0.003670 1.989280 
# 
# From -- ./inp_files/541173.got.cif
#   From: 2010.05.17/outbox.cif.g08.bks.cpg/sg2_271_cif.got.tgz:541173.got - 2010.06.03 11:33:40.
