data_PCOD9091157
_publ_section_title
;
Structure prediction by ZEFSAII (Michael W. Deem and Ramdas Pophale) SiO2 
 PCOD9091157
Probable space group: P -1
;
_chemical_formula_sum "Si O2"
_cell_formula_units_Z 14
_cell_length_a 5.233255
_cell_length_b 20.714124
_cell_length_c 5.014691
_cell_angle_alpha 107.213587
_cell_angle_beta 90.529054
_cell_angle_gamma 100.061833
_cell_volume 510.194518
_symmetry_space_group_name_H-M "P -1"
_symmetry_group_IT_number 2
_symmetry_cell_setting 'triclinic'
loop_
_space_group_symop_operation_xyz
x,y,z
-x,-y,-z
loop_
_atom_site_type_symbol
_atom_site_label
_atom_site_fract_x
_atom_site_fract_y
_atom_site_fract_z
Si Si1 0.922039 0.851196 0.461292
Si Si2 0.983126 0.301190 0.703339
Si Si3 0.366344 0.385480 0.420658
Si Si4 0.652246 0.277420 0.166615
Si Si5 0.823218 0.012303 0.262542
Si Si6 0.396316 0.126819 0.010798
Si Si7 0.251493 0.501289 0.186278
O O1 0.931447 0.772334 0.400512
O O2 0.842404 0.863130 0.173331
O O3 0.178214 0.906578 0.616815
O O4 0.700891 0.867051 0.681914
O O5 0.200029 0.359302 0.648061
O O6 0.412603 0.317161 0.181524
O O7 0.740940 0.291181 0.485904
O O8 0.869730 0.310496 0.001964
O O9 0.235282 0.438247 0.313217
O O10 0.648935 0.429546 0.557590
O O11 0.601440 0.195118 0.025950
O O12 0.572008 0.951084 0.159371
O O13 0.000000 0.000000 0.500000
O O14 0.000000 0.000000 0.000000
O O15 0.500000 0.500000 0.000000
O O16 0.000000 0.500000 0.000000
#
# Coordination Sequence:
#
# PCOD9091157 Si02
#       7
#     2   2   2   2   2   2   2
#     4  10  19  39  63  98 142 194 254 317 384 460
#     4  12  28  45  75 111 154 200 258 318 395 467
#     4  11  30  52  78 117 162 200 262 323 394 486
#     4  12  28  45  75 111 154 200 258 318 395 467
#     4   8  16  30  60  90 132 193 249 310 385 450
#     4  10  19  39  63  98 142 194 254 317 384 460
#     4  11  30  55  89 120 164 210 268 324 406 488
#
# _framework density 27.440515999999999
#
# number of rings (size 3 to 8) (size 9 to 14) (size 15 to 20)
#    0.000    1.429    1.429    1.714    8.000    1.143 
#    0.000    3.571    0.000    0.000    0.000    0.000 
#    0.000    0.000    0.000    0.000    0.000    0.000 
#
# Total GULP energy -78510.469460 kJ/mol
# GULP energy per Si atom -5607.890676 kJ/mol
# Density = 2.737806 g / cm^3
# Si number density = 27.440516 Si / 1000 Ang^3
#
#
#
# Elastic Constant Matrix: (Units=GPa)
#
#
# Indices 1 2 3 4 5 6 
#
# 1 119.7386 44.6649 32.5223 -7.6285 5.3204 10.5702
# 2 44.6649 199.5903 34.6222 5.7490 9.9943 23.9625
# 3 32.5223 34.6222 86.5894 -5.0594 1.1721 1.4504
# 4 -7.6285 5.7490 -5.0594 45.9504 12.3712 6.3274
# 5 5.3204 9.9943 1.1721 12.3712 48.2429 -4.9478
# 6 10.5702 23.9625 1.4504 6.3274 -4.9478 47.7422
#
#
#
# Elastic Compliance Matrix: (Units=1/GPa)
#
#
# Indices 1 2 3 4 5 6 
#
# 1 0.010098 -0.001506 -0.003012 0.002183 -0.001476 -0.001830
# 2 -0.001506 0.006064 -0.001828 -0.000516 -0.001191 -0.002710
# 3 -0.003012 -0.001828 0.013448 0.000998 0.000238 0.001068
# 4 0.002183 -0.000516 0.000998 0.024754 -0.006942 -0.004255
# 5 -0.001476 -0.001191 0.000238 -0.006942 0.023349 0.004257
# 6 -0.001830 -0.002710 0.001068 -0.004255 0.004257 0.023684
#
#
# Mechanical properties :
#
#
# Convention : Reuss Voigt Hill
#
# Bulk Modulus (GPa) = 59.10950 69.94857 64.52904
# Shear Modulus (GPa) = 41.76101 47.99436 44.87768
#
# Velocity S-wave (km/s) = 3.90535 4.18668 4.04846
# Velocity P-wave (km/s) = 6.47483 6.99410 6.73947
#
# Compressibility (1/GPa) = 0.01691775
#
# Stress axis : x y z
#
# Youngs Moduli (GPa) = 99.03164 164.90082 74.36009
#
# Poissons Ratio (x) = 0.24841 0.22398
# Poissons Ratio (y) = 0.14918 0.13590
# Poissons Ratio (z) = 0.29830 0.30137
#
# Static dielectric constant tensor:
#      x y z
#    x 2.137160 0.013960 0.050330 
#    y 0.013960 2.196980 0.059420 
#    z 0.050330 0.059420 2.129560 
# 
# From -- ./inp_files/12060.got.cif
#   From: 2010.05.17/outbox.cif.g08.bks.cpg/sg2_7_cif.got.tgz:12060.got - 2010.06.03 11:33:40.
