data_PCOD9091690
_publ_section_title
;
Structure prediction by ZEFSAII (Michael W. Deem and Ramdas Pophale) SiO2 
 PCOD9091690
Probable space group: P -1
;
_chemical_formula_sum "Si O2"
_cell_formula_units_Z 14
_cell_length_a 18.748165
_cell_length_b 8.691530
_cell_length_c 13.776621
_cell_angle_alpha 146.211591
_cell_angle_beta 146.890667
_cell_angle_gamma 44.020846
_cell_volume 680.006335
_symmetry_space_group_name_H-M "P -1"
_symmetry_group_IT_number 2
_symmetry_cell_setting 'triclinic'
loop_
_space_group_symop_operation_xyz
x,y,z
-x,-y,-z
loop_
_atom_site_type_symbol
_atom_site_label
_atom_site_fract_x
_atom_site_fract_y
_atom_site_fract_z
Si Si1 0.303512 0.002615 0.034567
Si Si2 0.855478 0.889462 0.376257
Si Si3 0.948236 0.673920 0.166978
Si Si4 0.145629 0.579539 0.731491
Si Si5 0.596848 0.173150 0.141263
Si Si6 0.381429 0.213203 0.445666
Si Si7 0.906775 0.888546 0.916696
O O1 0.357677 0.136760 0.264755
O O2 0.192458 0.234442 0.990745
O O3 0.235036 0.710686 0.821231
O O4 0.406914 0.915702 0.022398
O O5 0.931980 0.711595 0.285330
O O6 0.797732 0.687200 0.283073
O O7 0.743141 0.074638 0.291178
O O8 0.955974 0.098844 0.641665
O O9 0.016558 0.366803 0.072744
O O10 0.000000 0.500000 0.500000
O O11 0.125737 0.845415 0.915774
O O12 0.575148 0.489476 0.315933
O O13 0.500000 0.000000 0.000000
O O14 0.237803 0.194023 0.321504
O O15 0.500000 0.000000 0.500000
O O16 0.000000 0.000000 0.000000
#
# Coordination Sequence:
#
# PCOD9091690 Si02
#       7
#     2   2   2   2   2   2   2
#     4  10  25  44  71 103 138 174 238 286 344 412
#     4  10  20  38  64  98 136 172 223 285 344 397
#     4  10  19  39  69  97 137 175 219 291 338 406
#     4  11  22  36  62 101 139 167 218 284 347 406
#     4  11  26  46  73  94 133 191 234 277 347 413
#     4  11  27  47  68  99 145 184 230 286 343 416
#     4  11  23  39  68 102 135 179 228 277 350 404
#
# _framework density 20.588042999999999
#
# number of rings (size 3 to 8) (size 9 to 14) (size 15 to 20)
#    0.000    1.429    4.286    0.000    6.000    4.571 
#    0.000    0.000    0.000    0.000    0.000    0.000 
#    0.000    0.000    0.000    0.000    0.000    0.000 
#
# Total GULP energy -78085.460480 kJ/mol
# GULP energy per Si atom -5577.532891 kJ/mol
# Density = 2.054118 g / cm^3
# Si number density = 20.588043 Si / 1000 Ang^3
#
#
#
# Elastic Constant Matrix: (Units=GPa)
#
#
# Indices 1 2 3 4 5 6 
#
# 1 117.9634 15.6390 28.3558 9.0057 15.8715 1.7550
# 2 15.6390 124.5158 30.2163 15.7639 -3.3467 0.7272
# 3 28.3558 30.2163 76.0547 9.5344 3.2556 -9.0371
# 4 9.0057 15.7639 9.5344 36.7721 8.2598 -0.1821
# 5 15.8715 -3.3467 3.2556 8.2598 26.0703 3.1840
# 6 1.7550 0.7272 -9.0371 -0.1821 3.1840 22.1271
#
#
#
# Elastic Compliance Matrix: (Units=1/GPa)
#
#
# Indices 1 2 3 4 5 6 
#
# 1 0.010175 -0.000565 -0.003484 -0.000088 -0.005633 -0.001401
# 2 -0.000565 0.009549 -0.003518 -0.003840 0.003499 -0.002241
# 3 -0.003484 -0.003518 0.016991 -0.001832 -0.000779 0.007428
# 4 -0.000088 -0.003840 -0.001832 0.031676 -0.010385 0.001140
# 5 -0.005633 0.003499 -0.000779 -0.010385 0.046449 -0.006756
# 6 -0.001401 -0.002241 0.007428 0.001140 -0.006756 0.049394
#
#
# Mechanical properties :
#
#
# Convention : Reuss Voigt Hill
#
# Bulk Modulus (GPa) = 46.33426 51.88399 49.10913
# Shear Modulus (GPa) = 26.80112 33.28211 30.04162
#
# Velocity S-wave (km/s) = 3.61193 4.02503 3.82406
# Velocity P-wave (km/s) = 6.32053 6.84521 6.58809
#
# Compressibility (1/GPa) = 0.02158230
#
# Stress axis : x y z
#
# Youngs Moduli (GPa) = 98.28118 104.72248 58.85611
#
# Poissons Ratio (x) = 0.05913 0.20503
# Poissons Ratio (y) = 0.05549 0.20705
# Poissons Ratio (z) = 0.34237 0.36841
#
# Static dielectric constant tensor:
#      x y z
#    x 1.846070 0.054250 0.018910 
#    y 0.054250 1.718520 -0.012410 
#    z 0.018910 -0.012410 1.735930 
# 
# From -- ./inp_files/175522.got.cif
#   From: 2010.05.17/outbox.cif.g08.bks.cpg/sg2_88_cif.got.tgz:175522.got - 2010.06.03 11:33:40.
