data_PCOD9091728
_publ_section_title
;
Structure prediction by ZEFSAII (Michael W. Deem and Ramdas Pophale) SiO2 
 PCOD9091728
Probable space group: P -1
;
_chemical_formula_sum "Si O2"
_cell_formula_units_Z 15
_cell_length_a 12.306459
_cell_length_b 18.722681
_cell_length_c 8.444813
_cell_angle_alpha 134.958295
_cell_angle_beta 56.144596
_cell_angle_gamma 151.665698
_cell_volume 641.188282
_symmetry_space_group_name_H-M "P -1"
_symmetry_group_IT_number 2
_symmetry_cell_setting 'triclinic'
loop_
_space_group_symop_operation_xyz
x,y,z
-x,-y,-z
loop_
_atom_site_type_symbol
_atom_site_label
_atom_site_fract_x
_atom_site_fract_y
_atom_site_fract_z
Si Si1 0.927648 0.294934 0.329502
Si Si2 0.606185 0.898714 0.041867
Si Si3 0.000000 0.000000 0.000000
Si Si4 0.262249 0.489579 0.075847
Si Si5 0.184914 0.648721 0.211648
Si Si6 0.466794 0.860758 0.770507
Si Si7 0.809631 0.827513 0.164246
Si Si8 0.044057 0.881255 0.368460
O O1 0.935171 0.341662 0.572553
O O2 0.778548 0.287502 0.348978
O O3 0.141538 0.408337 0.218812
O O4 0.779627 0.098213 0.159605
O O5 0.426194 0.827591 0.205846
O O6 0.471096 0.795659 0.822415
O O7 0.742734 0.889768 0.983332
O O8 0.132942 0.171840 0.055600
O O9 0.236824 0.583174 0.169880
O O10 0.535686 0.645535 0.123837
O O11 0.120195 0.321874 0.811890
O O12 0.000000 0.500000 0.000000
O O13 0.686389 0.971838 0.657305
O O14 0.500000 0.000000 0.000000
O O15 0.939349 0.865579 0.269708
O O16 0.933410 0.020744 0.355148
#
# Coordination Sequence:
#
# PCOD9091728 Si02
#       8
#     2   2   1   2   2   2   2   2
#     4  11  24  45  70  99 136 182 230 279 343 411
#     4  11  23  43  70  95 137 186 218 282 343 408
#     4  12  22  46  62  98 142 176 224 278 352 402
#     4  12  23  46  69 103 135 177 231 289 333 409
#     4  12  27  41  64 105 141 172 222 286 349 412
#     4  10  19  39  71  96 129 177 228 273 331 404
#     4  11  25  43  71  97 136 181 233 281 337 411
#     4  11  23  43  68 102 130 181 235 281 332 402
#
# _framework density 23.394062999999999
#
# number of rings (size 3 to 8) (size 9 to 14) (size 15 to 20)
#    0.000    0.800    5.333    2.800    1.867    2.133 
#    0.000    0.667    0.000    0.000    0.000    0.000 
#    0.000    0.000    0.000    0.000    0.000    0.000 
#
# Total GULP energy -83516.269585 kJ/mol
# GULP energy per Si atom -5567.751306 kJ/mol
# Density = 2.334082 g / cm^3
# Si number density = 23.394063 Si / 1000 Ang^3
#
#
#
# Elastic Constant Matrix: (Units=GPa)
#
#
# Indices 1 2 3 4 5 6 
#
# 1 94.9209 11.3841 -5.4963 5.9824 10.6708 3.0366
# 2 11.3841 157.8889 -3.7858 -0.4564 0.8422 14.3025
# 3 -5.4963 -3.7858 31.7184 7.6633 3.5353 13.3808
# 4 5.9824 -0.4564 7.6633 13.2867 -3.0654 1.5325
# 5 10.6708 0.8422 3.5353 -3.0654 22.1921 -1.5441
# 6 3.0366 14.3025 13.3808 1.5325 -1.5441 39.1229
#
#
#
# Elastic Compliance Matrix: (Units=1/GPa)
#
#
# Indices 1 2 3 4 5 6 
#
# 1 0.012919 -0.000438 0.007489 -0.011907 -0.009263 -0.003303
# 2 -0.000438 0.006715 0.002343 -0.000723 -0.000742 -0.003223
# 3 0.007489 0.002343 0.051258 -0.034885 -0.017948 -0.018311
# 4 -0.011907 -0.000723 -0.034885 0.105703 0.026609 0.010029
# 5 -0.009263 -0.000742 -0.017948 0.026609 0.056657 0.008323
# 6 -0.003303 -0.003223 -0.018311 0.010029 0.008323 0.033194
#
#
# Mechanical properties :
#
#
# Convention : Reuss Voigt Hill
#
# Bulk Modulus (GPa) = 11.15070 32.08135 21.61602
# Shear Modulus (GPa) = 18.01475 33.74873 25.88174
#
# Velocity S-wave (km/s) = 2.77800 3.80230 3.32977
# Velocity P-wave (km/s) = 3.88156 5.74630 4.90339
#
# Compressibility (1/GPa) = 0.08968050
#
# Stress axis : x y z
#
# Youngs Moduli (GPa) = 77.40729 148.91732 19.50906
#
# Poissons Ratio (x) = 0.06518 -0.14611
# Poissons Ratio (y) = 0.03388 -0.04570
# Poissons Ratio (z) = -0.57972 -0.34887
#
# Static dielectric constant tensor:
#      x y z
#    x 1.929290 -0.018280 -0.089780 
#    y -0.018280 1.867210 -0.192490 
#    z -0.089780 -0.192490 1.294020 
# 
# From -- ./inp_files/279821.got.cif
#   From: 2010.05.17/outbox.cif.g08.bks.cpg/sg2_140_cif.got.tgz:279821.got - 2010.06.03 11:33:40.
