data_PCOD9091003
_publ_section_title
;
Structure prediction by ZEFSAII (Michael W. Deem and Ramdas Pophale) SiO2 
 PCOD9091003
Probable space group: P -1
;
_chemical_formula_sum "Si O2"
_cell_formula_units_Z 12
_cell_length_a 10.461323
_cell_length_b 10.651553
_cell_length_c 9.516010
_cell_angle_alpha 74.912338
_cell_angle_beta 81.995748
_cell_angle_gamma 37.903978
_cell_volume 625.045755
_symmetry_space_group_name_H-M "P -1"
_symmetry_group_IT_number 2
_symmetry_cell_setting 'triclinic'
loop_
_space_group_symop_operation_xyz
x,y,z
-x,-y,-z
loop_
_atom_site_type_symbol
_atom_site_label
_atom_site_fract_x
_atom_site_fract_y
_atom_site_fract_z
Si Si1 0.405390 0.904965 0.672248
Si Si2 0.337535 0.686808 0.857834
Si Si3 0.157626 0.051487 0.922903
Si Si4 0.544064 0.821469 0.102673
Si Si5 0.086574 0.646380 0.873405
Si Si6 0.671833 0.937515 0.669431
O O1 0.443282 0.721061 0.744850
O O2 0.601871 0.842891 0.689505
O O3 0.231080 0.076097 0.768491
O O4 0.325760 0.999848 0.501764
O O5 0.233074 0.650950 0.801758
O O6 0.146247 0.917333 0.895384
O O7 0.500000 0.500000 0.000000
O O8 0.987127 0.255000 0.986894
O O9 0.364538 0.878185 0.039965
O O10 0.767739 0.594590 0.086033
O O11 0.504067 0.856416 0.264496
O O12 0.500000 0.000000 0.000000
O O13 0.885884 0.785270 0.766174
#
# Coordination Sequence:
#
# PCOD9091003 Si02
#       6
#     2   2   2   2   2   2
#     4   9  20  42  60  83 131 155 194 250 300 346
#     4  10  19  39  62  91 120 157 198 250 295 348
#     4   9  20  37  62  87 115 156 197 248 289 355
#     4  11  20  39  58  91 121 151 200 253 293 345
#     4  11  22  36  66  89 117 156 205 244 299 349
#     4  10  22  40  61  88 122 160 196 246 295 363
#
# _framework density 19.198594
#
# number of rings (size 3 to 8) (size 9 to 14) (size 15 to 20)
#    1.000    1.000    3.333    0.500    0.000    3.333 
#    0.000    7.500    0.000    0.000    0.000    0.000 
#    0.000    0.000    0.000    0.000    0.000    0.000 
#
# Total GULP energy -66805.174210 kJ/mol
# GULP energy per Si atom -5567.097851 kJ/mol
# Density = 1.915490 g / cm^3
# Si number density = 19.198594 Si / 1000 Ang^3
#
#
#
# Elastic Constant Matrix: (Units=GPa)
#
#
# Indices 1 2 3 4 5 6 
#
# 1 100.1206 30.3766 34.5837 -16.2903 -6.2100 14.4849
# 2 30.3766 115.6976 44.3971 2.9188 -2.0052 9.2267
# 3 34.5837 44.3971 127.9799 9.2687 -11.3092 8.5691
# 4 -16.2903 2.9188 9.2687 17.1550 4.5414 -2.4226
# 5 -6.2100 -2.0052 -11.3092 4.5414 29.7752 -1.8964
# 6 14.4849 9.2267 8.5691 -2.4226 -1.8964 21.5659
#
#
#
# Elastic Compliance Matrix: (Units=1/GPa)
#
#
# Indices 1 2 3 4 5 6 
#
# 1 0.015883 -0.002453 -0.004443 0.017469 -0.001589 -0.006031
# 2 -0.002453 0.010557 -0.002696 -0.002833 -0.000530 -0.002163
# 3 -0.004443 -0.002696 0.011273 -0.011295 0.004821 -0.001186
# 4 0.017469 -0.002833 -0.011295 0.085430 -0.013717 0.002357
# 5 -0.001589 -0.000530 0.004821 -0.013717 0.037212 0.001110
# 6 -0.006031 -0.002163 -0.001186 0.002357 0.001110 0.052179
#
#
# Mechanical properties :
#
#
# Convention : Reuss Voigt Hill
#
# Bulk Modulus (GPa) = 53.96891 62.50144 58.23517
# Shear Modulus (GPa) = 21.01784 29.32861 25.17322
#
# Velocity S-wave (km/s) = 3.31230 3.91275 3.62498
# Velocity P-wave (km/s) = 6.54220 7.28277 6.92239
#
# Compressibility (1/GPa) = 0.01852919
#
# Stress axis : x y z
#
# Youngs Moduli (GPa) = 62.96016 94.72794 88.70640
#
# Poissons Ratio (x) = 0.23232 0.39412
# Poissons Ratio (y) = 0.15441 0.23917
# Poissons Ratio (z) = 0.27973 0.25541
#
# Static dielectric constant tensor:
#      x y z
#    x 1.759540 0.001820 -0.020180 
#    y 0.001820 1.680490 0.042360 
#    z -0.020180 0.042360 1.670320 
# 
# From -- ./inp_files/262384.got.cif
#   From: 2010.05.17/outbox.cif.g08.bks.cpg/sg2_132_cif.got.tgz:262384.got - 2010.06.03 11:33:40.
