data_PCOD9091497
_publ_section_title
;
Structure prediction by ZEFSAII (Michael W. Deem and Ramdas Pophale) SiO2 
 PCOD9091497
Probable space group: P -1
;
_chemical_formula_sum "Si O2"
_cell_formula_units_Z 16
_cell_length_a 9.394929
_cell_length_b 12.249612
_cell_length_c 18.297220
_cell_angle_alpha 37.167358
_cell_angle_beta 37.830611
_cell_angle_gamma 40.391591
_cell_volume 728.872623
_symmetry_space_group_name_H-M "P -1"
_symmetry_group_IT_number 2
_symmetry_cell_setting 'triclinic'
loop_
_space_group_symop_operation_xyz
x,y,z
-x,-y,-z
loop_
_atom_site_type_symbol
_atom_site_label
_atom_site_fract_x
_atom_site_fract_y
_atom_site_fract_z
Si Si1 0.283370 0.913542 0.453788
Si Si2 0.353709 0.203540 0.381178
Si Si3 0.854150 0.854014 0.987267
Si Si4 0.496519 0.355633 0.376239
Si Si5 0.589199 0.451679 0.072090
Si Si6 0.380877 0.290868 0.704694
Si Si7 0.482957 0.274464 0.916721
Si Si8 0.186284 0.563700 0.508033
O O1 0.300302 0.735214 0.595540
O O2 0.454841 0.858322 0.342643
O O3 0.390586 0.042297 0.391939
O O4 0.000000 0.000000 0.500000
O O5 0.514818 0.196226 0.392006
O O6 0.385201 0.383787 0.230077
O O7 0.070650 0.265706 0.488386
O O8 0.753805 0.788162 0.137499
O O9 0.721714 0.794718 0.002992
O O10 0.147744 0.729041 0.932096
O O11 0.740949 0.088951 0.910062
O O12 0.504129 0.545215 0.232042
O O13 0.247426 0.415464 0.494798
O O14 0.595351 0.635246 0.018921
O O15 0.500000 0.500000 0.000000
O O16 0.200649 0.459843 0.635960
O O17 0.585655 0.360495 0.622644
#
# Coordination Sequence:
#
# PCOD9091497 Si02
#       8
#     2   2   2   2   2   2   2   2
#     4  11  23  41  66  99 128 170 217 275 331 399
#     4  11  23  42  61 100 131 172 213 266 341 395
#     4  11  23  47  70  97 134 177 235 275 320 402
#     4  10  22  43  63  96 136 168 216 271 340 397
#     4  11  26  45  67  99 141 180 220 276 336 397
#     4  10  21  38  67  97 124 167 222 276 321 386
#     4  10  24  46  70  99 128 185 230 274 331 387
#     4  10  19  39  66  95 129 166 213 269 336 390
#
# _framework density 21.951709000000001
#
# number of rings (size 3 to 8) (size 9 to 14) (size 15 to 20)
#    0.000    1.500    2.500    1.875    1.750    1.500 
#   24.750    0.000    0.000    0.000    0.000    0.000 
#    0.000    0.000    0.000    0.000    0.000    0.000 
#
# Total GULP energy -89275.029780 kJ/mol
# GULP energy per Si atom -5579.689361 kJ/mol
# Density = 2.190175 g / cm^3
# Si number density = 21.951709 Si / 1000 Ang^3
#
#
#
# Elastic Constant Matrix: (Units=GPa)
#
#
# Indices 1 2 3 4 5 6 
#
# 1 110.5320 56.3256 15.6222 9.9015 15.2111 13.3928
# 2 56.3256 120.9311 -1.8131 0.1035 -8.6669 7.0621
# 3 15.6222 -1.8131 37.3851 -6.1112 3.3026 7.2451
# 4 9.9015 0.1035 -6.1112 27.9355 2.9526 1.4243
# 5 15.2111 -8.6669 3.3026 2.9526 25.6602 8.1726
# 6 13.3928 7.0621 7.2451 1.4243 8.1726 51.2681
#
#
#
# Elastic Compliance Matrix: (Units=1/GPa)
#
#
# Indices 1 2 3 4 5 6 
#
# 1 0.016567 -0.008599 -0.007361 -0.006279 -0.011000 -0.000175
# 2 -0.008599 0.013092 0.004247 0.003047 0.009165 -0.001703
# 3 -0.007361 0.004247 0.032180 0.009640 0.001743 -0.003755
# 4 -0.006279 0.003047 0.009640 0.040258 -0.000759 -0.001139
# 5 -0.011000 0.009165 0.001743 -0.000759 0.050576 -0.006676
# 6 -0.000175 -0.001703 -0.003755 -0.001139 -0.006676 0.021412
#
#
# Mechanical properties :
#
#
# Convention : Reuss Voigt Hill
#
# Bulk Modulus (GPa) = 26.03335 45.45751 35.74543
# Shear Modulus (GPa) = 23.77369 34.22033 28.99701
#
# Velocity S-wave (km/s) = 3.29447 3.95256 3.63842
# Velocity P-wave (km/s) = 5.13385 6.44851 5.82837
#
# Compressibility (1/GPa) = 0.03841227
#
# Stress axis : x y z
#
# Youngs Moduli (GPa) = 60.36063 76.38363 31.07506
#
# Poissons Ratio (x) = 0.65686 0.22873
# Poissons Ratio (y) = 0.51907 -0.13197
# Poissons Ratio (z) = 0.44430 -0.32439
#
# Static dielectric constant tensor:
#      x y z
#    x 1.848930 0.037270 0.008530 
#    y 0.037270 1.877980 -0.049320 
#    z 0.008530 -0.049320 1.793910 
# 
# From -- ./inp_files/559629.got.cif
#   From: 2010.05.17/outbox.cif.g08.bks.cpg/sg2_280_cif.got.tgz:559629.got - 2010.06.03 11:33:40.
