data_PCOD9091880
_publ_section_title
;
Structure prediction by ZEFSAII (Michael W. Deem and Ramdas Pophale) SiO2 
 PCOD9091880
Probable space group: P -1
;
_chemical_formula_sum "Si O2"
_cell_formula_units_Z 16
_cell_length_a 20.028750
_cell_length_b 8.541061
_cell_length_c 10.175010
_cell_angle_alpha 58.606623
_cell_angle_beta 55.029217
_cell_angle_gamma 31.714865
_cell_volume 747.561819
_symmetry_space_group_name_H-M "P -1"
_symmetry_group_IT_number 2
_symmetry_cell_setting 'triclinic'
loop_
_space_group_symop_operation_xyz
x,y,z
-x,-y,-z
loop_
_atom_site_type_symbol
_atom_site_label
_atom_site_fract_x
_atom_site_fract_y
_atom_site_fract_z
Si Si1 0.873155 0.833347 0.400661
Si Si2 0.538472 0.826344 0.164194
Si Si3 0.607171 0.316580 0.342192
Si Si4 0.137108 0.216940 0.279956
Si Si5 0.035159 0.916362 0.192243
Si Si6 0.848804 0.223045 0.611429
Si Si7 0.182453 0.501945 0.955659
Si Si8 0.390700 0.101695 0.485965
O O1 0.823219 0.823783 0.593909
O O2 0.976949 0.524299 0.338795
O O3 0.749954 0.106779 0.333673
O O4 0.953552 0.873922 0.331530
O O5 0.563624 0.572146 0.200738
O O6 0.435839 0.014208 0.319648
O O7 0.671430 0.676954 0.144218
O O8 0.500000 0.000000 0.000000
O O9 0.500000 0.500000 0.500000
O O10 0.619948 0.090113 0.370241
O O11 0.185723 0.286821 0.095981
O O12 0.179787 0.937970 0.316738
O O13 0.142617 0.766038 0.247056
O O14 0.116206 0.732459 0.049446
O O15 0.922802 0.271391 0.141043
O O16 0.744644 0.541418 0.519476
O O17 0.000000 0.000000 0.500000
O O18 0.500000 0.000000 0.500000
#
# Coordination Sequence:
#
# PCOD9091880 Si02
#       8
#     2   2   2   2   2   2   2   2
#     4  10  19  40  62  96 126 166 227 269 313 389
#     4  11  24  44  69  95 131 179 224 268 331 399
#     4  10  23  39  67  91 122 176 224 267 319 396
#     4  10  23  35  66  94 128 170 214 270 325 387
#     4  10  21  39  65  94 133 164 219 271 329 385
#     4  12  24  40  67  99 132 172 215 278 329 382
#     4  10  22  40  63  94 128 172 214 276 322 391
#     4  11  28  46  66 100 138 174 223 277 332 398
#
# _framework density 21.402912000000001
#
# number of rings (size 3 to 8) (size 9 to 14) (size 15 to 20)
#    0.000    1.500    2.500    1.500   12.250    0.500 
#    0.000    3.750    0.000    0.000    0.000    0.000 
#    0.000    0.000    0.000    0.000    0.000    0.000 
#
# Total GULP energy -89353.533512 kJ/mol
# GULP energy per Si atom -5584.595845 kJ/mol
# Density = 2.135420 g / cm^3
# Si number density = 21.402912 Si / 1000 Ang^3
#
#
#
# Elastic Constant Matrix: (Units=GPa)
#
#
# Indices 1 2 3 4 5 6 
#
# 1 70.5511 39.5347 15.4274 -15.1551 -8.8236 6.1039
# 2 39.5347 124.6296 40.3763 -37.2422 -15.1860 4.1348
# 3 15.4274 40.3763 80.9878 -34.9861 -13.8721 6.7113
# 4 -15.1551 -37.2422 -34.9861 40.4462 5.9450 -6.2512
# 5 -8.8236 -15.1860 -13.8721 5.9450 35.2633 -10.6090
# 6 6.1039 4.1348 6.7113 -6.2512 -10.6090 26.5861
#
#
#
# Elastic Compliance Matrix: (Units=1/GPa)
#
#
# Indices 1 2 3 4 5 6 
#
# 1 0.017620 -0.004908 0.000286 0.001757 0.001394 -0.002385
# 2 -0.004908 0.012975 -0.001392 0.008874 0.003161 0.002808
# 3 0.000286 -0.001392 0.020793 0.016171 0.005154 0.000761
# 4 0.001757 0.008874 0.016171 0.047975 0.004732 0.007303
# 5 0.001394 0.003161 0.005154 0.004732 0.035226 0.013056
# 6 -0.002385 0.002808 0.000761 0.007303 0.013056 0.044459
#
#
# Mechanical properties :
#
#
# Convention : Reuss Voigt Hill
#
# Bulk Modulus (GPa) = 25.40652 51.87170 38.63911
# Shear Modulus (GPa) = 24.48622 32.51447 28.50035
#
# Velocity S-wave (km/s) = 3.38607 3.90187 3.65308
# Velocity P-wave (km/s) = 5.21379 6.67742 5.99047
#
# Compressibility (1/GPa) = 0.03935997
#
# Stress axis : x y z
#
# Youngs Moduli (GPa) = 56.75373 77.06956 48.09395
#
# Poissons Ratio (x) = 0.37826 -0.01374
# Poissons Ratio (y) = 0.27855 0.06693
# Poissons Ratio (z) = -0.01621 0.10725
#
# Static dielectric constant tensor:
#      x y z
#    x 1.805030 0.028130 0.049900 
#    y 0.028130 1.819010 0.031620 
#    z 0.049900 0.031620 1.917320 
# 
# From -- ./inp_files/353488.got.cif
#   From: 2010.05.17/outbox.cif.g08.bks.cpg/sg2_177_cif.got.tgz:353488.got - 2010.06.03 11:33:40.
