data_PCOD9091274
_publ_section_title
;
Structure prediction by ZEFSAII (Michael W. Deem and Ramdas Pophale) SiO2 
 PCOD9091274
Probable space group: P -1
;
_chemical_formula_sum "Si O2"
_cell_formula_units_Z 16
_cell_length_a 16.889579
_cell_length_b 12.723304
_cell_length_c 9.330979
_cell_angle_alpha 110.291384
_cell_angle_beta 102.338528
_cell_angle_gamma 24.978864
_cell_volume 768.112175
_symmetry_space_group_name_H-M "P -1"
_symmetry_group_IT_number 2
_symmetry_cell_setting 'triclinic'
loop_
_space_group_symop_operation_xyz
x,y,z
-x,-y,-z
loop_
_atom_site_type_symbol
_atom_site_label
_atom_site_fract_x
_atom_site_fract_y
_atom_site_fract_z
Si Si1 0.770369 0.482376 0.217451
Si Si2 0.461342 0.663096 0.479335
Si Si3 0.482518 0.641957 0.137086
Si Si4 0.076192 0.165289 0.718133
Si Si5 0.775914 0.737238 0.958848
Si Si6 0.224922 0.545609 0.467667
Si Si7 0.866434 0.871928 0.972696
Si Si8 0.528527 0.971936 0.230790
O O1 0.661632 0.505793 0.133082
O O2 0.843654 0.374606 0.356698
O O3 0.617927 0.776874 0.290418
O O4 0.944061 0.307713 0.103360
O O5 0.500000 0.500000 0.500000
O O6 0.450596 0.665860 0.305290
O O7 0.639955 0.516913 0.520936
O O8 0.258840 0.969648 0.600509
O O9 0.500000 0.500000 0.000000
O O10 0.297860 0.922012 0.113932
O O11 0.165792 0.020972 0.839336
O O12 0.917887 0.459879 0.831386
O O13 0.949294 0.237751 0.611062
O O14 0.583555 0.966813 0.896116
O O15 0.871529 0.735739 0.959665
O O16 0.695224 0.822966 0.129607
O O17 0.372878 0.256130 0.361457
#
# Coordination Sequence:
#
# PCOD9091274 Si02
#       8
#     2   2   2   2   2   2   2   2
#     4  11  23  41  64  95 132 171 211 266 322 382
#     4  11  25  46  69  92 123 171 218 268 323 381
#     4  11  26  47  66  93 128 167 221 271 322 378
#     4  11  23  40  64  97 128 169 214 260 317 379
#     4  10  21  37  63 100 135 170 213 261 314 386
#     4  10  24  41  63  95 134 167 211 264 321 383
#     4  12  23  39  68  97 132 172 214 262 320 381
#     4  10  19  39  64  95 136 172 210 259 322 379
#
# _framework density 20.830290000000002
#
# number of rings (size 3 to 8) (size 9 to 14) (size 15 to 20)
#    0.000    1.250    2.500    3.000    1.750    3.000 
#    0.000    1.875    0.000    0.000    0.000    0.000 
#    0.000    0.000    0.000    0.000    0.000    0.000 
#
# Total GULP energy -89282.073409 kJ/mol
# GULP energy per Si atom -5580.129588 kJ/mol
# Density = 2.078288 g / cm^3
# Si number density = 20.830290 Si / 1000 Ang^3
#
#
#
# Elastic Constant Matrix: (Units=GPa)
#
#
# Indices 1 2 3 4 5 6 
#
# 1 130.0532 23.0867 62.7508 -15.5404 -7.1823 -24.6544
# 2 23.0867 53.5766 24.8423 -28.7566 -1.4550 -21.2816
# 3 62.7508 24.8423 99.4176 -20.9320 -3.7381 -28.7892
# 4 -15.5404 -28.7566 -20.9320 41.6250 -12.3123 6.3232
# 5 -7.1823 -1.4550 -3.7381 -12.3123 23.6424 8.3765
# 6 -24.6544 -21.2816 -28.7892 6.3232 8.3765 27.9136
#
#
#
# Elastic Compliance Matrix: (Units=1/GPa)
#
#
# Indices 1 2 3 4 5 6 
#
# 1 0.011427 -0.000330 -0.005997 0.001261 0.002200 0.002710
# 2 -0.000330 0.045852 0.004243 0.032294 0.010036 0.028715
# 3 -0.005997 0.004243 0.018999 0.007828 -0.000072 0.015781
# 4 0.001261 0.032294 0.007828 0.057620 0.029385 0.011938
# 5 0.002200 0.010036 -0.000072 0.029385 0.064743 -0.016565
# 6 0.002710 0.028715 0.015781 0.011938 -0.016565 0.078655
#
#
# Mechanical properties :
#
#
# Convention : Reuss Voigt Hill
#
# Bulk Modulus (GPa) = 13.86778 56.04522 34.95650
# Shear Modulus (GPa) = 16.36657 30.12737 23.24697
#
# Velocity S-wave (km/s) = 2.80609 3.80718 3.34431
# Velocity P-wave (km/s) = 4.14377 6.80369 5.63299
#
# Compressibility (1/GPa) = 0.07210961
#
# Stress axis : x y z
#
# Youngs Moduli (GPa) = 87.50902 21.80945 52.63447
#
# Poissons Ratio (x) = 0.00720 0.31566
# Poissons Ratio (y) = 0.02887 -0.22332
# Poissons Ratio (z) = 0.52480 -0.09254
#
# Static dielectric constant tensor:
#      x y z
#    x 1.741300 0.015300 0.015310 
#    y 0.015300 1.828460 -0.008800 
#    z 0.015310 -0.008800 1.741900 
# 
# From -- ./inp_files/308084.got.cif
#   From: 2010.05.17/outbox.cif.g08.bks.cpg/sg2_155_cif.got.tgz:308084.got - 2010.06.03 11:33:40.
