data_PCOD9091342
_publ_section_title
;
Structure prediction by ZEFSAII (Michael W. Deem and Ramdas Pophale) SiO2 
 PCOD9091342
Probable space group: P -1
;
_chemical_formula_sum "Si O2"
_cell_formula_units_Z 16
_cell_length_a 9.532382
_cell_length_b 11.514803
_cell_length_c 21.267036
_cell_angle_alpha 26.647004
_cell_angle_beta 36.993892
_cell_angle_gamma 49.334415
_cell_volume 612.998498
_symmetry_space_group_name_H-M "P -1"
_symmetry_group_IT_number 2
_symmetry_cell_setting 'triclinic'
loop_
_space_group_symop_operation_xyz
x,y,z
-x,-y,-z
loop_
_atom_site_type_symbol
_atom_site_label
_atom_site_fract_x
_atom_site_fract_y
_atom_site_fract_z
Si Si1 0.185084 0.816262 0.023444
Si Si2 0.584460 0.809471 0.634921
Si Si3 0.370592 0.431172 0.513256
Si Si4 0.127216 0.573823 0.351056
Si Si5 0.212930 0.355478 0.169455
Si Si6 0.540602 0.948953 0.714228
Si Si7 0.185269 0.615060 0.784483
Si Si8 0.433013 0.164948 0.865444
O O1 0.341399 0.906399 0.860864
O O2 0.326712 0.884163 0.005295
O O3 0.081426 0.506982 0.193756
O O4 0.000000 0.000000 0.000000
O O5 0.743865 0.646784 0.616281
O O6 0.593073 0.764555 0.727621
O O7 0.308036 0.694926 0.768624
O O8 0.684436 0.118063 0.430039
O O9 0.500000 0.500000 0.500000
O O10 0.465668 0.655245 0.319399
O O11 0.084506 0.379396 0.640241
O O12 0.457872 0.166602 0.596311
O O13 0.343910 0.816571 0.176508
O O14 0.000000 0.500000 0.500000
O O15 0.220562 0.052588 0.329134
O O16 0.089726 0.395209 0.128840
O O17 0.500000 0.500000 0.000000
O O18 0.252332 0.337300 0.874829
#
# Coordination Sequence:
#
# PCOD9091342 Si02
#       8
#     2   2   2   2   2   2   2   2
#     4  11  22  41  67  85 123 175 221 260 307 375
#     4  10  22  39  65  97 130 161 201 272 334 374
#     4  11  21  37  61  99 128 157 199 270 329 371
#     4   9  22  37  61  92 128 164 201 241 323 393
#     4  10  24  41  61  91 124 177 221 249 311 383
#     4  11  24  40  59  97 129 158 215 265 322 371
#     4  10  20  38  66  93 128 167 203 257 329 391
#     4  10  19  39  65  91 121 166 212 255 315 383
#
# _framework density 26.101206000000001
#
# number of rings (size 3 to 8) (size 9 to 14) (size 15 to 20)
#    0.000    1.750    3.750    0.000    3.500    3.500 
#    0.000    2.500    0.000    2.250    0.000    0.000 
#    0.000    0.000    0.000    0.000    0.000    0.000 
#
# Total GULP energy -89206.861779 kJ/mol
# GULP energy per Si atom -5575.428861 kJ/mol
# Density = 2.604180 g / cm^3
# Si number density = 26.101206 Si / 1000 Ang^3
#
#
#
# Elastic Constant Matrix: (Units=GPa)
#
#
# Indices 1 2 3 4 5 6 
#
# 1 135.7759 30.9706 3.0639 15.9832 -28.0090 -21.4245
# 2 30.9706 113.6653 14.2849 0.3421 1.6889 -10.2344
# 3 3.0639 14.2849 63.8466 2.4795 -2.7982 1.0282
# 4 15.9832 0.3421 2.4795 26.8193 -1.6342 8.0184
# 5 -28.0090 1.6889 -2.7982 -1.6342 30.8625 9.4872
# 6 -21.4245 -10.2344 1.0282 8.0184 9.4872 57.4088
#
#
#
# Elastic Compliance Matrix: (Units=1/GPa)
#
#
# Indices 1 2 3 4 5 6 
#
# 1 0.011237 -0.002987 0.000753 -0.007113 0.009088 0.003139
# 2 -0.002987 0.010063 -0.002342 0.001292 -0.003763 0.001162
# 3 0.000753 -0.002342 0.016327 -0.001603 0.002392 -0.000600
# 4 -0.007113 0.001292 -0.001603 0.044012 -0.001807 -0.008244
# 5 0.009088 -0.003763 0.002392 -0.001807 0.042221 -0.004047
# 6 0.003139 0.001162 -0.000600 -0.008244 -0.004047 0.020629
#
#
# Mechanical properties :
#
#
# Convention : Reuss Voigt Hill
#
# Bulk Modulus (GPa) = 35.11906 45.54739 40.33322
# Shear Modulus (GPa) = 30.64997 40.68267 35.66632
#
# Velocity S-wave (km/s) = 3.43049 3.95226 3.70058
# Velocity P-wave (km/s) = 5.40140 6.18994 5.80906
#
# Compressibility (1/GPa) = 0.02847457
#
# Stress axis : x y z
#
# Youngs Moduli (GPa) = 88.99213 99.37650 61.24782
#
# Poissons Ratio (x) = 0.29688 -0.04613
# Poissons Ratio (y) = 0.26585 0.14343
# Poissons Ratio (z) = -0.06702 0.23273
#
# Static dielectric constant tensor:
#      x y z
#    x 2.113890 -0.082300 0.061930 
#    y -0.082300 1.892050 -0.156540 
#    z 0.061930 -0.156540 2.487130 
# 
# From -- ./inp_files/571009.got.cif
#   From: 2010.05.17/outbox.cif.g08.bks.cpg/sg2_286_cif.got.tgz:571009.got - 2010.06.03 11:33:40.
