data_PCOD9091421
_publ_section_title
;
Structure prediction by ZEFSAII (Michael W. Deem and Ramdas Pophale) SiO2 
 PCOD9091421
Probable space group: P -1
;
_chemical_formula_sum "Si O2"
_cell_formula_units_Z 16
_cell_length_a 14.687794
_cell_length_b 25.352564
_cell_length_c 19.256094
_cell_angle_alpha 17.794706
_cell_angle_beta 154.510685
_cell_angle_gamma 161.496400
_cell_volume 695.451331
_symmetry_space_group_name_H-M "P -1"
_symmetry_group_IT_number 2
_symmetry_cell_setting 'triclinic'
loop_
_space_group_symop_operation_xyz
x,y,z
-x,-y,-z
loop_
_atom_site_type_symbol
_atom_site_label
_atom_site_fract_x
_atom_site_fract_y
_atom_site_fract_z
Si Si1 0.977956 0.462895 0.925812
Si Si2 0.735751 0.338985 0.672954
Si Si3 0.993473 0.992335 0.088942
Si Si4 0.739510 0.492776 0.338683
Si Si5 0.054555 0.894798 0.389486
Si Si6 0.595656 0.254079 0.401192
Si Si7 0.569176 0.215766 0.077287
Si Si8 0.471616 0.164366 0.850514
O O1 0.995089 0.678402 0.655155
O O2 0.772702 0.291845 0.937303
O O3 0.310896 0.615668 0.984273
O O4 0.817581 0.308223 0.078015
O O5 0.621205 0.372308 0.483421
O O6 0.567285 0.303048 0.670334
O O7 0.080821 0.548253 0.652086
O O8 0.674987 0.102167 0.923452
O O9 0.109099 0.912802 0.321298
O O10 0.650754 0.799295 0.101056
O O11 0.000000 0.000000 0.000000
O O12 0.131164 0.245308 0.894856
O O13 0.559348 0.356242 0.316186
O O14 0.000000 0.500000 0.500000
O O15 0.770180 0.850553 0.262362
O O16 0.334944 0.132504 0.320533
O O17 0.572565 0.041848 0.675394
#
# Coordination Sequence:
#
# PCOD9091421 Si02
#       8
#     2   2   2   2   2   2   2   2
#     4  10  22  37  63  83 125 168 202 250 307 384
#     4  10  22  37  64  91 121 163 212 262 302 380
#     4  12  25  37  61  98 129 158 207 268 322 365
#     4  10  19  39  66  87 118 167 212 255 304 379
#     4  11  24  40  63  93 128 165 204 266 321 370
#     4  10  21  41  69  92 116 167 223 258 305 373
#     4  10  20  40  60  91 116 165 217 246 301 381
#     4  11  22  38  59  93 126 162 208 255 322 374
#
# _framework density 23.006643
#
# number of rings (size 3 to 8) (size 9 to 14) (size 15 to 20)
#    0.000    1.500    3.750    2.625    1.750    3.000 
#    0.000    4.375    0.000    0.000    0.000    0.000 
#    0.000    0.000    0.000    0.000    0.000    0.000 
#
# Total GULP energy -89217.215122 kJ/mol
# GULP energy per Si atom -5576.075945 kJ/mol
# Density = 2.295428 g / cm^3
# Si number density = 23.006643 Si / 1000 Ang^3
#
#
#
# Elastic Constant Matrix: (Units=GPa)
#
#
# Indices 1 2 3 4 5 6 
#
# 1 80.9911 48.7121 29.2400 -2.3665 -23.6199 -16.9256
# 2 48.7121 156.1801 39.9508 -12.8805 -18.1316 -31.2740
# 3 29.2400 39.9508 83.8242 -13.7465 -20.4088 -1.8873
# 4 -2.3665 -12.8805 -13.7465 40.0599 -0.8136 -9.4084
# 5 -23.6199 -18.1316 -20.4088 -0.8136 30.1020 3.4149
# 6 -16.9256 -31.2740 -1.8873 -9.4084 3.4149 25.4699
#
#
#
# Elastic Compliance Matrix: (Units=1/GPa)
#
#
# Indices 1 2 3 4 5 6 
#
# 1 0.020054 -0.002103 -0.002577 0.002160 0.011670 0.009786
# 2 -0.002103 0.011367 -0.002977 0.005900 0.001717 0.014289
# 3 -0.002577 -0.002977 0.016778 0.003929 0.008092 -0.003758
# 4 0.002160 0.005900 0.003929 0.033255 0.006499 0.020384
# 5 0.011670 0.001717 0.008092 0.006499 0.048350 0.006381
# 6 0.009786 0.014289 -0.003758 0.020384 0.006381 0.069706
#
#
# Mechanical properties :
#
#
# Convention : Reuss Voigt Hill
#
# Bulk Modulus (GPa) = 30.40936 61.86681 46.13809
# Shear Modulus (GPa) = 22.14495 32.66586 27.40540
#
# Velocity S-wave (km/s) = 3.10586 3.77217 3.45511
# Velocity P-wave (km/s) = 5.10961 6.77655 6.00124
#
# Compressibility (1/GPa) = 0.03288461
#
# Stress axis : x y z
#
# Youngs Moduli (GPa) = 49.86566 87.97058 59.60357
#
# Poissons Ratio (x) = 0.18499 0.15362
# Poissons Ratio (y) = 0.10486 0.17743
# Poissons Ratio (z) = 0.12852 0.26187
#
# Static dielectric constant tensor:
#      x y z
#    x 1.995810 0.037410 0.007480 
#    y 0.037410 2.001430 0.019020 
#    z 0.007480 0.019020 1.820130 
# 
# From -- ./inp_files/558901.got.cif
#   From: 2010.05.17/outbox.cif.g08.bks.cpg/sg2_280_cif.got.tgz:558901.got - 2010.06.03 11:33:40.
