data_PCOD9091903
_publ_section_title
;
Structure prediction by ZEFSAII (Michael W. Deem and Ramdas Pophale) SiO2 
 PCOD9091903
Probable space group: P -1
;
_chemical_formula_sum "Si O2"
_cell_formula_units_Z 14
_cell_length_a 15.077121
_cell_length_b 8.698536
_cell_length_c 11.944290
_cell_angle_alpha 110.411084
_cell_angle_beta 27.572995
_cell_angle_gamma 93.626012
_cell_volume 559.850142
_symmetry_space_group_name_H-M "P -1"
_symmetry_group_IT_number 2
_symmetry_cell_setting 'triclinic'
loop_
_space_group_symop_operation_xyz
x,y,z
-x,-y,-z
loop_
_atom_site_type_symbol
_atom_site_label
_atom_site_fract_x
_atom_site_fract_y
_atom_site_fract_z
Si Si1 0.753640 0.299514 0.171063
Si Si2 0.054949 0.435952 0.752842
Si Si3 0.454648 0.812114 0.254151
Si Si4 0.595898 0.289909 0.964535
Si Si5 0.554637 0.139806 0.192848
Si Si6 0.824709 0.288288 0.346064
Si Si7 0.909474 0.430110 0.683116
O O1 0.500000 0.500000 0.500000
O O2 0.726237 0.153369 0.085799
O O3 0.792049 0.248541 0.245339
O O4 0.913937 0.364188 0.956181
O O5 0.291773 0.339068 0.534014
O O6 0.980625 0.662124 0.870072
O O7 0.078251 0.349946 0.579776
O O8 0.207026 0.866281 0.589596
O O9 0.510499 0.975192 0.231802
O O10 0.467946 0.743186 0.094057
O O11 0.664216 0.631231 0.045640
O O12 0.635646 0.131400 0.972534
O O13 0.381832 0.505658 0.306927
O O14 0.824244 0.293946 0.703976
O O15 0.000000 0.500000 0.500000
#
# Coordination Sequence:
#
# PCOD9091903 Si02
#       7
#     2   2   2   2   2   2   2
#     4  12  21  42  68  92 125 168 222 252 307 385
#     4  11  22  41  66  95 120 167 224 249 308 386
#     4  11  23  42  62  95 136 161 203 272 325 362
#     4  10  19  40  63  89 125 168 210 250 311 383
#     4  11  24  42  66  94 130 168 203 266 324 367
#     4  10  21  38  66  91 119 170 212 258 305 373
#     4  11  20  37  64  95 125 168 217 255 305 382
#
# _framework density 25.006692999999999
#
# number of rings (size 3 to 8) (size 9 to 14) (size 15 to 20)
#    0.000    1.143    4.286    6.000    0.000    0.571 
#    5.143    2.143    0.000    0.000    0.000    0.000 
#    0.000    0.000    0.000    0.000    0.000    0.000 
#
# Total GULP energy -78164.474941 kJ/mol
# GULP energy per Si atom -5583.176781 kJ/mol
# Density = 2.494978 g / cm^3
# Si number density = 25.006693 Si / 1000 Ang^3
#
#
#
# Elastic Constant Matrix: (Units=GPa)
#
#
# Indices 1 2 3 4 5 6 
#
# 1 164.0970 35.1997 52.1042 -28.2683 13.7916 24.1875
# 2 35.1997 151.1833 41.9408 -64.8094 5.5070 19.9196
# 3 52.1042 41.9408 79.5418 -37.7379 7.8635 2.4462
# 4 -28.2683 -64.8094 -37.7379 61.0700 -3.9210 -5.4262
# 5 13.7916 5.5070 7.8635 -3.9210 40.3714 -15.1759
# 6 24.1875 19.9196 2.4462 -5.4262 -15.1759 28.6517
#
#
#
# Elastic Compliance Matrix: (Units=1/GPa)
#
#
# Indices 1 2 3 4 5 6 
#
# 1 0.010437 0.001890 -0.005980 0.001475 -0.007522 -0.013319
# 2 0.001890 0.014113 -0.001311 0.013677 -0.005319 -0.011523
# 3 -0.005980 -0.001311 0.021475 0.009815 0.001551 0.006807
# 4 0.001475 0.013677 0.009815 0.036890 -0.003034 -0.006213
# 5 -0.007522 -0.005319 0.001551 -0.003034 0.038681 0.029829
# 6 -0.013319 -0.011523 0.006807 -0.006213 0.029829 0.068198
#
#
# Mechanical properties :
#
#
# Convention : Reuss Voigt Hill
#
# Bulk Modulus (GPa) = 28.39039 72.59016 50.49027
# Shear Modulus (GPa) = 23.54748 43.72379 33.63564
#
# Velocity S-wave (km/s) = 3.07196 4.18602 3.67149
# Velocity P-wave (km/s) = 4.89493 7.24258 6.18124
#
# Compressibility (1/GPa) = 0.03522319
#
# Stress axis : x y z
#
# Youngs Moduli (GPa) = 95.81436 70.85712 46.56651
#
# Poissons Ratio (x) = -0.13395 0.27848
# Poissons Ratio (y) = -0.18112 0.06104
# Poissons Ratio (z) = 0.57299 0.09287
#
# Static dielectric constant tensor:
#      x y z
#    x 1.993100 -0.098710 -0.045650 
#    y -0.098710 2.230540 0.038780 
#    z -0.045650 0.038780 2.091430 
# 
# From -- ./inp_files/188974.got.cif
#   From: 2010.05.17/outbox.cif.g08.bks.cpg/sg2_95_cif.got.tgz:188974.got - 2010.06.03 11:33:40.
