data_PCOD9091577
_publ_section_title
;
Structure prediction by ZEFSAII (Michael W. Deem and Ramdas Pophale) SiO2 
 PCOD9091577
Probable space group: P -1
;
_chemical_formula_sum "Si O2"
_cell_formula_units_Z 14
_cell_length_a 13.407855
_cell_length_b 8.625140
_cell_length_c 12.127489
_cell_angle_alpha 58.437116
_cell_angle_beta 61.577796
_cell_angle_gamma 30.601110
_cell_volume 607.280639
_symmetry_space_group_name_H-M "P -1"
_symmetry_group_IT_number 2
_symmetry_cell_setting 'triclinic'
loop_
_space_group_symop_operation_xyz
x,y,z
-x,-y,-z
loop_
_atom_site_type_symbol
_atom_site_label
_atom_site_fract_x
_atom_site_fract_y
_atom_site_fract_z
Si Si1 0.616462 0.641651 0.875464
Si Si2 0.247795 0.897096 0.884820
Si Si3 0.139478 0.781654 0.304874
Si Si4 0.717545 0.181434 0.359650
Si Si5 0.582171 0.744491 0.226512
Si Si6 0.436005 0.249119 0.519507
Si Si7 0.024314 0.678868 0.939993
O O1 0.408133 0.827249 0.875443
O O2 0.758910 0.454802 0.763912
O O3 0.584564 0.887467 0.843890
O O4 0.687094 0.394590 0.014494
O O5 0.240581 0.929974 0.746677
O O6 0.047106 0.185448 0.949697
O O7 0.279448 0.571313 0.413196
O O8 0.111361 0.021074 0.181830
O O9 0.924271 0.984395 0.368724
O O10 0.563517 0.551092 0.302577
O O11 0.623749 0.131626 0.486119
O O12 0.641965 0.706075 0.336964
O O13 0.757804 0.554385 0.121487
O O14 0.500000 0.000000 0.500000
O O15 0.000000 0.500000 0.000000
#
# Coordination Sequence:
#
# PCOD9091577 Si02
#       7
#     2   2   2   2   2   2   2
#     4  10  19  39  67  96 129 177 217 258 330 395
#     4  10  20  39  68  93 134 176 210 266 333 385
#     4  10  23  42  68  99 131 171 220 264 329 386
#     4  11  25  42  67  99 130 168 219 276 323 387
#     4  11  23  40  65 100 132 170 225 270 317 386
#     4  12  24  46  72  89 131 181 218 270 327 380
#     4  10  21  37  67  99 133 167 218 265 322 395
#
# _framework density 23.053592999999999
#
# number of rings (size 3 to 8) (size 9 to 14) (size 15 to 20)
#    0.000    1.429    4.286    0.429    0.000    8.571 
#    0.000    2.857    0.000    0.000    0.000    0.000 
#    0.000    0.000    0.000    0.000    0.000    0.000 
#
# Total GULP energy -78306.820640 kJ/mol
# GULP energy per Si atom -5593.344331 kJ/mol
# Density = 2.300112 g / cm^3
# Si number density = 23.053593 Si / 1000 Ang^3
#
#
#
# Elastic Constant Matrix: (Units=GPa)
#
#
# Indices 1 2 3 4 5 6 
#
# 1 75.4284 29.2560 15.1593 6.1145 -23.0713 10.2188
# 2 29.2560 127.3597 38.8481 6.1891 -12.3504 21.7134
# 3 15.1593 38.8481 79.2862 15.8645 7.0536 5.6507
# 4 6.1145 6.1891 15.8645 31.6588 8.0410 -1.5211
# 5 -23.0713 -12.3504 7.0536 8.0410 37.0985 -4.8142
# 6 10.2188 21.7134 5.6507 -1.5211 -4.8142 34.7801
#
#
#
# Elastic Compliance Matrix: (Units=1/GPa)
#
#
# Indices 1 2 3 4 5 6 
#
# 1 0.019102 -0.001616 -0.002729 -0.005353 0.012678 -0.002639
# 2 -0.001616 0.010882 -0.004842 -0.000386 0.002955 -0.005140
# 3 -0.002729 -0.004842 0.017127 -0.005757 -0.005311 0.000055
# 4 -0.005353 -0.000386 -0.005757 0.038337 -0.010283 0.003003
# 5 0.012678 0.002955 -0.005311 -0.010283 0.039095 0.000255
# 6 -0.002639 -0.005140 0.000055 0.003003 0.000255 0.032894
#
#
# Mechanical properties :
#
#
# Convention : Reuss Voigt Hill
#
# Bulk Modulus (GPa) = 34.79871 49.84457 42.32164
# Shear Modulus (GPa) = 26.97009 33.96154 30.46582
#
# Velocity S-wave (km/s) = 3.42407 3.84234 3.63922
# Velocity P-wave (km/s) = 5.54615 6.43062 6.00469
#
# Compressibility (1/GPa) = 0.02873670
#
# Stress axis : x y z
#
# Youngs Moduli (GPa) = 52.34979 91.89894 58.38615
#
# Poissons Ratio (x) = 0.14851 0.15935
# Poissons Ratio (y) = 0.08460 0.28270
# Poissons Ratio (z) = 0.14288 0.44497
#
# Static dielectric constant tensor:
#      x y z
#    x 1.879310 -0.005650 -0.002490 
#    y -0.005650 1.882140 -0.018400 
#    z -0.002490 -0.018400 1.828940 
# 
# From -- ./inp_files/188310.got.cif
#   From: 2010.05.17/outbox.cif.g08.bks.cpg/sg2_95_cif.got.tgz:188310.got - 2010.06.03 11:33:40.
