data_PCOD9091154
_publ_section_title
;
Structure prediction by ZEFSAII (Michael W. Deem and Ramdas Pophale) SiO2 
 PCOD9091154
Probable space group: P -1
;
_chemical_formula_sum "Si O2"
_cell_formula_units_Z 15
_cell_length_a 9.992530
_cell_length_b 8.298267
_cell_length_c 16.701652
_cell_angle_alpha 138.021554
_cell_angle_beta 49.978640
_cell_angle_gamma 138.420475
_cell_volume 602.827989
_symmetry_space_group_name_H-M "P -1"
_symmetry_group_IT_number 2
_symmetry_cell_setting 'triclinic'
loop_
_space_group_symop_operation_xyz
x,y,z
-x,-y,-z
loop_
_atom_site_type_symbol
_atom_site_label
_atom_site_fract_x
_atom_site_fract_y
_atom_site_fract_z
Si Si1 0.740447 0.539714 0.325913
Si Si2 0.052039 0.685897 0.936096
Si Si3 0.130809 0.283666 0.155191
Si Si4 0.904100 0.234314 0.380118
Si Si5 0.595722 0.323665 0.468885
Si Si6 0.871383 0.941959 0.661292
Si Si7 0.627856 0.141928 0.923356
Si Si8 0.500000 0.500000 0.000000
O O1 0.620065 0.315629 0.361035
O O2 0.613776 0.700145 0.431977
O O3 0.776699 0.389265 0.180212
O O4 0.978006 0.779364 0.344748
O O5 0.976653 0.723641 0.890372
O O6 0.853505 0.424621 0.957853
O O7 0.105556 0.977138 0.064242
O O8 0.023946 0.335132 0.287805
O O9 0.367524 0.509658 0.131426
O O10 0.670077 0.134874 0.413803
O O11 0.000000 0.500000 0.500000
O O12 0.971683 0.037342 0.322944
O O13 0.767168 0.649648 0.546357
O O14 0.690702 0.952520 0.779051
O O15 0.523269 0.260546 0.949682
O O16 0.500000 0.000000 0.000000
#
# Coordination Sequence:
#
# PCOD9091154 Si02
#       8
#     2   2   2   2   2   2   2   1
#     4  10  20  39  60  94 120 162 220 265 329 387
#     4   9  20  37  65  92 130 164 211 286 331 388
#     4  10  19  39  63  97 127 169 222 267 339 397
#     4  10  21  40  63  89 129 175 213 269 328 398
#     4  10  21  38  64  87 121 171 215 269 318 397
#     4  10  22  39  60  88 127 167 211 269 327 390
#     4  10  21  41  60  95 128 166 221 267 339 404
#     4  10  22  36  66  94 126 176 214 276 324 404
#
# _framework density 24.882722000000001
#
# number of rings (size 3 to 8) (size 9 to 14) (size 15 to 20)
#    0.000    2.133    1.333    1.200    1.867    0.533 
#    2.400    2.000    2.933    0.000    0.000    0.000 
#    0.000    0.000    0.000    0.000    0.000    0.000 
#
# Total GULP energy -83520.635081 kJ/mol
# GULP energy per Si atom -5568.042339 kJ/mol
# Density = 2.482609 g / cm^3
# Si number density = 24.882722 Si / 1000 Ang^3
#
#
#
# Elastic Constant Matrix: (Units=GPa)
#
#
# Indices 1 2 3 4 5 6 
#
# 1 59.9491 23.2390 37.3210 -5.7851 -23.6046 -21.6150
# 2 23.2390 112.3222 61.8517 -36.2631 -3.1861 -13.7950
# 3 37.3210 61.8517 168.5594 -37.9125 -19.3369 -7.6421
# 4 -5.7851 -36.2631 -37.9125 46.8142 3.5990 -5.5365
# 5 -23.6046 -3.1861 -19.3369 3.5990 47.8107 3.0979
# 6 -21.6150 -13.7950 -7.6421 -5.5365 3.0979 34.5760
#
#
#
# Elastic Compliance Matrix: (Units=1/GPa)
#
#
# Indices 1 2 3 4 5 6 
#
# 1 0.030633 -0.001696 -0.003928 0.000300 0.012327 0.016549
# 2 -0.001696 0.014568 -0.002764 0.009694 -0.002095 0.005881
# 3 -0.003928 -0.002764 0.008891 0.004363 0.001209 -0.001003
# 4 0.000300 0.009694 0.004363 0.033730 -0.000659 0.010480
# 5 0.012327 -0.002095 0.001209 -0.000659 0.027103 0.004604
# 6 0.016549 0.005881 -0.001003 0.010480 0.004604 0.042658
#
#
# Mechanical properties :
#
#
# Convention : Reuss Voigt Hill
#
# Bulk Modulus (GPa) = 26.79733 65.07268 45.93500
# Shear Modulus (GPa) = 26.76700 40.40145 33.58423
#
# Velocity S-wave (km/s) = 3.28339 4.03386 3.67781
# Velocity P-wave (km/s) = 5.01667 6.92131 6.04448
#
# Compressibility (1/GPa) = 0.03731716
#
# Stress axis : x y z
#
# Youngs Moduli (GPa) = 32.64418 68.64315 112.47409
#
# Poissons Ratio (x) = 0.11639 0.44185
# Poissons Ratio (y) = 0.05535 0.31083
# Poissons Ratio (z) = 0.12824 0.18970
#
# Static dielectric constant tensor:
#      x y z
#    x 2.104460 0.025390 -0.043010 
#    y 0.025390 1.988050 0.012310 
#    z -0.043010 0.012310 1.908870 
# 
# From -- ./inp_files/333962.got.cif
#   From: 2010.05.17/outbox.cif.g08.bks.cpg/sg2_167_cif.got.tgz:333962.got - 2010.06.03 11:33:40.
