data_PCOD9091767
_publ_section_title
;
Structure prediction by ZEFSAII (Michael W. Deem and Ramdas Pophale) SiO2 
 PCOD9091767
Probable space group: P -1
;
_chemical_formula_sum "Si O2"
_cell_formula_units_Z 16
_cell_length_a 9.454399
_cell_length_b 14.166378
_cell_length_c 9.008950
_cell_angle_alpha 85.063450
_cell_angle_beta 133.943647
_cell_angle_gamma 120.223429
_cell_volume 680.170670
_symmetry_space_group_name_H-M "P -1"
_symmetry_group_IT_number 2
_symmetry_cell_setting 'triclinic'
loop_
_space_group_symop_operation_xyz
x,y,z
-x,-y,-z
loop_
_atom_site_type_symbol
_atom_site_label
_atom_site_fract_x
_atom_site_fract_y
_atom_site_fract_z
Si Si1 0.029856 0.142972 0.448632
Si Si2 0.463437 0.931027 0.745123
Si Si3 0.767734 0.371805 0.907636
Si Si4 0.424449 0.767292 0.493398
Si Si5 0.008231 0.081803 0.125997
Si Si6 0.725404 0.428672 0.368999
Si Si7 0.363769 0.408228 0.555932
Si Si8 0.505606 0.761441 0.010451
O O1 0.769538 0.079878 0.357281
O O2 0.010922 0.063639 0.308538
O O3 0.116171 0.266289 0.407644
O O4 0.250930 0.179749 0.717597
O O5 0.409261 0.861223 0.558746
O O6 0.500341 0.855598 0.898838
O O7 0.743598 0.057883 0.918025
O O8 0.677525 0.264323 0.742211
O O9 0.564602 0.393615 0.758676
O O10 0.744323 0.320300 0.059392
O O11 0.000000 0.500000 0.000000
O O12 0.269077 0.641627 0.480486
O O13 0.702199 0.803577 0.697742
O O14 0.000000 0.000000 0.000000
O O15 0.673513 0.518423 0.367947
O O16 0.000000 0.500000 0.500000
O O17 0.521417 0.329966 0.117330
O O18 0.500000 0.500000 0.500000
#
# Coordination Sequence:
#
# PCOD9091767 Si02
#       8
#     2   2   2   2   2   2   2   2
#     4  11  22  40  61  92 126 151 215 259 299 376
#     4  10  23  38  70  85 116 170 206 253 316 360
#     4  11  22  35  57  87 130 157 201 249 307 363
#     4  10  19  40  58  88 126 160 200 252 300 372
#     4  10  20  40  66  88 118 168 204 255 324 356
#     4  11  21  37  63  92 126 166 209 242 306 378
#     4  11  21  35  59  85 118 167 196 245 302 364
#     4  10  23  39  59  95 125 158 204 260 304 356
#
# _framework density 23.523509000000001
#
# number of rings (size 3 to 8) (size 9 to 14) (size 15 to 20)
#    0.000    1.500    3.750    2.625    1.750    3.500 
#    0.000    0.000    2.750    8.250    0.000    0.000 
#    0.000    0.000    0.000    0.000    0.000    0.000 
#
# Total GULP energy -89161.391255 kJ/mol
# GULP energy per Si atom -5572.586953 kJ/mol
# Density = 2.346997 g / cm^3
# Si number density = 23.523509 Si / 1000 Ang^3
#
#
#
# Elastic Constant Matrix: (Units=GPa)
#
#
# Indices 1 2 3 4 5 6 
#
# 1 150.6932 19.9722 48.5809 1.3105 2.6545 10.7645
# 2 19.9722 81.2481 8.7596 4.4078 4.1039 10.4077
# 3 48.5809 8.7596 88.6660 2.6785 -10.0590 -12.7106
# 4 1.3105 4.4078 2.6785 24.6878 10.6119 10.0525
# 5 2.6545 4.1039 -10.0590 10.6119 53.1074 14.6228
# 6 10.7645 10.4077 -12.7106 10.0525 14.6228 28.8947
#
#
#
# Elastic Compliance Matrix: (Units=1/GPa)
#
#
# Indices 1 2 3 4 5 6 
#
# 1 0.009149 -0.000902 -0.006013 0.003184 -0.000326 -0.006671
# 2 -0.000902 0.013361 -0.001547 -0.000128 0.000178 -0.005203
# 3 -0.006013 -0.001547 0.016795 -0.006714 0.001737 0.011642
# 4 0.003184 -0.000128 -0.006714 0.051524 -0.006569 -0.018694
# 5 -0.000326 0.000178 0.001737 -0.006569 0.022795 -0.008429
# 6 -0.006671 -0.005203 0.011642 -0.018694 -0.008429 0.054858
#
#
# Mechanical properties :
#
#
# Convention : Reuss Voigt Hill
#
# Bulk Modulus (GPa) = 44.68528 52.80364 48.74446
# Shear Modulus (GPa) = 25.92474 37.55763 31.74118
#
# Velocity S-wave (km/s) = 3.32336 4.00008 3.67732
# Velocity P-wave (km/s) = 5.81064 6.62043 6.22871
#
# Compressibility (1/GPa) = 0.02237873
#
# Stress axis : x y z
#
# Youngs Moduli (GPa) = 109.30534 74.84467 59.54315
#
# Poissons Ratio (x) = 0.06754 0.35803
# Poissons Ratio (y) = 0.09863 0.09214
# Poissons Ratio (z) = 0.65725 0.11581
#
# Static dielectric constant tensor:
#      x y z
#    x 2.026440 0.096450 -0.009760 
#    y 0.096450 2.006930 0.084470 
#    z -0.009760 0.084470 1.929160 
# 
# From -- ./inp_files/203601.got.cif
#   From: 2010.05.17/outbox.cif.g08.bks.cpg/sg2_102_cif.got.tgz:203601.got - 2010.06.03 11:33:40.
