data_PCOD9091479
_publ_section_title
;
Structure prediction by ZEFSAII (Michael W. Deem and Ramdas Pophale) SiO2 
 PCOD9091479
Probable space group: P -1
;
_chemical_formula_sum "Si O2"
_cell_formula_units_Z 16
_cell_length_a 17.986885
_cell_length_b 8.222490
_cell_length_c 5.802983
_cell_angle_alpha 118.000021
_cell_angle_beta 50.513729
_cell_angle_gamma 104.817125
_cell_volume 583.685606
_symmetry_space_group_name_H-M "P -1"
_symmetry_group_IT_number 2
_symmetry_cell_setting 'triclinic'
loop_
_space_group_symop_operation_xyz
x,y,z
-x,-y,-z
loop_
_atom_site_type_symbol
_atom_site_label
_atom_site_fract_x
_atom_site_fract_y
_atom_site_fract_z
Si Si1 0.205124 0.610160 0.164268
Si Si2 0.320349 0.101776 0.963920
Si Si3 0.933738 0.344188 0.920995
Si Si4 0.567407 0.569606 0.612298
Si Si5 0.890466 0.057458 0.204779
Si Si6 0.129026 0.249910 0.260677
Si Si7 0.371520 0.531258 0.148502
Si Si8 0.613877 0.958596 0.708898
O O1 0.157606 0.568021 0.981227
O O2 0.164103 0.819762 0.416910
O O3 0.149467 0.460866 0.323871
O O4 0.305217 0.599155 0.108999
O O5 0.350604 0.995281 0.591569
O O6 0.206465 0.160286 0.225393
O O7 0.368358 0.304583 0.999606
O O8 0.346757 0.998595 0.082920
O O9 0.017606 0.237257 0.531916
O O10 0.893125 0.197748 0.077610
O O11 0.000000 0.500000 0.000000
O O12 0.500000 0.500000 0.500000
O O13 0.640955 0.437643 0.529033
O O14 0.627300 0.735882 0.526888
O O15 0.473218 0.626747 0.990255
O O16 0.845591 0.868847 0.097267
O O17 0.000000 0.000000 0.000000
O O18 0.500000 0.000000 0.000000
#
# Coordination Sequence:
#
# PCOD9091479 Si02
#       8
#     2   2   2   2   2   2   2   2
#     4  11  24  45  66 102 135 179 239 288 351 424
#     4  10  23  43  66  98 135 181 227 281 351 420
#     4  12  24  44  71  97 135 187 232 288 358 416
#     4  10  19  39  66  93 128 177 220 274 347 410
#     4  12  25  43  68  96 136 179 235 288 350 422
#     4  11  24  45  68  99 136 184 230 292 356 419
#     4   9  21  39  65  96 132 173 227 285 344 414
#     4  11  23  42  67  97 138 178 224 283 349 418
#
# _framework density 27.412016999999999
#
# number of rings (size 3 to 8) (size 9 to 14) (size 15 to 20)
#    0.000    1.250    3.750    1.875    0.000    5.000 
#    4.500    0.000    0.000    0.000    0.000    0.000 
#    0.000    0.000    0.000    0.000    0.000    0.000 
#
# Total GULP energy -89168.401887 kJ/mol
# GULP energy per Si atom -5573.025118 kJ/mol
# Density = 2.734963 g / cm^3
# Si number density = 27.412017 Si / 1000 Ang^3
#
#
#
# Elastic Constant Matrix: (Units=GPa)
#
#
# Indices 1 2 3 4 5 6 
#
# 1 242.0276 32.2062 61.1471 -24.5293 -4.0529 -26.1848
# 2 32.2062 104.9031 23.4595 -7.4594 1.4490 -5.2885
# 3 61.1471 23.4595 63.7616 10.5921 20.1656 -4.9565
# 4 -24.5293 -7.4594 10.5921 36.3299 -1.2636 7.0042
# 5 -4.0529 1.4490 20.1656 -1.2636 52.8748 -15.1579
# 6 -26.1848 -5.2885 -4.9565 7.0042 -15.1579 49.4755
#
#
#
# Elastic Compliance Matrix: (Units=1/GPa)
#
#
# Indices 1 2 3 4 5 6 
#
# 1 0.008296 0.000699 -0.011294 0.008473 0.006291 0.004062
# 2 0.000699 0.011033 -0.006178 0.004419 0.002522 0.001078
# 3 -0.011294 -0.006178 0.036855 -0.019189 -0.016748 -0.005360
# 4 0.008473 0.004419 -0.019189 0.040042 0.008823 0.000069
# 5 0.006291 0.002522 -0.016748 0.008823 0.028631 0.009444
# 6 0.004062 0.001078 -0.005360 0.000069 0.009444 0.024823
#
#
# Mechanical properties :
#
#
# Convention : Reuss Voigt Hill
#
# Bulk Modulus (GPa) = 44.17282 71.59087 57.88185
# Shear Modulus (GPa) = 26.20919 47.32798 36.76859
#
# Velocity S-wave (km/s) = 3.09547 4.15968 3.66639
# Velocity P-wave (km/s) = 5.37823 7.01739 6.25177
#
# Compressibility (1/GPa) = 0.02263835
#
# Stress axis : x y z
#
# Youngs Moduli (GPa) = 120.54431 90.63578 27.13313
#
# Poissons Ratio (x) = -0.06338 0.30645
# Poissons Ratio (y) = -0.08430 0.16762
# Poissons Ratio (z) = 1.36147 0.55993
#
# Static dielectric constant tensor:
#      x y z
#    x 2.549980 -0.337210 0.028580 
#    y -0.337210 2.467370 0.096400 
#    z 0.028580 0.096400 2.545850 
# 
# From -- ./inp_files/107491.got.cif
#   From: 2010.05.17/outbox.cif.g08.bks.cpg/sg2_54_cif.got.tgz:107491.got - 2010.06.03 11:33:40.
