data_PCOD9091256
_publ_section_title
;
Structure prediction by ZEFSAII (Michael W. Deem and Ramdas Pophale) SiO2 
 PCOD9091256
Probable space group: P -1
;
_chemical_formula_sum "Si O2"
_cell_formula_units_Z 16
_cell_length_a 8.193134
_cell_length_b 8.628465
_cell_length_c 20.656666
_cell_angle_alpha 41.856002
_cell_angle_beta 126.930521
_cell_angle_gamma 133.434978
_cell_volume 695.596700
_symmetry_space_group_name_H-M "P -1"
_symmetry_group_IT_number 2
_symmetry_cell_setting 'triclinic'
loop_
_space_group_symop_operation_xyz
x,y,z
-x,-y,-z
loop_
_atom_site_type_symbol
_atom_site_label
_atom_site_fract_x
_atom_site_fract_y
_atom_site_fract_z
Si Si1 0.819542 0.409217 0.084166
Si Si2 0.386142 0.172808 0.763206
Si Si3 0.957821 0.239975 0.439724
Si Si4 0.554205 0.356955 0.287111
Si Si5 0.603960 0.460483 0.604500
Si Si6 0.285405 0.059526 0.420326
Si Si7 0.289465 0.866686 0.042477
Si Si8 0.623064 0.595500 0.090468
O O1 0.764814 0.476568 0.122197
O O2 0.063056 0.609579 0.052183
O O3 0.792944 0.118978 0.171556
O O4 0.609099 0.426519 0.991325
O O5 0.336873 0.398226 0.713121
O O6 0.446123 0.219285 0.686846
O O7 0.609050 0.196893 0.848646
O O8 0.152254 0.503925 0.374679
O O9 0.718046 0.218415 0.365904
O O10 0.000000 0.000000 0.500000
O O11 0.933142 0.190113 0.526926
O O12 0.312837 0.161448 0.322306
O O13 0.547654 0.468361 0.181690
O O14 0.500000 0.500000 0.500000
O O15 0.665835 0.697676 0.596338
O O16 0.500000 0.000000 0.500000
O O17 0.500000 0.000000 0.000000
O O18 0.218878 0.096383 0.964196
#
# Coordination Sequence:
#
# PCOD9091256 Si02
#       8
#     2   2   2   2   2   2   2   2
#     4  10  24  42  67  94 136 169 221 267 327 396
#     4  10  23  42  61  98 132 173 215 267 326 391
#     4   9  19  37  65  88 117 175 210 255 325 379
#     4  10  19  39  64  93 132 163 220 267 322 393
#     4  10  21  39  59  88 130 155 213 271 314 374
#     4   8  17  36  61  83 116 160 204 250 311 384
#     4  11  22  44  68  92 137 176 211 274 331 386
#     4  10  22  42  65 100 127 173 217 271 326 384
#
# _framework density 23.001835
#
# number of rings (size 3 to 8) (size 9 to 14) (size 15 to 20)
#    0.000    2.250    1.250    0.375    1.750    5.000 
#    4.500    5.625    5.500    0.000    0.000    0.000 
#    0.000    0.000    0.000    0.000    0.000    0.000 
#
# Total GULP energy -89207.365415 kJ/mol
# GULP energy per Si atom -5575.460338 kJ/mol
# Density = 2.294948 g / cm^3
# Si number density = 23.001835 Si / 1000 Ang^3
#
#
#
# Elastic Constant Matrix: (Units=GPa)
#
#
# Indices 1 2 3 4 5 6 
#
# 1 101.4852 24.0800 44.0178 -3.6804 -26.7768 5.7438
# 2 24.0800 46.5510 22.8736 -12.2785 -17.2359 8.1072
# 3 44.0178 22.8736 123.6129 -0.9944 -30.8138 3.0500
# 4 -3.6804 -12.2785 -0.9944 30.2754 -9.7280 -6.2691
# 5 -26.7768 -17.2359 -30.8138 -9.7280 43.7821 -9.0440
# 6 5.7438 8.1072 3.0500 -6.2691 -9.0440 30.0478
#
#
#
# Elastic Compliance Matrix: (Units=1/GPa)
#
#
# Indices 1 2 3 4 5 6 
#
# 1 0.013295 -0.002920 -0.002774 0.002322 0.005696 0.000727
# 2 -0.002920 0.033816 -0.001481 0.017855 0.014376 -0.000363
# 3 -0.002774 -0.001481 0.010861 0.001843 0.006204 0.002079
# 4 0.002322 0.017855 0.001843 0.050705 0.023535 0.012215
# 5 0.005696 0.014376 0.006204 0.023535 0.044184 0.012612
# 6 0.000727 -0.000363 0.002079 0.012215 0.012612 0.039373
#
#
# Mechanical properties :
#
#
# Convention : Reuss Voigt Hill
#
# Bulk Modulus (GPa) = 22.92374 50.39913 36.66144
# Shear Modulus (GPa) = 22.61160 32.86624 27.73892
#
# Velocity S-wave (km/s) = 3.13874 3.78412 3.47644
# Velocity P-wave (km/s) = 4.80867 6.40712 5.66456
#
# Compressibility (1/GPa) = 0.04362290
#
# Stress axis : x y z
#
# Youngs Moduli (GPa) = 75.21429 29.57210 92.06834
#
# Poissons Ratio (x) = 0.08635 0.25535
# Poissons Ratio (y) = 0.21962 0.13638
# Poissons Ratio (z) = 0.20861 0.04381
#
# Static dielectric constant tensor:
#      x y z
#    x 1.913020 0.009660 -0.038950 
#    y 0.009660 1.491550 0.011780 
#    z -0.038950 0.011780 1.894640 
# 
# From -- ./inp_files/587172.got.cif
#   From: 2010.05.17/outbox.cif.g08.bks.cpg/sg2_294_cif.got.tgz:587172.got - 2010.06.03 11:33:40.
