data_PCOD9091293
_publ_section_title
;
Structure prediction by ZEFSAII (Michael W. Deem and Ramdas Pophale) SiO2 
 PCOD9091293
Probable space group: P -1
;
_chemical_formula_sum "Si O2"
_cell_formula_units_Z 16
_cell_length_a 8.839549
_cell_length_b 12.892873
_cell_length_c 10.697618
_cell_angle_alpha 121.122648
_cell_angle_beta 67.569434
_cell_angle_gamma 140.754930
_cell_volume 659.885404
_symmetry_space_group_name_H-M "P -1"
_symmetry_group_IT_number 2
_symmetry_cell_setting 'triclinic'
loop_
_space_group_symop_operation_xyz
x,y,z
-x,-y,-z
loop_
_atom_site_type_symbol
_atom_site_label
_atom_site_fract_x
_atom_site_fract_y
_atom_site_fract_z
Si Si1 0.729257 0.166601 0.101552
Si Si2 0.801608 0.415734 0.617435
Si Si3 0.913453 0.621059 0.343443
Si Si4 0.805986 0.561974 0.049685
Si Si5 0.656719 0.742596 0.120386
Si Si6 0.906940 0.752348 0.822490
Si Si7 0.515684 0.271531 0.389218
Si Si8 0.021828 0.103413 0.373114
O O1 0.819632 0.114976 0.138640
O O2 0.646322 0.236493 0.249583
O O3 0.942775 0.303108 0.019597
O O4 0.500000 0.000000 0.000000
O O5 0.671236 0.468073 0.407093
O O6 0.562614 0.276184 0.524034
O O7 0.000000 0.500000 0.500000
O O8 0.881750 0.359605 0.657729
O O9 0.850363 0.562310 0.181980
O O10 0.002232 0.805463 0.458273
O O11 0.608118 0.374703 0.922489
O O12 0.816978 0.564525 0.745497
O O13 0.688178 0.632635 0.117357
O O14 0.795471 0.785335 0.975144
O O15 0.790135 0.911978 0.269626
O O16 0.875938 0.775290 0.706836
O O17 0.234921 0.129430 0.363609
#
# Coordination Sequence:
#
# PCOD9091293 Si02
#       8
#     2   2   2   2   2   2   2   2
#     4  11  23  43  71  96 134 173 230 291 338 407
#     4  10  19  39  64  99 139 181 232 274 338 398
#     4  11  22  40  68 102 141 187 226 277 346 415
#     4  10  24  45  69  97 137 186 230 271 360 410
#     4  10  24  43  65 102 137 185 224 289 341 400
#     4  11  20  41  68  98 138 178 231 281 328 403
#     4  11  21  38  66 106 132 183 230 281 334 393
#     4  12  23  39  72 104 140 174 237 286 333 402
#
# _framework density 24.246635000000001
#
# number of rings (size 3 to 8) (size 9 to 14) (size 15 to 20)
#    0.000    1.250    5.000    3.000    1.750    2.000 
#    0.000    0.000    2.750    4.500    0.000    0.000 
#    0.000    0.000    0.000    0.000    0.000    0.000 
#
# Total GULP energy -89444.977154 kJ/mol
# GULP energy per Si atom -5590.311072 kJ/mol
# Density = 2.419145 g / cm^3
# Si number density = 24.246635 Si / 1000 Ang^3
#
#
#
# Elastic Constant Matrix: (Units=GPa)
#
#
# Indices 1 2 3 4 5 6 
#
# 1 151.4073 60.3381 60.6716 -10.3526 46.2945 12.8612
# 2 60.3381 74.2305 67.8950 -2.3633 9.3520 16.3730
# 3 60.6716 67.8950 139.2207 16.7541 26.6914 31.4578
# 4 -10.3526 -2.3633 16.7541 31.1860 7.9756 8.7559
# 5 46.2945 9.3520 26.6914 7.9756 59.5348 -2.3613
# 6 12.8612 16.3730 31.4578 8.7559 -2.3613 35.9581
#
#
#
# Elastic Compliance Matrix: (Units=1/GPa)
#
#
# Indices 1 2 3 4 5 6 
#
# 1 0.014616 -0.009843 0.000516 0.007780 -0.011245 -0.003830
# 2 -0.009843 0.033649 -0.014268 0.004864 0.008115 0.000030
# 3 0.000516 -0.014268 0.017511 -0.006768 -0.005410 -0.007714
# 4 0.007780 0.004864 -0.006768 0.044188 -0.010116 -0.010501
# 5 -0.011245 0.008115 -0.005410 -0.010116 0.028419 0.009389
# 6 -0.003830 0.000030 -0.007714 -0.010501 0.009389 0.039089
#
#
# Mechanical properties :
#
#
# Convention : Reuss Voigt Hill
#
# Bulk Modulus (GPa) = 53.80755 82.51865 68.16310
# Shear Modulus (GPa) = 21.65825 37.06606 29.36215
#
# Velocity S-wave (km/s) = 2.99197 3.91411 3.48369
# Velocity P-wave (km/s) = 5.84600 7.38471 6.65994
#
# Compressibility (1/GPa) = 0.01858475
#
# Stress axis : x y z
#
# Youngs Moduli (GPa) = 68.41656 29.71868 57.10644
#
# Poissons Ratio (x) = 0.29253 -0.02945
# Poissons Ratio (y) = 0.67345 0.81480
# Poissons Ratio (z) = -0.03528 0.42403
#
# Static dielectric constant tensor:
#      x y z
#    x 1.962360 -0.037330 0.006050 
#    y -0.037330 2.037780 0.084320 
#    z 0.006050 0.084320 1.993460 
# 
# From -- ./inp_files/589894.got.cif
#   From: 2010.05.17/outbox.cif.g08.bks.cpg/sg2_295_cif.got.tgz:589894.got - 2010.06.03 11:33:40.
