data_PCOD9091419
_publ_section_title
;
Structure prediction by ZEFSAII (Michael W. Deem and Ramdas Pophale) SiO2 
 PCOD9091419
Probable space group: P -1
;
_chemical_formula_sum "Si O2"
_cell_formula_units_Z 16
_cell_length_a 16.088753
_cell_length_b 9.425053
_cell_length_c 13.218996
_cell_angle_alpha 97.539605
_cell_angle_beta 148.505507
_cell_angle_gamma 61.910417
_cell_volume 748.301546
_symmetry_space_group_name_H-M "P -1"
_symmetry_group_IT_number 2
_symmetry_cell_setting 'triclinic'
loop_
_space_group_symop_operation_xyz
x,y,z
-x,-y,-z
loop_
_atom_site_type_symbol
_atom_site_label
_atom_site_fract_x
_atom_site_fract_y
_atom_site_fract_z
Si Si1 0.644600 0.899906 0.518338
Si Si2 0.839550 0.963627 0.348386
Si Si3 0.778221 0.494483 0.641720
Si Si4 0.992166 0.392611 0.635893
Si Si5 0.819605 0.904305 0.894038
Si Si6 0.981665 0.717610 0.676006
Si Si7 0.519375 0.646804 0.078721
Si Si8 0.318356 0.731933 0.100775
O O1 0.717725 0.697820 0.618863
O O2 0.738085 0.958321 0.698542
O O3 0.763385 0.835457 0.528711
O O4 0.379686 0.062416 0.256798
O O5 0.862754 0.826026 0.275725
O O6 0.911091 0.848775 0.516487
O O7 0.000000 0.000000 0.500000
O O8 0.595625 0.177452 0.103835
O O9 0.915738 0.407587 0.671793
O O10 0.544435 0.565812 0.381981
O O11 0.941870 0.317423 0.872824
O O12 0.769970 0.527456 0.350766
O O13 0.075371 0.502494 0.728273
O O14 0.810895 0.060291 0.957342
O O15 0.163405 0.692975 0.923218
O O16 0.394039 0.730818 0.065407
O O17 0.500000 0.500000 0.000000
#
# Coordination Sequence:
#
# PCOD9091419 Si02
#       8
#     2   2   2   2   2   2   2   2
#     4   9  21  39  60  90 123 155 197 264 306 349
#     4  12  22  38  65  87 116 170 206 237 305 375
#     4   9  19  36  64  87 114 163 207 240 300 373
#     4  10  22  39  59  88 126 158 200 258 298 352
#     4  10  19  39  66  86 115 163 211 241 303 378
#     4  11  23  40  58  92 134 156 200 262 308 351
#     4  11  21  38  61  88 119 160 209 247 295 366
#     4  10  21  36  58  88 122 160 200 246 303 357
#
# _framework density 21.381754000000001
#
# number of rings (size 3 to 8) (size 9 to 14) (size 15 to 20)
#    0.000    1.750    2.500    2.250    0.000    1.000 
#    0.000    9.375    0.000    0.000    0.000    0.000 
#    0.000    0.000    0.000    0.000    0.000    0.000 
#
# Total GULP energy -89425.126226 kJ/mol
# GULP energy per Si atom -5589.070389 kJ/mol
# Density = 2.133309 g / cm^3
# Si number density = 21.381754 Si / 1000 Ang^3
#
#
#
# Elastic Constant Matrix: (Units=GPa)
#
#
# Indices 1 2 3 4 5 6 
#
# 1 27.9796 13.7846 -20.7393 -2.4471 6.9046 -6.4776
# 2 13.7846 134.5681 22.8966 14.6130 -1.9601 -7.0025
# 3 -20.7393 22.8966 76.5595 -0.6485 -0.3650 9.1428
# 4 -2.4471 14.6130 -0.6485 37.0264 -3.7415 1.1805
# 5 6.9046 -1.9601 -0.3650 -3.7415 14.6771 1.9802
# 6 -6.4776 -7.0025 9.1428 1.1805 1.9802 27.4842
#
#
#
# Elastic Compliance Matrix: (Units=1/GPa)
#
#
# Indices 1 2 3 4 5 6 
#
# 1 0.066196 -0.010835 0.020087 0.005529 -0.031787 0.008211
# 2 -0.010835 0.010262 -0.006255 -0.004442 0.004913 0.001979
# 3 0.020087 -0.006255 0.020757 0.003411 -0.008454 -0.003302
# 4 0.005529 -0.004442 0.003411 0.029756 0.004825 -0.002589
# 5 -0.031787 0.004913 -0.008454 0.004825 0.086090 -0.009838
# 6 0.008211 0.001979 -0.003302 -0.002589 -0.009838 0.040742
#
#
# Mechanical properties :
#
#
# Convention : Reuss Voigt Hill
#
# Bulk Modulus (GPa) = 9.68899 30.11012 19.89955
# Shear Modulus (GPa) = 17.71720 30.71522 24.21621
#
# Velocity S-wave (km/s) = 2.88169 3.79425 3.36901
# Velocity P-wave (km/s) = 3.95138 5.77129 4.94577
#
# Compressibility (1/GPa) = 0.10320996
#
# Stress axis : x y z
#
# Youngs Moduli (GPa) = 15.10664 97.44494 48.17747
#
# Poissons Ratio (x) = 1.05579 -0.96774
# Poissons Ratio (y) = 0.16368 0.30133
# Poissons Ratio (z) = -0.30345 0.60948
#
# Static dielectric constant tensor:
#      x y z
#    x 1.785830 -0.002110 0.007970 
#    y -0.002110 1.780580 0.002400 
#    z 0.007970 0.002400 1.778690 
# 
# From -- ./inp_files/315220.got.cif
#   From: 2010.05.17/outbox.cif.g08.bks.cpg/sg2_158_cif.got.tgz:315220.got - 2010.06.03 11:33:40.
