data_PCOD9091144
_publ_section_title
;
Structure prediction by ZEFSAII (Michael W. Deem and Ramdas Pophale) SiO2 
 PCOD9091144
Probable space group: P -1
;
_chemical_formula_sum "Si O2"
_cell_formula_units_Z 14
_cell_length_a 5.272892
_cell_length_b 5.666435
_cell_length_c 23.420139
_cell_angle_alpha 48.821133
_cell_angle_beta 93.984343
_cell_angle_gamma 78.609498
_cell_volume 497.070604
_symmetry_space_group_name_H-M "P -1"
_symmetry_group_IT_number 2
_symmetry_cell_setting 'triclinic'
loop_
_space_group_symop_operation_xyz
x,y,z
-x,-y,-z
loop_
_atom_site_type_symbol
_atom_site_label
_atom_site_fract_x
_atom_site_fract_y
_atom_site_fract_z
Si Si1 0.058155 0.879617 0.903008
Si Si2 0.447714 0.952142 0.375057
Si Si3 0.903075 0.768227 0.769644
Si Si4 0.215661 0.343497 0.478566
Si Si5 0.132336 0.351083 0.667592
Si Si6 0.205208 0.232076 0.942186
Si Si7 0.491605 0.935139 0.191092
O O1 0.107311 0.503740 0.946484
O O2 0.305612 0.945047 0.862707
O O3 0.758984 0.092245 0.844128
O O4 0.074325 0.978985 0.952142
O O5 0.357427 0.622563 0.426476
O O6 0.571839 0.968825 0.436861
O O7 0.681025 0.866694 0.345073
O O8 0.200687 0.232922 0.296643
O O9 0.153846 0.482692 0.845076
O O10 0.662792 0.794126 0.806442
O O11 0.962930 0.115621 0.722130
O O12 0.000000 0.500000 0.500000
O O13 0.054067 0.329063 0.420313
O O14 0.328255 0.371431 0.718785
O O15 0.500000 0.000000 0.000000
#
# Coordination Sequence:
#
# PCOD9091144 Si02
#       7
#     2   2   2   2   2   2   2
#     4  11  25  44  71  99 138 179 229 282 347 409
#     4   8  14  23  45  79 127 169 224 272 336 398
#     4   9  18  34  60  86 129 174 225 280 342 405
#     4   8  13  21  39  81 125 172 219 275 331 393
#     4   9  14  28  53  81 129 170 226 273 335 398
#     4  11  24  47  71 103 138 180 230 287 346 411
#     4  10  19  39  63  95 130 177 226 277 336 410
#
# _framework density 28.165011
#
# number of rings (size 3 to 8) (size 9 to 14) (size 15 to 20)
#    0.000    2.571    2.857    0.429    0.000    2.286 
#    0.000   10.000    0.000    0.000    0.000    2.000 
#    0.000    2.286    0.000    0.000    0.000    6.286 
#
# Total GULP energy -78260.985310 kJ/mol
# GULP energy per Si atom -5590.070379 kJ/mol
# Density = 2.810091 g / cm^3
# Si number density = 28.165011 Si / 1000 Ang^3
#
#
#
# Elastic Constant Matrix: (Units=GPa)
#
#
# Indices 1 2 3 4 5 6 
#
# 1 162.2729 55.4915 81.1755 16.8468 15.1164 -7.3116
# 2 55.4915 131.4506 92.1395 12.8016 15.7567 6.6987
# 3 81.1755 92.1395 216.6866 23.5716 60.5923 2.1206
# 4 16.8468 12.8016 23.5716 36.4449 13.8088 7.7284
# 5 15.1164 15.7567 60.5923 13.8088 83.5165 2.0095
# 6 -7.3116 6.6987 2.1206 7.7284 2.0095 38.6142
#
#
#
# Elastic Compliance Matrix: (Units=1/GPa)
#
#
# Indices 1 2 3 4 5 6 
#
# 1 0.008235 -0.001855 -0.002291 -0.002530 0.000881 0.002467
# 2 -0.001855 0.011579 -0.004618 -0.000387 0.001616 -0.002113
# 3 -0.002291 -0.004618 0.008980 -0.001308 -0.005022 0.000397
# 4 -0.002530 -0.000387 -0.001308 0.032405 -0.003719 -0.006632
# 5 0.000881 0.001616 -0.005022 -0.003719 0.015766 0.000086
# 6 0.002467 -0.002113 0.000397 -0.006632 0.000086 0.028032
#
#
# Mechanical properties :
#
#
# Convention : Reuss Voigt Hill
#
# Bulk Modulus (GPa) = 88.77110 107.55811 98.16461
# Shear Modulus (GPa) = 39.59435 50.48870 45.04153
#
# Velocity S-wave (km/s) = 3.75347 4.23851 4.00334
# Velocity P-wave (km/s) = 7.09728 7.88827 7.50320
#
# Compressibility (1/GPa) = 0.01126493
#
# Stress axis : x y z
#
# Youngs Moduli (GPa) = 121.43499 86.36279 111.36212
#
# Poissons Ratio (x) = 0.16022 0.25517
# Poissons Ratio (y) = 0.22528 0.51425
# Poissons Ratio (z) = 0.27825 0.39881
#
# Static dielectric constant tensor:
#      x y z
#    x 2.236580 0.045630 -0.007230 
#    y 0.045630 2.181070 -0.013450 
#    z -0.007230 -0.013450 2.293630 
# 
# From -- ./inp_files/602837.got.cif
#   From: 2010.05.17/outbox.cif.g08.bks.cpg/sg2_302_cif.got.tgz:602837.got - 2010.06.03 11:33:40.
