data_PCOD9091938
_publ_section_title
;
Structure prediction by ZEFSAII (Michael W. Deem and Ramdas Pophale) SiO2 
 PCOD9091938
Probable space group: P -1
;
_chemical_formula_sum "Si O2"
_cell_formula_units_Z 14
_cell_length_a 10.804370
_cell_length_b 11.202091
_cell_length_c 7.654173
_cell_angle_alpha 41.066089
_cell_angle_beta 72.179155
_cell_angle_gamma 68.081647
_cell_volume 564.126580
_symmetry_space_group_name_H-M "P -1"
_symmetry_group_IT_number 2
_symmetry_cell_setting 'triclinic'
loop_
_space_group_symop_operation_xyz
x,y,z
-x,-y,-z
loop_
_atom_site_type_symbol
_atom_site_label
_atom_site_fract_x
_atom_site_fract_y
_atom_site_fract_z
Si Si1 0.911761 0.344605 0.884342
Si Si2 0.182863 0.215932 0.009045
Si Si3 0.324669 0.437918 0.467834
Si Si4 0.434795 0.474336 0.864234
Si Si5 0.367779 0.153994 0.440072
Si Si6 0.081769 0.262106 0.380151
Si Si7 0.188101 0.806038 0.553513
O O1 0.802402 0.405041 0.715636
O O2 0.920523 0.549754 0.722726
O O3 0.860752 0.227040 0.190637
O O4 0.062758 0.240681 0.890455
O O5 0.108212 0.302182 0.121579
O O6 0.227558 0.999230 0.277633
O O7 0.285198 0.330340 0.768040
O O8 0.443073 0.545185 0.297921
O O9 0.370160 0.267111 0.495111
O O10 0.320040 0.644963 0.663089
O O11 0.500000 0.500000 0.000000
O O12 0.369212 0.303856 0.121763
O O13 0.218784 0.116038 0.541436
O O14 0.500000 0.000000 0.500000
O O15 0.939765 0.206403 0.496857
#
# Coordination Sequence:
#
# PCOD9091938 Si02
#       7
#     2   2   2   2   2   2   2
#     4  10  19  40  64  81 119 161 196 232 295 358
#     4  11  23  34  61  96 117 148 197 250 296 329
#     4  10  22  41  59  87 123 154 193 245 292 347
#     4  10  20  38  61  82 116 163 197 232 291 362
#     4  10  22  40  64  84 115 159 202 232 290 363
#     4  10  21  38  62  88 115 154 199 241 286 349
#     4  11  20  36  61  90 116 155 200 241 283 355
#
# _framework density 24.817125000000001
#
# number of rings (size 3 to 8) (size 9 to 14) (size 15 to 20)
#    0.000    1.714    4.286    3.857    4.000    1.714 
#    0.000    6.429    0.000    0.000    0.000    1.000 
#    0.000    0.000    0.000    0.000    0.000    0.000 
#
# Total GULP energy -78189.974868 kJ/mol
# GULP energy per Si atom -5584.998205 kJ/mol
# Density = 2.476064 g / cm^3
# Si number density = 24.817125 Si / 1000 Ang^3
#
#
#
# Elastic Constant Matrix: (Units=GPa)
#
#
# Indices 1 2 3 4 5 6 
#
# 1 89.5801 8.6985 15.7762 -9.5661 4.4198 -17.9844
# 2 8.6985 55.8115 26.5702 -9.9035 18.7775 -16.9446
# 3 15.7762 26.5702 123.8155 -7.7472 -8.2136 -8.8370
# 4 -9.5661 -9.9035 -7.7472 42.1972 -8.9999 8.5698
# 5 4.4198 18.7775 -8.2136 -8.9999 41.2429 -5.7209
# 6 -17.9844 -16.9446 -8.8370 8.5698 -5.7209 32.1217
#
#
#
# Elastic Compliance Matrix: (Units=1/GPa)
#
#
# Indices 1 2 3 4 5 6 
#
# 1 0.012880 0.001380 -0.001421 0.001341 -0.001027 0.007008
# 2 0.001380 0.028631 -0.006273 0.000813 -0.012635 0.011683
# 3 -0.001421 -0.006273 0.009972 0.001299 0.005169 -0.000788
# 4 0.001341 0.000813 0.001299 0.026412 0.004864 -0.004643
# 5 -0.001027 -0.012635 0.005169 0.004864 0.032003 -0.001416
# 6 0.007008 0.011683 -0.000788 -0.004643 -0.001416 0.041988
#
#
# Mechanical properties :
#
#
# Convention : Reuss Voigt Hill
#
# Bulk Modulus (GPa) = 25.73726 41.25521 33.49624
# Shear Modulus (GPa) = 28.17429 37.65652 32.91540
#
# Velocity S-wave (km/s) = 3.37304 3.89956 3.64582
# Velocity P-wave (km/s) = 5.05600 6.07743 5.59009
#
# Compressibility (1/GPa) = 0.03885417
#
# Stress axis : x y z
#
# Youngs Moduli (GPa) = 77.63807 34.92711 100.28284
#
# Poissons Ratio (x) = -0.04821 0.14255
# Poissons Ratio (y) = -0.10717 0.62911
# Poissons Ratio (z) = 0.11036 0.21911
#
# Static dielectric constant tensor:
#      x y z
#    x 2.116000 0.019030 0.026900 
#    y 0.019030 2.032140 0.028770 
#    z 0.026900 0.028770 1.934160 
# 
# From -- ./inp_files/269404.got.cif
#   From: 2010.05.17/outbox.cif.g08.bks.cpg/sg2_135_cif.got.tgz:269404.got - 2010.06.03 11:33:40.
