data_PCOD9091672
_publ_section_title
;
Structure prediction by ZEFSAII (Michael W. Deem and Ramdas Pophale) SiO2 
 PCOD9091672
Probable space group: P -1
;
_chemical_formula_sum "Si O2"
_cell_formula_units_Z 16
_cell_length_a 12.832742
_cell_length_b 8.934655
_cell_length_c 13.924506
_cell_angle_alpha 59.724551
_cell_angle_beta 144.691431
_cell_angle_gamma 96.524235
_cell_volume 639.546995
_symmetry_space_group_name_H-M "P -1"
_symmetry_group_IT_number 2
_symmetry_cell_setting 'triclinic'
loop_
_space_group_symop_operation_xyz
x,y,z
-x,-y,-z
loop_
_atom_site_type_symbol
_atom_site_label
_atom_site_fract_x
_atom_site_fract_y
_atom_site_fract_z
Si Si1 0.073058 0.573928 0.688678
Si Si2 0.609560 0.624763 0.531454
Si Si3 0.319206 0.116645 0.172006
Si Si4 0.125245 0.647176 0.345881
Si Si5 0.283306 0.002340 0.827562
Si Si6 0.951895 0.003296 0.699786
Si Si7 0.433576 0.776842 0.819788
Si Si8 0.051415 0.556557 0.906780
O O1 0.019500 0.619754 0.747306
O O2 0.999222 0.419077 0.657084
O O3 0.922753 0.773287 0.443625
O O4 0.335811 0.463114 0.918175
O O5 0.500000 0.500000 0.500000
O O6 0.673693 0.571555 0.483143
O O7 0.845455 0.547894 0.783135
O O8 0.446639 0.867431 0.368631
O O9 0.453141 0.117289 0.180447
O O10 0.276186 0.306401 0.149349
O O11 0.067236 0.209393 0.924108
O O12 0.166832 0.806963 0.372408
O O13 0.188563 0.954926 0.862998
O O14 0.345244 0.840887 0.839706
O O15 0.500000 0.000000 0.000000
O O16 0.778629 0.122319 0.442255
O O17 0.008001 0.773580 0.845684
#
# Coordination Sequence:
#
# PCOD9091672 Si02
#       8
#     2   2   2   2   2   2   2   2
#     4   9  20  42  57  83 118 171 215 250 301 359
#     4  10  19  39  69  91 114 156 203 247 302 376
#     4   9  18  41  62  86 116 165 201 246 301 368
#     4   9  22  37  59  90 124 154 203 250 306 378
#     4  12  24  38  57  85 126 166 216 261 296 357
#     4  12  22  39  59  92 127 162 203 260 317 354
#     4  10  20  38  61  82 119 164 209 256 296 354
#     4   9  20  37  61  86 122 155 206 246 302 374
#
# _framework density 25.017707999999999
#
# number of rings (size 3 to 8) (size 9 to 14) (size 15 to 20)
#    0.000    2.500    2.500    2.625    0.000    4.500 
#   11.250    0.625    0.000    1.500    0.000    0.000 
#    0.000    0.000    0.000    0.000    0.000    0.000 
#
# Total GULP energy -89176.496572 kJ/mol
# GULP energy per Si atom -5573.531036 kJ/mol
# Density = 2.496077 g / cm^3
# Si number density = 25.017708 Si / 1000 Ang^3
#
#
#
# Elastic Constant Matrix: (Units=GPa)
#
#
# Indices 1 2 3 4 5 6 
#
# 1 49.3279 24.5692 26.4115 -6.7294 14.9413 12.7747
# 2 24.5692 160.9783 55.3678 -36.7583 9.3197 16.0340
# 3 26.4115 55.3678 132.3153 -21.7494 7.6947 25.3580
# 4 -6.7294 -36.7583 -21.7494 44.0232 3.9279 5.8498
# 5 14.9413 9.3197 7.6947 3.9279 19.9979 5.9682
# 6 12.7747 16.0340 25.3580 5.8498 5.9682 43.0039
#
#
#
# Elastic Compliance Matrix: (Units=1/GPa)
#
#
# Indices 1 2 3 4 5 6 
#
# 1 0.030435 -0.000843 -0.002727 0.005114 -0.020832 -0.004923
# 2 -0.000843 0.009053 -0.001724 0.007242 -0.003573 -0.002598
# 3 -0.002727 -0.001724 0.010526 0.004081 -0.000445 -0.005247
# 4 0.005114 0.007242 0.004081 0.033947 -0.012600 -0.009495
# 5 -0.020832 -0.003573 -0.000445 -0.012600 0.069944 -0.000210
# 6 -0.004923 -0.002598 -0.005247 -0.009495 -0.000210 0.030100
#
#
# Mechanical properties :
#
#
# Convention : Reuss Voigt Hill
#
# Bulk Modulus (GPa) = 25.36352 61.70205 43.53278
# Shear Modulus (GPa) = 24.06933 37.15654 30.61294
#
# Velocity S-wave (km/s) = 3.10513 3.85802 3.50187
# Velocity P-wave (km/s) = 4.79750 6.67553 5.81286
#
# Compressibility (1/GPa) = 0.03942671
#
# Stress axis : x y z
#
# Youngs Moduli (GPa) = 32.85670 110.46097 95.00616
#
# Poissons Ratio (x) = 0.09312 0.25905
# Poissons Ratio (y) = 0.02770 0.16377
# Poissons Ratio (z) = 0.08959 0.19042
#
# Static dielectric constant tensor:
#      x y z
#    x 2.176860 0.054510 -0.099560 
#    y 0.054510 2.114030 -0.077750 
#    z -0.099560 -0.077750 2.142200 
# 
# From -- ./inp_files/572865.got.cif
#   From: 2010.05.17/outbox.cif.g08.bks.cpg/sg2_287_cif.got.tgz:572865.got - 2010.06.03 11:33:40.
