data_PCOD9091212
_publ_section_title
;
Structure prediction by ZEFSAII (Michael W. Deem and Ramdas Pophale) SiO2 
 PCOD9091212
Probable space group: P -1
;
_chemical_formula_sum "Si O2"
_cell_formula_units_Z 16
_cell_length_a 7.927916
_cell_length_b 24.866968
_cell_length_c 8.911756
_cell_angle_alpha 150.565715
_cell_angle_beta 131.287274
_cell_angle_gamma 51.200626
_cell_volume 642.305745
_symmetry_space_group_name_H-M "P -1"
_symmetry_group_IT_number 2
_symmetry_cell_setting 'triclinic'
loop_
_space_group_symop_operation_xyz
x,y,z
-x,-y,-z
loop_
_atom_site_type_symbol
_atom_site_label
_atom_site_fract_x
_atom_site_fract_y
_atom_site_fract_z
Si Si1 0.878955 0.964061 0.493392
Si Si2 0.971260 0.465680 0.224768
Si Si3 0.726442 0.211567 0.712074
Si Si4 0.391392 0.688463 0.412831
Si Si5 0.867985 0.345240 0.403584
Si Si6 0.025826 0.844292 0.766571
Si Si7 0.453957 0.090923 0.485542
Si Si8 0.407984 0.313655 0.181430
O O1 0.608712 0.976010 0.338465
O O2 0.000000 0.000000 0.500000
O O3 0.031312 0.851467 0.355574
O O4 0.900825 0.058325 0.854843
O O5 0.009259 0.555172 0.339006
O O6 0.182758 0.367288 0.097059
O O7 0.000000 0.500000 0.500000
O O8 0.740990 0.416753 0.938317
O O9 0.578769 0.272909 0.643541
O O10 0.577974 0.128615 0.501525
O O11 0.796321 0.289689 0.073091
O O12 0.602951 0.675987 0.619441
O O13 0.216183 0.784667 0.623132
O O14 0.624063 0.375396 0.416088
O O15 0.007441 0.253865 0.371976
O O16 0.805835 0.900806 0.687542
O O17 0.466148 0.189047 0.851680
#
# Coordination Sequence:
#
# PCOD9091212 Si02
#       8
#     2   2   2   2   2   2   2   2
#     4  10  19  39  64  90 123 158 198 250 297 353
#     4  12  24  40  64  90 123 158 200 254 304 350
#     4  10  21  40  61  88 129 156 196 252 300 351
#     4  11  23  42  61  89 125 160 196 252 305 353
#     4  10  21  42  61  89 122 160 200 248 299 358
#     4  11  21  39  66  89 120 159 204 246 299 357
#     4  10  20  40  64  89 120 160 202 247 295 358
#     4  10  22  42  62  86 124 159 201 248 297 362
#
# _framework density 24.910253999999998
#
# number of rings (size 3 to 8) (size 9 to 14) (size 15 to 20)
#    0.000    1.500    7.500    0.375    0.000    6.000 
#    4.500    0.625    0.000    0.000    0.000    0.000 
#    0.000    0.000    0.000    0.000    0.000    0.000 
#
# Total GULP energy -89533.335217 kJ/mol
# GULP energy per Si atom -5595.833451 kJ/mol
# Density = 2.485356 g / cm^3
# Si number density = 24.910254 Si / 1000 Ang^3
#
#
#
# Elastic Constant Matrix: (Units=GPa)
#
#
# Indices 1 2 3 4 5 6 
#
# 1 65.3857 36.1381 3.3895 1.3508 -0.2699 10.1892
# 2 36.1381 107.8096 15.8234 -10.9099 14.1174 8.8954
# 3 3.3895 15.8234 51.2074 -21.8217 -13.5609 3.8488
# 4 1.3508 -10.9099 -21.8217 30.5649 -0.3104 0.6610
# 5 -0.2699 14.1174 -13.5609 -0.3104 24.1489 -1.9630
# 6 10.1892 8.8954 3.8488 0.6610 -1.9630 48.9028
#
#
#
# Elastic Compliance Matrix: (Units=1/GPa)
#
#
# Indices 1 2 3 4 5 6 
#
# 1 0.019912 -0.007645 0.001701 -0.002282 0.005403 -0.002644
# 2 -0.007645 0.014690 -0.007204 0.000330 -0.012798 -0.001030
# 3 0.001701 -0.007204 0.040094 0.026284 0.026964 -0.001472
# 4 -0.002282 0.000330 0.026284 0.051892 0.015066 -0.001750
# 5 0.005403 -0.012798 0.026964 0.015066 0.064406 0.001462
# 6 -0.002644 -0.001030 -0.001472 -0.001750 0.001462 0.021385
#
#
# Mechanical properties :
#
#
# Convention : Reuss Voigt Hill
#
# Bulk Modulus (GPa) = 20.66096 37.23387 28.94742
# Shear Modulus (GPa) = 19.62260 31.99345 25.80803
#
# Velocity S-wave (km/s) = 2.80970 3.58767 3.22225
# Velocity P-wave (km/s) = 4.34028 5.66935 5.04874
#
# Compressibility (1/GPa) = 0.04840045
#
# Stress axis : x y z
#
# Youngs Moduli (GPa) = 50.22026 68.07442 24.94145
#
# Poissons Ratio (x) = 0.52040 -0.04243
# Poissons Ratio (y) = 0.38391 0.17969
# Poissons Ratio (z) = -0.08543 0.49044
#
# Static dielectric constant tensor:
#      x y z
#    x 2.039910 0.005470 0.019110 
#    y 0.005470 1.998000 0.013840 
#    z 0.019110 0.013840 1.947740 
# 
# From -- ./inp_files/200652.got.cif
#   From: 2010.05.17/outbox.cif.g08.bks.cpg/sg2_101_cif.got.tgz:200652.got - 2010.06.03 11:33:40.
