data_PCOD9091580
_publ_section_title
;
Structure prediction by ZEFSAII (Michael W. Deem and Ramdas Pophale) SiO2 
 PCOD9091580
Probable space group: P -1
;
_chemical_formula_sum "Si O2"
_cell_formula_units_Z 15
_cell_length_a 19.478514
_cell_length_b 6.933944
_cell_length_c 10.538672
_cell_angle_alpha 82.806489
_cell_angle_beta 34.823396
_cell_angle_gamma 62.335974
_cell_volume 620.941812
_symmetry_space_group_name_H-M "P -1"
_symmetry_group_IT_number 2
_symmetry_cell_setting 'triclinic'
loop_
_space_group_symop_operation_xyz
x,y,z
-x,-y,-z
loop_
_atom_site_type_symbol
_atom_site_label
_atom_site_fract_x
_atom_site_fract_y
_atom_site_fract_z
Si Si1 0.318040 0.972218 0.058785
Si Si2 0.167260 0.414205 0.779887
Si Si3 0.500000 0.500000 0.000000
Si Si4 0.484518 0.914098 0.394484
Si Si5 0.967508 0.264393 0.544706
Si Si6 0.817630 0.361205 0.515500
Si Si7 0.702369 0.348122 0.091817
Si Si8 0.936885 0.133167 0.947589
O O1 0.412757 0.060375 0.859076
O O2 0.406611 0.789588 0.059321
O O3 0.327449 0.795634 0.948605
O O4 0.130550 0.197037 0.339485
O O5 0.207749 0.500968 0.588385
O O6 0.304618 0.120713 0.612180
O O7 0.138272 0.580534 0.931905
O O8 0.000000 0.500000 0.000000
O O9 0.348689 0.525570 0.188270
O O10 0.500000 0.000000 0.500000
O O11 0.547615 0.630750 0.327284
O O12 0.912091 0.379048 0.477776
O O13 0.824080 0.386979 0.848757
O O14 0.000000 0.000000 0.500000
O O15 0.916122 0.066580 0.349209
O O16 0.794581 0.173331 0.089064
O O17 0.000000 0.000000 0.000000
#
# Coordination Sequence:
#
# PCOD9091580 Si02
#       8
#     2   2   1   2   2   2   2   2
#     4  11  24  43  71  99 142 178 226 289 345 409
#     4  11  26  46  63  95 142 181 225 291 340 407
#     4  12  20  40  70 100 138 176 226 292 340 408
#     4  12  27  44  64 103 142 176 234 287 340 415
#     4  10  19  39  67  97 126 176 218 276 339 409
#     4  11  21  41  71  96 133 173 235 278 344 410
#     4  11  22  44  71 102 137 181 228 279 355 410
#     4  10  21  40  69  98 129 184 238 269 337 418
#
# _framework density 24.156853999999999
#
# number of rings (size 3 to 8) (size 9 to 14) (size 15 to 20)
#    0.000    1.067    8.000    0.000    1.867    2.133 
#    2.400    4.000    0.000    0.000    0.000    0.000 
#    0.000    0.000    0.000    0.000    0.000    0.000 
#
# Total GULP energy -83539.229556 kJ/mol
# GULP energy per Si atom -5569.281970 kJ/mol
# Density = 2.410187 g / cm^3
# Si number density = 24.156854 Si / 1000 Ang^3
#
#
#
# Elastic Constant Matrix: (Units=GPa)
#
#
# Indices 1 2 3 4 5 6 
#
# 1 77.0636 26.2042 35.4137 23.9163 1.5567 -15.0117
# 2 26.2042 86.9744 45.0068 25.6183 -8.1096 -13.8600
# 3 35.4137 45.0068 97.1576 24.4602 -29.8165 -9.8242
# 4 23.9163 25.6183 24.4602 50.9779 -7.5293 -9.4173
# 5 1.5567 -8.1096 -29.8165 -7.5293 38.9265 5.9853
# 6 -15.0117 -13.8600 -9.8242 -9.4173 5.9853 36.6383
#
#
#
# Elastic Compliance Matrix: (Units=1/GPa)
#
#
# Indices 1 2 3 4 5 6 
#
# 1 0.019678 -0.000107 -0.007801 -0.005640 -0.008785 0.005916
# 2 -0.000107 0.017018 -0.007356 -0.004806 -0.003595 0.003773
# 3 -0.007801 -0.007356 0.021205 -0.001131 0.015277 -0.003079
# 4 -0.005640 -0.004806 -0.001131 0.026003 0.003120 0.001742
# 5 -0.008785 -0.003595 0.015277 0.003120 0.038575 -0.006363
# 6 0.005916 0.003773 -0.003079 0.001742 -0.006363 0.031807
#
#
# Mechanical properties :
#
#
# Convention : Reuss Voigt Hill
#
# Bulk Modulus (GPa) = 36.53227 52.71611 44.62419
# Shear Modulus (GPa) = 25.78158 35.61328 30.69743
#
# Velocity S-wave (km/s) = 3.27043 3.84376 3.56863
# Velocity P-wave (km/s) = 5.42372 6.44741 5.95760
#
# Compressibility (1/GPa) = 0.02737306
#
# Stress axis : x y z
#
# Youngs Moduli (GPa) = 50.81946 58.76040 47.15882
#
# Poissons Ratio (x) = 0.00630 0.36787
# Poissons Ratio (y) = 0.00545 0.34690
# Poissons Ratio (z) = 0.39643 0.43224
#
# Static dielectric constant tensor:
#      x y z
#    x 1.930870 0.065660 -0.027060 
#    y 0.065660 1.877060 0.037440 
#    z -0.027060 0.037440 1.946530 
# 
# From -- ./inp_files/474176.got.cif
#   From: 2010.05.17/outbox.cif.g08.bks.cpg/sg2_238_cif.got.tgz:474176.got - 2010.06.03 11:33:40.
