data_PCOD9091375
_publ_section_title
;
Structure prediction by ZEFSAII (Michael W. Deem and Ramdas Pophale) SiO2 
 PCOD9091375
Probable space group: P -1
;
_chemical_formula_sum "Si O2"
_cell_formula_units_Z 14
_cell_length_a 11.207005
_cell_length_b 7.697220
_cell_length_c 7.555137
_cell_angle_alpha 64.664477
_cell_angle_beta 107.635152
_cell_angle_gamma 76.661043
_cell_volume 509.873059
_symmetry_space_group_name_H-M "P -1"
_symmetry_group_IT_number 2
_symmetry_cell_setting 'triclinic'
loop_
_space_group_symop_operation_xyz
x,y,z
-x,-y,-z
loop_
_atom_site_type_symbol
_atom_site_label
_atom_site_fract_x
_atom_site_fract_y
_atom_site_fract_z
Si Si1 0.149475 0.482070 0.317104
Si Si2 0.110232 0.545178 0.860462
Si Si3 0.185912 0.907499 0.625707
Si Si4 0.997835 0.913464 0.232347
Si Si5 0.476299 0.661324 0.756510
Si Si6 0.350155 0.150047 0.078477
Si Si7 0.555558 0.696520 0.307653
O O1 0.079975 0.990024 0.378995
O O2 0.086321 0.665871 0.352509
O O3 0.308972 0.361815 0.486273
O O4 0.044720 0.370390 0.319806
O O5 0.189740 0.673440 0.759053
O O6 0.187210 0.294510 0.958366
O O7 0.121355 0.568539 0.065763
O O8 0.854393 0.986528 0.244289
O O9 0.334868 0.865312 0.641362
O O10 0.000000 0.000000 0.000000
O O11 0.589822 0.753222 0.780808
O O12 0.468459 0.512710 0.659548
O O13 0.500000 0.500000 0.000000
O O14 0.418866 0.896307 0.226945
O O15 0.401697 0.218586 0.891202
#
# Coordination Sequence:
#
# PCOD9091375 Si02
#       7
#     2   2   2   2   2   2   2
#     4  11  24  42  65  93 143 169 227 289 330 403
#     4  11  23  43  64  97 131 181 222 282 341 396
#     4  11  22  40  68  95 132 174 222 273 342 394
#     4  11  23  40  66  98 133 172 221 275 334 412
#     4  10  19  39  65  94 127 169 222 280 322 408
#     4  10  22  40  68  93 133 172 229 276 334 412
#     4  10  21  40  65  95 128 175 218 277 339 398
#
# _framework density 27.457813000000002
#
# number of rings (size 3 to 8) (size 9 to 14) (size 15 to 20)
#    0.000    1.429    5.714    0.000    0.000    8.571 
#    0.000    0.714    6.286    0.000    0.000    0.000 
#    0.000    0.000    0.000    0.000    0.000    0.000 
#
# Total GULP energy -78401.839651 kJ/mol
# GULP energy per Si atom -5600.131404 kJ/mol
# Density = 2.739532 g / cm^3
# Si number density = 27.457813 Si / 1000 Ang^3
#
#
#
# Elastic Constant Matrix: (Units=GPa)
#
#
# Indices 1 2 3 4 5 6 
#
# 1 49.2715 23.2554 33.1059 14.4115 4.6356 -2.3432
# 2 23.2554 208.0554 59.7202 19.0910 -11.5263 -14.3189
# 3 33.1059 59.7202 122.6074 27.3591 1.9251 -3.8266
# 4 14.4115 19.0910 27.3591 40.0040 -4.2208 -8.6490
# 5 4.6356 -11.5263 1.9251 -4.2208 43.9444 4.8735
# 6 -2.3432 -14.3189 -3.8266 -8.6490 4.8735 42.6502
#
#
#
# Elastic Compliance Matrix: (Units=1/GPa)
#
#
# Indices 1 2 3 4 5 6 
#
# 1 0.026334 -0.001111 -0.005234 -0.005772 -0.003374 -0.000181
# 2 -0.001111 0.005850 -0.002481 -0.000213 0.001578 0.001457
# 3 -0.005234 -0.002481 0.011979 -0.005456 -0.001033 -0.001034
# 4 -0.005772 -0.000213 -0.005456 0.032409 0.003315 0.005315
# 5 -0.003374 0.001578 -0.001033 0.003315 0.024092 -0.001829
# 6 -0.000181 0.001457 -0.001034 0.005315 -0.001829 0.025120
#
#
# Mechanical properties :
#
#
# Convention : Reuss Voigt Hill
#
# Bulk Modulus (GPa) = 37.72029 68.01082 52.86556
# Shear Modulus (GPa) = 32.83558 42.90991 37.87274
#
# Velocity S-wave (km/s) = 3.46187 3.95746 3.71793
# Velocity P-wave (km/s) = 5.45406 6.76055 6.14214
#
# Compressibility (1/GPa) = 0.02651093
#
# Stress axis : x y z
#
# Youngs Moduli (GPa) = 37.97363 170.93839 83.47711
#
# Poissons Ratio (x) = 0.18988 0.43693
# Poissons Ratio (y) = 0.04218 0.20713
# Poissons Ratio (z) = 0.19876 0.42415
#
# Static dielectric constant tensor:
#      x y z
#    x 2.257980 -0.068620 0.044590 
#    y -0.068620 2.199920 -0.122490 
#    z 0.044590 -0.122490 2.249330 
# 
# From -- ./inp_files/327597.got.cif
#   From: 2010.05.17/outbox.cif.g08.bks.cpg/sg2_164_cif.got.tgz:327597.got - 2010.06.03 11:33:40.
