data_PCOD9091071
_publ_section_title
;
Structure prediction by ZEFSAII (Michael W. Deem and Ramdas Pophale) SiO2 
 PCOD9091071
Probable space group: P -1
;
_chemical_formula_sum "Si O2"
_cell_formula_units_Z 14
_cell_length_a 12.115536
_cell_length_b 6.705164
_cell_length_c 15.393047
_cell_angle_alpha 72.144227
_cell_angle_beta 136.147884
_cell_angle_gamma 127.655168
_cell_volume 665.117324
_symmetry_space_group_name_H-M "P -1"
_symmetry_group_IT_number 2
_symmetry_cell_setting 'triclinic'
loop_
_space_group_symop_operation_xyz
x,y,z
-x,-y,-z
loop_
_atom_site_type_symbol
_atom_site_label
_atom_site_fract_x
_atom_site_fract_y
_atom_site_fract_z
Si Si1 0.429902 0.419513 0.286892
Si Si2 0.322822 0.441137 0.967979
Si Si3 0.860166 0.497485 0.828402
Si Si4 0.371968 0.698479 0.448440
Si Si5 0.687428 0.970846 0.878822
Si Si6 0.071185 0.619498 0.761196
Si Si7 0.431695 0.113148 0.810877
O O1 0.214205 0.360991 0.179298
O O2 0.514503 0.401103 0.427514
O O3 0.408073 0.208225 0.236751
O O4 0.570262 0.705160 0.286113
O O5 0.242222 0.173781 0.006686
O O6 0.424395 0.679591 0.061861
O O7 0.500000 0.500000 0.000000
O O8 0.155756 0.449714 0.826471
O O9 0.675275 0.341379 0.675333
O O10 0.851243 0.462291 0.619059
O O11 0.849923 0.270281 0.904360
O O12 0.960038 0.349711 0.157701
O O13 0.500000 0.000000 0.500000
O O14 0.527883 0.981259 0.840852
O O15 0.225769 0.892048 0.767071
#
# Coordination Sequence:
#
# PCOD9091071 Si02
#       7
#     2   2   2   2   2   2   2
#     4  10  19  39  63  88 118 169 193 245 309 351
#     4  11  22  40  66  87 122 163 200 249 308 354
#     4   9  21  38  61  88 122 152 207 245 293 358
#     4  10  20  40  64  88 126 159 200 251 297 358
#     4  10  20  39  64  88 123 161 197 250 304 355
#     4  10  22  39  60  95 118 160 206 247 301 355
#     4  10  22  40  63  88 125 155 204 253 297 357
#
# _framework density 21.048919000000001
#
# number of rings (size 3 to 8) (size 9 to 14) (size 15 to 20)
#    0.857    1.143    2.857    0.857    0.000    1.143 
#    5.143    7.143    0.000    0.000    0.000    0.000 
#    0.000    0.000    0.000    0.000    0.000    0.000 
#
# Total GULP energy -78125.737428 kJ/mol
# GULP energy per Si atom -5580.409816 kJ/mol
# Density = 2.100101 g / cm^3
# Si number density = 21.048919 Si / 1000 Ang^3
#
#
#
# Elastic Constant Matrix: (Units=GPa)
#
#
# Indices 1 2 3 4 5 6 
#
# 1 123.0933 53.8840 9.2482 -0.3353 15.9042 2.2999
# 2 53.8840 134.6036 38.8438 -9.8970 18.8531 15.4554
# 3 9.2482 38.8438 63.5876 -15.6800 21.0142 4.3981
# 4 -0.3353 -9.8970 -15.6800 36.4150 -1.4267 -2.3483
# 5 15.9042 18.8531 21.0142 -1.4267 27.0177 0.2233
# 6 2.2999 15.4554 4.3981 -2.3483 0.2233 50.2959
#
#
#
# Elastic Compliance Matrix: (Units=1/GPa)
#
#
# Indices 1 2 3 4 5 6 
#
# 1 0.010494 -0.004346 0.002854 -0.000026 -0.005371 0.000629
# 2 -0.004346 0.011272 -0.005700 0.000359 -0.000832 -0.002746
# 3 0.002854 -0.005700 0.027212 0.009459 -0.018366 -0.000235
# 4 -0.000026 0.000359 0.009459 0.031435 -0.005938 0.000558
# 5 -0.005371 -0.000832 -0.018366 -0.005938 0.054713 0.001587
# 6 0.000629 -0.002746 -0.000235 0.000558 0.001587 0.020737
#
#
# Mechanical properties :
#
#
# Convention : Reuss Voigt Hill
#
# Bulk Modulus (GPa) = 28.90766 58.35959 43.63363
# Shear Modulus (GPa) = 27.50573 37.36630 32.43601
#
# Velocity S-wave (km/s) = 3.61882 4.21790 3.92979
# Velocity P-wave (km/s) = 5.58789 7.17682 6.43161
#
# Compressibility (1/GPa) = 0.03459291
#
# Stress axis : x y z
#
# Youngs Moduli (GPa) = 95.29016 88.71187 36.74884
#
# Poissons Ratio (x) = 0.38558 -0.10488
# Poissons Ratio (y) = 0.41417 0.20948
# Poissons Ratio (z) = -0.27195 0.50568
#
# Static dielectric constant tensor:
#      x y z
#    x 1.789820 -0.003680 -0.013690 
#    y -0.003680 1.743920 0.000020 
#    z -0.013690 0.000020 1.805780 
# 
# From -- ./inp_files/79412.got.cif
#   From: 2010.05.17/outbox.cif.g08.bks.cpg/sg2_40_cif.got.tgz:79412.got - 2010.06.03 11:33:40.
