data_PCOD9091509
_publ_section_title
;
Structure prediction by ZEFSAII (Michael W. Deem and Ramdas Pophale) SiO2 
 PCOD9091509
Probable space group: P -1
;
_chemical_formula_sum "Si O2"
_cell_formula_units_Z 16
_cell_length_a 22.664459
_cell_length_b 7.995663
_cell_length_c 9.497596
_cell_angle_alpha 106.056718
_cell_angle_beta 134.216033
_cell_angle_gamma 40.894164
_cell_volume 682.777826
_symmetry_space_group_name_H-M "P -1"
_symmetry_group_IT_number 2
_symmetry_cell_setting 'triclinic'
loop_
_space_group_symop_operation_xyz
x,y,z
-x,-y,-z
loop_
_atom_site_type_symbol
_atom_site_label
_atom_site_fract_x
_atom_site_fract_y
_atom_site_fract_z
Si Si1 0.396235 0.781887 0.582249
Si Si2 0.924796 0.340377 0.551870
Si Si3 0.910358 0.757667 0.742979
Si Si4 0.370467 0.884265 0.092795
Si Si5 0.106761 0.149770 0.579158
Si Si6 0.604685 0.960263 0.100580
Si Si7 0.625676 0.888883 0.606995
Si Si8 0.907824 0.286111 0.818715
O O1 0.513260 0.430445 0.705241
O O2 0.395055 0.880255 0.753668
O O3 0.236252 0.983889 0.351393
O O4 0.425350 0.880210 0.538210
O O5 0.937390 0.514841 0.678632
O O6 0.932929 0.217005 0.679267
O O7 0.042284 0.121600 0.574555
O O8 0.766311 0.607550 0.283975
O O9 0.888149 0.897563 0.589366
O O10 0.034512 0.625755 0.011554
O O11 0.298679 0.133454 0.146346
O O12 0.436698 0.893819 0.085711
O O13 0.258556 0.953334 0.843874
O O14 0.000000 0.500000 0.500000
O O15 0.500000 0.000000 0.000000
O O16 0.741173 0.570294 0.646373
O O17 0.500000 0.000000 0.500000
O O18 0.000000 0.000000 0.000000
#
# Coordination Sequence:
#
# PCOD9091509 Si02
#       8
#     2   2   2   2   2   2   2   2
#     4  11  24  44  67 104 129 181 234 274 331 411
#     4  10  21  42  67  96 126 173 224 268 331 399
#     4  10  21  41  70  92 131 164 231 273 329 395
#     4  12  24  40  73  98 132 178 229 278 338 402
#     4  10  19  39  66  99 121 159 224 277 321 385
#     4  11  22  41  68  95 139 175 214 272 344 398
#     4  12  27  46  65  98 144 178 223 285 347 400
#     4  12  27  44  69  97 134 183 224 278 347 406
#
# _framework density 23.433684
#
# number of rings (size 3 to 8) (size 9 to 14) (size 15 to 20)
#    0.000    1.000    6.250    3.375    3.500    1.000 
#    0.000    0.625    0.000    0.000    0.000    0.000 
#    0.000    0.000    0.000    0.000    0.000    0.000 
#
# Total GULP energy -89526.704855 kJ/mol
# GULP energy per Si atom -5595.419053 kJ/mol
# Density = 2.338035 g / cm^3
# Si number density = 23.433684 Si / 1000 Ang^3
#
#
#
# Elastic Constant Matrix: (Units=GPa)
#
#
# Indices 1 2 3 4 5 6 
#
# 1 201.6397 40.7777 56.0474 -23.1732 -25.7918 -18.1230
# 2 40.7777 46.7434 24.2476 -4.5538 -11.0275 -10.6613
# 3 56.0474 24.2476 82.0662 -7.0640 -13.3301 -10.4604
# 4 -23.1732 -4.5538 -7.0640 33.8924 0.0098 -8.7309
# 5 -25.7918 -11.0275 -13.3301 0.0098 56.8260 -2.0875
# 6 -18.1230 -10.6613 -10.4604 -8.7309 -2.0875 29.7251
#
#
#
# Elastic Compliance Matrix: (Units=1/GPa)
#
#
# Indices 1 2 3 4 5 6 
#
# 1 0.007715 -0.003150 -0.002953 0.005335 0.002353 0.004267
# 2 -0.003150 0.029555 -0.004727 0.002923 0.003494 0.008120
# 3 -0.002953 -0.004727 0.016358 0.001480 0.001683 0.002814
# 4 0.005335 0.002923 0.001480 0.038044 0.003927 0.016271
# 5 0.002353 0.003494 0.001683 0.003927 0.019952 0.005835
# 6 0.004267 0.008120 0.002814 0.016271 0.005835 0.045335
#
#
# Mechanical properties :
#
#
# Convention : Reuss Voigt Hill
#
# Bulk Modulus (GPa) = 31.28141 63.62162 47.45151
# Shear Modulus (GPa) = 26.41680 38.04714 32.23197
#
# Velocity S-wave (km/s) = 3.36117 4.03377 3.71274
# Velocity P-wave (km/s) = 5.33303 6.99312 6.21872
#
# Compressibility (1/GPa) = 0.03196787
#
# Stress axis : x y z
#
# Youngs Moduli (GPa) = 129.62211 33.83549 61.13307
#
# Poissons Ratio (x) = 0.10660 0.18051
# Poissons Ratio (y) = 0.40836 0.28895
# Poissons Ratio (z) = 0.38273 0.15993
#
# Static dielectric constant tensor:
#      x y z
#    x 1.975730 0.054180 0.011870 
#    y 0.054180 1.912180 0.016920 
#    z 0.011870 0.016920 1.863950 
# 
# From -- ./inp_files/278086.got.cif
#   From: 2010.05.17/outbox.cif.g08.bks.cpg/sg2_140_cif.got.tgz:278086.got - 2010.06.03 11:33:40.
