data_PCOD9091044
_publ_section_title
;
Structure prediction by ZEFSAII (Michael W. Deem and Ramdas Pophale) SiO2 
 PCOD9091044
Probable space group: P -1
;
_chemical_formula_sum "Si O2"
_cell_formula_units_Z 16
_cell_length_a 18.965739
_cell_length_b 8.062444
_cell_length_c 11.028415
_cell_angle_alpha 138.682520
_cell_angle_beta 55.278307
_cell_angle_gamma 99.010657
_cell_volume 792.666616
_symmetry_space_group_name_H-M "P -1"
_symmetry_group_IT_number 2
_symmetry_cell_setting 'triclinic'
loop_
_space_group_symop_operation_xyz
x,y,z
-x,-y,-z
loop_
_atom_site_type_symbol
_atom_site_label
_atom_site_fract_x
_atom_site_fract_y
_atom_site_fract_z
Si Si1 0.915552 0.271599 0.522095
Si Si2 0.265497 0.814788 0.955379
Si Si3 0.585632 0.024381 0.362871
Si Si4 0.779515 0.553926 0.014349
Si Si5 0.409539 0.063233 0.965441
Si Si6 0.008455 0.636850 0.189156
Si Si7 0.608826 0.556692 0.588390
Si Si8 0.074887 0.421495 0.521914
O O1 0.912887 0.318182 0.405260
O O2 0.970645 0.448275 0.601836
O O3 0.812534 0.414247 0.771296
O O4 0.977781 0.962912 0.357519
O O5 0.252961 0.625566 0.966718
O O6 0.300002 0.634007 0.696569
O O7 0.348973 0.894730 0.952867
O O8 0.164096 0.122034 0.217047
O O9 0.562104 0.351181 0.545760
O O10 0.500000 0.000000 0.500000
O O11 0.686646 0.867535 0.255036
O O12 0.600960 0.877310 0.134846
O O13 0.878923 0.521756 0.959476
O O14 0.370419 0.330121 0.243873
O O15 0.525196 0.843593 0.759938
O O16 0.933056 0.617802 0.348204
O O17 0.000000 0.500000 0.000000
#
# Coordination Sequence:
#
# PCOD9091044 Si02
#       8
#     2   2   2   2   2   2   2   2
#     4  10  19  39  63  84 118 164 208 257 315 376
#     4  11  19  38  63  87 120 166 207 255 323 373
#     4  11  22  40  65  93 124 169 208 256 323 378
#     4  11  21  40  62  87 123 165 213 259 314 385
#     4  10  22  40  61  90 121 166 209 261 322 374
#     4  11  23  41  60  94 131 164 211 269 321 378
#     4  10  22  40  60  89 128 156 213 267 309 384
#     4  10  20  37  63  86 118 164 208 257 313 378
#
# _framework density 20.185030999999999
#
# number of rings (size 3 to 8) (size 9 to 14) (size 15 to 20)
#    0.000    1.500    2.500    5.250    0.000    2.000 
#    4.500    0.000    0.000    0.000    0.000    0.000 
#    0.000    0.000    0.000    0.000    0.000    0.000 
#
# Total GULP energy -89160.414663 kJ/mol
# GULP energy per Si atom -5572.525916 kJ/mol
# Density = 2.013909 g / cm^3
# Si number density = 20.185031 Si / 1000 Ang^3
#
#
#
# Elastic Constant Matrix: (Units=GPa)
#
#
# Indices 1 2 3 4 5 6 
#
# 1 63.0443 38.6872 51.7137 -13.7363 12.3533 -8.9211
# 2 38.6872 124.9377 43.3879 -33.0521 5.1772 -20.5729
# 3 51.7137 43.3879 106.4331 -22.5719 1.8745 -12.6842
# 4 -13.7363 -33.0521 -22.5719 32.9405 -8.9768 -7.8994
# 5 12.3533 5.1772 1.8745 -8.9768 35.5274 1.4458
# 6 -8.9211 -20.5729 -12.6842 -7.8994 1.4458 21.6823
#
#
#
# Elastic Compliance Matrix: (Units=1/GPa)
#
#
# Indices 1 2 3 4 5 6 
#
# 1 0.032220 -0.007264 -0.014741 -0.008082 -0.011228 -0.004455
# 2 -0.007264 0.021831 0.004981 0.031459 0.005740 0.031717
# 3 -0.014741 0.004981 0.020452 0.018974 0.007421 0.017043
# 4 -0.008082 0.031459 0.018974 0.093334 0.017942 0.070432
# 5 -0.011228 0.005740 0.007421 0.017942 0.034975 0.009373
# 6 -0.004455 0.031717 0.017043 0.070432 0.009373 0.109387
#
#
# Mechanical properties :
#
#
# Convention : Reuss Voigt Hill
#
# Bulk Modulus (GPa) = 24.71959 62.44363 43.58161
# Shear Modulus (GPa) = 13.89917 28.73845 21.31881
#
# Velocity S-wave (km/s) = 2.62694 3.77736 3.25340
# Velocity P-wave (km/s) = 4.63402 7.07300 5.97919
#
# Compressibility (1/GPa) = 0.04045374
#
# Stress axis : x y z
#
# Youngs Moduli (GPa) = 31.03678 45.80631 48.89508
#
# Poissons Ratio (x) = 0.33275 0.72076
# Poissons Ratio (y) = 0.22546 -0.24352
# Poissons Ratio (z) = 0.45751 -0.22814
#
# Static dielectric constant tensor:
#      x y z
#    x 1.732570 -0.041780 0.018560 
#    y -0.041780 1.723010 -0.038250 
#    z 0.018560 -0.038250 1.731310 
# 
# From -- ./inp_files/470206.got.cif
#   From: 2010.05.17/outbox.cif.g08.bks.cpg/sg2_236_cif.got.tgz:470206.got - 2010.06.03 11:33:40.
