data_PCOD9091630
_publ_section_title
;
Structure prediction by ZEFSAII (Michael W. Deem and Ramdas Pophale) SiO2 
 PCOD9091630
Probable space group: P -1
;
_chemical_formula_sum "Si O2"
_cell_formula_units_Z 16
_cell_length_a 21.123769
_cell_length_b 11.591810
_cell_length_c 18.122383
_cell_angle_alpha 151.123898
_cell_angle_beta 19.979369
_cell_angle_gamma 143.695880
_cell_volume 728.271716
_symmetry_space_group_name_H-M "P -1"
_symmetry_group_IT_number 2
_symmetry_cell_setting 'triclinic'
loop_
_space_group_symop_operation_xyz
x,y,z
-x,-y,-z
loop_
_atom_site_type_symbol
_atom_site_label
_atom_site_fract_x
_atom_site_fract_y
_atom_site_fract_z
Si Si1 0.066592 0.016916 0.852519
Si Si2 0.798937 0.131261 0.822620
Si Si3 0.012549 0.490795 0.610966
Si Si4 0.506711 0.920066 0.602951
Si Si5 0.061497 0.476129 0.729939
Si Si6 0.636346 0.828237 0.958359
Si Si7 0.405198 0.422654 0.921402
Si Si8 0.538802 0.549581 0.691960
O O1 0.053511 0.754841 0.688260
O O2 0.277579 0.075726 0.651715
O O3 0.000000 0.000000 0.000000
O O4 0.944668 0.247841 0.083584
O O5 0.887495 0.359054 0.889005
O O6 0.637270 0.252087 0.013816
O O7 0.000000 0.000000 0.500000
O O8 0.693930 0.969110 0.901921
O O9 0.035466 0.477947 0.669158
O O10 0.803580 0.464482 0.802346
O O11 0.165079 0.296464 0.300732
O O12 0.455922 0.656987 0.490887
O O13 0.467537 0.987994 0.768421
O O14 0.407807 0.154360 0.799690
O O15 0.261997 0.348362 0.461987
O O16 0.514836 0.606936 0.951710
O O17 0.511387 0.409962 0.719999
#
# Coordination Sequence:
#
# PCOD9091630 Si02
#       8
#     2   2   2   2   2   2   2   2
#     4  10  19  39  68  94 131 167 217 279 327 387
#     4  12  24  45  70  97 135 181 232 275 322 401
#     4  11  21  41  67 100 135 169 223 281 333 394
#     4  12  25  44  68 103 141 173 217 286 348 398
#     4  11  21  42  68 102 126 172 229 287 323 382
#     4  12  27  44  63 101 146 178 218 275 343 402
#     4  12  22  43  73 100 130 179 226 276 344 399
#     4  12  23  43  74 101 127 176 235 276 331 399
#
# _framework density 21.969821
#
# number of rings (size 3 to 8) (size 9 to 14) (size 15 to 20)
#    0.000    0.500    6.250    3.000    0.000    4.000 
#    2.250    0.625    0.000    0.000    0.000    0.000 
#    0.000    0.000    0.000    0.000    0.000    0.000 
#
# Total GULP energy -89361.150070 kJ/mol
# GULP energy per Si atom -5585.071879 kJ/mol
# Density = 2.191982 g / cm^3
# Si number density = 21.969821 Si / 1000 Ang^3
#
#
#
# Elastic Constant Matrix: (Units=GPa)
#
#
# Indices 1 2 3 4 5 6 
#
# 1 42.7112 10.1994 44.0144 -2.6501 -9.4269 1.7626
# 2 10.1994 63.9013 13.8155 -0.2263 -14.2835 0.3982
# 3 44.0144 13.8155 110.7949 -9.7900 -17.1285 10.5488
# 4 -2.6501 -0.2263 -9.7900 40.9493 13.9767 -12.6995
# 5 -9.4269 -14.2835 -17.1285 13.9767 43.9979 -4.1526
# 6 1.7626 0.3982 10.5488 -12.6995 -4.1526 22.5658
#
#
#
# Elastic Compliance Matrix: (Units=1/GPa)
#
#
# Indices 1 2 3 4 5 6 
#
# 1 0.040815 -0.002571 -0.016015 -0.000611 0.002287 0.004421
# 2 -0.002571 0.017400 -0.000467 -0.002099 0.005579 -0.000043
# 3 -0.016015 -0.000467 0.016358 0.000347 0.002127 -0.005801
# 4 -0.000611 -0.002099 0.000347 0.032882 -0.009550 0.016670
# 5 0.002287 0.005579 0.002127 -0.009550 0.028764 -0.001353
# 6 0.004421 -0.000043 -0.005801 0.016670 -0.001353 0.055815
#
#
# Mechanical properties :
#
#
# Convention : Reuss Voigt Hill
#
# Bulk Modulus (GPa) = 27.42191 39.27399 33.34795
# Shear Modulus (GPa) = 20.63601 31.46115 26.04858
#
# Velocity S-wave (km/s) = 3.06811 3.78831 3.44707
# Velocity P-wave (km/s) = 5.00597 6.08688 5.57270
#
# Compressibility (1/GPa) = 0.03646720
#
# Stress axis : x y z
#
# Youngs Moduli (GPa) = 24.50089 57.47002 61.13263
#
# Poissons Ratio (x) = 0.14773 0.97903
# Poissons Ratio (y) = 0.06298 0.02858
# Poissons Ratio (z) = 0.39238 0.02687
#
# Static dielectric constant tensor:
#      x y z
#    x 1.835110 0.004880 -0.004140 
#    y 0.004880 1.867680 0.041250 
#    z -0.004140 0.041250 1.886300 
# 
# From -- ./inp_files/578021.got.cif
#   From: 2010.05.17/outbox.cif.g08.bks.cpg/sg2_290_cif.got.tgz:578021.got - 2010.06.03 11:33:40.
