data_PCOD9091397
_publ_section_title
;
Structure prediction by ZEFSAII (Michael W. Deem and Ramdas Pophale) SiO2 
 PCOD9091397
Probable space group: P -1
;
_chemical_formula_sum "Si O2"
_cell_formula_units_Z 16
_cell_length_a 9.710339
_cell_length_b 18.607595
_cell_length_c 21.487323
_cell_angle_alpha 18.618799
_cell_angle_beta 36.319574
_cell_angle_gamma 35.987507
_cell_volume 712.519591
_symmetry_space_group_name_H-M "P -1"
_symmetry_group_IT_number 2
_symmetry_cell_setting 'triclinic'
loop_
_space_group_symop_operation_xyz
x,y,z
-x,-y,-z
loop_
_atom_site_type_symbol
_atom_site_label
_atom_site_fract_x
_atom_site_fract_y
_atom_site_fract_z
Si Si1 0.931718 0.848657 0.231322
Si Si2 0.200140 0.422110 0.610778
Si Si3 0.396329 0.790051 0.187134
Si Si4 0.727822 0.349250 0.869169
Si Si5 0.517319 0.793868 0.504477
Si Si6 0.669058 0.282097 0.499073
Si Si7 0.475934 0.618015 0.845593
Si Si8 0.795839 0.968806 0.459045
O O1 0.901834 0.638451 0.370050
O O2 0.765377 0.862126 0.342074
O O3 0.199865 0.846005 0.157359
O O4 0.803893 0.078625 0.050768
O O5 0.248314 0.676625 0.385204
O O6 0.468199 0.259810 0.642228
O O7 0.988079 0.396800 0.753083
O O8 0.610709 0.562481 0.282174
O O9 0.500000 0.000000 0.000000
O O10 0.602050 0.529108 0.715049
O O11 0.544058 0.410564 0.942165
O O12 0.388451 0.809435 0.472214
O O13 0.351072 0.936539 0.501615
O O14 0.932155 0.153983 0.526769
O O15 0.237187 0.808511 0.757107
O O16 0.667538 0.775612 0.638331
O O17 0.500000 0.500000 0.000000
#
# Coordination Sequence:
#
# PCOD9091397 Si02
#       8
#     2   2   2   2   2   2   2   2
#     4  11  20  37  66  91 134 171 216 266 317 387
#     4   9  20  39  61  93 129 168 218 259 326 387
#     4  10  21  37  61  92 135 176 209 259 331 381
#     4  11  21  35  68  93 124 171 223 266 316 392
#     4  10  19  39  65  98 123 168 220 266 319 384
#     4   9  20  38  65  91 136 164 207 270 327 383
#     4  10  23  42  60  90 126 169 223 266 325 388
#     4  10  21  40  65  89 124 173 217 265 327 381
#
# _framework density 22.455522999999999
#
# number of rings (size 3 to 8) (size 9 to 14) (size 15 to 20)
#    0.750    1.250    1.250    2.625    1.750    0.000 
#    0.000    6.250    0.000    9.000    0.000    0.000 
#    0.000    0.000    0.000    0.000    0.000    0.000 
#
# Total GULP energy -89198.614304 kJ/mol
# GULP energy per Si atom -5574.913394 kJ/mol
# Density = 2.240441 g / cm^3
# Si number density = 22.455523 Si / 1000 Ang^3
#
#
#
# Elastic Constant Matrix: (Units=GPa)
#
#
# Indices 1 2 3 4 5 6 
#
# 1 108.8348 46.4447 27.4715 -16.3839 0.2742 -35.3198
# 2 46.4447 93.2847 20.6265 -22.8147 8.9545 -35.7385
# 3 27.4715 20.6265 84.8256 -15.3563 -5.3623 -8.5007
# 4 -16.3839 -22.8147 -15.3563 27.7163 1.3045 4.5250
# 5 0.2742 8.9545 -5.3623 1.3045 41.8480 -5.2633
# 6 -35.3198 -35.7385 -8.5007 4.5250 -5.2633 40.3839
#
#
#
# Elastic Compliance Matrix: (Units=1/GPa)
#
#
# Indices 1 2 3 4 5 6 
#
# 1 0.014523 -0.001947 -0.002426 0.003921 0.001169 0.010181
# 2 -0.001947 0.021232 -0.000768 0.013603 -0.003168 0.014988
# 3 -0.002426 -0.000768 0.013852 0.005573 0.001746 -0.000282
# 4 0.003921 0.013603 0.005573 0.051069 -0.002482 0.010595
# 5 0.001169 -0.003168 0.001746 -0.002482 0.025136 0.002141
# 6 0.010181 0.014988 -0.000282 0.010595 0.002141 0.045963
#
#
# Mechanical properties :
#
#
# Convention : Reuss Voigt Hill
#
# Bulk Modulus (GPa) = 25.42893 52.89226 39.16060
# Shear Modulus (GPa) = 25.61917 34.81649 30.21783
#
# Velocity S-wave (km/s) = 3.38136 3.94187 3.67232
# Velocity P-wave (km/s) = 5.15689 6.65756 5.95469
#
# Compressibility (1/GPa) = 0.03932528
#
# Stress axis : x y z
#
# Youngs Moduli (GPa) = 68.85765 47.09828 72.19071
#
# Poissons Ratio (x) = 0.09170 0.17513
# Poissons Ratio (y) = 0.13407 0.05544
# Poissons Ratio (z) = 0.16704 0.03617
#
# Static dielectric constant tensor:
#      x y z
#    x 1.857630 0.012860 0.036870 
#    y 0.012860 1.855350 0.012240 
#    z 0.036870 0.012240 1.887520 
# 
# From -- ./inp_files/591162.got.cif
#   From: 2010.05.17/outbox.cif.g08.bks.cpg/sg2_296_cif.got.tgz:591162.got - 2010.06.03 11:33:40.
