data_PCOD9091671
_publ_section_title
;
Structure prediction by ZEFSAII (Michael W. Deem and Ramdas Pophale) SiO2 
 PCOD9091671
Probable space group: P -1
;
_chemical_formula_sum "Si O2"
_cell_formula_units_Z 16
_cell_length_a 10.531391
_cell_length_b 9.574703
_cell_length_c 13.079301
_cell_angle_alpha 96.237043
_cell_angle_beta 136.765479
_cell_angle_gamma 115.295473
_cell_volume 600.313578
_symmetry_space_group_name_H-M "P -1"
_symmetry_group_IT_number 2
_symmetry_cell_setting 'triclinic'
loop_
_space_group_symop_operation_xyz
x,y,z
-x,-y,-z
loop_
_atom_site_type_symbol
_atom_site_label
_atom_site_fract_x
_atom_site_fract_y
_atom_site_fract_z
Si Si1 0.018872 0.079643 0.905343
Si Si2 0.157145 0.587207 0.382144
Si Si3 0.436121 0.620263 0.009680
Si Si4 0.450318 0.506694 0.229689
Si Si5 0.098607 0.273841 0.215222
Si Si6 0.928032 0.076016 0.378244
Si Si7 0.530811 0.047484 0.259056
Si Si8 0.205855 0.726499 0.199068
O O1 0.285131 0.415578 0.234918
O O2 0.341216 0.299465 0.098560
O O3 0.872093 0.871242 0.742795
O O4 0.000000 0.000000 0.000000
O O5 0.354445 0.752242 0.599786
O O6 0.255610 0.703956 0.340121
O O7 0.848145 0.475360 0.207027
O O8 0.153517 0.421665 0.342945
O O9 0.395686 0.583358 0.107474
O O10 0.699421 0.866608 0.159811
O O11 0.500000 0.500000 0.000000
O O12 0.769313 0.702530 0.454829
O O13 0.890942 0.163825 0.835417
O O14 0.771392 0.106625 0.981197
O O15 0.759093 0.114157 0.323999
O O16 0.000000 0.000000 0.500000
O O17 0.478731 0.899856 0.304679
O O18 0.000000 0.500000 0.000000
#
# Coordination Sequence:
#
# PCOD9091671 Si02
#       8
#     2   2   2   2   2   2   2   2
#     4  10  19  39  69  90 131 177 209 265 333 380
#     4  12  23  38  68  99 126 170 220 274 324 380
#     4  11  21  39  61  93 134 169 210 273 330 380
#     4  10  20  39  64  93 124 171 215 261 329 384
#     4  11  23  44  72  91 140 173 214 271 324 387
#     4  10  22  37  61  92 135 164 213 268 327 388
#     4  12  23  40  65  97 131 166 221 261 333 387
#     4  12  20  38  67  97 127 168 219 274 326 375
#
# _framework density 26.652736000000001
#
# number of rings (size 3 to 8) (size 9 to 14) (size 15 to 20)
#    0.000    1.000    6.250    1.875    5.250    0.000 
#    4.500    1.250    5.500    1.500    0.000    0.000 
#    0.000    0.000    0.000    0.000    0.000    0.000 
#
# Total GULP energy -89480.892317 kJ/mol
# GULP energy per Si atom -5592.555770 kJ/mol
# Density = 2.659207 g / cm^3
# Si number density = 26.652736 Si / 1000 Ang^3
#
#
#
# Elastic Constant Matrix: (Units=GPa)
#
#
# Indices 1 2 3 4 5 6 
#
# 1 131.1607 64.1153 72.0176 24.2930 -1.6539 -40.1123
# 2 64.1153 155.5050 67.2102 21.4009 -3.8061 -32.0357
# 3 72.0176 67.2102 162.9676 41.5415 11.1050 -6.8272
# 4 24.2930 21.4009 41.5415 61.6848 -5.1094 -13.4258
# 5 -1.6539 -3.8061 11.1050 -5.1094 47.9428 16.4382
# 6 -40.1123 -32.0357 -6.8272 -13.4258 16.4382 53.0367
#
#
#
# Elastic Compliance Matrix: (Units=1/GPa)
#
#
# Indices 1 2 3 4 5 6 
#
# 1 0.014118 -0.001730 -0.005117 0.000437 -0.001716 0.009616
# 2 -0.001730 0.009182 -0.002947 0.000339 0.000040 0.003932
# 3 -0.005117 -0.002947 0.010947 -0.005593 -0.001793 -0.005101
# 4 0.000437 0.000339 -0.005593 0.020827 0.002028 0.004459
# 5 -0.001716 0.000040 -0.001793 0.002028 0.024362 -0.008542
# 6 0.009616 0.003932 -0.005101 0.004459 -0.008542 0.031622
#
#
# Mechanical properties :
#
#
# Convention : Reuss Voigt Hill
#
# Bulk Modulus (GPa) = 68.21784 95.14661 81.68223
# Shear Modulus (GPa) = 36.89154 48.95220 42.92187
#
# Velocity S-wave (km/s) = 3.72446 4.29028 4.01735
# Velocity P-wave (km/s) = 6.64425 7.76648 7.22718
#
# Compressibility (1/GPa) = 0.01465892
#
# Stress axis : x y z
#
# Youngs Moduli (GPa) = 70.83172 108.91017 91.34952
#
# Poissons Ratio (x) = 0.18846 0.46743
# Poissons Ratio (y) = 0.12257 0.26916
# Poissons Ratio (z) = 0.36244 0.32091
#
# Static dielectric constant tensor:
#      x y z
#    x 2.239860 -0.026150 0.021200 
#    y -0.026150 2.139960 0.004390 
#    z 0.021200 0.004390 2.149170 
# 
# From -- ./inp_files/567467.got.cif
#   From: 2010.05.17/outbox.cif.g08.bks.cpg/sg2_284_cif.got.tgz:567467.got - 2010.06.03 11:33:40.
