data_PCOD9091905
_publ_section_title
;
Structure prediction by ZEFSAII (Michael W. Deem and Ramdas Pophale) SiO2 
 PCOD9091905
Probable space group: P -1
;
_chemical_formula_sum "Si O2"
_cell_formula_units_Z 14
_cell_length_a 14.598716
_cell_length_b 14.056164
_cell_length_c 11.501632
_cell_angle_alpha 44.886117
_cell_angle_beta 27.946246
_cell_angle_gamma 29.755250
_cell_volume 531.349652
_symmetry_space_group_name_H-M "P -1"
_symmetry_group_IT_number 2
_symmetry_cell_setting 'triclinic'
loop_
_space_group_symop_operation_xyz
x,y,z
-x,-y,-z
loop_
_atom_site_type_symbol
_atom_site_label
_atom_site_fract_x
_atom_site_fract_y
_atom_site_fract_z
Si Si1 0.852895 0.736766 0.799639
Si Si2 0.408930 0.383858 0.887258
Si Si3 0.007264 0.765616 0.850989
Si Si4 0.992910 0.937049 0.381625
Si Si5 0.714007 0.038741 0.147828
Si Si6 0.870951 0.333787 0.842496
Si Si7 0.696215 0.564865 0.619108
O O1 0.607211 0.756038 0.026667
O O2 0.909215 0.739818 0.868138
O O3 0.132829 0.519011 0.620025
O O4 0.803591 0.902051 0.643749
O O5 0.203549 0.506277 0.124412
O O6 0.265040 0.559520 0.806116
O O7 0.720861 0.248667 0.707779
O O8 0.111813 0.866303 0.622503
O O9 0.746898 0.923918 0.098396
O O10 0.100643 0.927511 0.140550
O O11 0.419633 0.244951 0.348926
O O12 0.870793 0.884003 0.209810
O O13 0.886680 0.385628 0.652401
O O14 0.590867 0.378749 0.127426
#
# Coordination Sequence:
#
# PCOD9091905 Si02
#       7
#     2   2   2   2   2   2   2
#     4  12  24  39  69 102 123 164 222 262 310 383
#     4  11  22  44  67  91 132 172 205 265 323 372
#     4   9  23  44  65  93 133 167 209 264 319 378
#     4  10  21  44  65  91 128 171 208 258 316 375
#     4   9  20  39  69  86 128 175 204 256 324 374
#     4  10  19  40  63  89 129 173 201 258 325 370
#     4  11  20  38  64  97 125 164 215 262 311 378
#
# _framework density 26.348001
#
# number of rings (size 3 to 8) (size 9 to 14) (size 15 to 20)
#    0.857    0.857    2.857    2.143    0.000    1.714 
#    0.000    8.571    0.000    0.000    0.000    0.000 
#    0.000    0.000    0.000    0.000    0.000    0.000 
#
# Total GULP energy -78386.968465 kJ/mol
# GULP energy per Si atom -5599.069176 kJ/mol
# Density = 2.628803 g / cm^3
# Si number density = 26.348001 Si / 1000 Ang^3
#
#
#
# Elastic Constant Matrix: (Units=GPa)
#
#
# Indices 1 2 3 4 5 6 
#
# 1 128.1443 53.0604 38.3667 9.9063 26.4226 12.2637
# 2 53.0604 139.3033 41.1604 17.2639 2.6277 -3.4009
# 3 38.3667 41.1604 83.3029 16.0349 23.7734 9.2346
# 4 9.9063 17.2639 16.0349 27.0855 19.5491 2.7414
# 5 26.4226 2.6277 23.7734 19.5491 41.9587 -0.3872
# 6 12.2637 -3.4009 9.2346 2.7414 -0.3872 40.3372
#
#
#
# Elastic Compliance Matrix: (Units=1/GPa)
#
#
# Indices 1 2 3 4 5 6 
#
# 1 0.012234 -0.005161 -0.001074 0.007269 -0.010201 -0.004501
# 2 -0.005161 0.011804 -0.004831 -0.010620 0.010237 0.004490
# 3 -0.001074 -0.004831 0.018011 -0.000105 -0.009217 -0.004286
# 4 0.007269 -0.010620 -0.000105 0.067403 -0.035330 -0.008001
# 5 -0.010201 0.010237 -0.009217 -0.035330 0.051382 0.008969
# 6 -0.004501 0.004490 -0.004286 -0.008001 0.008969 0.028149
#
#
# Mechanical properties :
#
#
# Convention : Reuss Voigt Hill
#
# Bulk Modulus (GPa) = 50.20243 68.43617 59.31930
# Shear Modulus (GPa) = 22.96164 36.42046 29.69105
#
# Velocity S-wave (km/s) = 2.95528 3.72194 3.36055
# Velocity P-wave (km/s) = 5.54435 6.67089 6.13354
#
# Compressibility (1/GPa) = 0.01991935
#
# Stress axis : x y z
#
# Youngs Moduli (GPa) = 81.73667 84.71403 55.52009
#
# Poissons Ratio (x) = 0.43722 0.05961
# Poissons Ratio (y) = 0.42185 0.26820
# Poissons Ratio (z) = 0.08776 0.40923
#
# Static dielectric constant tensor:
#      x y z
#    x 2.051940 0.084380 -0.007370 
#    y 0.084380 2.027490 -0.016460 
#    z -0.007370 -0.016460 2.124360 
# 
# From -- ./inp_files/353977.got.cif
#   From: 2010.05.17/outbox.cif.g08.bks.cpg/sg2_177_cif.got.tgz:353977.got - 2010.06.03 11:33:40.
