data_PCOD9091945
_publ_section_title
;
Structure prediction by ZEFSAII (Michael W. Deem and Ramdas Pophale) SiO2 
 PCOD9091945
Probable space group: P -1
;
_chemical_formula_sum "Si O2"
_cell_formula_units_Z 12
_cell_length_a 11.415998
_cell_length_b 18.318882
_cell_length_c 9.413931
_cell_angle_alpha 34.352931
_cell_angle_beta 35.569720
_cell_angle_gamma 25.986412
_cell_volume 466.083541
_symmetry_space_group_name_H-M "P -1"
_symmetry_group_IT_number 2
_symmetry_cell_setting 'triclinic'
loop_
_space_group_symop_operation_xyz
x,y,z
-x,-y,-z
loop_
_atom_site_type_symbol
_atom_site_label
_atom_site_fract_x
_atom_site_fract_y
_atom_site_fract_z
Si Si1 0.696674 0.265508 0.137471
Si Si2 0.732012 0.946571 0.135756
Si Si3 0.900309 0.485716 0.767995
Si Si4 0.945765 0.412946 0.308001
Si Si5 0.239314 0.021434 0.611915
Si Si6 0.515273 0.751948 0.330127
O O1 0.404144 0.440619 0.075231
O O2 0.633488 0.234639 0.404029
O O3 0.823833 0.093549 0.191853
O O4 0.960121 0.243285 0.901285
O O5 0.696703 0.009231 0.233587
O O6 0.484068 0.953302 0.370648
O O7 0.664053 0.082770 0.864418
O O8 0.000000 0.500000 0.500000
O O9 0.856458 0.625771 0.696053
O O10 0.192548 0.299612 0.841460
O O11 0.635606 0.573417 0.414397
O O12 0.016138 0.237574 0.473492
O O13 0.000000 0.500000 0.000000
#
# Coordination Sequence:
#
# PCOD9091945 Si02
#       6
#     2   2   2   2   2   2
#     4  11  22  39  67  95 121 161 212 254 300 369
#     4  11  22  40  65  94 125 160 205 260 304 362
#     4   8  17  34  61  86 115 165 195 236 309 358
#     4  10  19  40  64  85 122 171 199 246 311 367
#     4  11  23  39  66  92 124 165 205 250 314 366
#     4   9  21  40  65  86 129 167 195 257 316 352
#
# _framework density 25.746456999999999
#
# number of rings (size 3 to 8) (size 9 to 14) (size 15 to 20)
#    1.000    1.000    1.667    3.000    0.000    0.667 
#    0.000    1.667    3.667    3.000    0.000    0.000 
#    0.000    0.000    0.000    0.000    0.000    0.000 
#
# Total GULP energy -67019.466497 kJ/mol
# GULP energy per Si atom -5584.955541 kJ/mol
# Density = 2.568786 g / cm^3
# Si number density = 25.746457 Si / 1000 Ang^3
#
#
#
# Elastic Constant Matrix: (Units=GPa)
#
#
# Indices 1 2 3 4 5 6 
#
# 1 70.5101 45.8934 43.6881 -0.1646 20.0467 -10.7230
# 2 45.8934 142.1609 40.8500 18.5663 -4.1714 -8.6349
# 3 43.6881 40.8500 108.3698 16.7579 13.4322 -1.6979
# 4 -0.1646 18.5663 16.7579 53.2387 -5.5042 -4.0514
# 5 20.0467 -4.1714 13.4322 -5.5042 34.0433 7.9541
# 6 -10.7230 -8.6349 -1.6979 -4.0514 7.9541 48.2857
#
#
#
# Elastic Compliance Matrix: (Units=1/GPa)
#
#
# Indices 1 2 3 4 5 6 
#
# 1 0.030260 -0.008156 -0.007522 0.004160 -0.017084 0.008160
# 2 -0.008156 0.010433 -0.001018 -0.002785 0.006326 -0.001257
# 3 -0.007522 -0.001018 0.013423 -0.004144 -0.001308 -0.001513
# 4 0.004160 -0.002785 -0.004144 0.021402 0.001892 0.001764
# 5 -0.017084 0.006326 -0.001308 0.001892 0.043294 -0.009682
# 6 0.008160 -0.001257 -0.001513 0.001764 -0.009682 0.023987
#
#
# Mechanical properties :
#
#
# Convention : Reuss Voigt Hill
#
# Bulk Modulus (GPa) = 48.25567 64.65598 56.45582
# Shear Modulus (GPa) = 27.30781 39.82080 33.56431
#
# Velocity S-wave (km/s) = 3.26029 3.93702 3.61452
# Velocity P-wave (km/s) = 5.74073 6.77007 6.27654
#
# Compressibility (1/GPa) = 0.02072295
#
# Stress axis : x y z
#
# Youngs Moduli (GPa) = 33.04730 95.85249 74.49857
#
# Poissons Ratio (x) = 0.78178 0.56041
# Poissons Ratio (y) = 0.26954 0.07582
# Poissons Ratio (z) = 0.24860 0.09755
#
# Static dielectric constant tensor:
#      x y z
#    x 2.145170 0.004360 -0.108820 
#    y 0.004360 2.090720 -0.065170 
#    z -0.108820 -0.065170 2.067600 
# 
# From -- ./inp_files/457587.got.cif
#   From: 2010.05.17/outbox.cif.g08.bks.cpg/sg2_229_cif.got.tgz:457587.got - 2010.06.03 11:33:40.
