data_PCOD9091496
_publ_section_title
;
Structure prediction by ZEFSAII (Michael W. Deem and Ramdas Pophale) SiO2 
 PCOD9091496
Probable space group: P -1
;
_chemical_formula_sum "Si O2"
_cell_formula_units_Z 14
_cell_length_a 10.369504
_cell_length_b 11.707378
_cell_length_c 8.043925
_cell_angle_alpha 139.220301
_cell_angle_beta 66.026550
_cell_angle_gamma 105.775955
_cell_volume 581.751206
_symmetry_space_group_name_H-M "P -1"
_symmetry_group_IT_number 2
_symmetry_cell_setting 'triclinic'
loop_
_space_group_symop_operation_xyz
x,y,z
-x,-y,-z
loop_
_atom_site_type_symbol
_atom_site_label
_atom_site_fract_x
_atom_site_fract_y
_atom_site_fract_z
Si Si1 0.753811 0.765357 0.086773
Si Si2 0.657961 0.243150 0.436039
Si Si3 0.900695 0.080933 0.497627
Si Si4 0.545005 0.595116 0.785156
Si Si5 0.414018 0.175001 0.296592
Si Si6 0.251567 0.578561 0.083787
Si Si7 0.155026 0.097254 0.151466
O O1 0.602216 0.724682 0.040230
O O2 0.795155 0.599646 0.002628
O O3 0.838363 0.784120 0.887032
O O4 0.779964 0.944982 0.369147
O O5 0.656525 0.427947 0.544009
O O6 0.493446 0.197919 0.454490
O O7 0.699980 0.298438 0.656318
O O8 0.761947 0.087938 0.141978
O O9 0.855357 0.280669 0.793290
O O10 0.000000 0.000000 0.500000
O O11 0.998688 0.086314 0.288393
O O12 0.541884 0.687126 0.712609
O O13 0.389834 0.543072 0.860993
O O14 0.249177 0.164603 0.331582
O O15 0.500000 0.000000 0.000000
#
# Coordination Sequence:
#
# PCOD9091496 Si02
#       7
#     2   2   2   2   2   2   2
#     4  10  22  46  67  96 125 172 220 258 324 380
#     4  10  19  39  66  95 128 164 207 269 317 370
#     4  12  28  45  64  92 132 176 215 269 318 377
#     4  10  22  41  64 103 132 158 215 268 325 382
#     4   9  20  37  64  97 125 171 211 261 322 371
#     4  11  25  43  67  98 131 169 212 266 326 381
#     4  10  22  43  65  95 131 170 221 253 314 393
#
# _framework density 24.065270000000002
#
# number of rings (size 3 to 8) (size 9 to 14) (size 15 to 20)
#    0.000    1.714    1.429    2.571    4.000    4.000 
#   10.286    0.000    0.000    0.000    0.000    0.000 
#    0.000    0.000    0.000    0.000    0.000    0.000 
#
# Total GULP energy -78115.558182 kJ/mol
# GULP energy per Si atom -5579.682727 kJ/mol
# Density = 2.401050 g / cm^3
# Si number density = 24.065270 Si / 1000 Ang^3
#
#
#
# Elastic Constant Matrix: (Units=GPa)
#
#
# Indices 1 2 3 4 5 6 
#
# 1 58.3625 23.2727 3.6147 14.5219 -8.7779 0.0647
# 2 23.2727 150.6818 50.2932 26.3775 -29.4307 -2.7868
# 3 3.6147 50.2932 86.9595 14.9171 -20.9053 2.1287
# 4 14.5219 26.3775 14.9171 36.2564 -5.4075 -2.6503
# 5 -8.7779 -29.4307 -20.9053 -5.4075 40.0802 0.0479
# 6 0.0647 -2.7868 2.1287 -2.6503 0.0479 40.8722
#
#
#
# Elastic Compliance Matrix: (Units=1/GPa)
#
#
# Indices 1 2 3 4 5 6 
#
# 1 0.020041 -0.002030 0.002336 -0.007095 0.003161 -0.000756
# 2 -0.002030 0.009780 -0.003894 -0.004035 0.004161 0.000606
# 3 0.002336 -0.003894 0.015615 -0.003837 0.005281 -0.001338
# 4 -0.007095 -0.004035 -0.003837 0.034827 -0.001822 0.002196
# 5 0.003161 0.004161 0.005281 -0.001822 0.031206 -0.000151
# 6 -0.000756 0.000606 -0.001338 0.002196 -0.000151 0.024721
#
#
# Mechanical properties :
#
#
# Convention : Reuss Voigt Hill
#
# Bulk Modulus (GPa) = 26.13644 50.04055 38.08849
# Shear Modulus (GPa) = 32.02695 38.02999 35.02847
#
# Velocity S-wave (km/s) = 3.65202 3.97959 3.81932
# Velocity P-wave (km/s) = 5.35418 6.47727 5.94232
#
# Compressibility (1/GPa) = 0.03826076
#
# Stress axis : x y z
#
# Youngs Moduli (GPa) = 49.89856 102.24947 64.03978
#
# Poissons Ratio (x) = 0.20752 -0.14962
# Poissons Ratio (y) = 0.10127 0.24939
# Poissons Ratio (z) = -0.11658 0.39820
#
# Static dielectric constant tensor:
#      x y z
#    x 2.018520 -0.007370 0.091250 
#    y -0.007370 1.930340 0.044240 
#    z 0.091250 0.044240 2.051320 
# 
# From -- ./inp_files/260825.got.cif
#   From: 2010.05.17/outbox.cif.g08.bks.cpg/sg2_131_cif.got.tgz:260825.got - 2010.06.03 11:33:40.
