data_PCOD9091120
_publ_section_title
;
Structure prediction by ZEFSAII (Michael W. Deem and Ramdas Pophale) SiO2 
 PCOD9091120
Probable space group: P -1
;
_chemical_formula_sum "Si O2"
_cell_formula_units_Z 16
_cell_length_a 13.827099
_cell_length_b 9.056210
_cell_length_c 12.184097
_cell_angle_alpha 141.456465
_cell_angle_beta 47.009642
_cell_angle_gamma 134.596594
_cell_volume 645.950246
_symmetry_space_group_name_H-M "P -1"
_symmetry_group_IT_number 2
_symmetry_cell_setting 'triclinic'
loop_
_space_group_symop_operation_xyz
x,y,z
-x,-y,-z
loop_
_atom_site_type_symbol
_atom_site_label
_atom_site_fract_x
_atom_site_fract_y
_atom_site_fract_z
Si Si1 0.199958 0.087761 0.763138
Si Si2 0.093903 0.362380 0.650724
Si Si3 0.787543 0.030531 0.075052
Si Si4 0.481277 0.575011 0.797378
Si Si5 0.375697 0.244506 0.407467
Si Si6 0.949858 0.982190 0.720260
Si Si7 0.365452 0.739512 0.429362
Si Si8 0.456757 0.825375 0.186853
O O1 0.333061 0.333134 0.758746
O O2 0.177784 0.106840 0.923579
O O3 0.235416 0.830202 0.585590
O O4 0.073427 0.052663 0.757103
O O5 0.129500 0.662969 0.804926
O O6 0.228539 0.286142 0.536915
O O7 0.055166 0.247509 0.490977
O O8 0.975350 0.210768 0.745105
O O9 0.620537 0.981702 0.181513
O O10 0.817660 0.937464 0.878126
O O11 0.547539 0.796207 0.786706
O O12 0.606261 0.458657 0.628807
O O13 0.457613 0.681719 0.992598
O O14 0.500000 0.500000 0.500000
O O15 0.368897 0.009048 0.350416
O O16 0.385617 0.645065 0.238284
O O17 0.500000 0.000000 0.500000
#
# Coordination Sequence:
#
# PCOD9091120 Si02
#       8
#     2   2   2   2   2   2   2   2
#     4  11  24  44  67  97 137 177 221 267 329 404
#     4  11  25  48  71  96 131 178 229 277 333 392
#     4  12  24  44  69 100 136 175 224 276 329 399
#     4  11  23  39  63 105 135 168 210 274 342 392
#     4  12  22  41  70  96 132 166 215 278 339 395
#     4  11  26  48  68  93 135 182 230 274 324 392
#     4  10  19  39  63  92 130 170 209 264 332 390
#     4  12  23  39  65 103 134 166 213 275 341 393
#
# _framework density 24.769708999999999
#
# number of rings (size 3 to 8) (size 9 to 14) (size 15 to 20)
#    0.000    0.750    3.750    6.000    0.000    0.500 
#    6.750    0.000    0.000    0.000    0.000    0.000 
#    0.000    0.000    0.000    0.000    0.000    0.000 
#
# Total GULP energy -89463.008525 kJ/mol
# GULP energy per Si atom -5591.438033 kJ/mol
# Density = 2.471333 g / cm^3
# Si number density = 24.769709 Si / 1000 Ang^3
#
#
#
# Elastic Constant Matrix: (Units=GPa)
#
#
# Indices 1 2 3 4 5 6 
#
# 1 76.6261 10.0097 11.3008 -0.1041 10.3334 -7.6524
# 2 10.0097 100.1059 14.7106 -15.8314 5.0510 -10.6986
# 3 11.3008 14.7106 91.7801 -24.8963 25.9338 -10.7317
# 4 -0.1041 -15.8314 -24.8963 51.4364 -7.1970 7.1763
# 5 10.3334 5.0510 25.9338 -7.1970 37.0243 -2.9614
# 6 -7.6524 -10.6986 -10.7317 7.1763 -2.9614 26.0878
#
#
#
# Elastic Compliance Matrix: (Units=1/GPa)
#
#
# Indices 1 2 3 4 5 6 
#
# 1 0.014078 -0.001016 -0.000629 -0.001548 -0.003371 0.003497
# 2 -0.001016 0.010936 -0.000506 0.002656 -0.000078 0.003239
# 3 -0.000629 -0.000506 0.015614 0.005617 -0.009326 0.003427
# 4 -0.001548 0.002656 0.005617 0.023520 0.000429 -0.003475
# 5 -0.003371 -0.000078 -0.009326 0.000429 0.034492 -0.001060
# 6 0.003497 0.003239 0.003427 -0.003475 -0.001060 0.042932
#
#
# Mechanical properties :
#
#
# Convention : Reuss Voigt Hill
#
# Bulk Modulus (GPa) = 27.53018 37.83940 32.68479
# Shear Modulus (GPa) = 31.64927 38.40909 35.02918
#
# Velocity S-wave (km/s) = 3.57843 3.94210 3.76466
# Velocity P-wave (km/s) = 5.31151 6.00249 5.66754
#
# Compressibility (1/GPa) = 0.03632377
#
# Stress axis : x y z
#
# Youngs Moduli (GPa) = 71.03459 91.44490 64.04545
#
# Poissons Ratio (x) = 0.09293 0.04029
# Poissons Ratio (y) = 0.07219 0.03243
# Poissons Ratio (z) = 0.04468 0.04631
#
# Static dielectric constant tensor:
#      x y z
#    x 2.007230 -0.016630 0.068460 
#    y -0.016630 1.985230 -0.068160 
#    z 0.068460 -0.068160 2.003740 
# 
# From -- ./inp_files/448310.got.cif
#   From: 2010.05.17/outbox.cif.g08.bks.cpg/sg2_225_cif.got.tgz:448310.got - 2010.06.03 11:33:40.
