data_PCOD9091743
_publ_section_title
;
Structure prediction by ZEFSAII (Michael W. Deem and Ramdas Pophale) SiO2 
 PCOD9091743
Probable space group: P -1
;
_chemical_formula_sum "Si O2"
_cell_formula_units_Z 12
_cell_length_a 8.952047
_cell_length_b 11.597539
_cell_length_c 16.818836
_cell_angle_alpha 26.988256
_cell_angle_beta 49.947220
_cell_angle_gamma 37.672928
_cell_volume 472.105482
_symmetry_space_group_name_H-M "P -1"
_symmetry_group_IT_number 2
_symmetry_cell_setting 'triclinic'
loop_
_space_group_symop_operation_xyz
x,y,z
-x,-y,-z
loop_
_atom_site_type_symbol
_atom_site_label
_atom_site_fract_x
_atom_site_fract_y
_atom_site_fract_z
Si Si1 0.145030 0.095465 0.843337
Si Si2 0.242443 0.857261 0.345370
Si Si3 0.927609 0.409993 0.332815
Si Si4 0.604470 0.866104 0.752554
Si Si5 0.633450 0.683335 0.590890
Si Si6 0.486612 0.710719 0.192870
O O1 0.232384 0.240762 0.785363
O O2 0.400256 0.827011 0.874171
O O3 0.929226 0.416349 0.669669
O O4 0.000000 0.000000 0.000000
O O5 0.500000 0.500000 0.500000
O O6 0.028422 0.846975 0.459708
O O7 0.264481 0.098085 0.239858
O O8 0.260417 0.864643 0.240094
O O9 0.754310 0.425122 0.316513
O O10 0.161067 0.368598 0.241557
O O11 0.437408 0.184422 0.556586
O O12 0.547221 0.457579 0.763989
O O13 0.500000 0.000000 0.500000
O O14 0.500000 0.000000 0.000000
#
# Coordination Sequence:
#
# PCOD9091743 Si02
#       6
#     2   2   2   2   2   2
#     4  12  26  45  68 102 149 186 230 296 364 419
#     4  10  19  39  72  96 126 180 236 283 335 413
#     4  11  22  44  72 100 135 185 243 291 341 431
#     4  12  23  44  73 100 137 189 241 287 352 425
#     4  12  25  44  70 108 143 184 239 292 350 431
#     4  11  23  45  73 104 142 186 236 298 358 413
#
# _framework density 25.418050000000001
#
# number of rings (size 3 to 8) (size 9 to 14) (size 15 to 20)
#    0.000    0.667    8.333    2.000    0.000    0.667 
#    0.000    2.500    0.000    0.000    0.000    0.000 
#    0.000    0.000    0.000    0.000    0.000    0.000 
#
# Total GULP energy -66951.369845 kJ/mol
# GULP energy per Si atom -5579.280820 kJ/mol
# Density = 2.536020 g / cm^3
# Si number density = 25.418050 Si / 1000 Ang^3
#
#
#
# Elastic Constant Matrix: (Units=GPa)
#
#
# Indices 1 2 3 4 5 6 
#
# 1 111.7011 32.3411 24.4517 -2.2272 -22.6200 5.1839
# 2 32.3411 158.6796 52.6604 21.7270 -30.1638 -8.9155
# 3 24.4517 52.6604 80.5662 23.6726 -34.3303 7.5505
# 4 -2.2272 21.7270 23.6726 36.1229 -7.2139 -16.4662
# 5 -22.6200 -30.1638 -34.3303 -7.2139 41.3748 -3.8754
# 6 5.1839 -8.9155 7.5505 -16.4662 -3.8754 40.4184
#
#
#
# Elastic Compliance Matrix: (Units=1/GPa)
#
#
# Indices 1 2 3 4 5 6 
#
# 1 0.010578 -0.001258 -0.001774 0.003650 0.004084 0.000576
# 2 -0.001258 0.008693 -0.004493 -0.000646 0.002076 0.002854
# 3 -0.001774 -0.004493 0.029385 -0.019305 0.015588 -0.012623
# 4 0.003650 -0.000646 -0.019305 0.050942 -0.003418 0.023421
# 5 0.004084 0.002076 0.015588 -0.003418 0.040206 -0.000515
# 6 0.000576 0.002854 -0.012623 0.023421 -0.000515 0.037147
#
#
# Mechanical properties :
#
#
# Convention : Reuss Voigt Hill
#
# Bulk Modulus (GPa) = 29.75693 63.31703 46.53698
# Shear Modulus (GPa) = 24.60586 39.68280 32.14433
#
# Velocity S-wave (km/s) = 3.11472 3.95550 3.56002
# Velocity P-wave (km/s) = 4.96666 6.76946 5.93689
#
# Compressibility (1/GPa) = 0.03360562
#
# Stress axis : x y z
#
# Youngs Moduli (GPa) = 94.53377 115.03433 34.03101
#
# Poissons Ratio (x) = 0.14474 0.06037
# Poissons Ratio (y) = 0.11895 0.15290
# Poissons Ratio (z) = 0.16770 0.51685
#
# Static dielectric constant tensor:
#      x y z
#    x 2.049430 -0.007810 0.028440 
#    y -0.007810 2.055340 0.055660 
#    z 0.028440 0.055660 2.102260 
# 
# From -- ./inp_files/559484.got.cif
#   From: 2010.05.17/outbox.cif.g08.bks.cpg/sg2_280_cif.got.tgz:559484.got - 2010.06.03 11:33:40.
