data_PCOD9091794
_publ_section_title
;
Structure prediction by ZEFSAII (Michael W. Deem and Ramdas Pophale) SiO2 
 PCOD9091794
Probable space group: P -1
;
_chemical_formula_sum "Si O2"
_cell_formula_units_Z 16
_cell_length_a 7.624407
_cell_length_b 17.469072
_cell_length_c 5.285186
_cell_angle_alpha 101.838933
_cell_angle_beta 64.463392
_cell_angle_gamma 104.659646
_cell_volume 610.763520
_symmetry_space_group_name_H-M "P -1"
_symmetry_group_IT_number 2
_symmetry_cell_setting 'triclinic'
loop_
_space_group_symop_operation_xyz
x,y,z
-x,-y,-z
loop_
_atom_site_type_symbol
_atom_site_label
_atom_site_fract_x
_atom_site_fract_y
_atom_site_fract_z
Si Si1 0.549237 0.172865 0.843939
Si Si2 0.165621 0.221010 0.147170
Si Si3 0.804939 0.341239 0.762057
Si Si4 0.946475 0.634642 0.893007
Si Si5 0.243994 0.970457 0.568496
Si Si6 0.212813 0.867415 0.911731
Si Si7 0.626336 0.488286 0.157981
Si Si8 0.864433 0.889006 0.513265
O O1 0.658594 0.258863 0.741555
O O2 0.634365 0.095836 0.651085
O O3 0.323150 0.171059 0.903015
O O4 0.615161 0.170008 0.096214
O O5 0.201238 0.310485 0.090487
O O6 0.208389 0.199287 0.394087
O O7 0.930298 0.192032 0.230138
O O8 0.916648 0.373334 0.448846
O O9 0.691385 0.403721 0.015306
O O10 0.946349 0.323552 0.893775
O O11 0.825717 0.553896 0.034919
O O12 0.286896 0.956920 0.824703
O O13 0.004700 0.940348 0.675850
O O14 0.273733 0.053552 0.466315
O O15 0.038841 0.878083 0.213615
O O16 0.500000 0.500000 0.500000
O O17 0.500000 0.500000 0.000000
#
# Coordination Sequence:
#
# PCOD9091794 Si02
#       8
#     2   2   2   2   2   2   2   2
#     4  11  24  40  63  96 133 180 234 295 356 423
#     4  11  24  40  63  96 133 180 234 295 356 423
#     4  12  25  47  75 104 146 197 241 291 359 436
#     4  12  25  47  75 104 146 197 241 291 359 436
#     4   9  19  37  62  90 127 174 230 290 358 426
#     4  10  19  40  60  89 126 174 230 287 364 420
#     4  12  26  48  74 116 150 184 238 297 355 430
#     4   9  19  37  62  90 127 174 230 290 358 426
#
# _framework density 26.196718000000001
#
# number of rings (size 3 to 8) (size 9 to 14) (size 15 to 20)
#    0.000    1.250    1.250    5.625    0.000    2.500 
#    0.000    1.250    0.000    0.000    0.000    0.000 
#    0.000    0.000    0.000    0.000    0.000    0.000 
#
# Total GULP energy -89147.394429 kJ/mol
# GULP energy per Si atom -5571.712152 kJ/mol
# Density = 2.613709 g / cm^3
# Si number density = 26.196718 Si / 1000 Ang^3
#
#
#
# Elastic Constant Matrix: (Units=GPa)
#
#
# Indices 1 2 3 4 5 6 
#
# 1 114.6674 34.4178 37.2519 1.7097 -19.2516 -18.0428
# 2 34.4178 149.5318 61.0383 -2.6613 -24.7163 -31.3184
# 3 37.2519 61.0383 155.0438 -1.7492 -10.1686 -8.8651
# 4 1.7097 -2.6613 -1.7492 46.7619 -11.0001 -9.2391
# 5 -19.2516 -24.7163 -10.1686 -11.0001 28.4642 2.2782
# 6 -18.0428 -31.3184 -8.8651 -9.2391 2.2782 49.7081
#
#
#
# Elastic Compliance Matrix: (Units=1/GPa)
#
#
# Indices 1 2 3 4 5 6 
#
# 1 0.011157 0.000429 -0.002094 0.002132 0.007675 0.003991
# 2 0.000429 0.011101 -0.003393 0.004144 0.009769 0.006867
# 3 -0.002094 -0.003393 0.008099 -0.000464 -0.001531 -0.001470
# 4 0.002132 0.004144 -0.000464 0.026424 0.014482 0.007550
# 5 0.007675 0.009769 -0.001531 0.014482 0.053141 0.008924
# 6 0.003991 0.006867 -0.001470 0.007550 0.008924 0.026625
#
#
# Mechanical properties :
#
#
# Convention : Reuss Voigt Hill
#
# Bulk Modulus (GPa) = 49.40474 76.07320 62.73897
# Shear Modulus (GPa) = 32.59257 44.08917 38.34087
#
# Velocity S-wave (km/s) = 3.53107 4.10689 3.82982
# Velocity P-wave (km/s) = 5.96026 7.18269 6.59984
#
# Compressibility (1/GPa) = 0.02024097
#
# Stress axis : x y z
#
# Youngs Moduli (GPa) = 89.62848 90.08602 123.47097
#
# Poissons Ratio (x) = -0.03868 0.25855
# Poissons Ratio (y) = -0.03848 0.41896
# Poissons Ratio (z) = 0.18769 0.30568
#
# Static dielectric constant tensor:
#      x y z
#    x 2.245820 0.094860 0.131410 
#    y 0.094860 2.188090 0.001850 
#    z 0.131410 0.001850 2.356730 
# 
# From -- ./inp_files/47742.got.cif
#   From: 2010.05.17/outbox.cif.g08.bks.cpg/sg2_24_cif.got.tgz:47742.got - 2010.06.03 11:33:40.
