data_PCOD9091850
_publ_section_title
;
Structure prediction by ZEFSAII (Michael W. Deem and Ramdas Pophale) SiO2 
 PCOD9091850
Probable space group: P -1
;
_chemical_formula_sum "Si O2"
_cell_formula_units_Z 15
_cell_length_a 22.311662
_cell_length_b 8.808924
_cell_length_c 11.334114
_cell_angle_alpha 139.521484
_cell_angle_beta 155.555437
_cell_angle_gamma 46.490534
_cell_volume 598.345181
_symmetry_space_group_name_H-M "P -1"
_symmetry_group_IT_number 2
_symmetry_cell_setting 'triclinic'
loop_
_space_group_symop_operation_xyz
x,y,z
-x,-y,-z
loop_
_atom_site_type_symbol
_atom_site_label
_atom_site_fract_x
_atom_site_fract_y
_atom_site_fract_z
Si Si1 0.000000 0.500000 0.500000
Si Si2 0.023732 0.039914 0.905015
Si Si3 0.122811 0.923601 0.581380
Si Si4 0.779041 0.622231 0.889918
Si Si5 0.512676 0.763643 0.042156
Si Si6 0.452580 0.238423 0.618750
Si Si7 0.288713 0.872215 0.524680
Si Si8 0.890870 0.512923 0.578232
O O1 0.096629 0.498247 0.546905
O O2 0.059881 0.768626 0.795760
O O3 0.962165 0.119700 0.715559
O O4 0.877656 0.056361 0.731054
O O5 0.137402 0.235113 0.267789
O O6 0.194578 0.698824 0.635905
O O7 0.000000 0.000000 0.500000
O O8 0.217007 0.163093 0.884674
O O9 0.704977 0.711394 0.691086
O O10 0.699638 0.390708 0.661082
O O11 0.942026 0.537408 0.112853
O O12 0.535720 0.794055 0.239862
O O13 0.616233 0.934855 0.255489
O O14 0.532385 0.489287 0.883916
O O15 0.352838 0.833800 0.749196
O O16 0.500000 0.000000 0.500000
#
# Coordination Sequence:
#
# PCOD9091850 Si02
#       8
#     1   2   2   2   2   2   2   2
#     4  12  22  40  58  88 128 150 198 274 288 368
#     4  11  22  39  64  87 122 166 206 247 309 368
#     4  10  19  40  62  85 117 161 208 252 295 354
#     4   9  19  39  59  88 121 155 208 245 295 363
#     4   9  20  43  62  89 129 153 202 259 293 363
#     4  10  21  38  64  92 122 156 200 252 308 361
#     4   9  20  41  64  89 121 168 200 245 313 360
#     4  10  22  41  61  87 118 168 204 248 310 351
#
# _framework density 25.069143
#
# number of rings (size 3 to 8) (size 9 to 14) (size 15 to 20)
#    0.000    2.133    2.667    0.800    1.867    0.000 
#    9.600    3.333    0.000    0.000    0.000    0.000 
#    0.000    0.000    0.000    0.000    0.000    0.000 
#
# Total GULP energy -83575.617869 kJ/mol
# GULP energy per Si atom -5571.707858 kJ/mol
# Density = 2.501208 g / cm^3
# Si number density = 25.069143 Si / 1000 Ang^3
#
#
#
# Elastic Constant Matrix: (Units=GPa)
#
#
# Indices 1 2 3 4 5 6 
#
# 1 69.5700 42.5930 43.0869 30.6821 -19.4842 16.2873
# 2 42.5930 140.3339 73.8611 27.0030 -15.4746 0.8055
# 3 43.0869 73.8611 109.2667 42.6359 -29.2253 -13.4704
# 4 30.6821 27.0030 42.6359 80.3770 -13.9871 0.2278
# 5 -19.4842 -15.4746 -29.2253 -13.9871 40.8599 -0.8312
# 6 16.2873 0.8055 -13.4704 0.2278 -0.8312 36.5266
#
#
#
# Elastic Compliance Matrix: (Units=1/GPa)
#
#
# Indices 1 2 3 4 5 6 
#
# 1 0.027904 -0.002811 -0.007901 -0.004658 0.004688 -0.015158
# 2 -0.002811 0.011845 -0.008204 0.001032 -0.002412 -0.002095
# 3 -0.007901 -0.008204 0.023762 -0.005383 0.008537 0.012695
# 4 -0.004658 0.001032 -0.005383 0.016736 0.000048 -0.000034
# 5 0.004688 -0.002412 0.008537 0.000048 0.031956 0.001838
# 6 -0.015158 -0.002095 0.012695 -0.000034 0.001838 0.038906
#
#
# Mechanical properties :
#
#
# Convention : Reuss Voigt Hill
#
# Bulk Modulus (GPa) = 38.94246 70.91697 54.92971
# Shear Modulus (GPa) = 25.31645 42.19467 33.75556
#
# Velocity S-wave (km/s) = 3.18128 4.10705 3.67345
# Velocity P-wave (km/s) = 5.39090 7.13025 6.32069
#
# Compressibility (1/GPa) = 0.02567891
#
# Stress axis : x y z
#
# Youngs Moduli (GPa) = 35.83737 84.42718 42.08394
#
# Poissons Ratio (x) = 0.23729 0.33250
# Poissons Ratio (y) = 0.10072 0.34527
# Poissons Ratio (z) = 0.28315 0.69267
#
# Static dielectric constant tensor:
#      x y z
#    x 1.998200 0.033400 0.028340 
#    y 0.033400 2.124760 -0.023280 
#    z 0.028340 -0.023280 2.082360 
# 
# From -- ./inp_files/476295.got.cif
#   From: 2010.05.17/outbox.cif.g08.bks.cpg/sg2_239_cif.got.tgz:476295.got - 2010.06.03 11:33:40.
