data_PCOD9091977
_publ_section_title
;
Structure prediction by ZEFSAII (Michael W. Deem and Ramdas Pophale) SiO2 
 PCOD9091977
Probable space group: P -1
;
_chemical_formula_sum "Si O2"
_cell_formula_units_Z 16
_cell_length_a 8.635442
_cell_length_b 20.566303
_cell_length_c 24.781277
_cell_angle_alpha 21.891044
_cell_angle_beta 41.970891
_cell_angle_gamma 31.258480
_cell_volume 822.889214
_symmetry_space_group_name_H-M "P -1"
_symmetry_group_IT_number 2
_symmetry_cell_setting 'triclinic'
loop_
_space_group_symop_operation_xyz
x,y,z
-x,-y,-z
loop_
_atom_site_type_symbol
_atom_site_label
_atom_site_fract_x
_atom_site_fract_y
_atom_site_fract_z
Si Si1 0.488410 0.073795 0.618092
Si Si2 0.255570 0.071124 0.963559
Si Si3 0.522093 0.430562 0.110260
Si Si4 0.692012 0.134809 0.098295
Si Si5 0.721636 0.516173 0.708517
Si Si6 0.115504 0.911452 0.633339
Si Si7 0.828646 0.733227 0.694031
Si Si8 0.460379 0.291292 0.922608
O O1 0.326969 0.031456 0.735465
O O2 0.585683 0.912477 0.664801
O O3 0.804797 0.997416 0.619289
O O4 0.275611 0.334062 0.451033
O O5 0.024728 0.344137 0.798502
O O6 0.031663 0.026683 0.075771
O O7 0.500000 0.000000 0.000000
O O8 0.428668 0.916721 0.984651
O O9 0.833078 0.199326 0.235721
O O10 0.295217 0.377991 0.216909
O O11 0.500000 0.500000 0.000000
O O12 0.431050 0.645434 0.002322
O O13 0.477201 0.228557 0.028881
O O14 0.411458 0.702509 0.681271
O O15 0.684939 0.347224 0.819579
O O16 0.119143 0.120941 0.468437
O O17 0.135158 0.524939 0.806628
#
# Coordination Sequence:
#
# PCOD9091977 Si02
#       8
#     2   2   2   2   2   2   2   2
#     4  11  21  39  64  95 131 156 204 259 318 372
#     4  11  24  45  66  88 120 166 218 256 304 366
#     4  12  23  35  55  94 137 160 198 250 317 367
#     4  11  23  41  61  96 125 163 209 261 308 360
#     4  10  19  40  64  91 120 165 212 252 299 375
#     4  11  21  39  61  92 131 167 201 250 314 380
#     4  11  21  37  62  93 125 169 202 251 315 375
#     4  11  21  40  68  87 117 168 222 246 298 368
#
# _framework density 19.443684999999999
#
# number of rings (size 3 to 8) (size 9 to 14) (size 15 to 20)
#    0.000    1.000    6.250    3.375    1.750    1.000 
#    0.000    3.125    0.000    0.000    0.000    0.000 
#    0.000    0.000    0.000    0.000    0.000    0.000 
#
# Total GULP energy -89343.787178 kJ/mol
# GULP energy per Si atom -5583.986699 kJ/mol
# Density = 1.939943 g / cm^3
# Si number density = 19.443685 Si / 1000 Ang^3
#
#
#
# Elastic Constant Matrix: (Units=GPa)
#
#
# Indices 1 2 3 4 5 6 
#
# 1 117.8594 26.4379 54.8413 -5.9411 14.2792 3.4378
# 2 26.4379 28.6100 29.4990 0.2812 5.6313 13.0689
# 3 54.8413 29.4990 149.8002 17.9257 13.8270 -0.1406
# 4 -5.9411 0.2812 17.9257 26.3826 -3.8383 6.8194
# 5 14.2792 5.6313 13.8270 -3.8383 29.6395 -1.2089
# 6 3.4378 13.0689 -0.1406 6.8194 -1.2089 31.9360
#
#
#
# Elastic Compliance Matrix: (Units=1/GPa)
#
#
# Indices 1 2 3 4 5 6 
#
# 1 0.012260 -0.007994 -0.003242 0.004490 -0.002257 0.000893
# 2 -0.007994 0.069016 -0.011941 0.012942 -0.003251 -0.030321
# 3 -0.003242 -0.011941 0.011790 -0.010963 -0.002782 0.007523
# 4 0.004490 0.012942 -0.010963 0.051451 0.006479 -0.016569
# 5 -0.002257 -0.003251 -0.002782 0.006479 0.037646 0.001603
# 6 0.000893 -0.030321 0.007523 -0.016569 0.001603 0.047256
#
#
# Mechanical properties :
#
#
# Convention : Reuss Voigt Hill
#
# Bulk Modulus (GPa) = 21.40854 57.53624 39.47239
# Shear Modulus (GPa) = 17.16179 29.95770 23.55974
#
# Velocity S-wave (km/s) = 2.97415 3.92949 3.48471
# Velocity P-wave (km/s) = 4.77792 7.08825 6.04449
#
# Compressibility (1/GPa) = 0.04671033
#
# Stress axis : x y z
#
# Youngs Moduli (GPa) = 81.56345 14.48946 84.81983
#
# Poissons Ratio (x) = 0.11583 0.27501
# Poissons Ratio (y) = 0.65205 1.01284
# Poissons Ratio (z) = 0.26445 0.17302
#
# Static dielectric constant tensor:
#      x y z
#    x 1.718780 0.004350 0.020030 
#    y 0.004350 1.693380 0.005730 
#    z 0.020030 0.005730 1.698730 
# 
# From -- ./inp_files/212784.got.cif
#   From: 2010.05.17/outbox.cif.g08.bks.cpg/sg2_107_cif.got.tgz:212784.got - 2010.06.03 11:33:40.
