data_PCOD9091020
_publ_section_title
;
Structure prediction by ZEFSAII (Michael W. Deem and Ramdas Pophale) SiO2 
 PCOD9091020
Probable space group: P -1
;
_chemical_formula_sum "Si O2"
_cell_formula_units_Z 13
_cell_length_a 7.974564
_cell_length_b 21.932159
_cell_length_c 10.437450
_cell_angle_alpha 148.861658
_cell_angle_beta 136.100349
_cell_angle_gamma 36.378054
_cell_volume 556.935537
_symmetry_space_group_name_H-M "P -1"
_symmetry_group_IT_number 2
_symmetry_cell_setting 'triclinic'
loop_
_space_group_symop_operation_xyz
x,y,z
-x,-y,-z
loop_
_atom_site_type_symbol
_atom_site_label
_atom_site_fract_x
_atom_site_fract_y
_atom_site_fract_z
Si Si1 0.747245 0.535035 0.210656
Si Si2 0.000000 0.500000 0.000000
Si Si3 0.279157 0.007229 0.161430
Si Si4 0.542539 0.819077 0.302361
Si Si5 0.695371 0.171259 0.527514
Si Si6 0.975645 0.875308 0.016261
Si Si7 0.889260 0.748874 0.984442
O O1 0.568276 0.695020 0.444588
O O2 0.864926 0.533901 0.133202
O O3 0.500000 0.500000 0.000000
O O4 0.992937 0.410975 0.206534
O O5 0.801250 0.664583 0.150765
O O6 0.339387 0.079169 0.441046
O O7 0.557407 0.859717 0.018483
O O8 0.192635 0.112944 0.183063
O O9 0.000000 0.000000 0.000000
O O10 0.386472 0.841655 0.395060
O O11 0.295193 0.841477 0.109670
O O12 0.949223 0.201350 0.740446
O O13 0.805459 0.028548 0.259530
O O14 0.982663 0.768380 0.929985
#
# Coordination Sequence:
#
# PCOD9091020 Si02
#       7
#     2   1   2   2   2   2   2
#     4   9  20  36  65  97 126 164 225 264 324 396
#     4  10  22  40  72  90 130 180 208 276 336 372
#     4  12  26  37  59 101 136 167 215 267 325 398
#     4  10  21  42  65  95 124 172 219 267 323 393
#     4   9  17  38  69  93 117 172 218 269 318 382
#     4  11  21  40  71  88 123 178 214 271 334 362
#     4  10  19  39  62  93 127 162 223 270 308 393
#
# _framework density 23.342017999999999
#
# number of rings (size 3 to 8) (size 9 to 14) (size 15 to 20)
#    0.000    1.846    3.077    2.308    2.154    3.077 
#    0.000    1.538    0.000    0.000    0.000    0.000 
#    0.000    0.000    0.000    0.000    0.000    0.000 
#
# Total GULP energy -72448.764598 kJ/mol
# GULP energy per Si atom -5572.981892 kJ/mol
# Density = 2.328889 g / cm^3
# Si number density = 23.342018 Si / 1000 Ang^3
#
#
#
# Elastic Constant Matrix: (Units=GPa)
#
#
# Indices 1 2 3 4 5 6 
#
# 1 61.1314 34.8963 9.3515 -1.6777 10.9708 -0.4808
# 2 34.8963 170.6084 43.1191 5.6082 13.6528 8.7093
# 3 9.3515 43.1191 54.2346 -7.6516 5.1859 -6.4252
# 4 -1.6777 5.6082 -7.6516 40.5902 -1.8073 5.7401
# 5 10.9708 13.6528 5.1859 -1.8073 27.9907 -3.1110
# 6 -0.4808 8.7093 -6.4252 5.7401 -3.1110 42.4723
#
#
#
# Elastic Compliance Matrix: (Units=1/GPa)
#
#
# Indices 1 2 3 4 5 6 
#
# 1 0.019468 -0.003652 0.000301 0.001045 -0.005787 0.000450
# 2 -0.003652 0.008682 -0.006726 -0.002330 -0.002004 -0.002671
# 3 0.000301 -0.006726 0.025029 0.005002 -0.000657 0.004445
# 4 0.001045 -0.002330 0.005002 0.026314 0.001253 -0.002218
# 5 -0.005787 -0.002004 -0.000657 0.001253 0.039505 0.002970
# 6 0.000450 -0.002671 0.004445 -0.002218 0.002970 0.025287
#
#
# Mechanical properties :
#
#
# Convention : Reuss Voigt Hill
#
# Bulk Modulus (GPa) = 30.28103 51.18982 40.73542
# Shear Modulus (GPa) = 28.49854 35.45114 31.97484
#
# Velocity S-wave (km/s) = 3.49795 3.90137 3.70515
# Velocity P-wave (km/s) = 5.41434 6.50170 5.98278
#
# Compressibility (1/GPa) = 0.03302398
#
# Stress axis : x y z
#
# Youngs Moduli (GPa) = 51.36691 115.18528 39.95324
#
# Poissons Ratio (x) = 0.42068 -0.01202
# Poissons Ratio (y) = 0.18760 0.26873
# Poissons Ratio (z) = -0.01546 0.77475
#
# Static dielectric constant tensor:
#      x y z
#    x 1.951690 0.054780 0.044780 
#    y 0.054780 1.905230 -0.029300 
#    z 0.044780 -0.029300 1.854680 
# 
# From -- ./inp_files/406433.got.cif
#   From: 2010.05.17/outbox.cif.g08.bks.cpg/sg2_204_cif.got.tgz:406433.got - 2010.06.03 11:33:40.
