data_PCOD9091693
_publ_section_title
;
Structure prediction by ZEFSAII (Michael W. Deem and Ramdas Pophale) SiO2 
 PCOD9091693
Probable space group: P -1
;
_chemical_formula_sum "Si O2"
_cell_formula_units_Z 14
_cell_length_a 6.927793
_cell_length_b 17.233881
_cell_length_c 11.817376
_cell_angle_alpha 155.644146
_cell_angle_beta 106.038886
_cell_angle_gamma 71.569799
_cell_volume 551.770777
_symmetry_space_group_name_H-M "P -1"
_symmetry_group_IT_number 2
_symmetry_cell_setting 'triclinic'
loop_
_space_group_symop_operation_xyz
x,y,z
-x,-y,-z
loop_
_atom_site_type_symbol
_atom_site_label
_atom_site_fract_x
_atom_site_fract_y
_atom_site_fract_z
Si Si1 0.267289 0.085048 0.422202
Si Si2 0.413710 0.604955 0.402750
Si Si3 0.381308 0.855244 0.938122
Si Si4 0.773586 0.757553 0.014495
Si Si5 0.334970 0.856223 0.343695
Si Si6 0.870909 0.330285 0.759649
Si Si7 0.844967 0.397314 0.267153
O O1 0.432865 0.206461 0.658908
O O2 0.036145 0.159007 0.511137
O O3 0.332368 0.897412 0.264321
O O4 0.297620 0.053322 0.250956
O O5 0.363875 0.792851 0.723912
O O6 0.325564 0.648096 0.322253
O O7 0.653953 0.529968 0.353689
O O8 0.294595 0.434370 0.200490
O O9 0.259635 0.717533 0.807629
O O10 0.615055 0.813805 0.960746
O O11 0.200375 0.714678 0.187452
O O12 0.743905 0.937202 0.334581
O O13 0.997591 0.717339 0.947440
O O14 0.000000 0.500000 0.000000
O O15 0.000000 0.500000 0.500000
#
# Coordination Sequence:
#
# PCOD9091693 Si02
#       7
#     2   2   2   2   2   2   2
#     4  10  23  45  71  93 129 179 227 280 327 390
#     4  11  23  38  63 105 140 166 215 276 327 406
#     4  10  20  37  64 101 132 164 227 267 321 404
#     4  10  19  39  69  98 129 169 224 273 322 391
#     4  10  23  46  71  96 124 177 239 274 322 402
#     4  12  27  45  64  95 139 179 221 278 345 393
#     4  11  18  35  65  99 129 172 216 265 328 382
#
# _framework density 25.372854
#
# number of rings (size 3 to 8) (size 9 to 14) (size 15 to 20)
#    0.000    1.429    2.857    3.000    0.000    4.571 
#    0.000    2.857    0.000    0.000    0.000    0.000 
#    0.000    0.000    0.000    0.000    0.000    0.000 
#
# Total GULP energy -78349.268773 kJ/mol
# GULP energy per Si atom -5596.376341 kJ/mol
# Density = 2.531510 g / cm^3
# Si number density = 25.372854 Si / 1000 Ang^3
#
#
#
# Elastic Constant Matrix: (Units=GPa)
#
#
# Indices 1 2 3 4 5 6 
#
# 1 159.7197 32.3361 19.9370 -2.6438 6.7275 -20.8418
# 2 32.3361 68.8800 24.0029 -21.6981 3.4318 -9.4735
# 3 19.9370 24.0029 89.1342 -27.8366 -0.9812 9.8952
# 4 -2.6438 -21.6981 -27.8366 31.5598 2.6278 0.0423
# 5 6.7275 3.4318 -0.9812 2.6278 45.1950 -2.9197
# 6 -20.8418 -9.4735 9.8952 0.0423 -2.9197 41.5897
#
#
#
# Elastic Compliance Matrix: (Units=1/GPa)
#
#
# Indices 1 2 3 4 5 6 
#
# 1 0.007684 -0.003455 -0.002378 -0.003794 -0.000480 0.003600
# 2 -0.003455 0.021324 -0.001131 0.013511 -0.001704 0.003262
# 3 -0.002378 -0.001131 0.017080 0.014126 -0.000369 -0.005553
# 4 -0.003794 0.013511 0.014126 0.053405 -0.003420 -0.002479
# 5 -0.000480 -0.001704 -0.000369 -0.003420 0.022586 0.001048
# 6 0.003600 0.003262 -0.005553 -0.002479 0.001048 0.027989
#
#
# Mechanical properties :
#
#
# Convention : Reuss Voigt Hill
#
# Bulk Modulus (GPa) = 31.09467 52.25399 41.67433
# Shear Modulus (GPa) = 28.61801 39.76610 34.19205
#
# Velocity S-wave (km/s) = 3.36206 3.96317 3.67493
# Velocity P-wave (km/s) = 5.23001 6.44837 5.87088
#
# Compressibility (1/GPa) = 0.03215985
#
# Stress axis : x y z
#
# Youngs Moduli (GPa) = 130.13260 46.89620 58.54961
#
# Poissons Ratio (x) = 0.16202 0.13925
# Poissons Ratio (y) = 0.44960 0.06620
# Poissons Ratio (z) = 0.30949 0.05303
#
# Static dielectric constant tensor:
#      x y z
#    x 1.936660 -0.003440 0.024370 
#    y -0.003440 1.968740 0.045620 
#    z 0.024370 0.045620 2.181630 
# 
# From -- ./inp_files/356815.got.cif
#   From: 2010.05.17/outbox.cif.g08.bks.cpg/sg2_179_cif.got.tgz:356815.got - 2010.06.03 11:33:40.
