data_PCOD9091325
_publ_section_title
;
Structure prediction by ZEFSAII (Michael W. Deem and Ramdas Pophale) SiO2 
 PCOD9091325
Probable space group: P -1
;
_chemical_formula_sum "Si O2"
_cell_formula_units_Z 16
_cell_length_a 12.186162
_cell_length_b 12.701881
_cell_length_c 12.462657
_cell_angle_alpha 61.512323
_cell_angle_beta 140.553335
_cell_angle_gamma 88.100560
_cell_volume 748.779964
_symmetry_space_group_name_H-M "P -1"
_symmetry_group_IT_number 2
_symmetry_cell_setting 'triclinic'
loop_
_space_group_symop_operation_xyz
x,y,z
-x,-y,-z
loop_
_atom_site_type_symbol
_atom_site_label
_atom_site_fract_x
_atom_site_fract_y
_atom_site_fract_z
Si Si1 0.272708 0.908065 0.783298
Si Si2 0.771913 0.813659 0.757220
Si Si3 0.267450 0.697493 0.259532
Si Si4 0.440950 0.005120 0.700794
Si Si5 0.660113 0.525132 0.166119
Si Si6 0.737108 0.288098 0.496474
Si Si7 0.298070 0.347280 0.053617
Si Si8 0.240120 0.946402 0.990477
O O1 0.308016 0.017322 0.698243
O O2 0.469785 0.715094 0.979760
O O3 0.310992 0.897778 0.944153
O O4 0.000000 0.000000 0.500000
O O5 0.734963 0.833134 0.591671
O O6 0.825667 0.664307 0.936290
O O7 0.500000 0.000000 0.500000
O O8 0.003655 0.782805 0.973937
O O9 0.500000 0.500000 0.500000
O O10 0.239899 0.715231 0.357764
O O11 0.324320 0.796764 0.201836
O O12 0.658554 0.982837 0.915302
O O13 0.550086 0.835076 0.803066
O O14 0.783133 0.391603 0.421420
O O15 0.500000 0.500000 0.000000
O O16 0.819797 0.517301 0.200370
O O17 0.476696 0.356290 0.238499
O O18 0.943126 0.097301 0.697590
#
# Coordination Sequence:
#
# PCOD9091325 Si02
#       8
#     2   2   2   2   2   2   2   2
#     4  11  21  38  61  90 127 166 208 263 322 380
#     4  10  19  39  65  89 119 165 214 259 310 378
#     4  12  26  43  63  95 131 165 208 269 329 383
#     4  10  21  37  60  90 122 162 211 260 311 372
#     4   9  19  36  59  90 123 159 206 257 314 375
#     4  11  21  39  65  91 121 166 214 262 318 382
#     4   9  18  36  61  90 121 161 211 259 308 373
#     4  12  23  40  63  91 122 166 215 263 317 385
#
# _framework density 21.368092000000001
#
# number of rings (size 3 to 8) (size 9 to 14) (size 15 to 20)
#    0.000    1.500    0.000    8.250    0.000    0.000 
#    0.000   13.125    0.000    0.000    0.000    0.000 
#    0.000    0.000    0.000    0.000    0.000    0.000 
#
# Total GULP energy -89284.521276 kJ/mol
# GULP energy per Si atom -5580.282580 kJ/mol
# Density = 2.131946 g / cm^3
# Si number density = 21.368092 Si / 1000 Ang^3
#
#
#
# Elastic Constant Matrix: (Units=GPa)
#
#
# Indices 1 2 3 4 5 6 
#
# 1 150.0718 29.8634 43.2364 -1.8602 -57.6122 9.1892
# 2 29.8634 47.6087 23.5711 7.8900 -14.0593 -6.9609
# 3 43.2364 23.5711 61.2931 6.6669 -19.3955 -1.3108
# 4 -1.8602 7.8900 6.6669 37.1848 1.4818 -3.6732
# 5 -57.6122 -14.0593 -19.3955 1.4818 53.4907 4.4501
# 6 9.1892 -6.9609 -1.3108 -3.6732 4.4501 35.4148
#
#
#
# Elastic Compliance Matrix: (Units=1/GPa)
#
#
# Indices 1 2 3 4 5 6 
#
# 1 0.014157 -0.003824 -0.004658 0.001232 0.013027 -0.006106
# 2 -0.003824 0.028902 -0.007718 -0.004370 0.000310 0.005895
# 3 -0.004658 -0.007718 0.023351 -0.002834 0.001494 0.000074
# 4 0.001232 -0.004370 -0.002834 0.028651 -0.001802 0.001914
# 5 0.013027 0.000310 0.001494 -0.001802 0.034042 -0.007728
# 6 -0.006106 0.005895 0.000074 0.001914 -0.007728 0.032152
#
#
# Mechanical properties :
#
#
# Convention : Reuss Voigt Hill
#
# Bulk Modulus (GPa) = 29.40219 50.25727 39.82973
# Shear Modulus (GPa) = 24.39124 36.03826 30.21475
#
# Velocity S-wave (km/s) = 3.38224 4.11121 3.76442
# Velocity P-wave (km/s) = 5.38911 6.79021 6.12982
#
# Compressibility (1/GPa) = 0.03401107
#
# Stress axis : x y z
#
# Youngs Moduli (GPa) = 70.63759 34.59966 42.82392
#
# Poissons Ratio (x) = 0.13231 0.19947
# Poissons Ratio (y) = 0.27011 0.33050
# Poissons Ratio (z) = 0.32903 0.26703
#
# Static dielectric constant tensor:
#      x y z
#    x 1.807430 -0.010940 -0.026690 
#    y -0.010940 1.755960 -0.025310 
#    z -0.026690 -0.025310 1.887740 
# 
# From -- ./inp_files/432741.got.cif
#   From: 2010.05.17/outbox.cif.g08.bks.cpg/sg2_217_cif.got.tgz:432741.got - 2010.06.03 11:33:40.
