data_PCOD9091520
_publ_section_title
;
Structure prediction by ZEFSAII (Michael W. Deem and Ramdas Pophale) SiO2 
 PCOD9091520
Probable space group: P -1
;
_chemical_formula_sum "Si O2"
_cell_formula_units_Z 16
_cell_length_a 8.429025
_cell_length_b 12.720475
_cell_length_c 14.998707
_cell_angle_alpha 59.920823
_cell_angle_beta 67.185023
_cell_angle_gamma 119.343890
_cell_volume 658.809988
_symmetry_space_group_name_H-M "P -1"
_symmetry_group_IT_number 2
_symmetry_cell_setting 'triclinic'
loop_
_space_group_symop_operation_xyz
x,y,z
-x,-y,-z
loop_
_atom_site_type_symbol
_atom_site_label
_atom_site_fract_x
_atom_site_fract_y
_atom_site_fract_z
Si Si1 0.032661 0.875091 0.555591
Si Si2 0.919780 0.087285 0.003664
Si Si3 0.173970 0.701882 0.310399
Si Si4 0.237614 0.494296 0.115280
Si Si5 0.633587 0.487194 0.400687
Si Si6 0.850562 0.183827 0.157451
Si Si7 0.361263 0.051807 0.226089
Si Si8 0.567718 0.211384 0.448295
O O1 0.105721 0.886248 0.433510
O O2 0.352193 0.049564 0.476413
O O3 0.760627 0.621806 0.769890
O O4 0.000000 0.000000 0.500000
O O5 0.547459 0.884188 0.132669
O O6 0.931075 0.134912 0.083895
O O7 0.000000 0.000000 0.000000
O O8 0.191915 0.329898 0.790377
O O9 0.000000 0.500000 0.500000
O O10 0.914936 0.568329 0.345793
O O11 0.236615 0.874242 0.261793
O O12 0.119870 0.377811 0.092169
O O13 0.948969 0.409530 0.254145
O O14 0.567661 0.775441 0.907910
O O15 0.500000 0.500000 0.500000
O O16 0.429710 0.260402 0.488915
O O17 0.717046 0.221161 0.118044
O O18 0.540225 0.940137 0.383023
#
# Coordination Sequence:
#
# PCOD9091520 Si02
#       8
#     2   2   2   2   2   2   2   2
#     4  11  25  42  65 102 141 174 226 291 361 413
#     4  11  24  44  68 104 137 188 238 293 359 428
#     4  11  25  46  70  99 144 188 236 297 355 420
#     4  11  22  41  72 101 133 180 232 285 351 433
#     4  12  26  44  69 102 139 187 240 293 354 422
#     4  10  19  39  67 102 134 172 232 288 343 425
#     4  11  22  41  70  99 135 179 231 286 352 422
#     4  11  21  42  72  97 131 184 229 284 352 425
#
# _framework density 24.286214000000001
#
# number of rings (size 3 to 8) (size 9 to 14) (size 15 to 20)
#    0.000    1.000    2.500    6.000    3.500    0.500 
#    0.000    0.000    0.000    0.000    0.000    0.000 
#    0.000    0.000    0.000    0.000    0.000    0.000 
#
# Total GULP energy -89454.298681 kJ/mol
# GULP energy per Si atom -5590.893668 kJ/mol
# Density = 2.423094 g / cm^3
# Si number density = 24.286214 Si / 1000 Ang^3
#
#
#
# Elastic Constant Matrix: (Units=GPa)
#
#
# Indices 1 2 3 4 5 6 
#
# 1 77.5956 41.6945 33.3670 6.4070 20.7680 -17.6774
# 2 41.6945 89.6471 43.5828 15.5854 -0.5684 -21.0499
# 3 33.3670 43.5828 118.9772 0.7876 33.7738 -5.2347
# 4 6.4070 15.5854 0.7876 46.2633 -14.7926 5.4833
# 5 20.7680 -0.5684 33.7738 -14.7926 48.4467 -7.0930
# 6 -17.6774 -21.0499 -5.2347 5.4833 -7.0930 29.5433
#
#
#
# Elastic Compliance Matrix: (Units=1/GPa)
#
#
# Indices 1 2 3 4 5 6 
#
# 1 0.021362 -0.007966 -0.000075 -0.004002 -0.009611 0.005528
# 2 -0.007966 0.023037 -0.008429 -0.004902 0.010037 0.013474
# 3 -0.000075 -0.008429 0.014383 -0.000204 -0.011051 -0.006117
# 4 -0.004002 -0.004902 -0.000204 0.027749 0.008967 -0.008921
# 5 -0.009611 0.010037 -0.011051 0.008967 0.036271 0.006486
# 6 0.005528 0.013474 -0.006117 -0.008921 0.006486 0.048885
#
#
# Mechanical properties :
#
#
# Convention : Reuss Voigt Hill
#
# Bulk Modulus (GPa) = 38.69555 58.16761 48.43158
# Shear Modulus (GPa) = 23.44766 36.02237 29.73501
#
# Velocity S-wave (km/s) = 3.11058 3.85547 3.50288
# Velocity P-wave (km/s) = 5.37295 6.61985 6.02872
#
# Compressibility (1/GPa) = 0.02584276
#
# Stress axis : x y z
#
# Youngs Moduli (GPa) = 46.81157 43.40829 69.52768
#
# Poissons Ratio (x) = 0.34580 0.00520
# Poissons Ratio (y) = 0.37291 0.58602
# Poissons Ratio (z) = 0.00350 0.36587
#
# Static dielectric constant tensor:
#      x y z
#    x 5.737060 -2.021750 -0.734620 
#    y -2.021750 3.140940 0.296740 
#    z -0.734620 0.296740 2.060480 
# 
# From -- ./inp_files/268622.got.cif
#   From: 2010.05.17/outbox.cif.g08.bks.cpg/sg2_135_cif.got.tgz:268622.got - 2010.06.03 11:33:40.
