data_PCOD9091982
_publ_section_title
;
Structure prediction by ZEFSAII (Michael W. Deem and Ramdas Pophale) SiO2 
 PCOD9091982
Probable space group: P -1
;
_chemical_formula_sum "Si O2"
_cell_formula_units_Z 14
_cell_length_a 7.521150
_cell_length_b 14.708346
_cell_length_c 11.919736
_cell_angle_alpha 152.415587
_cell_angle_beta 80.552341
_cell_angle_gamma 93.137249
_cell_volume 590.295079
_symmetry_space_group_name_H-M "P -1"
_symmetry_group_IT_number 2
_symmetry_cell_setting 'triclinic'
loop_
_space_group_symop_operation_xyz
x,y,z
-x,-y,-z
loop_
_atom_site_type_symbol
_atom_site_label
_atom_site_fract_x
_atom_site_fract_y
_atom_site_fract_z
Si Si1 0.233796 0.870762 0.726108
Si Si2 0.607304 0.958187 0.304120
Si Si3 0.151765 0.783342 0.314135
Si Si4 0.868956 0.379476 0.097613
Si Si5 0.274697 0.477223 0.145469
Si Si6 0.744844 0.801255 0.476995
Si Si7 0.188384 0.913066 0.029846
O O1 0.322224 0.023560 0.810079
O O2 0.290111 0.653846 0.424085
O O3 0.276534 0.868115 0.849887
O O4 0.014848 0.950512 0.820142
O O5 0.758568 0.039936 0.452105
O O6 0.416951 0.117318 0.503569
O O7 0.587628 0.733205 0.085375
O O8 0.265530 0.579866 0.136701
O O9 0.945480 0.790494 0.389743
O O10 0.146020 0.769703 0.166823
O O11 0.743549 0.587536 0.299118
O O12 0.075762 0.419355 0.123100
O O13 0.826343 0.285699 0.116563
O O14 0.718961 0.957137 0.752524
#
# Coordination Sequence:
#
# PCOD9091982 Si02
#       7
#     2   2   2   2   2   2   2
#     4  10  22  41  64  95 126 158 218 262 304 382
#     4  11  23  42  67  93 132 167 203 263 320 361
#     4  10  23  44  63  94 132 162 214 261 303 382
#     4  11  22  41  67  92 129 170 208 260 317 365
#     4  10  19  40  64  92 124 171 202 256 318 368
#     4  11  23  42  65 100 125 164 217 252 315 386
#     4  11  22  40  67  93 122 168 212 260 313 371
#
# _framework density 23.716953
#
# number of rings (size 3 to 8) (size 9 to 14) (size 15 to 20)
#    0.000    1.429    5.714    1.714    0.000    8.571 
#    0.000    6.429    0.000    0.000    0.000    0.000 
#    0.000    0.000    0.000    0.000    0.000    0.000 
#
# Total GULP energy -78434.272652 kJ/mol
# GULP energy per Si atom -5602.448047 kJ/mol
# Density = 2.366297 g / cm^3
# Si number density = 23.716953 Si / 1000 Ang^3
#
#
#
# Elastic Constant Matrix: (Units=GPa)
#
#
# Indices 1 2 3 4 5 6 
#
# 1 70.8418 18.5175 18.2593 -3.8220 -6.1135 -19.1819
# 2 18.5175 155.2034 53.6866 0.4948 3.1556 17.3220
# 3 18.2593 53.6866 85.0188 27.7938 6.5475 -9.9540
# 4 -3.8220 0.4948 27.7938 57.7342 -1.0089 -9.5164
# 5 -6.1135 3.1556 6.5475 -1.0089 16.4564 10.9296
# 6 -19.1819 17.3220 -9.9540 -9.5164 10.9296 26.5678
#
#
#
# Elastic Compliance Matrix: (Units=1/GPa)
#
#
# Indices 1 2 3 4 5 6 
#
# 1 0.021447 -0.005093 0.000141 0.005121 -0.006248 0.023263
# 2 -0.005093 0.013221 -0.011575 0.001726 0.015027 -0.022198
# 3 0.000141 -0.011575 0.026943 -0.009191 -0.025605 0.024985
# 4 0.005121 0.001726 -0.009191 0.023176 0.002359 0.006459
# 5 -0.006248 0.015027 -0.025605 0.002359 0.111740 -0.069025
# 6 0.023263 -0.022198 0.024985 0.006459 -0.069025 0.108979
#
#
# Mechanical properties :
#
#
# Convention : Reuss Voigt Hill
#
# Bulk Modulus (GPa) = 35.01893 54.66562 44.84228
# Shear Modulus (GPa) = 14.36451 34.85837 24.61144
#
# Velocity S-wave (km/s) = 2.46369 3.83791 3.22485
# Velocity P-wave (km/s) = 4.78440 6.53748 5.72840
#
# Compressibility (1/GPa) = 0.02855598
#
# Stress axis : x y z
#
# Youngs Moduli (GPa) = 46.62665 75.63541 37.11505
#
# Poissons Ratio (x) = 0.38522 -0.00522
# Poissons Ratio (y) = 0.23748 0.42962
# Poissons Ratio (z) = -0.00656 0.87551
#
# Static dielectric constant tensor:
#      x y z
#    x 1.933640 -0.017920 -0.026440 
#    y -0.017920 1.902270 0.038650 
#    z -0.026440 0.038650 1.909730 
# 
# From -- ./inp_files/400069.got.cif
#   From: 2010.05.17/outbox.cif.g08.bks.cpg/sg2_201_cif.got.tgz:400069.got - 2010.06.03 11:33:40.
