data_PCOD9091402
_publ_section_title
;
Structure prediction by ZEFSAII (Michael W. Deem and Ramdas Pophale) SiO2 
 PCOD9091402
Probable space group: P -1
;
_chemical_formula_sum "Si O2"
_cell_formula_units_Z 16
_cell_length_a 8.903909
_cell_length_b 9.061573
_cell_length_c 15.443057
_cell_angle_alpha 82.404272
_cell_angle_beta 48.863871
_cell_angle_gamma 112.785638
_cell_volume 718.389139
_symmetry_space_group_name_H-M "P -1"
_symmetry_group_IT_number 2
_symmetry_cell_setting 'triclinic'
loop_
_space_group_symop_operation_xyz
x,y,z
-x,-y,-z
loop_
_atom_site_type_symbol
_atom_site_label
_atom_site_fract_x
_atom_site_fract_y
_atom_site_fract_z
Si Si1 0.251416 0.465372 0.064242
Si Si2 0.388681 0.626895 0.812159
Si Si3 0.529017 0.046890 0.718826
Si Si4 0.220817 0.307140 0.596428
Si Si5 0.982125 0.355312 0.838926
Si Si6 0.082295 0.944307 0.770628
Si Si7 0.078280 0.210723 0.461208
Si Si8 0.223351 0.041620 0.974139
O O1 0.230748 0.621191 0.093567
O O2 0.012992 0.259805 0.209657
O O3 0.500000 0.500000 0.000000
O O4 0.239963 0.487719 0.962410
O O5 0.452784 0.834998 0.781669
O O6 0.222907 0.526776 0.794262
O O7 0.657722 0.661592 0.703926
O O8 0.323275 0.021536 0.733961
O O9 0.485287 0.130634 0.814413
O O10 0.811162 0.175116 0.557383
O O11 0.500000 0.500000 0.500000
O O12 0.048120 0.325324 0.722509
O O13 0.167083 0.293039 0.517624
O O14 0.165803 0.110201 0.659680
O O15 0.869770 0.165186 0.948559
O O16 0.833320 0.885923 0.924855
O O17 0.000000 0.000000 0.500000
O O18 0.000000 0.000000 0.000000
#
# Coordination Sequence:
#
# PCOD9091402 Si02
#       8
#     2   2   2   2   2   2   2   2
#     4  12  26  41  66 107 140 179 234 296 344 411
#     4  11  20  41  67  95 137 179 230 269 351 405
#     4  10  19  39  65  98 132 178 228 273 341 407
#     4  11  24  47  69 101 139 180 231 283 350 411
#     4  11  21  41  71  94 132 183 222 285 346 409
#     4  10  23  40  67 100 136 176 232 285 343 407
#     4  10  24  41  69  98 134 186 225 279 340 420
#     4   9  18  34  64  94 125 170 224 278 329 394
#
# _framework density 22.27205
#
# number of rings (size 3 to 8) (size 9 to 14) (size 15 to 20)
#    0.000    1.500    3.750    1.875    3.500    1.000 
#    2.250    6.250    0.000    0.000    0.000    0.000 
#    0.000    0.000    0.000    0.000    0.000    0.000 
#
# Total GULP energy -89209.632395 kJ/mol
# GULP energy per Si atom -5575.602025 kJ/mol
# Density = 2.222136 g / cm^3
# Si number density = 22.272050 Si / 1000 Ang^3
#
#
#
# Elastic Constant Matrix: (Units=GPa)
#
#
# Indices 1 2 3 4 5 6 
#
# 1 64.2934 24.8577 5.3636 7.2674 -24.2274 -16.6599
# 2 24.8577 47.2258 2.0146 6.9003 3.5732 -12.5732
# 3 5.3636 2.0146 61.3956 20.1761 -22.3145 -11.7984
# 4 7.2674 6.9003 20.1761 24.6048 -8.9600 -9.0521
# 5 -24.2274 3.5732 -22.3145 -8.9600 33.4802 4.4005
# 6 -16.6599 -12.5732 -11.7984 -9.0521 4.4005 37.0886
#
#
#
# Elastic Compliance Matrix: (Units=1/GPa)
#
#
# Indices 1 2 3 4 5 6 
#
# 1 0.040443 -0.022303 0.012891 0.001944 0.039377 0.010509
# 2 -0.022303 0.036774 -0.005922 -0.007802 -0.026334 0.001785
# 3 0.012891 -0.005922 0.031192 -0.015904 0.025601 0.006786
# 4 0.001944 -0.007802 -0.015904 0.060413 0.006874 0.007098
# 5 0.039377 -0.026334 0.025601 0.006874 0.078864 0.009225
# 6 0.010509 0.001785 0.006786 0.007098 0.009225 0.035085
#
#
# Mechanical properties :
#
#
# Convention : Reuss Voigt Hill
#
# Bulk Modulus (GPa) = 12.86332 26.37627 19.61979
# Shear Modulus (GPa) = 14.73395 28.41330 21.57363
#
# Velocity S-wave (km/s) = 2.57484 3.57562 3.11568
# Velocity P-wave (km/s) = 3.82463 5.37729 4.66600
#
# Compressibility (1/GPa) = 0.07774043
#
# Stress axis : x y z
#
# Youngs Moduli (GPa) = 24.72619 27.19280 32.06001
#
# Poissons Ratio (x) = 0.60648 -0.41329
# Poissons Ratio (y) = 0.55147 0.18987
# Poissons Ratio (z) = -0.31875 0.16105
#
# Static dielectric constant tensor:
#      x y z
#    x 1.774120 -0.013630 -0.034620 
#    y -0.013630 1.787100 0.058680 
#    z -0.034620 0.058680 1.985460 
# 
# From -- ./inp_files/494214.got.cif
#   From: 2010.05.17/outbox.cif.g08.bks.cpg/sg2_248_cif.got.tgz:494214.got - 2010.06.03 11:33:40.
