data_PCOD9091366
_publ_section_title
;
Structure prediction by ZEFSAII (Michael W. Deem and Ramdas Pophale) SiO2 
 PCOD9091366
Probable space group: P -1
;
_chemical_formula_sum "Si O2"
_cell_formula_units_Z 16
_cell_length_a 12.007260
_cell_length_b 12.289518
_cell_length_c 8.890252
_cell_angle_alpha 50.723227
_cell_angle_beta 128.596932
_cell_angle_gamma 139.436536
_cell_volume 633.212227
_symmetry_space_group_name_H-M "P -1"
_symmetry_group_IT_number 2
_symmetry_cell_setting 'triclinic'
loop_
_space_group_symop_operation_xyz
x,y,z
-x,-y,-z
loop_
_atom_site_type_symbol
_atom_site_label
_atom_site_fract_x
_atom_site_fract_y
_atom_site_fract_z
Si Si1 0.613042 0.665886 0.283121
Si Si2 0.130331 0.973260 0.960741
Si Si3 0.688302 0.032137 0.583172
Si Si4 0.832731 0.404792 0.335736
Si Si5 0.681452 0.162629 0.931993
Si Si6 0.428472 0.679129 0.550483
Si Si7 0.860730 0.819025 0.626557
Si Si8 0.205030 0.520540 0.071473
O O1 0.594355 0.490259 0.383399
O O2 0.681010 0.740867 0.444550
O O3 0.417815 0.617312 0.143151
O O4 0.757051 0.817787 0.156997
O O5 0.930841 0.870818 0.814584
O O6 0.222224 0.917090 0.975467
O O7 0.183333 0.943246 0.194900
O O8 0.625025 0.858933 0.589398
O O9 0.500000 0.000000 0.500000
O O10 0.784327 0.215595 0.416644
O O11 0.673054 0.373460 0.328679
O O12 0.000000 0.500000 0.500000
O O13 0.875887 0.519855 0.126226
O O14 0.648194 0.249234 0.689571
O O15 0.801129 0.331129 0.990975
O O16 0.500000 0.000000 0.000000
O O17 0.868589 0.655705 0.747174
O O18 0.000000 0.000000 0.500000
#
# Coordination Sequence:
#
# PCOD9091366 Si02
#       8
#     2   2   2   2   2   2   2   2
#     4  11  23  44  66  97 134 176 226 275 332 401
#     4  11  22  41  67  95 138 172 223 273 342 390
#     4  10  19  39  65  93 129 172 215 273 321 396
#     4  11  24  43  67 101 139 171 221 281 339 397
#     4  12  23  39  69 106 126 173 232 276 329 392
#     4  11  24  41  70  95 136 178 223 274 337 393
#     4  10  24  41  63  94 133 178 214 278 340 391
#     4  12  24  40  70  97 134 176 229 275 332 402
#
# _framework density 25.267989
#
# number of rings (size 3 to 8) (size 9 to 14) (size 15 to 20)
#    0.000    1.000    5.000    3.375    0.000    3.500 
#    0.000    2.500    0.000    5.250    0.000    0.000 
#    0.000    0.000    0.000    0.000    0.000    0.000 
#
# Total GULP energy -89464.205754 kJ/mol
# GULP energy per Si atom -5591.512860 kJ/mol
# Density = 2.521048 g / cm^3
# Si number density = 25.267989 Si / 1000 Ang^3
#
#
#
# Elastic Constant Matrix: (Units=GPa)
#
#
# Indices 1 2 3 4 5 6 
#
# 1 51.0253 18.3877 15.5730 -2.2532 12.9060 -8.8813
# 2 18.3877 149.4394 23.4872 -12.4088 7.8961 -11.9576
# 3 15.5730 23.4872 139.3555 8.9604 1.7150 -9.7230
# 4 -2.2532 -12.4088 8.9604 69.9153 11.6452 -0.9188
# 5 12.9060 7.8961 1.7150 11.6452 36.9887 6.5669
# 6 -8.8813 -11.9576 -9.7230 -0.9188 6.5669 14.9559
#
#
#
# Elastic Compliance Matrix: (Units=1/GPa)
#
#
# Indices 1 2 3 4 5 6 
#
# 1 0.027903 -0.000339 -0.001593 0.003775 -0.014673 0.021938
# 2 -0.000339 0.007801 -0.000877 0.002154 -0.003447 0.007112
# 3 -0.001593 -0.000877 0.007805 -0.001193 0.000175 0.003277
# 4 0.003775 0.002154 -0.001193 0.016444 -0.008290 0.007838
# 5 -0.014673 -0.003447 0.000175 -0.008290 0.040778 -0.029770
# 6 0.021938 0.007112 0.003277 0.007838 -0.029770 0.101260
#
#
# Mechanical properties :
#
#
# Convention : Reuss Voigt Hill
#
# Bulk Modulus (GPa) = 26.39055 50.52397 38.45726
# Shear Modulus (GPa) = 22.70276 43.19681 32.94979
#
# Velocity S-wave (km/s) = 3.00072 4.13915 3.61503
# Velocity P-wave (km/s) = 4.74053 6.54844 5.71641
#
# Compressibility (1/GPa) = 0.03789235
#
# Stress axis : x y z
#
# Youngs Moduli (GPa) = 35.83886 128.18530 128.12513
#
# Poissons Ratio (x) = 0.04343 0.20405
# Poissons Ratio (y) = 0.01214 0.11234
# Poissons Ratio (z) = 0.05708 0.11240
#
# Static dielectric constant tensor:
#      x y z
#    x 2.008380 -0.031160 0.066380 
#    y -0.031160 1.981100 0.072380 
#    z 0.066380 0.072380 1.927800 
# 
# From -- ./inp_files/306602.got.cif
#   From: 2010.05.17/outbox.cif.g08.bks.cpg/sg2_154_cif.got.tgz:306602.got - 2010.06.03 11:33:40.
