data_PCOD9091804
_publ_section_title
;
Structure prediction by ZEFSAII (Michael W. Deem and Ramdas Pophale) SiO2 
 PCOD9091804
Probable space group: P -1
;
_chemical_formula_sum "Si O2"
_cell_formula_units_Z 16
_cell_length_a 15.075460
_cell_length_b 7.454226
_cell_length_c 10.096607
_cell_angle_alpha 95.166503
_cell_angle_beta 39.276450
_cell_angle_gamma 110.252732
_cell_volume 642.929352
_symmetry_space_group_name_H-M "P -1"
_symmetry_group_IT_number 2
_symmetry_cell_setting 'triclinic'
loop_
_space_group_symop_operation_xyz
x,y,z
-x,-y,-z
loop_
_atom_site_type_symbol
_atom_site_label
_atom_site_fract_x
_atom_site_fract_y
_atom_site_fract_z
Si Si1 0.209781 0.602178 0.510414
Si Si2 0.867734 0.018951 0.740792
Si Si3 0.620682 0.510636 0.195365
Si Si4 0.176300 0.757025 0.844157
Si Si5 0.880623 0.437235 0.817156
Si Si6 0.476140 0.324948 0.913420
Si Si7 0.922007 0.832782 0.257631
Si Si8 0.340276 0.176441 0.612594
O O1 0.209971 0.675926 0.664229
O O2 0.373402 0.719145 0.256817
O O3 0.164580 0.364570 0.563528
O O4 0.058763 0.598582 0.612123
O O5 0.863460 0.234109 0.755837
O O6 0.934597 0.011391 0.810808
O O7 0.000000 0.000000 0.500000
O O8 0.694980 0.856447 0.893796
O O9 0.514242 0.586335 0.239515
O O10 0.508904 0.288470 0.359563
O O11 0.677888 0.657002 0.264217
O O12 0.752333 0.514167 0.942816
O O13 0.311175 0.981709 0.716989
O O14 0.155807 0.623570 0.988469
O O15 0.012609 0.774772 0.033786
O O16 0.500000 0.500000 0.000000
O O17 0.793464 0.890182 0.349666
#
# Coordination Sequence:
#
# PCOD9091804 Si02
#       8
#     2   2   2   2   2   2   2   2
#     4  10  20  38  64  91 128 170 212 262 320 378
#     4  10  23  43  70  93 123 173 219 265 318 386
#     4  11  24  40  63  97 135 169 213 266 325 377
#     4  10  20  33  62  92 130 169 211 253 324 381
#     4  10  22  41  63  94 133 169 214 264 318 384
#     4  12  25  45  68  92 126 174 220 263 322 381
#     4  10  19  40  60  95 132 173 208 263 324 383
#     4  11  22  36  62  99 139 167 210 269 322 383
#
# _framework density 24.886095000000001
#
# number of rings (size 3 to 8) (size 9 to 14) (size 15 to 20)
#    0.000    1.750    1.250    6.375    3.500    1.500 
#    0.000    4.375    0.000    0.000    0.000    0.000 
#    0.000    0.000    0.000    0.000    0.000    0.000 
#
# Total GULP energy -89498.486986 kJ/mol
# GULP energy per Si atom -5593.655437 kJ/mol
# Density = 2.482945 g / cm^3
# Si number density = 24.886095 Si / 1000 Ang^3
#
#
#
# Elastic Constant Matrix: (Units=GPa)
#
#
# Indices 1 2 3 4 5 6 
#
# 1 59.6508 17.3923 24.6399 -3.2554 -13.1877 16.4308
# 2 17.3923 85.2861 48.1162 -2.9808 -8.8116 31.1004
# 3 24.6399 48.1162 168.2254 -2.8110 -34.8551 25.8823
# 4 -3.2554 -2.9808 -2.8110 43.4771 4.7073 0.1471
# 5 -13.1877 -8.8116 -34.8551 4.7073 42.0127 -2.5658
# 6 16.4308 31.1004 25.8823 0.1471 -2.5658 33.8714
#
#
#
# Elastic Compliance Matrix: (Units=1/GPa)
#
#
# Indices 1 2 3 4 5 6 
#
# 1 0.020782 0.000031 -0.000467 0.000968 0.005463 -0.009343
# 2 0.000031 0.019027 -0.003000 0.001114 0.000461 -0.015164
# 3 -0.000467 -0.003000 0.008643 -0.000347 0.006241 -0.003149
# 4 0.000968 0.001114 -0.000347 0.023399 -0.002465 -0.001516
# 5 0.005463 0.000461 0.006241 -0.002465 0.030732 -0.005504
# 6 -0.009343 -0.015164 -0.003149 -0.001516 -0.005504 0.049975
#
#
# Mechanical properties :
#
#
# Convention : Reuss Voigt Hill
#
# Bulk Modulus (GPa) = 24.04988 54.82877 39.43933
# Shear Modulus (GPa) = 28.85338 38.73983 33.79661
#
# Velocity S-wave (km/s) = 3.40872 3.94977 3.68917
# Velocity P-wave (km/s) = 5.01771 6.54833 5.83344
#
# Compressibility (1/GPa) = 0.04158024
#
# Stress axis : x y z
#
# Youngs Moduli (GPa) = 48.11748 52.55584 115.70647
#
# Poissons Ratio (x) = -0.00162 0.05406
# Poissons Ratio (y) = -0.00148 0.34708
# Poissons Ratio (z) = 0.02248 0.15765
#
# Static dielectric constant tensor:
#      x y z
#    x 1.997870 0.006170 -0.007020 
#    y 0.006170 2.000860 -0.006350 
#    z -0.007020 -0.006350 2.004470 
# 
# From -- ./inp_files/176062.got.cif
#   From: 2010.05.17/outbox.cif.g08.bks.cpg/sg2_89_cif.got.tgz:176062.got - 2010.06.03 11:33:40.
