data_PCOD9091191
_publ_section_title
;
Structure prediction by ZEFSAII (Michael W. Deem and Ramdas Pophale) SiO2 
 PCOD9091191
Probable space group: P -1
;
_chemical_formula_sum "Si O2"
_cell_formula_units_Z 12
_cell_length_a 10.913491
_cell_length_b 8.391663
_cell_length_c 7.038945
_cell_angle_alpha 73.794254
_cell_angle_beta 103.456385
_cell_angle_gamma 54.930614
_cell_volume 438.736038
_symmetry_space_group_name_H-M "P -1"
_symmetry_group_IT_number 2
_symmetry_cell_setting 'triclinic'
loop_
_space_group_symop_operation_xyz
x,y,z
-x,-y,-z
loop_
_atom_site_type_symbol
_atom_site_label
_atom_site_fract_x
_atom_site_fract_y
_atom_site_fract_z
Si Si1 0.190075 0.787085 0.884801
Si Si2 0.950202 0.567933 0.179933
Si Si3 0.845407 0.923334 0.543564
Si Si4 0.181057 0.642448 0.307504
Si Si5 0.341540 0.403493 0.822539
Si Si6 0.468754 0.730080 0.410035
O O1 0.341042 0.523982 0.961510
O O2 0.009176 0.863280 0.728300
O O3 0.207163 0.930271 0.711813
O O4 0.186544 0.787241 0.111666
O O5 0.086522 0.319019 0.409256
O O6 0.004289 0.704584 0.199619
O O7 0.762933 0.666047 0.133499
O O8 0.000000 0.500000 0.000000
O O9 0.688741 0.068004 0.589090
O O10 0.220777 0.617235 0.554416
O O11 0.346194 0.377431 0.401317
O O12 0.513209 0.230199 0.816802
O O13 0.500000 0.500000 0.500000
#
# Coordination Sequence:
#
# PCOD9091191 Si02
#       6
#     2   2   2   2   2   2
#     4  10  19  39  64  87 113 161 201 241 286 351
#     4  11  20  39  64  84 117 164 198 238 292 355
#     4  10  20  36  61  89 123 149 197 253 285 343
#     4  10  21  37  68  83 118 162 196 231 307 354
#     4   9  20  37  63  83 120 152 200 239 293 343
#     4  10  21  39  59  88 128 150 189 255 301 336
#
# _framework density 27.351296999999999
#
# number of rings (size 3 to 8) (size 9 to 14) (size 15 to 20)
#    1.000    1.000    5.000    0.500    0.000    1.333 
#    0.000   14.167    0.000    0.000    0.000    0.000 
#    0.000    0.000    0.000    0.000    0.000    0.000 
#
# Total GULP energy -67045.302221 kJ/mol
# GULP energy per Si atom -5587.108518 kJ/mol
# Density = 2.728904 g / cm^3
# Si number density = 27.351297 Si / 1000 Ang^3
#
#
#
# Elastic Constant Matrix: (Units=GPa)
#
#
# Indices 1 2 3 4 5 6 
#
# 1 124.0496 33.8405 14.6838 1.2986 -28.1934 -44.6477
# 2 33.8405 138.4701 21.7352 7.6564 -15.7101 -48.0261
# 3 14.6838 21.7352 111.6998 25.3973 -25.6532 -0.6080
# 4 1.2986 7.6564 25.3973 48.4245 -8.7424 -5.1597
# 5 -28.1934 -15.7101 -25.6532 -8.7424 45.6122 9.1651
# 6 -44.6477 -48.0261 -0.6080 -5.1597 9.1651 50.3224
#
#
#
# Elastic Compliance Matrix: (Units=1/GPa)
#
#
# Indices 1 2 3 4 5 6 
#
# 1 0.013874 0.002004 -0.001255 0.002538 0.006373 0.013307
# 2 0.002004 0.011602 -0.002305 0.000953 0.001583 0.012633
# 3 -0.001255 -0.002305 0.011935 -0.005448 0.005032 -0.004644
# 4 0.002538 0.000953 -0.005448 0.024280 0.002454 0.005137
# 5 0.006373 0.001583 0.005032 0.002454 0.029278 0.002145
# 6 0.013307 0.012633 -0.004644 0.005137 0.002145 0.043814
#
#
# Mechanical properties :
#
#
# Convention : Reuss Voigt Hill
#
# Bulk Modulus (GPa) = 29.15488 57.19319 43.17404
# Shear Modulus (GPa) = 33.48320 49.13581 41.30950
#
# Velocity S-wave (km/s) = 3.50264 4.24308 3.89051
# Velocity P-wave (km/s) = 5.20005 6.70529 6.00006
#
# Compressibility (1/GPa) = 0.03429957
#
# Stress axis : x y z
#
# Youngs Moduli (GPa) = 72.07564 86.19129 83.78566
#
# Poissons Ratio (x) = -0.17275 0.10513
# Poissons Ratio (y) = -0.14446 0.19317
# Poissons Ratio (z) = 0.09044 0.19871
#
# Static dielectric constant tensor:
#      x y z
#    x 2.268950 -0.035080 0.044040 
#    y -0.035080 2.162310 0.001300 
#    z 0.044040 0.001300 2.153560 
# 
# From -- ./inp_files/169032.got.cif
#   From: 2010.05.17/outbox.cif.g08.bks.cpg/sg2_85_cif.got.tgz:169032.got - 2010.06.03 11:33:40.
