data_PCOD9091651
_publ_section_title
;
Structure prediction by ZEFSAII (Michael W. Deem and Ramdas Pophale) SiO2 
 PCOD9091651
Probable space group: P -1
;
_chemical_formula_sum "Si O2"
_cell_formula_units_Z 16
_cell_length_a 12.391130
_cell_length_b 8.370481
_cell_length_c 19.750477
_cell_angle_alpha 34.515056
_cell_angle_beta 135.546720
_cell_angle_gamma 117.420494
_cell_volume 769.683485
_symmetry_space_group_name_H-M "P -1"
_symmetry_group_IT_number 2
_symmetry_cell_setting 'triclinic'
loop_
_space_group_symop_operation_xyz
x,y,z
-x,-y,-z
loop_
_atom_site_type_symbol
_atom_site_label
_atom_site_fract_x
_atom_site_fract_y
_atom_site_fract_z
Si Si1 0.118899 0.688128 0.689190
Si Si2 0.568599 0.779319 0.046524
Si Si3 0.344766 0.929977 0.247374
Si Si4 0.985245 0.788710 0.844933
Si Si5 0.002977 0.847567 0.156382
Si Si6 0.664166 0.237314 0.835379
Si Si7 0.265088 0.589457 0.930997
Si Si8 0.624062 0.857864 0.663993
O O1 0.262440 0.491461 0.772360
O O2 0.218680 0.714812 0.791516
O O3 0.015796 0.475436 0.741426
O O4 0.000000 0.000000 0.500000
O O5 0.423944 0.660063 0.001339
O O6 0.500000 0.000000 0.000000
O O7 0.606504 0.988515 0.933165
O O8 0.181073 0.860765 0.217767
O O9 0.418177 0.696246 0.299871
O O10 0.414606 0.004986 0.324916
O O11 0.304868 0.237958 0.081367
O O12 0.795500 0.896335 0.705907
O O13 0.106719 0.713973 0.863470
O O14 0.032249 0.030076 0.825907
O O15 0.000000 0.500000 0.000000
O O16 0.860391 0.086218 0.966953
O O17 0.641229 0.509115 0.782829
O O18 0.500000 0.000000 0.500000
#
# Coordination Sequence:
#
# PCOD9091651 Si02
#       8
#     2   2   2   2   2   2   2   2
#     4  11  26  45  65 103 140 178 226 296 347 399
#     4  11  24  44  70  93 132 193 238 274 333 428
#     4  11  21  38  71  98 124 176 232 280 338 421
#     4  11  20  39  72  96 129 171 226 288 341 418
#     4  10  19  39  68  98 129 171 232 277 342 414
#     4  11  21  39  66  94 130 180 234 275 332 420
#     4  12  21  42  69  98 128 178 234 277 335 419
#     4  11  24  42  61 103 143 168 216 293 363 400
#
# _framework density 20.787765
#
# number of rings (size 3 to 8) (size 9 to 14) (size 15 to 20)
#    0.000    1.000    6.250    3.000    1.750    0.500 
#    9.000    1.250    0.000    0.000    0.000    0.000 
#    0.000    0.000    0.000    0.000    0.000    0.000 
#
# Total GULP energy -89215.884061 kJ/mol
# GULP energy per Si atom -5575.992754 kJ/mol
# Density = 2.074045 g / cm^3
# Si number density = 20.787765 Si / 1000 Ang^3
#
#
#
# Elastic Constant Matrix: (Units=GPa)
#
#
# Indices 1 2 3 4 5 6 
#
# 1 79.1661 24.4093 22.9865 13.1174 -0.1511 -16.3507
# 2 24.4093 126.3785 39.6374 12.9416 3.8143 -3.8519
# 3 22.9865 39.6374 107.0452 9.6113 11.4174 -2.9316
# 4 13.1174 12.9416 9.6113 32.5370 -0.5655 -6.5302
# 5 -0.1511 3.8143 11.4174 -0.5655 16.7722 7.8914
# 6 -16.3507 -3.8519 -2.9316 -6.5302 7.8914 42.1352
#
#
#
# Elastic Compliance Matrix: (Units=1/GPa)
#
#
# Indices 1 2 3 4 5 6 
#
# 1 0.015511 -0.001754 -0.002125 -0.003891 -0.000603 0.005221
# 2 -0.001754 0.009381 -0.002896 -0.002242 -0.000086 -0.000356
# 3 -0.002125 -0.002896 0.011877 -0.001436 -0.007968 0.001007
# 4 -0.003891 -0.002242 -0.001436 0.034300 0.001054 0.003304
# 5 -0.000603 -0.000086 -0.007968 0.001054 0.071713 -0.014064
# 6 0.005221 -0.000356 0.001007 0.003304 -0.014064 0.028943
#
#
# Mechanical properties :
#
#
# Convention : Reuss Voigt Hill
#
# Bulk Modulus (GPa) = 43.06756 54.07291 48.57023
# Shear Modulus (GPa) = 25.90473 33.32598 29.61535
#
# Velocity S-wave (km/s) = 3.53392 4.00828 3.77855
# Velocity P-wave (km/s) = 6.11671 6.89131 6.51553
#
# Compressibility (1/GPa) = 0.02321934
#
# Stress axis : x y z
#
# Youngs Moduli (GPa) = 64.46961 106.59610 84.19636
#
# Poissons Ratio (x) = 0.18694 0.17890
# Poissons Ratio (y) = 0.11306 0.24387
# Poissons Ratio (z) = 0.13699 0.30875
#
# Static dielectric constant tensor:
#      x y z
#    x 1.758460 -0.027950 0.061810 
#    y -0.027950 1.756590 -0.037010 
#    z 0.061810 -0.037010 1.773000 
# 
# From -- ./inp_files/566377.got.cif
#   From: 2010.05.17/outbox.cif.g08.bks.cpg/sg2_284_cif.got.tgz:566377.got - 2010.06.03 11:33:40.
