data_PCOD9091995
_publ_section_title
;
Structure prediction by ZEFSAII (Michael W. Deem and Ramdas Pophale) SiO2 
 PCOD9091995
Probable space group: P -1
;
_chemical_formula_sum "Si O2"
_cell_formula_units_Z 16
_cell_length_a 8.950496
_cell_length_b 11.043692
_cell_length_c 16.742544
_cell_angle_alpha 148.808558
_cell_angle_beta 54.995043
_cell_angle_gamma 117.952692
_cell_volume 701.104255
_symmetry_space_group_name_H-M "P -1"
_symmetry_group_IT_number 2
_symmetry_cell_setting 'triclinic'
loop_
_space_group_symop_operation_xyz
x,y,z
-x,-y,-z
loop_
_atom_site_type_symbol
_atom_site_label
_atom_site_fract_x
_atom_site_fract_y
_atom_site_fract_z
Si Si1 0.970454 0.705766 0.691081
Si Si2 0.601008 0.691842 0.898567
Si Si3 0.500267 0.833998 0.329968
Si Si4 0.708677 0.558467 0.478203
Si Si5 0.966472 0.359375 0.850922
Si Si6 0.673181 0.667645 0.037967
Si Si7 0.758507 0.010844 0.820318
Si Si8 0.818670 0.860612 0.465399
O O1 0.783545 0.680018 0.783429
O O2 0.921656 0.950548 0.799019
O O3 0.000000 0.500000 0.500000
O O4 0.151199 0.657814 0.662111
O O5 0.540658 0.426234 0.776555
O O6 0.652328 0.783215 0.023144
O O7 0.422749 0.847412 0.012620
O O8 0.665134 0.817225 0.206486
O O9 0.500000 0.000000 0.500000
O O10 0.342251 0.945661 0.384829
O O11 0.500000 0.500000 0.500000
O O12 0.708980 0.760929 0.659714
O O13 0.781673 0.678352 0.443240
O O14 0.152165 0.266793 0.700692
O O15 0.839490 0.155690 0.804409
O O16 0.857049 0.508165 0.901080
O O17 0.000000 0.500000 0.000000
O O18 0.500000 0.500000 0.000000
O O19 0.000000 0.000000 0.500000
#
# Coordination Sequence:
#
# PCOD9091995 Si02
#       8
#     2   2   2   2   2   2   2   2
#     4  10  24  45  69  98 133 186 240 290 346 428
#     4  11  22  43  73  99 140 187 235 287 362 420
#     4  11  23  37  65 107 138 174 228 288 354 416
#     4  11  25  49  72 103 141 187 242 293 352 427
#     4  12  24  42  66 106 143 176 231 299 356 418
#     4  10  19  40  64  93 137 176 224 282 357 417
#     4  11  23  46  71  99 144 188 231 293 361 417
#     4  12  23  42  74 100 137 184 231 293 355 415
#
# _framework density 22.821142999999999
#
# number of rings (size 3 to 8) (size 9 to 14) (size 15 to 20)
#    0.000    1.000    3.750    4.875    1.750    2.000 
#    6.750    0.625    0.000    0.000    0.000    0.000 
#    0.000    0.000    0.000    0.000    0.000    0.000 
#
# Total GULP energy -89413.480975 kJ/mol
# GULP energy per Si atom -5588.342561 kJ/mol
# Density = 2.276920 g / cm^3
# Si number density = 22.821143 Si / 1000 Ang^3
#
#
#
# Elastic Constant Matrix: (Units=GPa)
#
#
# Indices 1 2 3 4 5 6 
#
# 1 112.1625 46.7129 42.2360 10.7483 -33.7117 -8.3689
# 2 46.7129 86.4541 34.3968 -21.4752 -12.0616 -6.3518
# 3 42.2360 34.3968 125.7542 -18.9698 -18.7232 -10.9540
# 4 10.7483 -21.4752 -18.9698 39.9194 -6.6808 -5.2761
# 5 -33.7117 -12.0616 -18.7232 -6.6808 63.4016 2.2775
# 6 -8.3689 -6.3518 -10.9540 -5.2761 2.2775 29.3552
#
#
#
# Elastic Compliance Matrix: (Units=1/GPa)
#
#
# Indices 1 2 3 4 5 6 
#
# 1 0.016892 -0.009655 -0.004078 -0.011026 0.004820 -0.001151
# 2 -0.009655 0.020637 0.000180 0.014397 0.000206 0.004351
# 3 -0.004078 0.000180 0.010984 0.007251 0.001725 0.004144
# 4 -0.011026 0.014397 0.007251 0.041007 0.002986 0.009816
# 5 0.004820 0.000206 0.001725 0.002986 0.019158 0.001112
# 6 -0.001151 0.004351 0.004144 0.009816 0.001112 0.037903
#
#
# Mechanical properties :
#
#
# Convention : Reuss Voigt Hill
#
# Bulk Modulus (GPa) = 46.71844 63.45136 55.08490
# Shear Modulus (GPa) = 27.65109 39.93691 33.79400
#
# Velocity S-wave (km/s) = 3.48464 4.18783 3.85232
# Velocity P-wave (km/s) = 6.05857 7.15878 6.63153
#
# Compressibility (1/GPa) = 0.02140482
#
# Stress axis : x y z
#
# Youngs Moduli (GPa) = 59.19950 48.45679 91.04021
#
# Poissons Ratio (x) = 0.46787 0.37128
# Poissons Ratio (y) = 0.57160 -0.01635
# Poissons Ratio (z) = 0.24143 -0.00870
#
# Static dielectric constant tensor:
#      x y z
#    x 1.852790 -0.059000 0.088690 
#    y -0.059000 1.823150 0.022200 
#    z 0.088690 0.022200 1.882820 
# 
# From -- ./inp_files/560120.got.cif
#   From: 2010.05.17/outbox.cif.g08.bks.cpg/sg2_281_cif.got.tgz:560120.got - 2010.06.03 11:33:40.
