data_PCOD9091801
_publ_section_title
;
Structure prediction by ZEFSAII (Michael W. Deem and Ramdas Pophale) SiO2 
 PCOD9091801
Probable space group: P -1
;
_chemical_formula_sum "Si O2"
_cell_formula_units_Z 12
_cell_length_a 8.053389
_cell_length_b 8.915327
_cell_length_c 17.189390
_cell_angle_alpha 60.324702
_cell_angle_beta 50.306870
_cell_angle_gamma 99.154343
_cell_volume 580.276296
_symmetry_space_group_name_H-M "P -1"
_symmetry_group_IT_number 2
_symmetry_cell_setting 'triclinic'
loop_
_space_group_symop_operation_xyz
x,y,z
-x,-y,-z
loop_
_atom_site_type_symbol
_atom_site_label
_atom_site_fract_x
_atom_site_fract_y
_atom_site_fract_z
Si Si1 0.830529 0.241492 0.306799
Si Si2 0.873544 0.925243 0.810528
Si Si3 0.233839 0.003866 0.330561
Si Si4 0.735111 0.272508 0.004264
Si Si5 0.183747 0.365954 0.317792
Si Si6 0.784361 0.932078 0.010837
O O1 0.963799 0.159504 0.237884
O O2 0.919117 0.461072 0.173810
O O3 0.017847 0.371804 0.296807
O O4 0.500000 0.000000 0.500000
O O5 0.950788 0.096701 0.671007
O O6 0.503281 0.717848 0.960125
O O7 0.928623 0.003458 0.862988
O O8 0.052726 0.786156 0.501376
O O9 0.239986 0.202925 0.310916
O O10 0.581145 0.150184 0.165814
O O11 0.692919 0.077366 0.016940
O O12 0.494883 0.639635 0.174217
O O13 0.000000 0.000000 0.000000
#
# Coordination Sequence:
#
# PCOD9091801 Si02
#       6
#     2   2   2   2   2   2
#     4  11  22  38  71  95 118 158 214 263 304 365
#     4   9  20  43  63  89 122 168 201 249 316 364
#     4   8  19  36  70  83 116 167 200 254 305 358
#     4  10  21  41  64  89 123 172 199 247 321 365
#     4  10  19  40  60  94 126 156 206 256 308 358
#     4  12  25  38  63  92 129 167 208 251 305 376
#
# _framework density 20.679804000000001
#
# number of rings (size 3 to 8) (size 9 to 14) (size 15 to 20)
#    1.000    1.000    1.667    2.000    0.000    6.000 
#    0.000    5.833    0.000    0.000    0.000    0.000 
#    0.000    0.000    0.000    0.000    0.000    0.000 
#
# Total GULP energy -66808.727844 kJ/mol
# GULP energy per Si atom -5567.393987 kJ/mol
# Density = 2.063274 g / cm^3
# Si number density = 20.679804 Si / 1000 Ang^3
#
#
#
# Elastic Constant Matrix: (Units=GPa)
#
#
# Indices 1 2 3 4 5 6 
#
# 1 27.9172 24.8385 36.3231 6.5545 2.6369 9.5703
# 2 24.8385 95.2596 78.4805 24.0823 6.2591 3.2994
# 3 36.3231 78.4805 130.6197 20.6093 15.8112 16.3184
# 4 6.5545 24.0823 20.6093 31.2650 16.6349 3.7467
# 5 2.6369 6.2591 15.8112 16.6349 30.0853 1.9225
# 6 9.5703 3.2994 16.3184 3.7467 1.9225 30.4630
#
#
#
# Elastic Compliance Matrix: (Units=1/GPa)
#
#
# Indices 1 2 3 4 5 6 
#
# 1 0.060715 -0.004856 -0.012765 -0.001184 0.003806 -0.011805
# 2 -0.004856 0.027144 -0.014594 -0.017345 0.011540 0.007808
# 3 -0.012765 -0.014594 0.020927 0.006030 -0.009811 -0.005742
# 4 -0.001184 -0.017345 0.006030 0.059318 -0.031855 -0.006265
# 5 0.003806 0.011540 -0.009811 -0.031855 0.053058 0.003379
# 6 -0.011805 0.007808 -0.005742 -0.006265 0.003379 0.039323
#
#
# Mechanical properties :
#
#
# Convention : Reuss Voigt Hill
#
# Bulk Modulus (GPa) = 22.54520 59.23119 40.88819
# Shear Modulus (GPa) = 14.71886 25.97293 20.34590
#
# Velocity S-wave (km/s) = 2.67076 3.54779 3.14005
# Velocity P-wave (km/s) = 4.52065 6.74438 5.74121
#
# Compressibility (1/GPa) = 0.04435535
#
# Stress axis : x y z
#
# Youngs Moduli (GPa) = 16.47035 36.84119 47.78405
#
# Poissons Ratio (x) = 0.17892 0.60997
# Poissons Ratio (y) = 0.07999 0.69735
# Poissons Ratio (z) = 0.21025 0.53766
#
# Static dielectric constant tensor:
#      x y z
#    x 1.805920 0.004670 0.010420 
#    y 0.004670 1.717900 0.020610 
#    z 0.010420 0.020610 1.820530 
# 
# From -- ./inp_files/180101.got.cif
#   From: 2010.05.17/outbox.cif.g08.bks.cpg/sg2_91_cif.got.tgz:180101.got - 2010.06.03 11:33:40.
