data_PCOD9091965
_publ_section_title
;
Structure prediction by ZEFSAII (Michael W. Deem and Ramdas Pophale) SiO2 
 PCOD9091965
Probable space group: P -1
;
_chemical_formula_sum "Si O2"
_cell_formula_units_Z 16
_cell_length_a 11.759340
_cell_length_b 15.047571
_cell_length_c 9.152383
_cell_angle_alpha 137.488167
_cell_angle_beta 39.430367
_cell_angle_gamma 119.548480
_cell_volume 684.035361
_symmetry_space_group_name_H-M "P -1"
_symmetry_group_IT_number 2
_symmetry_cell_setting 'triclinic'
loop_
_space_group_symop_operation_xyz
x,y,z
-x,-y,-z
loop_
_atom_site_type_symbol
_atom_site_label
_atom_site_fract_x
_atom_site_fract_y
_atom_site_fract_z
Si Si1 0.774781 0.967990 0.061267
Si Si2 0.116910 0.848464 0.042930
Si Si3 0.584690 0.400804 0.095028
Si Si4 0.095489 0.250573 0.122826
Si Si5 0.001514 0.428006 0.695199
Si Si6 0.884960 0.711771 0.292860
Si Si7 0.527928 0.301894 0.345263
Si Si8 0.476908 0.196051 0.753603
O O1 0.869681 0.011668 0.877392
O O2 0.661054 0.104327 0.407608
O O3 0.612354 0.880062 0.118935
O O4 0.917963 0.874786 0.909193
O O5 0.317616 0.792734 0.834895
O O6 0.041700 0.759513 0.882826
O O7 0.978543 0.832459 0.291315
O O8 0.573332 0.310192 0.138962
O O9 0.474300 0.547327 0.413382
O O10 0.792081 0.413843 0.885877
O O11 0.514476 0.333968 0.943786
O O12 0.071234 0.380575 0.407928
O O13 0.310901 0.219300 0.829926
O O14 0.100307 0.326498 0.597046
O O15 0.998343 0.577402 0.938839
O O16 0.674694 0.729025 0.478451
#
# Coordination Sequence:
#
# PCOD9091965 Si02
#       8
#     2   2   2   2   2   2   2   2
#     4   9  22  41  60  89 122 169 206 252 312 359
#     4  12  23  39  62  95 125 162 203 262 304 356
#     4  10  19  40  64  90 120 165 206 245 312 375
#     4  10  22  38  65  86 124 160 211 253 305 362
#     4  10  20  41  63  93 118 170 205 245 314 379
#     4  10  23  39  64  90 132 156 204 257 307 370
#     4  10  23  38  63  92 127 160 198 256 311 367
#     4   9  20  39  67  87 116 172 206 251 303 376
#
# _framework density 23.390605000000001
#
# number of rings (size 3 to 8) (size 9 to 14) (size 15 to 20)
#    0.750    1.250    1.250    1.875    5.250    0.500 
#    0.000    3.125    2.750    0.000    0.000    0.000 
#    0.000    0.000    0.000    0.000    0.000    0.000 
#
# Total GULP energy -89342.394140 kJ/mol
# GULP energy per Si atom -5583.899634 kJ/mol
# Density = 2.333737 g / cm^3
# Si number density = 23.390605 Si / 1000 Ang^3
#
#
#
# Elastic Constant Matrix: (Units=GPa)
#
#
# Indices 1 2 3 4 5 6 
#
# 1 78.5398 16.6545 12.9732 -12.0994 -20.6346 -1.3966
# 2 16.6545 86.9943 -1.9156 -25.5867 -7.5214 -13.0643
# 3 12.9732 -1.9156 60.6973 -12.8395 3.5674 1.0986
# 4 -12.0994 -25.5867 -12.8395 -0.9099 0.1439 1.2658
# 5 -20.6346 -7.5214 3.5674 0.1439 31.5374 5.5969
# 6 -1.3966 -13.0643 1.0986 1.2658 5.5969 31.5602
#
#
#
# Elastic Compliance Matrix: (Units=1/GPa)
#
#
# Indices 1 2 3 4 5 6 
#
# 1 0.016404 -0.004738 -0.005678 -0.006802 0.010750 -0.002671
# 2 -0.004738 0.005325 -0.004056 -0.024979 -0.001873 0.003470
# 3 -0.005678 -0.004056 0.014460 -0.016417 -0.006121 -0.000690
# 4 -0.006802 -0.024979 -0.016417 -0.083224 -0.007203 -0.005454
# 5 0.010750 -0.001873 -0.006121 -0.007203 0.040252 -0.006936
# 6 -0.002671 0.003470 -0.000690 -0.005454 -0.006936 0.034476
#
#
# Mechanical properties :
#
#
# Convention : Reuss Voigt Hill
#
# Bulk Modulus (GPa) = 138.00578 31.29509 84.65044
# Shear Modulus (GPa) = 84.67106 25.67215 55.17160
#
# Velocity S-wave (km/s) = 6.02307 3.31651 4.86192
# Velocity P-wave (km/s) = 10.36814 5.29849 8.23324
#
# Compressibility (1/GPa) = 0.00724607
#
# Stress axis : x y z
#
# Youngs Moduli (GPa) = 60.96070 187.79141 69.15510
#
# Poissons Ratio (x) = 0.88970 0.39266
# Poissons Ratio (y) = 0.28881 0.28049
# Poissons Ratio (z) = 0.34613 0.76167
#
# Static dielectric constant tensor:
#      x y z
#    x 1.890170 -0.007580 0.035290 
#    y -0.007580 1.901810 -0.004360 
#    z 0.035290 -0.004360 1.888970 
# 
# From -- ./inp_files/274213.got.cif
#   From: 2010.05.17/outbox.cif.g08.bks.cpg/sg2_138_cif.got.tgz:274213.got - 2010.06.03 11:33:40.
