data_PCOD9091870
_publ_section_title
;
Structure prediction by ZEFSAII (Michael W. Deem and Ramdas Pophale) SiO2 
 PCOD9091870
Probable space group: P -1
;
_chemical_formula_sum "Si O2"
_cell_formula_units_Z 16
_cell_length_a 19.762809
_cell_length_b 10.173095
_cell_length_c 9.825870
_cell_angle_alpha 85.211783
_cell_angle_beta 50.897930
_cell_angle_gamma 126.145355
_cell_volume 850.221041
_symmetry_space_group_name_H-M "P -1"
_symmetry_group_IT_number 2
_symmetry_cell_setting 'triclinic'
loop_
_space_group_symop_operation_xyz
x,y,z
-x,-y,-z
loop_
_atom_site_type_symbol
_atom_site_label
_atom_site_fract_x
_atom_site_fract_y
_atom_site_fract_z
Si Si1 0.368055 0.063794 0.518718
Si Si2 0.115674 0.489503 0.515099
Si Si3 0.704093 0.371270 0.157790
Si Si4 0.858622 0.720757 0.700615
Si Si5 0.713862 0.310697 0.457420
Si Si6 0.479533 0.614313 0.945395
Si Si7 0.596863 0.966285 0.992859
Si Si8 0.227362 0.846649 0.988764
O O1 0.529330 0.196870 0.353585
O O2 0.275859 0.831611 0.577875
O O3 0.275292 0.984048 0.779259
O O4 0.414982 0.233544 0.336750
O O5 0.102313 0.352953 0.439767
O O6 0.155434 0.489047 0.616114
O O7 0.263754 0.764892 0.259702
O O8 0.955207 0.368291 0.731178
O O9 0.722533 0.394842 0.294681
O O10 0.731599 0.255487 0.083309
O O11 0.819068 0.610769 0.908299
O O12 0.698897 0.583954 0.856764
O O13 0.000000 0.000000 0.500000
O O14 0.547123 0.131282 0.754977
O O15 0.532492 0.793038 0.970220
O O16 0.500000 0.500000 0.000000
O O17 0.671892 0.982735 0.023710
#
# Coordination Sequence:
#
# PCOD9091870 Si02
#       8
#     2   2   2   2   2   2   2   2
#     4  10  19  40  62  91 125 159 202 247 307 358
#     4  12  24  37  61 100 124 156 202 259 305 350
#     4  10  20  38  64  90 122 164 199 244 309 364
#     4  11  25  44  61  88 128 162 199 250 313 362
#     4  11  19  38  65  91 120 157 204 251 302 361
#     4  11  25  42  65  89 118 165 210 250 296 363
#     4  12  20  40  66  91 119 160 210 249 294 367
#     4  11  22  36  63  97 126 154 199 258 307 355
#
# _framework density 18.818636000000001
#
# number of rings (size 3 to 8) (size 9 to 14) (size 15 to 20)
#    0.000    1.000    6.250    2.250    1.750    2.000 
#    2.250    2.500    0.000    0.000    0.000    0.000 
#    0.000    0.000    0.000    0.000    0.000    0.000 
#
# Total GULP energy -89404.662192 kJ/mol
# GULP energy per Si atom -5587.791387 kJ/mol
# Density = 1.877580 g / cm^3
# Si number density = 18.818636 Si / 1000 Ang^3
#
#
#
# Elastic Constant Matrix: (Units=GPa)
#
#
# Indices 1 2 3 4 5 6 
#
# 1 90.2851 24.9432 50.2233 3.9679 23.3827 5.3185
# 2 24.9432 88.2118 42.6242 -11.7733 19.9624 9.8178
# 3 50.2233 42.6242 95.7695 -8.1276 19.3026 7.7317
# 4 3.9679 -11.7733 -8.1276 24.4139 3.1843 7.1358
# 5 23.3827 19.9624 19.3026 3.1843 36.2385 -1.4862
# 6 5.3185 9.8178 7.7317 7.1358 -1.4862 27.7461
#
#
#
# Elastic Compliance Matrix: (Units=1/GPa)
#
#
# Indices 1 2 3 4 5 6 
#
# 1 0.017604 -0.000152 -0.008260 -0.004804 -0.006459 -0.000130
# 2 -0.000152 0.017865 -0.004578 0.010635 -0.008576 -0.008211
# 3 -0.008260 -0.004578 0.018188 0.006607 -0.002569 -0.003702
# 4 -0.004804 0.010635 0.006607 0.056441 -0.012051 -0.019845
# 5 -0.006459 -0.008576 -0.002569 -0.012051 0.039332 0.010195
# 6 -0.000130 -0.008211 -0.003702 -0.019845 0.010195 0.045653
#
#
# Mechanical properties :
#
#
# Convention : Reuss Voigt Hill
#
# Bulk Modulus (GPa) = 36.12834 56.64974 46.38904
# Shear Modulus (GPa) = 21.71187 28.11143 24.91165
#
# Velocity S-wave (km/s) = 3.40036 3.86917 3.64232
# Velocity P-wave (km/s) = 5.88698 7.08019 6.51097
#
# Compressibility (1/GPa) = 0.02767910
#
# Stress axis : x y z
#
# Youngs Moduli (GPa) = 56.80454 55.97441 54.98087
#
# Poissons Ratio (x) = 0.00849 0.45413
# Poissons Ratio (y) = 0.00862 0.25169
# Poissons Ratio (z) = 0.46920 0.25624
#
# Static dielectric constant tensor:
#      x y z
#    x 1.679700 0.024430 0.020230 
#    y 0.024430 1.635020 0.015050 
#    z 0.020230 0.015050 1.659270 
# 
# From -- ./inp_files/333239.got.cif
#   From: 2010.05.17/outbox.cif.g08.bks.cpg/sg2_167_cif.got.tgz:333239.got - 2010.06.03 11:33:40.
