data_PCOD9091876
_publ_section_title
;
Structure prediction by ZEFSAII (Michael W. Deem and Ramdas Pophale) SiO2 
 PCOD9091876
Probable space group: P -1
;
_chemical_formula_sum "Si O2"
_cell_formula_units_Z 14
_cell_length_a 5.384470
_cell_length_b 26.061730
_cell_length_c 6.040324
_cell_angle_alpha 121.101866
_cell_angle_beta 100.841701
_cell_angle_gamma 53.841936
_cell_volume 577.585366
_symmetry_space_group_name_H-M "P -1"
_symmetry_group_IT_number 2
_symmetry_cell_setting 'triclinic'
loop_
_space_group_symop_operation_xyz
x,y,z
-x,-y,-z
loop_
_atom_site_type_symbol
_atom_site_label
_atom_site_fract_x
_atom_site_fract_y
_atom_site_fract_z
Si Si1 0.295390 0.190256 0.380734
Si Si2 0.895012 0.678923 0.649465
Si Si3 0.636438 0.433853 0.202787
Si Si4 0.208258 0.391507 0.896060
Si Si5 0.189306 0.939298 0.084306
Si Si6 0.834201 0.891648 0.129542
Si Si7 0.433319 0.762482 0.139824
O O1 0.616798 0.140256 0.184301
O O2 0.397852 0.200719 0.657512
O O3 0.085244 0.270586 0.411419
O O4 0.157551 0.145096 0.190008
O O5 0.178182 0.639807 0.779394
O O6 0.883392 0.617853 0.382947
O O7 0.585515 0.727912 0.852087
O O8 0.500000 0.500000 0.500000
O O9 0.371914 0.433007 0.029911
O O10 0.900236 0.426841 0.075467
O O11 0.456822 0.306300 0.833985
O O12 0.966068 0.938886 0.219096
O O13 0.000000 0.000000 0.000000
O O14 0.528158 0.061736 0.768443
O O15 0.068024 0.824890 0.184758
#
# Coordination Sequence:
#
# PCOD9091876 Si02
#       7
#     2   2   2   2   2   2   2
#     4   9  21  37  62  89 120 158 202 255 304 357
#     4  10  21  41  62  91 126 159 204 256 304 355
#     4  11  24  42  64  92 126 164 205 246 299 367
#     4  10  24  39  64  92 124 160 204 253 303 355
#     4  10  21  40  61  85 124 161 196 250 307 359
#     4  10  20  38  60  84 119 156 198 252 302 357
#     4  10  19  40  62  94 117 160 208 254 303 361
#
# _framework density 24.23884
#
# number of rings (size 3 to 8) (size 9 to 14) (size 15 to 20)
#    0.857    1.143    1.429    1.714    0.000    6.857 
#    5.143    1.429    0.000    0.000    0.000    0.000 
#    0.000    0.000    0.000    0.000    0.000    0.000 
#
# Total GULP energy -78224.102119 kJ/mol
# GULP energy per Si atom -5587.435866 kJ/mol
# Density = 2.418367 g / cm^3
# Si number density = 24.238840 Si / 1000 Ang^3
#
#
#
# Elastic Constant Matrix: (Units=GPa)
#
#
# Indices 1 2 3 4 5 6 
#
# 1 164.6503 35.5137 33.5418 0.5694 20.5178 -10.1119
# 2 35.5137 66.5956 0.4627 2.2769 -5.5474 -9.5034
# 3 33.5418 0.4627 95.1471 1.2418 9.3967 -11.3239
# 4 0.5694 2.2769 1.2418 22.1340 -2.2692 6.9419
# 5 20.5178 -5.5474 9.3967 -2.2692 29.2007 4.5688
# 6 -10.1119 -9.5034 -11.3239 6.9419 4.5688 20.0990
#
#
#
# Elastic Compliance Matrix: (Units=1/GPa)
#
#
# Indices 1 2 3 4 5 6 
#
# 1 0.008496 -0.004613 -0.001930 -0.001269 -0.006791 0.002988
# 2 -0.004613 0.019171 0.002125 -0.004113 0.004578 0.008321
# 3 -0.001930 0.002125 0.012811 -0.004369 -0.004224 0.009721
# 4 -0.001269 -0.004113 -0.004369 0.055163 0.009927 -0.026354
# 5 -0.006791 0.004578 -0.004224 0.009927 0.044713 -0.017224
# 6 0.002988 0.008321 0.009721 -0.026354 -0.017224 0.073685
#
#
# Mechanical properties :
#
#
# Convention : Reuss Voigt Hill
#
# Bulk Modulus (GPa) = 31.60406 51.71437 41.65921
# Shear Modulus (GPa) = 21.42044 31.41171 26.41608
#
# Velocity S-wave (km/s) = 2.97597 3.60380 3.30483
# Velocity P-wave (km/s) = 4.98753 6.22078 5.63798
#
# Compressibility (1/GPa) = 0.03164150
#
# Stress axis : x y z
#
# Youngs Moduli (GPa) = 117.70623 52.16317 78.05769
#
# Poissons Ratio (x) = 0.24063 0.15063
# Poissons Ratio (y) = 0.54299 -0.16586
# Poissons Ratio (z) = 0.22714 -0.11084
#
# Static dielectric constant tensor:
#      x y z
#    x 1.937740 -0.016790 0.009810 
#    y -0.016790 1.948470 0.003640 
#    z 0.009810 0.003640 1.915200 
# 
# From -- ./inp_files/14716.got.cif
#   From: 2010.05.17/outbox.cif.g08.bks.cpg/sg2_8_cif.got.tgz:14716.got - 2010.06.03 11:33:40.
