data_PCOD9091163
_publ_section_title
;
Structure prediction by ZEFSAII (Michael W. Deem and Ramdas Pophale) SiO2 
 PCOD9091163
Probable space group: P -1
;
_chemical_formula_sum "Si O2"
_cell_formula_units_Z 14
_cell_length_a 16.320227
_cell_length_b 12.151781
_cell_length_c 18.635327
_cell_angle_alpha 152.273638
_cell_angle_beta 155.736363
_cell_angle_gamma 26.580761
_cell_volume 628.585895
_symmetry_space_group_name_H-M "P -1"
_symmetry_group_IT_number 2
_symmetry_cell_setting 'triclinic'
loop_
_space_group_symop_operation_xyz
x,y,z
-x,-y,-z
loop_
_atom_site_type_symbol
_atom_site_label
_atom_site_fract_x
_atom_site_fract_y
_atom_site_fract_z
Si Si1 0.733159 0.659163 0.219983
Si Si2 0.794396 0.793723 0.499963
Si Si3 0.734696 0.705791 0.563580
Si Si4 0.569153 0.924952 0.893011
Si Si5 0.016748 0.156178 0.912246
Si Si6 0.766811 0.110280 0.921719
Si Si7 0.449512 0.393923 0.179822
O O1 0.675380 0.761593 0.314534
O O2 0.003511 0.510172 0.342774
O O3 0.614865 0.906488 0.215641
O O4 0.658011 0.429015 0.010474
O O5 0.713861 0.827686 0.537984
O O6 0.000000 0.500000 0.500000
O O7 0.891224 0.004363 0.686366
O O8 0.579165 0.563821 0.366146
O O9 0.672213 0.928789 0.703330
O O10 0.526154 0.710489 0.779409
O O11 0.812312 0.803272 0.979956
O O12 0.549849 0.144333 0.062848
O O13 0.816844 0.424053 0.939107
O O14 0.164103 0.969248 0.986862
O O15 0.000000 0.000000 0.000000
#
# Coordination Sequence:
#
# PCOD9091163 Si02
#       7
#     2   2   2   2   2   2   2
#     4  10  21  41  66 103 138 172 222 283 346 405
#     4  10  19  39  64 104 137 167 219 277 352 401
#     4  10  21  41  66 103 138 172 222 283 346 405
#     4  11  26  46  69  97 135 188 233 275 332 405
#     4  12  23  44  70  98 141 176 230 280 338 412
#     4  10  19  39  64 104 137 167 219 277 352 401
#     4  11  26  46  69  97 135 188 233 275 332 405
#
# _framework density 22.272214000000002
#
# number of rings (size 3 to 8) (size 9 to 14) (size 15 to 20)
#    0.000    1.429    4.286    3.857    0.000    2.857 
#    5.143    4.286    0.000    0.000    0.000    0.000 
#    0.000    0.000    0.000    0.000    0.000    0.000 
#
# Total GULP energy -78301.775952 kJ/mol
# GULP energy per Si atom -5592.983997 kJ/mol
# Density = 2.222152 g / cm^3
# Si number density = 22.272214 Si / 1000 Ang^3
#
#
#
# Elastic Constant Matrix: (Units=GPa)
#
#
# Indices 1 2 3 4 5 6 
#
# 1 121.2105 23.6725 28.6067 -4.9754 3.5303 -3.2066
# 2 23.6725 73.3251 4.5422 -15.6360 2.0034 0.0277
# 3 28.6067 4.5422 79.1658 0.0902 -4.8170 3.5116
# 4 -4.9754 -15.6360 0.0902 25.5396 -8.7720 -4.8287
# 5 3.5303 2.0034 -4.8170 -8.7720 30.0273 1.2686
# 6 -3.2066 0.0277 3.5116 -4.8287 1.2686 57.0304
#
#
#
# Elastic Compliance Matrix: (Units=1/GPa)
#
#
# Indices 1 2 3 4 5 6 
#
# 1 0.009697 -0.002938 -0.003468 -0.000309 -0.001623 0.000770
# 2 -0.002938 0.016775 0.000200 0.010624 0.002334 0.000662
# 3 -0.003468 0.000200 0.014089 0.000127 0.002739 -0.001113
# 4 -0.000309 0.010624 0.000127 0.051210 0.014139 0.003991
# 5 -0.001623 0.002334 0.002739 0.014139 0.037904 0.000093
# 6 0.000770 0.000662 -0.001113 0.003991 0.000093 0.017982
#
#
# Mechanical properties :
#
#
# Convention : Reuss Voigt Hill
#
# Bulk Modulus (GPa) = 35.52460 43.03825 39.28142
# Shear Modulus (GPa) = 29.50660 36.97813 33.24236
#
# Velocity S-wave (km/s) = 3.64375 4.07907 3.86754
# Velocity P-wave (km/s) = 5.80408 6.44599 6.13344
#
# Compressibility (1/GPa) = 0.02814951
#
# Stress axis : x y z
#
# Youngs Moduli (GPa) = 103.12115 59.61095 70.97556
#
# Poissons Ratio (x) = 0.17512 0.24616
# Poissons Ratio (y) = 0.30294 -0.01417
# Poissons Ratio (z) = 0.35764 -0.01190
#
# Static dielectric constant tensor:
#      x y z
#    x 1.840730 -0.078510 0.052550 
#    y -0.078510 1.900190 -0.112860 
#    z 0.052550 -0.112860 1.863040 
# 
# From -- ./inp_files/383129.got.cif
#   From: 2010.05.17/outbox.cif.g08.bks.cpg/sg2_192_cif.got.tgz:383129.got - 2010.06.03 11:33:40.
