data_PCOD9091052
_publ_section_title
;
Structure prediction by ZEFSAII (Michael W. Deem and Ramdas Pophale) SiO2 
 PCOD9091052
Probable space group: P -1
;
_chemical_formula_sum "Si O2"
_cell_formula_units_Z 16
_cell_length_a 8.711054
_cell_length_b 22.999834
_cell_length_c 7.196477
_cell_angle_alpha 102.114427
_cell_angle_beta 106.916881
_cell_angle_gamma 138.794085
_cell_volume 666.014430
_symmetry_space_group_name_H-M "P -1"
_symmetry_group_IT_number 2
_symmetry_cell_setting 'triclinic'
loop_
_space_group_symop_operation_xyz
x,y,z
-x,-y,-z
loop_
_atom_site_type_symbol
_atom_site_label
_atom_site_fract_x
_atom_site_fract_y
_atom_site_fract_z
Si Si1 0.082875 0.551096 0.357371
Si Si2 0.098071 0.807896 0.623361
Si Si3 0.645763 0.308727 0.992619
Si Si4 0.122016 0.689293 0.566139
Si Si5 0.213518 0.217223 0.094099
Si Si6 0.844072 0.040605 0.132733
Si Si7 0.611974 0.861902 0.514446
Si Si8 0.714324 0.127679 0.684916
O O1 0.963562 0.581020 0.332648
O O2 0.474637 0.676728 0.590105
O O3 0.000000 0.500000 0.500000
O O4 0.895539 0.440561 0.104306
O O5 0.936625 0.691837 0.535426
O O6 0.028407 0.854939 0.670708
O O7 0.109251 0.807458 0.404908
O O8 0.459127 0.917517 0.914281
O O9 0.543892 0.240140 0.732036
O O10 0.782190 0.307613 0.198606
O O11 0.352363 0.245180 0.960258
O O12 0.431309 0.802631 0.613110
O O13 0.977406 0.089943 0.002434
O O14 0.986914 0.202172 0.985040
O O15 0.015404 0.038112 0.272806
O O16 0.521283 0.892432 0.393785
O O17 0.500000 0.000000 0.500000
#
# Coordination Sequence:
#
# PCOD9091052 Si02
#       8
#     2   2   2   2   2   2   2   2
#     4   8  17  37  64  85 117 159 198 246 308 346
#     4  10  23  36  61  82 128 159 198 248 297 353
#     4  10  21  39  66  87 119 159 201 251 302 349
#     4   9  19  38  57  88 118 155 192 251 291 353
#     4  10  19  39  63  85 124 158 193 249 298 350
#     4  11  21  39  59  90 118 163 201 241 301 354
#     4  11  23  37  63  91 117 155 207 241 295 364
#     4  11  23  39  59  90 125 158 199 245 295 361
#
# _framework density 24.023506000000001
#
# number of rings (size 3 to 8) (size 9 to 14) (size 15 to 20)
#    0.000    2.250    3.750    0.750    1.750    4.500 
#    0.000    2.500    2.750   14.250    0.000    0.000 
#    0.000    0.000    0.000    0.000    0.000    0.000 
#
# Total GULP energy -89223.826063 kJ/mol
# GULP energy per Si atom -5576.489129 kJ/mol
# Density = 2.396883 g / cm^3
# Si number density = 24.023506 Si / 1000 Ang^3
#
#
#
# Elastic Constant Matrix: (Units=GPa)
#
#
# Indices 1 2 3 4 5 6 
#
# 1 142.5930 23.8480 40.9890 -1.1050 -1.8639 -41.5338
# 2 23.8480 71.4404 -1.2837 -1.7372 2.9309 -15.8686
# 3 40.9890 -1.2837 58.0527 -1.9872 -13.3129 -16.9387
# 4 -1.1050 -1.7372 -1.9872 27.3918 -12.4638 -3.9199
# 5 -1.8639 2.9309 -13.3129 -12.4638 28.0211 -6.8172
# 6 -41.5338 -15.8686 -16.9387 -3.9199 -6.8172 54.0951
#
#
#
# Elastic Compliance Matrix: (Units=1/GPa)
#
#
# Indices 1 2 3 4 5 6 
#
# 1 0.010829 -0.002435 -0.006091 0.000517 -0.000304 0.005692
# 2 -0.002435 0.015882 0.004133 0.003072 0.002635 0.004638
# 3 -0.006091 0.004133 0.029824 0.013384 0.021613 0.009568
# 4 0.000517 0.003072 0.013384 0.055100 0.033927 0.013757
# 5 -0.000304 0.002635 0.021613 0.033927 0.065123 0.017972
# 6 0.005692 0.004638 0.009568 0.013757 0.017972 0.030475
#
#
# Mechanical properties :
#
#
# Convention : Reuss Voigt Hill
#
# Bulk Modulus (GPa) = 20.94284 44.35475 32.64879
# Shear Modulus (GPa) = 21.55779 35.80378 28.68079
#
# Velocity S-wave (km/s) = 2.99885 3.86471 3.45898
# Velocity P-wave (km/s) = 4.55273 6.19821 5.43807
#
# Compressibility (1/GPa) = 0.04774903
#
# Stress axis : x y z
#
# Youngs Moduli (GPa) = 92.34380 62.96587 33.52985
#
# Poissons Ratio (x) = 0.15332 0.20424
# Poissons Ratio (y) = 0.22486 -0.13859
# Poissons Ratio (z) = 0.56248 -0.26026
#
# Static dielectric constant tensor:
#      x y z
#    x 2.125720 0.000200 -0.021240 
#    y 0.000200 1.965080 0.009740 
#    z -0.021240 0.009740 2.002130 
# 
# From -- ./inp_files/226357.got.cif
#   From: 2010.05.17/outbox.cif.g08.bks.cpg/sg2_114_cif.got.tgz:226357.got - 2010.06.03 11:33:40.
