data_PCOD9091821
_publ_section_title
;
Structure prediction by ZEFSAII (Michael W. Deem and Ramdas Pophale) SiO2 
 PCOD9091821
Probable space group: P -1
;
_chemical_formula_sum "Si O2"
_cell_formula_units_Z 16
_cell_length_a 22.621401
_cell_length_b 15.771915
_cell_length_c 9.607994
_cell_angle_alpha 44.450640
_cell_angle_beta 45.634504
_cell_angle_gamma 17.309659
_cell_volume 711.676152
_symmetry_space_group_name_H-M "P -1"
_symmetry_group_IT_number 2
_symmetry_cell_setting 'triclinic'
loop_
_space_group_symop_operation_xyz
x,y,z
-x,-y,-z
loop_
_atom_site_type_symbol
_atom_site_label
_atom_site_fract_x
_atom_site_fract_y
_atom_site_fract_z
Si Si1 0.129751 0.392679 0.297934
Si Si2 0.395737 0.431913 0.285881
Si Si3 0.456159 0.730684 0.198803
Si Si4 0.652871 0.141807 0.467610
Si Si5 0.304036 0.281990 0.587905
Si Si6 0.532336 0.900054 0.915022
Si Si7 0.794505 0.848962 0.130376
Si Si8 0.812198 0.162774 0.083391
O O1 0.270194 0.305760 0.234242
O O2 0.000000 0.500000 0.500000
O O3 0.994025 0.633622 0.121470
O O4 0.266932 0.100809 0.360610
O O5 0.469609 0.372954 0.387336
O O6 0.274233 0.466497 0.426198
O O7 0.604189 0.130552 0.212773
O O8 0.266519 0.704060 0.098663
O O9 0.400760 0.746040 0.419084
O O10 0.623433 0.447762 0.158616
O O11 0.549629 0.735177 0.079215
O O12 0.268084 0.013939 0.076395
O O13 0.819875 0.008864 0.282016
O O14 0.168208 0.347165 0.696529
O O15 0.500000 0.000000 0.500000
O O16 0.356394 0.177443 0.781630
O O17 0.500000 0.000000 0.000000
O O18 0.000000 0.000000 0.000000
#
# Coordination Sequence:
#
# PCOD9091821 Si02
#       8
#     2   2   2   2   2   2   2   2
#     4  12  22  35  64  98 129 153 208 250 302 367
#     4  10  19  40  61  87 120 163 204 249 308 359
#     4  10  23  44  64  85 131 164 200 248 315 366
#     4  12  23  42  64  90 123 168 203 251 306 362
#     4   9  16  32  56  83 119 155 192 231 308 360
#     4  11  20  38  59  93 124 157 194 245 312 364
#     4   9  20  34  59  93 125 163 189 250 308 367
#     4  11  27  43  64  90 117 164 217 257 296 359
#
# _framework density 22.482133999999999
#
# number of rings (size 3 to 8) (size 9 to 14) (size 15 to 20)
#    0.000    1.500    3.750    2.250    3.500    0.500 
#    0.000    1.875    0.000    0.000    0.000    0.000 
#    0.000    0.000    0.000    0.000    0.000    0.000 
#
# Total GULP energy -89254.615790 kJ/mol
# GULP energy per Si atom -5578.413487 kJ/mol
# Density = 2.243096 g / cm^3
# Si number density = 22.482134 Si / 1000 Ang^3
#
#
#
# Elastic Constant Matrix: (Units=GPa)
#
#
# Indices 1 2 3 4 5 6 
#
# 1 55.1678 6.5267 24.3384 -11.5810 18.5474 -13.5887
# 2 6.5267 37.7560 19.2423 -10.2865 7.6887 -17.1935
# 3 24.3384 19.2423 100.2452 -7.2251 7.8171 -4.8102
# 4 -11.5810 -10.2865 -7.2251 20.1260 -1.4771 4.6830
# 5 18.5474 7.6887 7.8171 -1.4771 54.7452 -0.0345
# 6 -13.5887 -17.1935 -4.8102 4.6830 -0.0345 32.8898
#
#
#
# Elastic Compliance Matrix: (Units=1/GPa)
#
#
# Indices 1 2 3 4 5 6 
#
# 1 0.030778 0.012164 -0.007001 0.016996 -0.010668 0.015620
# 2 0.012164 0.048474 -0.008724 0.021937 -0.009075 0.025957
# 3 -0.007001 -0.008724 0.012782 -0.002560 0.001700 -0.005217
# 4 0.016996 0.021937 -0.002560 0.067288 -0.006653 0.008528
# 5 -0.010668 -0.009075 0.001700 -0.006653 0.022728 -0.007932
# 6 0.015620 0.025957 -0.005217 0.008528 -0.007932 0.048442
#
#
# Mechanical properties :
#
#
# Convention : Reuss Voigt Hill
#
# Bulk Modulus (GPa) = 11.77683 32.59820 22.18752
# Shear Modulus (GPa) = 18.80278 31.08964 24.94621
#
# Velocity S-wave (km/s) = 2.89510 3.72272 3.33468
# Velocity P-wave (km/s) = 4.05279 5.74537 4.97164
#
# Compressibility (1/GPa) = 0.08491248
#
# Stress axis : x y z
#
# Youngs Moduli (GPa) = 32.49085 20.62950 78.23217
#
# Poissons Ratio (x) = -0.25093 0.54770
# Poissons Ratio (y) = -0.39520 0.68247
# Poissons Ratio (z) = 0.22747 0.17996
#
# Static dielectric constant tensor:
#      x y z
#    x 1.878890 -0.065480 -0.020010 
#    y -0.065480 1.615870 0.023630 
#    z -0.020010 0.023630 1.855310 
# 
# From -- ./inp_files/208625.got.cif
#   From: 2010.05.17/outbox.cif.g08.bks.cpg/sg2_105_cif.got.tgz:208625.got - 2010.06.03 11:33:40.
