data_PCOD9091516
_publ_section_title
;
Structure prediction by ZEFSAII (Michael W. Deem and Ramdas Pophale) SiO2 
 PCOD9091516
Probable space group: P -1
;
_chemical_formula_sum "Si O2"
_cell_formula_units_Z 11
_cell_length_a 9.653003
_cell_length_b 8.369234
_cell_length_c 11.506672
_cell_angle_alpha 120.354711
_cell_angle_beta 141.266492
_cell_angle_gamma 79.719702
_cell_volume 460.104867
_symmetry_space_group_name_H-M "P -1"
_symmetry_group_IT_number 2
_symmetry_cell_setting 'triclinic'
loop_
_space_group_symop_operation_xyz
x,y,z
-x,-y,-z
loop_
_atom_site_type_symbol
_atom_site_label
_atom_site_fract_x
_atom_site_fract_y
_atom_site_fract_z
Si Si1 0.833311 0.024779 0.140883
Si Si2 0.626320 0.944894 0.238437
Si Si3 0.239333 0.371372 0.649132
Si Si4 0.072923 0.605281 0.339387
Si Si5 0.298074 0.421355 0.102983
Si Si6 0.500000 0.500000 0.500000
O O1 0.083577 0.212047 0.391436
O O2 0.730783 0.982312 0.190008
O O3 0.645985 0.072554 0.955517
O O4 0.827599 0.809793 0.018352
O O5 0.656660 0.757907 0.248699
O O6 0.791441 0.150100 0.488351
O O7 0.465546 0.550969 0.808393
O O8 0.069085 0.435477 0.645261
O O9 0.281218 0.524752 0.438979
O O10 0.880433 0.531803 0.082452
O O11 0.387117 0.552833 0.324247
#
# Coordination Sequence:
#
# PCOD9091516 Si02
#       6
#     2   2   2   2   2   1
#     4  10  20  39  66 101 140 165 207 284 343 381
#     4  10  19  39  67 101 131 166 215 282 339 373
#     4  11  23  40  75 109 121 165 233 287 328 380
#     4  11  22  43  71  95 138 174 217 277 337 388
#     4  12  24  44  70  98 136 177 222 274 332 395
#     4  12  28  44  62  98 140 192 216 252 342 416
#
# _framework density 23.907595000000001
#
# number of rings (size 3 to 8) (size 9 to 14) (size 15 to 20)
#    0.000    1.091    5.455    2.182    0.000    2.182 
#    0.000    1.818    0.000    0.000    0.000    0.000 
#    0.000    0.000    0.000    0.000    0.000    0.000 
#
# Total GULP energy -61346.281941 kJ/mol
# GULP energy per Si atom -5576.934722 kJ/mol
# Density = 2.385318 g / cm^3
# Si number density = 23.907595 Si / 1000 Ang^3
#
#
#
# Elastic Constant Matrix: (Units=GPa)
#
#
# Indices 1 2 3 4 5 6 
#
# 1 90.8013 34.6290 26.7361 -12.9722 11.9146 -0.9057
# 2 34.6290 80.4268 29.5043 -7.1882 12.6912 1.7277
# 3 26.7361 29.5043 109.3758 -10.6138 10.5788 18.1492
# 4 -12.9722 -7.1882 -10.6138 34.1735 4.1727 9.6251
# 5 11.9146 12.6912 10.5788 4.1727 22.7831 -21.2928
# 6 -0.9057 1.7277 18.1492 9.6251 -21.2928 20.3297
#
#
#
# Elastic Compliance Matrix: (Units=1/GPa)
#
#
# Indices 1 2 3 4 5 6 
#
# 1 0.013805 -0.005252 -0.003124 0.001116 0.002672 0.006120
# 2 -0.005252 0.015534 -0.004553 -0.002412 0.002981 0.006774
# 3 -0.003124 -0.004553 0.006295 -0.006604 0.016898 0.015452
# 4 0.001116 -0.002412 -0.006604 0.014247 0.031284 0.032171
# 5 0.002672 0.002981 0.016898 0.031284 -0.038208 -0.070049
# 6 0.006120 0.006774 0.015452 0.032171 -0.070049 -0.053507
#
#
# Mechanical properties :
#
#
# Convention : Reuss Voigt Hill
#
# Bulk Modulus (GPa) = 102.27328 51.37141 76.82234
# Shear Modulus (GPa) = -393.14469 28.10622 -182.51924
#
# Velocity S-wave (km/s) = -12.83746 3.43245 -8.74696
# Velocity P-wave (km/s) = 13.29896 6.10271 8.35522
#
# Compressibility (1/GPa) = 0.00977773
#
# Stress axis : x y z
#
# Youngs Moduli (GPa) = 72.43501 64.37652 158.84642
#
# Poissons Ratio (x) = 0.33808 0.49620
# Poissons Ratio (y) = 0.38040 0.72323
# Poissons Ratio (z) = 0.22627 0.29311
#
# Static dielectric constant tensor:
#      x y z
#    x 1.856210 0.012580 -0.017870 
#    y 0.012580 1.877900 0.011610 
#    z -0.017870 0.011610 1.983600 
# 
# From -- ./inp_files/172977.got.cif
#   From: 2010.05.17/outbox.cif.g08.bks.cpg/sg2_87_cif.got.tgz:172977.got - 2010.06.03 11:33:40.
