data_PCOD9091702
_publ_section_title
;
Structure prediction by ZEFSAII (Michael W. Deem and Ramdas Pophale) SiO2 
 PCOD9091702
Probable space group: P -1
;
_chemical_formula_sum "Si O2"
_cell_formula_units_Z 14
_cell_length_a 17.738631
_cell_length_b 5.312853
_cell_length_c 7.471333
_cell_angle_alpha 65.259838
_cell_angle_beta 58.658159
_cell_angle_gamma 90.662906
_cell_volume 521.777761
_symmetry_space_group_name_H-M "P -1"
_symmetry_group_IT_number 2
_symmetry_cell_setting 'triclinic'
loop_
_space_group_symop_operation_xyz
x,y,z
-x,-y,-z
loop_
_atom_site_type_symbol
_atom_site_label
_atom_site_fract_x
_atom_site_fract_y
_atom_site_fract_z
Si Si1 0.160752 0.362336 0.470592
Si Si2 0.380050 0.011692 0.950579
Si Si3 0.671622 0.524761 0.571113
Si Si4 0.809927 0.180176 0.968802
Si Si5 0.832722 0.403694 0.238513
Si Si6 0.977302 0.930078 0.754785
Si Si7 0.489861 0.621332 0.778560
O O1 0.263022 0.335693 0.382291
O O2 0.160315 0.487840 0.237918
O O3 0.151175 0.597734 0.565075
O O4 0.074770 0.079993 0.687958
O O5 0.369482 0.810444 0.206211
O O6 0.280475 0.951013 0.000379
O O7 0.446836 0.883118 0.782143
O O8 0.424036 0.348488 0.836914
O O9 0.746847 0.541191 0.319575
O O10 0.593869 0.667165 0.569431
O O11 0.899077 0.080339 0.852151
O O12 0.794944 0.167939 0.202565
O O13 0.927248 0.607865 0.978938
O O14 0.000000 0.000000 0.500000
O O15 0.500000 0.500000 0.000000
#
# Coordination Sequence:
#
# PCOD9091702 Si02
#       7
#     2   2   2   2   2   2   2
#     4   9  21  43  64  93 130 175 221 276 348 399
#     4  10  22  40  71  99 137 184 225 282 347 408
#     4   8  19  39  62  98 131 169 227 280 334 404
#     4  11  24  44  64  97 136 174 225 288 343 409
#     4  10  23  44  64  95 138 166 237 277 341 407
#     4  12  24  41  69  94 134 179 224 282 347 412
#     4  10  19  39  70 101 135 179 233 278 343 413
#
# _framework density 26.831346
#
# number of rings (size 3 to 8) (size 9 to 14) (size 15 to 20)
#    0.857    1.143    1.429    2.571    2.000    1.714 
#   10.286    1.429    0.000    0.000    0.000    0.000 
#    0.000    0.000    0.000    0.000    0.000    0.000 
#
# Total GULP energy -78263.573195 kJ/mol
# GULP energy per Si atom -5590.255228 kJ/mol
# Density = 2.677028 g / cm^3
# Si number density = 26.831346 Si / 1000 Ang^3
#
#
#
# Elastic Constant Matrix: (Units=GPa)
#
#
# Indices 1 2 3 4 5 6 
#
# 1 127.5619 38.5152 24.6758 2.6824 -16.2827 14.4630
# 2 38.5152 91.3327 14.5658 15.6557 -10.6807 16.3765
# 3 24.6758 14.5658 108.2301 8.0446 -6.7815 4.9337
# 4 2.6824 15.6557 8.0446 41.7672 -0.9850 -1.0646
# 5 -16.2827 -10.6807 -6.7815 -0.9850 57.1962 -8.5282
# 6 14.4630 16.3765 4.9337 -1.0646 -8.5282 40.0514
#
#
#
# Elastic Compliance Matrix: (Units=1/GPa)
#
#
# Indices 1 2 3 4 5 6 
#
# 1 0.009563 -0.003493 -0.001614 0.001009 0.001681 -0.001441
# 2 -0.003493 0.014281 -0.000487 -0.005129 0.000860 -0.004471
# 3 -0.001614 -0.000487 0.009842 -0.001606 0.000535 -0.000359
# 4 0.001009 -0.005129 -0.001606 0.026176 -0.000019 0.002622
# 5 0.001681 0.000860 0.000535 -0.000019 0.018624 0.002941
# 6 -0.001441 -0.004471 -0.000359 0.002622 0.002941 0.028057
#
#
# Mechanical properties :
#
#
# Convention : Reuss Voigt Hill
#
# Bulk Modulus (GPa) = 44.44752 53.62648 49.03700
# Shear Modulus (GPa) = 39.92623 44.42749 42.17686
#
# Velocity S-wave (km/s) = 3.86170 4.07357 3.96905
# Velocity P-wave (km/s) = 6.04029 6.49271 6.27058
#
# Compressibility (1/GPa) = 0.02249844
#
# Stress axis : x y z
#
# Youngs Moduli (GPa) = 104.56851 70.02273 101.60141
#
# Poissons Ratio (x) = 0.24461 0.16400
# Poissons Ratio (y) = 0.36529 0.04944
# Poissons Ratio (z) = 0.16879 0.03408
#
# Static dielectric constant tensor:
#      x y z
#    x 2.059180 -0.029970 -0.008910 
#    y -0.029970 2.190880 -0.069680 
#    z -0.008910 -0.069680 2.152370 
# 
# From -- ./inp_files/339326.got.cif
#   From: 2010.05.17/outbox.cif.g08.bks.cpg/sg2_170_cif.got.tgz:339326.got - 2010.06.03 11:33:40.
