data_PCOD9091385
_publ_section_title
;
Structure prediction by ZEFSAII (Michael W. Deem and Ramdas Pophale) SiO2 
 PCOD9091385
Probable space group: P -1
;
_chemical_formula_sum "Si O2"
_cell_formula_units_Z 12
_cell_length_a 10.155284
_cell_length_b 10.148771
_cell_length_c 8.622563
_cell_angle_alpha 110.055447
_cell_angle_beta 101.412365
_cell_angle_gamma 44.256225
_cell_volume 581.022571
_symmetry_space_group_name_H-M "P -1"
_symmetry_group_IT_number 2
_symmetry_cell_setting 'triclinic'
loop_
_space_group_symop_operation_xyz
x,y,z
-x,-y,-z
loop_
_atom_site_type_symbol
_atom_site_label
_atom_site_fract_x
_atom_site_fract_y
_atom_site_fract_z
Si Si1 0.098959 0.510068 0.886783
Si Si2 0.537926 0.833401 0.343356
Si Si3 0.729110 0.872004 0.837018
Si Si4 0.414820 0.864707 0.806486
Si Si5 0.360113 0.538516 0.111921
Si Si6 0.595432 0.306227 0.543628
O O1 0.274145 0.296700 0.768344
O O2 0.939594 0.660874 0.783135
O O3 0.190765 0.584094 0.005411
O O4 0.000000 0.500000 0.000000
O O5 0.549737 0.688204 0.395632
O O6 0.500000 0.000000 0.500000
O O7 0.355417 0.958882 0.239375
O O8 0.579843 0.853380 0.794511
O O9 0.719951 0.952804 0.035053
O O10 0.520204 0.667781 0.851551
O O11 0.320307 0.861405 0.633503
O O12 0.295751 0.696549 0.292450
O O13 0.500000 0.500000 0.000000
O O14 0.500000 0.500000 0.500000
#
# Coordination Sequence:
#
# PCOD9091385 Si02
#       6
#     2   2   2   2   2   2
#     4  12  24  41  71 103 135 177 231 282 333 403
#     4  12  24  44  70 101 137 178 224 284 342 403
#     4  11  21  39  69  99 130 173 230 279 331 396
#     4  10  19  39  65  95 133 178 219 275 337 397
#     4  11  20  40  65  92 137 185 219 268 347 407
#     4  10  22  39  70  94 132 188 221 266 346 407
#
# _framework density 20.653244000000001
#
# number of rings (size 3 to 8) (size 9 to 14) (size 15 to 20)
#    0.000    1.000    6.667    1.000    0.000    0.667 
#    0.000    4.167    0.000    0.000    0.000    0.000 
#    0.000    0.000    0.000    0.000    0.000    0.000 
#
# Total GULP energy -66944.868752 kJ/mol
# GULP energy per Si atom -5578.739063 kJ/mol
# Density = 2.060624 g / cm^3
# Si number density = 20.653244 Si / 1000 Ang^3
#
#
#
# Elastic Constant Matrix: (Units=GPa)
#
#
# Indices 1 2 3 4 5 6 
#
# 1 91.5029 33.9271 31.3816 -2.0876 -3.3396 14.4908
# 2 33.9271 92.5561 25.1971 -5.2253 -11.3028 -2.6867
# 3 31.3816 25.1971 144.7868 15.5420 20.3121 -1.4537
# 4 -2.0876 -5.2253 15.5420 28.1820 17.2857 -2.8811
# 5 -3.3396 -11.3028 20.3121 17.2857 30.9577 -6.2565
# 6 14.4908 -2.6867 -1.4537 -2.8811 -6.2565 41.0045
#
#
#
# Elastic Compliance Matrix: (Units=1/GPa)
#
#
# Indices 1 2 3 4 5 6 
#
# 1 0.014402 -0.004753 -0.002426 0.001182 -0.000353 -0.005458
# 2 -0.004753 0.014141 -0.002352 -0.000471 0.007181 0.003585
# 3 -0.002426 -0.002352 0.008871 -0.001902 -0.005882 -0.000013
# 4 0.001182 -0.000471 -0.001902 0.054478 -0.029454 -0.001182
# 5 -0.000353 0.007181 -0.005882 -0.029454 0.056596 0.006953
# 6 -0.005458 0.003585 -0.000013 -0.001182 0.006953 0.027528
#
#
# Mechanical properties :
#
#
# Convention : Reuss Voigt Hill
#
# Bulk Modulus (GPa) = 54.49208 56.65080 55.57144
# Shear Modulus (GPa) = 24.85148 35.91819 30.38483
#
# Velocity S-wave (km/s) = 3.47259 4.17478 3.83977
# Velocity P-wave (km/s) = 6.52074 7.12232 6.82816
#
# Compressibility (1/GPa) = 0.01835129
#
# Stress axis : x y z
#
# Youngs Moduli (GPa) = 69.43699 70.71565 112.72691
#
# Poissons Ratio (x) = 0.33613 0.27352
# Poissons Ratio (y) = 0.33005 0.26508
# Poissons Ratio (z) = 0.16848 0.16629
#
# Static dielectric constant tensor:
#      x y z
#    x 1.720180 0.043270 0.012190 
#    y 0.043270 1.762660 -0.020330 
#    z 0.012190 -0.020330 1.812300 
# 
# From -- ./inp_files/159808.got.cif
#   From: 2010.05.17/outbox.cif.g08.bks.cpg/sg2_80_cif.got.tgz:159808.got - 2010.06.03 11:33:40.
