data_PCOD9091730
_publ_section_title
;
Structure prediction by ZEFSAII (Michael W. Deem and Ramdas Pophale) SiO2 
 PCOD9091730
Probable space group: P -1
;
_chemical_formula_sum "Si O2"
_cell_formula_units_Z 14
_cell_length_a 8.495352
_cell_length_b 6.794927
_cell_length_c 12.723918
_cell_angle_alpha 89.809042
_cell_angle_beta 49.798583
_cell_angle_gamma 96.809857
_cell_volume 553.934873
_symmetry_space_group_name_H-M "P -1"
_symmetry_group_IT_number 2
_symmetry_cell_setting 'triclinic'
loop_
_space_group_symop_operation_xyz
x,y,z
-x,-y,-z
loop_
_atom_site_type_symbol
_atom_site_label
_atom_site_fract_x
_atom_site_fract_y
_atom_site_fract_z
Si Si1 0.661874 0.591955 0.341938
Si Si2 0.599965 0.670190 0.697440
Si Si3 0.190707 0.026539 0.996807
Si Si4 0.053843 0.780514 0.456296
Si Si5 0.883517 0.332147 0.808380
Si Si6 0.496564 0.924903 0.327723
Si Si7 0.446633 0.230439 0.040009
O O1 0.500000 0.500000 0.500000
O O2 0.572733 0.508242 0.267706
O O3 0.646963 0.828456 0.341571
O O4 0.890587 0.540989 0.266631
O O5 0.581076 0.733695 0.825627
O O6 0.840441 0.638952 0.580667
O O7 0.553065 0.851396 0.641621
O O8 0.389800 0.064604 0.834050
O O9 0.236209 0.206231 0.061134
O O10 0.141645 0.823993 0.084697
O O11 0.000000 0.000000 0.000000
O O12 0.091225 0.759098 0.316825
O O13 0.271341 0.785301 0.422900
O O14 0.000000 0.000000 0.500000
O O15 0.647490 0.379755 0.909473
O O16 0.500000 0.000000 0.000000
#
# Coordination Sequence:
#
# PCOD9091730 Si02
#       7
#     2   2   2   2   2   2   2
#     4  12  27  44  63 102 142 173 223 284 326 395
#     4  11  23  44  70  99 135 180 226 268 335 403
#     4  11  19  36  69 100 125 172 219 271 333 393
#     4  10  20  39  70  99 126 180 227 269 333 403
#     4  11  20  39  68  93 141 173 217 284 326 385
#     4  11  22  43  71  93 133 179 220 273 341 391
#     4  10  19  39  71  96 130 177 219 275 335 389
#
# _framework density 25.273728999999999
#
# number of rings (size 3 to 8) (size 9 to 14) (size 15 to 20)
#    0.000    1.143    7.143    2.571    0.000    1.714 
#    0.000    0.714    0.000    0.000    0.000    0.000 
#    0.000    0.000    0.000    0.000    0.000    0.000 
#
# Total GULP energy -78175.041615 kJ/mol
# GULP energy per Si atom -5583.931544 kJ/mol
# Density = 2.521620 g / cm^3
# Si number density = 25.273729 Si / 1000 Ang^3
#
#
#
# Elastic Constant Matrix: (Units=GPa)
#
#
# Indices 1 2 3 4 5 6 
#
# 1 145.5158 25.1384 34.1009 19.5087 -22.6262 18.4366
# 2 25.1384 62.8454 17.5533 -2.3056 -2.5225 -3.1804
# 3 34.1009 17.5533 148.5880 19.4205 -9.2226 5.8463
# 4 19.5087 -2.3056 19.4205 40.5785 1.4619 5.5036
# 5 -22.6262 -2.5225 -9.2226 1.4619 63.0653 -8.2332
# 6 18.4366 -3.1804 5.8463 5.5036 -8.2332 43.6355
#
#
#
# Elastic Compliance Matrix: (Units=1/GPa)
#
#
# Indices 1 2 3 4 5 6 
#
# 1 0.008983 -0.003533 -0.000866 -0.003799 0.002657 -0.002956
# 2 -0.003533 0.018081 -0.001893 0.003308 -0.000566 0.002540
# 3 -0.000866 -0.001893 0.007647 -0.003348 0.000780 -0.000227
# 4 -0.003799 0.003308 -0.003348 0.028600 -0.002619 -0.001806
# 5 0.002657 -0.000566 0.000780 -0.002619 0.017265 0.002320
# 6 -0.002956 0.002540 -0.000227 -0.001806 0.002320 0.025047
#
#
# Mechanical properties :
#
#
# Convention : Reuss Voigt Hill
#
# Bulk Modulus (GPa) = 45.19423 56.72604 50.96013
# Shear Modulus (GPa) = 39.81428 48.13296 43.97362
#
# Velocity S-wave (km/s) = 3.97334 4.36875 4.17573
# Velocity P-wave (km/s) = 6.24265 6.92397 6.59212
#
# Compressibility (1/GPa) = 0.02212672
#
# Stress axis : x y z
#
# Youngs Moduli (GPa) = 111.32681 55.30596 130.76415
#
# Poissons Ratio (x) = 0.19542 0.11328
# Poissons Ratio (y) = 0.39337 0.24747
# Poissons Ratio (z) = 0.09644 0.10467
#
# Static dielectric constant tensor:
#      x y z
#    x 2.145210 -0.068640 -0.083870 
#    y -0.068640 2.158170 -0.005880 
#    z -0.083870 -0.005880 1.965370 
# 
# From -- ./inp_files/490729.got.cif
#   From: 2010.05.17/outbox.cif.g08.bks.cpg/sg2_246_cif.got.tgz:490729.got - 2010.06.03 11:33:40.
