data_PCOD9091875
_publ_section_title
;
Structure prediction by ZEFSAII (Michael W. Deem and Ramdas Pophale) SiO2 
 PCOD9091875
Probable space group: P -1
;
_chemical_formula_sum "Si O2"
_cell_formula_units_Z 16
_cell_length_a 19.668767
_cell_length_b 8.954467
_cell_length_c 11.247795
_cell_angle_alpha 115.779578
_cell_angle_beta 127.086502
_cell_angle_gamma 31.124315
_cell_volume 800.812686
_symmetry_space_group_name_H-M "P -1"
_symmetry_group_IT_number 2
_symmetry_cell_setting 'triclinic'
loop_
_space_group_symop_operation_xyz
x,y,z
-x,-y,-z
loop_
_atom_site_type_symbol
_atom_site_label
_atom_site_fract_x
_atom_site_fract_y
_atom_site_fract_z
Si Si1 0.180211 0.245937 0.700230
Si Si2 0.621751 0.160134 0.007880
Si Si3 0.401289 0.140090 0.241285
Si Si4 0.172110 0.769822 0.131470
Si Si5 0.146377 0.442077 0.252976
Si Si6 0.141341 0.094420 0.392558
Si Si7 0.853680 0.919166 0.974326
Si Si8 0.283545 0.191164 0.545836
O O1 0.143831 0.134434 0.549728
O O2 0.237638 0.276585 0.665926
O O3 0.026410 0.570162 0.703581
O O4 0.302620 0.008954 0.845943
O O5 0.751874 0.017128 0.007840
O O6 0.500000 0.500000 0.000000
O O7 0.555717 0.098448 0.861550
O O8 0.284684 0.435020 0.141326
O O9 0.303018 0.245801 0.288887
O O10 0.551849 0.003050 0.373088
O O11 0.171548 0.868084 0.291048
O O12 0.218128 0.826250 0.097029
O O13 0.000000 0.000000 0.000000
O O14 0.164007 0.453187 0.414387
O O15 0.007514 0.739544 0.134647
O O16 0.119813 0.287648 0.149428
O O17 0.269277 0.015288 0.451917
#
# Coordination Sequence:
#
# PCOD9091875 Si02
#       8
#     2   2   2   2   2   2   2   2
#     4   9  20  41  66  88 119 173 208 245 302 381
#     4  11  25  45  61  90 126 167 209 254 315 379
#     4  11  25  39  64  94 127 159 211 267 306 372
#     4  12  22  41  64 101 121 160 214 264 306 360
#     4  10  19  40  62  93 123 164 206 259 310 357
#     4   9  20  39  66  92 122 163 205 252 305 373
#     4  10  21  37  68  87 122 166 209 253 312 363
#     4  10  20  39  63  90 130 168 201 255 317 362
#
# _framework density 19.979704000000002
#
# number of rings (size 3 to 8) (size 9 to 14) (size 15 to 20)
#    0.750    1.000    2.500    1.875    3.500    1.000 
#    9.000    0.000    0.000    3.000    0.000    0.000 
#    0.000    0.000    0.000    0.000    0.000    0.000 
#
# Total GULP energy -89156.335727 kJ/mol
# GULP energy per Si atom -5572.270983 kJ/mol
# Density = 1.993423 g / cm^3
# Si number density = 19.979704 Si / 1000 Ang^3
#
#
#
# Elastic Constant Matrix: (Units=GPa)
#
#
# Indices 1 2 3 4 5 6 
#
# 1 86.5326 15.8490 38.8696 -6.2976 -3.2046 -1.6788
# 2 15.8490 75.4663 27.3529 2.1016 -0.5956 7.4736
# 3 38.8696 27.3529 63.3959 -12.8188 -5.1065 -8.1828
# 4 -6.2976 2.1016 -12.8188 24.8932 3.5346 2.5410
# 5 -3.2046 -0.5956 -5.1065 3.5346 45.4454 -7.9685
# 6 -1.6788 7.4736 -8.1828 2.5410 -7.9685 27.9094
#
#
#
# Elastic Compliance Matrix: (Units=1/GPa)
#
#
# Indices 1 2 3 4 5 6 
#
# 1 0.016121 0.000814 -0.010836 -0.001267 -0.000397 -0.002423
# 2 0.000814 0.017786 -0.010463 -0.005631 -0.001812 -0.007786
# 3 -0.010836 -0.010463 0.031204 0.012560 0.003588 0.011180
# 4 -0.001267 -0.005631 0.012560 0.047119 -0.002392 0.000141
# 5 -0.000397 -0.001812 0.003588 -0.002392 0.024050 0.008598
# 6 -0.002423 -0.007786 0.011180 0.000141 0.008598 0.043489
#
#
# Mechanical properties :
#
#
# Convention : Reuss Voigt Hill
#
# Bulk Modulus (GPa) = 41.42365 43.28198 42.35282
# Shear Modulus (GPa) = 21.85458 29.20449 25.52953
#
# Velocity S-wave (km/s) = 3.31091 3.82738 3.57847
# Velocity P-wave (km/s) = 5.94929 6.42197 6.19015
#
# Compressibility (1/GPa) = 0.02414080
#
# Stress axis : x y z
#
# Youngs Moduli (GPa) = 62.03137 56.22467 32.04738
#
# Poissons Ratio (x) = -0.04578 0.34727
# Poissons Ratio (y) = -0.05050 0.33530
# Poissons Ratio (z) = 0.67219 0.58826
#
# Static dielectric constant tensor:
#      x y z
#    x 1.745970 -0.004190 -0.011610 
#    y -0.004190 1.684430 0.002860 
#    z -0.011610 0.002860 1.732500 
# 
# From -- ./inp_files/469524.got.cif
#   From: 2010.05.17/outbox.cif.g08.bks.cpg/sg2_235_cif.got.tgz:469524.got - 2010.06.03 11:33:40.
