data_PCOD9091517
_publ_section_title
;
Structure prediction by ZEFSAII (Michael W. Deem and Ramdas Pophale) SiO2 
 PCOD9091517
Probable space group: P -1
;
_chemical_formula_sum "Si O2"
_cell_formula_units_Z 14
_cell_length_a 8.546365
_cell_length_b 12.882449
_cell_length_c 7.928033
_cell_angle_alpha 75.486720
_cell_angle_beta 119.151188
_cell_angle_gamma 129.400476
_cell_volume 586.828850
_symmetry_space_group_name_H-M "P -1"
_symmetry_group_IT_number 2
_symmetry_cell_setting 'triclinic'
loop_
_space_group_symop_operation_xyz
x,y,z
-x,-y,-z
loop_
_atom_site_type_symbol
_atom_site_label
_atom_site_fract_x
_atom_site_fract_y
_atom_site_fract_z
Si Si1 0.109783 0.447137 0.969114
Si Si2 0.177472 0.148126 0.962423
Si Si3 0.583168 0.130568 0.200680
Si Si4 0.802497 0.845752 0.406383
Si Si5 0.756546 0.386095 0.353411
Si Si6 0.322448 0.334172 0.277178
Si Si7 0.645288 0.169667 0.832953
O O1 0.252800 0.552558 0.853117
O O2 0.886141 0.301681 0.845845
O O3 0.279608 0.443014 0.180530
O O4 0.000000 0.500000 0.000000
O O5 0.139377 0.173580 0.742816
O O6 0.396772 0.153903 0.066143
O O7 0.207621 0.245398 0.083514
O O8 0.000000 0.000000 0.000000
O O9 0.733134 0.249561 0.364757
O O10 0.458010 0.975268 0.246627
O O11 0.689239 0.154239 0.060542
O O12 0.790794 0.749719 0.579092
O O13 0.560729 0.820054 0.289978
O O14 0.000000 0.000000 0.500000
O O15 0.569169 0.371545 0.379940
O O16 0.000000 0.500000 0.500000
#
# Coordination Sequence:
#
# PCOD9091517 Si02
#       7
#     2   2   2   2   2   2   2
#     4  12  25  47  75  99 142 198 241 298 363 429
#     4  10  19  39  67 101 142 185 231 295 360 429
#     4   9  20  38  71  97 138 185 231 292 356 423
#     4  11  23  40  69 104 146 182 237 302 365 428
#     4  11  24  48  71 107 150 184 239 300 362 435
#     4  11  25  46  69 103 143 192 245 293 361 438
#     4  10  21  41  68 103 137 182 243 291 355 426
#
# _framework density 23.857040999999999
#
# number of rings (size 3 to 8) (size 9 to 14) (size 15 to 20)
#    0.000    1.429    2.857    2.143    4.000    0.000 
#    5.143    5.000    0.000    0.000    0.000    0.000 
#    0.000    0.000    0.000    0.000    0.000    0.000 
#
# Total GULP energy -78266.525259 kJ/mol
# GULP energy per Si atom -5590.466090 kJ/mol
# Density = 2.380274 g / cm^3
# Si number density = 23.857041 Si / 1000 Ang^3
#
#
#
# Elastic Constant Matrix: (Units=GPa)
#
#
# Indices 1 2 3 4 5 6 
#
# 1 68.2970 33.0693 34.8942 -3.9438 -6.9791 2.8827
# 2 33.0693 128.2136 31.4667 4.6793 -1.3604 9.2162
# 3 34.8942 31.4667 102.9026 -10.7874 -16.9873 -0.9756
# 4 -3.9438 4.6793 -10.7874 46.1674 12.5195 -0.5440
# 5 -6.9791 -1.3604 -16.9873 12.5195 35.5008 -6.4230
# 6 2.8827 9.2162 -0.9756 -0.5440 -6.4230 41.9490
#
#
#
# Elastic Compliance Matrix: (Units=1/GPa)
#
#
# Indices 1 2 3 4 5 6 
#
# 1 0.019209 -0.003653 -0.005201 0.000557 0.000861 -0.000499
# 2 -0.003653 0.009423 -0.002009 -0.001440 -0.001184 -0.002066
# 3 -0.005201 -0.002009 0.013092 0.001490 0.004981 0.001885
# 4 0.000557 -0.001440 0.001490 0.024344 -0.007923 -0.000585
# 5 0.000861 -0.001184 0.004981 -0.007923 0.034463 0.005491
# 6 -0.000499 -0.002066 0.001885 -0.000585 0.005491 0.025204
#
#
# Mechanical properties :
#
#
# Convention : Reuss Voigt Hill
#
# Bulk Modulus (GPa) = 50.00343 55.36372 52.68357
# Shear Modulus (GPa) = 32.44063 38.05565 35.24814
#
# Velocity S-wave (km/s) = 3.69154 3.99827 3.84796
# Velocity P-wave (km/s) = 6.25900 6.67621 6.47096
#
# Compressibility (1/GPa) = 0.01999863
#
# Stress axis : x y z
#
# Youngs Moduli (GPa) = 52.05793 106.12054 76.38180
#
# Poissons Ratio (x) = 0.38770 0.39726
# Poissons Ratio (y) = 0.19019 0.15343
# Poissons Ratio (z) = 0.27075 0.21316
#
# Static dielectric constant tensor:
#      x y z
#    x 1.923810 -0.024010 -0.015170 
#    y -0.024010 1.908630 0.008940 
#    z -0.015170 0.008940 1.908670 
# 
# From -- ./inp_files/186192.got.cif
#   From: 2010.05.17/outbox.cif.g08.bks.cpg/sg2_94_cif.got.tgz:186192.got - 2010.06.03 11:33:40.
