data_PCOD9091237
_publ_section_title
;
Structure prediction by ZEFSAII (Michael W. Deem and Ramdas Pophale) SiO2 
 PCOD9091237
Probable space group: P -1
;
_chemical_formula_sum "Si O2"
_cell_formula_units_Z 16
_cell_length_a 15.169287
_cell_length_b 14.353223
_cell_length_c 7.735883
_cell_angle_alpha 130.519737
_cell_angle_beta 55.406300
_cell_angle_gamma 151.131736
_cell_volume 618.165426
_symmetry_space_group_name_H-M "P -1"
_symmetry_group_IT_number 2
_symmetry_cell_setting 'triclinic'
loop_
_space_group_symop_operation_xyz
x,y,z
-x,-y,-z
loop_
_atom_site_type_symbol
_atom_site_label
_atom_site_fract_x
_atom_site_fract_y
_atom_site_fract_z
Si Si1 0.635307 0.678782 0.769037
Si Si2 0.673115 0.098785 0.272666
Si Si3 0.725546 0.277451 0.774158
Si Si4 0.745115 0.573191 0.032192
Si Si5 0.006772 0.677322 0.364408
Si Si6 0.348487 0.566128 0.431591
Si Si7 0.886908 0.100340 0.835735
Si Si8 0.298517 0.085281 0.722289
O O1 0.682612 0.581064 0.592270
O O2 0.725417 0.852510 0.739246
O O3 0.418130 0.496371 0.797137
O O4 0.701853 0.790878 0.019551
O O5 0.746881 0.263784 0.528820
O O6 0.480886 0.955797 0.228312
O O7 0.613092 0.930319 0.262469
O O8 0.819302 0.166366 0.074544
O O9 0.741572 0.436789 0.964361
O O10 0.876090 0.338499 0.780482
O O11 0.708087 0.519509 0.805600
O O12 0.946808 0.805487 0.129327
O O13 0.047472 0.799198 0.302432
O O14 0.792160 0.461994 0.379086
O O15 0.101908 0.847415 0.614161
O O16 0.565002 0.788698 0.440103
#
# Coordination Sequence:
#
# PCOD9091237 Si02
#       8
#     2   2   2   2   2   2   2   2
#     4  10  22  42  66  88 115 152 209 259 295 337
#     4   9  18  38  64  89 118 153 198 249 299 340
#     4  10  19  39  64  92 118 150 204 250 292 352
#     4  11  21  40  67  92 114 154 205 251 300 344
#     4  11  26  38  56  93 130 162 192 233 302 369
#     4  11  22  40  65  92 114 152 208 256 296 344
#     4  11  24  41  57  89 130 163 192 237 301 367
#     4   9  18  40  63  90 114 153 202 254 295 339
#
# _framework density 25.883037999999999
#
# number of rings (size 3 to 8) (size 9 to 14) (size 15 to 20)
#    0.000    1.750    3.750    3.750    0.000    7.500 
#    0.000    1.250    0.000    0.000    0.000    0.000 
#    0.000    0.000    0.000    0.000    0.000    0.000 
#
# Total GULP energy -89554.403851 kJ/mol
# GULP energy per Si atom -5597.150241 kJ/mol
# Density = 2.582413 g / cm^3
# Si number density = 25.883038 Si / 1000 Ang^3
#
#
#
# Elastic Constant Matrix: (Units=GPa)
#
#
# Indices 1 2 3 4 5 6 
#
# 1 90.2289 17.8883 25.7577 -10.6177 -14.0588 1.0236
# 2 17.8883 93.4033 17.6786 -24.4720 -2.2485 14.4260
# 3 25.7577 17.6786 28.1520 -2.6969 -1.8878 12.3637
# 4 -10.6177 -24.4720 -2.6969 34.9189 -2.3052 -0.6969
# 5 -14.0588 -2.2485 -1.8878 -2.3052 32.0902 -8.2316
# 6 1.0236 14.4260 12.3637 -0.6969 -8.2316 35.2056
#
#
#
# Elastic Compliance Matrix: (Units=1/GPa)
#
#
# Indices 1 2 3 4 5 6 
#
# 1 0.018772 0.000502 -0.020150 0.005316 0.009686 0.008695
# 2 0.000502 0.015243 -0.007587 0.010234 0.000751 -0.003218
# 3 -0.020150 -0.007587 0.067239 -0.007486 -0.011797 -0.022825
# 4 0.005316 0.010234 -0.007486 0.037207 0.005347 0.000267
# 5 0.009686 0.000751 -0.011797 0.005347 0.038390 0.012635
# 6 0.008695 -0.003218 -0.022825 0.000267 0.012635 0.040446
#
#
# Mechanical properties :
#
#
# Convention : Reuss Voigt Hill
#
# Bulk Modulus (GPa) = 21.37586 37.15929 29.26758
# Shear Modulus (GPa) = 17.39972 30.47358 23.93665
#
# Velocity S-wave (km/s) = 2.59558 3.43499 3.04435
# Velocity P-wave (km/s) = 4.15443 5.48817 4.86720
#
# Compressibility (1/GPa) = 0.04678173
#
# Stress axis : x y z
#
# Youngs Moduli (GPa) = 53.27090 65.60522 14.87242
#
# Poissons Ratio (x) = -0.03293 0.29969
# Poissons Ratio (y) = -0.02674 0.11284
# Poissons Ratio (z) = 1.07343 0.49776
#
# Static dielectric constant tensor:
#      x y z
#    x 2.010710 0.032910 0.015230 
#    y 0.032910 2.074760 0.037720 
#    z 0.015230 0.037720 2.072460 
# 
# From -- ./inp_files/315726.got.cif
#   From: 2010.05.17/outbox.cif.g08.bks.cpg/sg2_158_cif.got.tgz:315726.got - 2010.06.03 11:33:40.
