data_PCOD9091420
_publ_section_title
;
Structure prediction by ZEFSAII (Michael W. Deem and Ramdas Pophale) SiO2 
 PCOD9091420
Probable space group: P -1
;
_chemical_formula_sum "Si O2"
_cell_formula_units_Z 14
_cell_length_a 17.394991
_cell_length_b 8.590156
_cell_length_c 14.784053
_cell_angle_alpha 126.790980
_cell_angle_beta 23.739043
_cell_angle_gamma 135.831692
_cell_volume 606.400500
_symmetry_space_group_name_H-M "P -1"
_symmetry_group_IT_number 2
_symmetry_cell_setting 'triclinic'
loop_
_space_group_symop_operation_xyz
x,y,z
-x,-y,-z
loop_
_atom_site_type_symbol
_atom_site_label
_atom_site_fract_x
_atom_site_fract_y
_atom_site_fract_z
Si Si1 0.753263 0.691402 0.958438
Si Si2 0.641170 0.735173 0.675250
Si Si3 0.864405 0.834547 0.677816
Si Si4 0.681587 0.500992 0.371330
Si Si5 0.110900 0.582056 0.508750
Si Si6 0.805391 0.158355 0.085604
Si Si7 0.425161 0.991087 0.905028
O O1 0.788631 0.744665 0.831749
O O2 0.955515 0.652518 0.753535
O O3 0.523593 0.462764 0.148093
O O4 0.755990 0.907284 0.073920
O O5 0.670475 0.605902 0.514211
O O6 0.508233 0.851782 0.822257
O O7 0.888981 0.940727 0.506267
O O8 0.877509 0.632824 0.544579
O O9 0.687351 0.910225 0.874702
O O10 0.500000 0.500000 0.500000
O O11 0.665051 0.258788 0.315779
O O12 0.931220 0.669525 0.121897
O O13 0.000000 0.500000 0.500000
O O14 0.356874 0.800391 0.305720
O O15 0.748668 0.152559 0.037458
#
# Coordination Sequence:
#
# PCOD9091420 Si02
#       7
#     2   2   2   2   2   2   2
#     4  10  22  40  62  91 127 162 200 252 304 364
#     4  12  22  40  64  91 128 160 200 258 305 357
#     4  10  22  43  62  88 126 165 206 249 301 363
#     4  11  21  39  69  89 116 165 199 250 313 363
#     4  10  19  39  66  86 125 170 200 245 309 355
#     4  10  22  40  65  89 122 158 206 247 308 367
#     4  11  19  39  66  87 123 167 199 251 305 357
#
# _framework density 23.087050999999999
#
# number of rings (size 3 to 8) (size 9 to 14) (size 15 to 20)
#    0.000    1.429    7.143    0.429    0.000    1.143 
#    5.143    1.429    0.000    0.000    0.000    0.000 
#    0.000    0.000    0.000    0.000    0.000    0.000 
#
# Total GULP energy -78300.179859 kJ/mol
# GULP energy per Si atom -5592.869990 kJ/mol
# Density = 2.303450 g / cm^3
# Si number density = 23.087051 Si / 1000 Ang^3
#
#
#
# Elastic Constant Matrix: (Units=GPa)
#
#
# Indices 1 2 3 4 5 6 
#
# 1 40.0354 42.7777 46.1047 1.2201 -20.1747 2.5334
# 2 42.7777 221.1868 96.0928 35.1220 -12.3633 -20.5888
# 3 46.1047 96.0928 156.6051 15.1921 -22.6411 -16.4519
# 4 1.2201 35.1220 15.1921 61.8830 -9.2244 -3.1873
# 5 -20.1747 -12.3633 -22.6411 -9.2244 43.5140 -2.8366
# 6 2.5334 -20.5888 -16.4519 -3.1873 -2.8366 33.3680
#
#
#
# Elastic Compliance Matrix: (Units=1/GPa)
#
#
# Indices 1 2 3 4 5 6 
#
# 1 0.055576 -0.007167 -0.011262 0.007926 0.018779 -0.011841
# 2 -0.007167 0.007683 -0.002276 -0.003914 -0.002923 0.003541
# 3 -0.011262 -0.002276 0.011802 -0.001058 0.000388 0.005202
# 4 0.007926 -0.003914 -0.001058 0.019323 0.006031 -0.001180
# 5 0.018779 -0.002923 0.000388 0.006031 0.032357 0.000289
# 6 -0.011841 0.003541 0.005202 -0.001180 0.000289 0.035529
#
#
# Mechanical properties :
#
#
# Convention : Reuss Voigt Hill
#
# Bulk Modulus (GPa) = 29.71472 87.53086 58.62279
# Shear Modulus (GPa) = 23.26706 43.27646 33.27176
#
# Velocity S-wave (km/s) = 3.17803 4.33424 3.80036
# Velocity P-wave (km/s) = 5.13470 7.93997 6.68612
#
# Compressibility (1/GPa) = 0.03365335
#
# Stress axis : x y z
#
# Youngs Moduli (GPa) = 17.99350 130.14966 84.72836
#
# Poissons Ratio (x) = 0.93276 0.95419
# Poissons Ratio (y) = 0.12896 0.19280
# Poissons Ratio (z) = 0.20264 0.29616
#
# Static dielectric constant tensor:
#      x y z
#    x 1.964560 0.011950 -0.002190 
#    y 0.011950 1.923670 0.036980 
#    z -0.002190 0.036980 1.860930 
# 
# From -- ./inp_files/577414.got.cif
#   From: 2010.05.17/outbox.cif.g08.bks.cpg/sg2_289_cif.got.tgz:577414.got - 2010.06.03 11:33:40.
