data_PCOD9091094
_publ_section_title
;
Structure prediction by ZEFSAII (Michael W. Deem and Ramdas Pophale) SiO2 
 PCOD9091094
Probable space group: P -1
;
_chemical_formula_sum "Si O2"
_cell_formula_units_Z 16
_cell_length_a 17.633043
_cell_length_b 10.690107
_cell_length_c 10.270097
_cell_angle_alpha 123.617900
_cell_angle_beta 58.490587
_cell_angle_gamma 148.736155
_cell_volume 831.178041
_symmetry_space_group_name_H-M "P -1"
_symmetry_group_IT_number 2
_symmetry_cell_setting 'triclinic'
loop_
_space_group_symop_operation_xyz
x,y,z
-x,-y,-z
loop_
_atom_site_type_symbol
_atom_site_label
_atom_site_fract_x
_atom_site_fract_y
_atom_site_fract_z
Si Si1 0.170011 0.684045 0.950025
Si Si2 0.822572 0.766640 0.668913
Si Si3 0.401103 0.623705 0.843612
Si Si4 0.322424 0.832817 0.167212
Si Si5 0.302350 0.700012 0.376341
Si Si6 0.849772 0.693168 0.306205
Si Si7 0.377695 0.008159 0.719617
Si Si8 0.520200 0.505737 0.832028
O O1 0.177680 0.520798 0.805152
O O2 0.274722 0.904485 0.876454
O O3 0.233123 0.779191 0.094462
O O4 0.000000 0.500000 0.000000
O O5 0.784005 0.569793 0.676743
O O6 0.823218 0.714603 0.488221
O O7 0.691437 0.708573 0.767312
O O8 0.980727 0.043678 0.724206
O O9 0.264761 0.392411 0.743069
O O10 0.457454 0.561348 0.841908
O O11 0.531954 0.869715 0.781024
O O12 0.359168 0.710503 0.021078
O O13 0.250153 0.719250 0.307324
O O14 0.473990 0.881515 0.307083
O O15 0.297122 0.794691 0.564214
O O16 0.434307 0.234045 0.726672
O O17 0.500000 0.500000 0.000000
#
# Coordination Sequence:
#
# PCOD9091094 Si02
#       8
#     2   2   2   2   2   2   2   2
#     4  11  23  41  63  89 121 166 204 252 300 372
#     4  10  22  40  63  87 127 165 199 250 308 367
#     4  10  21  39  62  90 123 157 208 253 297 370
#     4  10  21  38  64  88 120 160 205 252 306 355
#     4  10  19  39  63  90 117 157 205 251 298 370
#     4  10  22  41  62  88 122 170 202 240 314 371
#     4  10  21  37  64  87 120 160 202 247 308 358
#     4  11  23  38  62  93 121 156 205 262 300 352
#
# _framework density 19.249787999999999
#
# number of rings (size 3 to 8) (size 9 to 14) (size 15 to 20)
#    0.000    1.750    1.250    4.500    7.000    0.500 
#    2.250    2.500    0.000    0.000    0.000    0.000 
#    0.000    0.000    0.000    0.000    0.000    0.000 
#
# Total GULP energy -89360.736602 kJ/mol
# GULP energy per Si atom -5585.046038 kJ/mol
# Density = 1.920597 g / cm^3
# Si number density = 19.249788 Si / 1000 Ang^3
#
#
#
# Elastic Constant Matrix: (Units=GPa)
#
#
# Indices 1 2 3 4 5 6 
#
# 1 113.7296 52.6180 31.6758 -10.8142 16.1470 3.1968
# 2 52.6180 96.1859 24.4511 -6.8075 18.6099 11.4253
# 3 31.6758 24.4511 45.0057 -13.2209 16.2093 7.5405
# 4 -10.8142 -6.8075 -13.2209 32.6628 -0.5332 -1.4088
# 5 16.1470 18.6099 16.2093 -0.5332 27.4832 -2.5520
# 6 3.1968 11.4253 7.5405 -1.4088 -2.5520 29.2986
#
#
#
# Elastic Compliance Matrix: (Units=1/GPa)
#
#
# Indices 1 2 3 4 5 6 
#
# 1 0.013294 -0.005943 -0.006469 0.000661 0.000282 0.002588
# 2 -0.005943 0.016033 -0.000549 0.000765 -0.007592 -0.006087
# 3 -0.006469 -0.000549 0.039913 0.013120 -0.020086 -0.010471
# 4 0.000661 0.000765 0.013120 0.036053 -0.008198 -0.002728
# 5 0.000282 -0.007592 -0.020086 -0.008198 0.054202 0.012426
# 6 0.002588 -0.006087 -0.010471 -0.002728 0.012426 0.039869
#
#
# Mechanical properties :
#
#
# Convention : Reuss Voigt Hill
#
# Bulk Modulus (GPa) = 23.08501 52.49010 37.78755
# Shear Modulus (GPa) = 20.85713 27.63402 24.24558
#
# Velocity S-wave (km/s) = 3.29523 3.79297 3.55283
# Velocity P-wave (km/s) = 5.14747 6.81977 6.04176
#
# Compressibility (1/GPa) = 0.04331816
#
# Stress axis : x y z
#
# Youngs Moduli (GPa) = 75.22022 62.36981 25.05442
#
# Poissons Ratio (x) = 0.37069 0.16208
# Poissons Ratio (y) = 0.44707 0.01375
# Poissons Ratio (z) = 0.48661 0.03423
#
# Static dielectric constant tensor:
#      x y z
#    x 1.664790 -0.009350 -0.005350 
#    y -0.009350 1.685600 0.005830 
#    z -0.005350 0.005830 1.674400 
# 
# From -- ./inp_files/299145.got.cif
#   From: 2010.05.17/outbox.cif.g08.bks.cpg/sg2_150_cif.got.tgz:299145.got - 2010.06.03 11:33:40.
