data_PCOD9091491
_publ_section_title
;
Structure prediction by ZEFSAII (Michael W. Deem and Ramdas Pophale) SiO2 
 PCOD9091491
Probable space group: P -1
;
_chemical_formula_sum "Si O2"
_cell_formula_units_Z 12
_cell_length_a 9.634127
_cell_length_b 6.852117
_cell_length_c 18.643965
_cell_angle_alpha 53.214183
_cell_angle_beta 34.433692
_cell_angle_gamma 67.861566
_cell_volume 538.422627
_symmetry_space_group_name_H-M "P -1"
_symmetry_group_IT_number 2
_symmetry_cell_setting 'triclinic'
loop_
_space_group_symop_operation_xyz
x,y,z
-x,-y,-z
loop_
_atom_site_type_symbol
_atom_site_label
_atom_site_fract_x
_atom_site_fract_y
_atom_site_fract_z
Si Si1 0.281262 0.749537 0.666466
Si Si2 0.765846 0.094371 0.050379
Si Si3 0.217344 0.491424 0.149459
Si Si4 0.576936 0.324489 0.639796
Si Si5 0.110421 0.304118 0.395814
Si Si6 0.596310 0.193035 0.245665
O O1 0.416201 0.522035 0.648608
O O2 0.223570 0.751887 0.775439
O O3 0.022341 0.706952 0.741633
O O4 0.500000 0.000000 0.500000
O O5 0.710770 0.268337 0.101254
O O6 0.528636 0.850779 0.207605
O O7 0.816353 0.240570 0.922983
O O8 0.000000 0.000000 0.000000
O O9 0.196282 0.431759 0.254920
O O10 0.500000 0.500000 0.000000
O O11 0.879250 0.412962 0.495784
O O12 0.510576 0.110000 0.652208
O O13 0.361944 0.315783 0.332114
O O14 0.000000 0.000000 0.500000
#
# Coordination Sequence:
#
# PCOD9091491 Si02
#       6
#     2   2   2   2   2   2
#     4  12  25  39  69 102 131 176 232 277 333 402
#     4  10  20  41  65  94 129 183 216 271 335 395
#     4  12  22  41  69  99 133 178 227 272 336 405
#     4   9  21  41  65  92 137 176 218 274 338 397
#     4  10  19  39  66  94 133 177 212 271 343 393
#     4   9  21  40  63  94 131 174 218 272 338 390
#
# _framework density 22.287324000000002
#
# number of rings (size 3 to 8) (size 9 to 14) (size 15 to 20)
#    1.000    0.667    3.333    2.000    0.000    5.333 
#    0.000    0.000    0.000    8.000    0.000    0.000 
#    0.000    0.000    0.000    0.000    0.000    0.000 
#
# Total GULP energy -66912.846729 kJ/mol
# GULP energy per Si atom -5576.070561 kJ/mol
# Density = 2.223660 g / cm^3
# Si number density = 22.287324 Si / 1000 Ang^3
#
#
#
# Elastic Constant Matrix: (Units=GPa)
#
#
# Indices 1 2 3 4 5 6 
#
# 1 82.1436 15.9611 23.0246 -0.0882 -8.1918 -13.1221
# 2 15.9611 84.1368 22.4798 -0.3071 -3.8585 -12.0821
# 3 23.0246 22.4798 134.1431 -6.2398 4.3833 -12.2754
# 4 -0.0882 -0.3071 -6.2398 30.3063 -11.5038 -0.6662
# 5 -8.1918 -3.8585 4.3833 -11.5038 37.8099 -3.1365
# 6 -13.1221 -12.0821 -12.2754 -0.6662 -3.1365 26.9940
#
#
#
# Elastic Compliance Matrix: (Units=1/GPa)
#
#
# Indices 1 2 3 4 5 6 
#
# 1 0.014285 -0.001165 -0.001767 0.001358 0.004103 0.006130
# 2 -0.001165 0.013332 -0.001619 0.000624 0.001892 0.004900
# 3 -0.001767 -0.001619 0.008318 0.001392 -0.000912 0.002128
# 4 0.001358 0.000624 0.001392 0.037961 0.012071 0.003912
# 5 0.004103 0.001892 -0.000912 0.012071 0.031841 0.006424
# 6 0.006130 0.004900 0.002128 0.003912 0.006424 0.044029
#
#
# Mechanical properties :
#
#
# Convention : Reuss Voigt Hill
#
# Bulk Modulus (GPa) = 37.26431 47.03938 42.15184
# Shear Modulus (GPa) = 29.79533 34.95257 32.37395
#
# Velocity S-wave (km/s) = 3.66029 3.96444 3.81540
# Velocity P-wave (km/s) = 5.88387 6.48902 6.19384
#
# Compressibility (1/GPa) = 0.02683533
#
# Stress axis : x y z
#
# Youngs Moduli (GPa) = 70.00302 75.01030 120.21434
#
# Poissons Ratio (x) = 0.08735 0.21238
# Poissons Ratio (y) = 0.08152 0.19458
# Poissons Ratio (z) = 0.12368 0.12141
#
# Static dielectric constant tensor:
#      x y z
#    x 1.821810 0.014270 -0.021060 
#    y 0.014270 1.868150 0.021240 
#    z -0.021060 0.021240 1.890830 
# 
# From -- ./inp_files/586458.got.cif
#   From: 2010.05.17/outbox.cif.g08.bks.cpg/sg2_294_cif.got.tgz:586458.got - 2010.06.03 11:33:40.
