data_PCOD9091766
_publ_section_title
;
Structure prediction by ZEFSAII (Michael W. Deem and Ramdas Pophale) SiO2 
 PCOD9091766
Probable space group: P -1
;
_chemical_formula_sum "Si O2"
_cell_formula_units_Z 16
_cell_length_a 7.015529
_cell_length_b 11.488522
_cell_length_c 15.217677
_cell_angle_alpha 44.813128
_cell_angle_beta 111.890385
_cell_angle_gamma 86.579160
_cell_volume 696.645839
_symmetry_space_group_name_H-M "P -1"
_symmetry_group_IT_number 2
_symmetry_cell_setting 'triclinic'
loop_
_space_group_symop_operation_xyz
x,y,z
-x,-y,-z
loop_
_atom_site_type_symbol
_atom_site_label
_atom_site_fract_x
_atom_site_fract_y
_atom_site_fract_z
Si Si1 0.715167 0.360272 0.318941
Si Si2 0.604580 0.212420 0.546916
Si Si3 0.113108 0.555143 0.854747
Si Si4 0.114528 0.557547 0.282871
Si Si5 0.236174 0.729978 0.062595
Si Si6 0.188124 0.229174 0.150413
Si Si7 0.998875 0.682703 0.443205
Si Si8 0.255891 0.095452 0.856699
O O1 0.618753 0.245441 0.424433
O O2 0.786733 0.326918 0.246412
O O3 0.503234 0.577769 0.164468
O O4 0.930224 0.336870 0.431779
O O5 0.348012 0.367498 0.455025
O O6 0.797378 0.271067 0.582580
O O7 0.665148 0.999462 0.694953
O O8 0.903566 0.689963 0.811685
O O9 0.009692 0.489839 0.792312
O O10 0.274831 0.362157 0.043443
O O11 0.217619 0.677333 0.187030
O O12 0.918070 0.707352 0.232536
O O13 0.052815 0.716353 0.973206
O O14 0.171949 0.944123 0.932122
O O15 0.000000 0.500000 0.500000
O O16 0.752772 0.856644 0.273613
O O17 0.500000 0.000000 0.000000
#
# Coordination Sequence:
#
# PCOD9091766 Si02
#       8
#     2   2   2   2   2   2   2   2
#     4   9  20  39  61  87 123 170 204 256 314 373
#     4   9  21  41  61  88 125 168 209 260 307 371
#     4  10  21  39  64  89 127 163 212 262 317 368
#     4  10  22  38  60  89 124 167 207 254 318 376
#     4  10  19  40  58  87 124 160 212 255 314 369
#     4  10  21  40  62  92 124 164 210 268 312 367
#     4  10  20  38  60  87 127 167 204 258 313 369
#     4  12  23  37  63  91 128 163 207 263 313 377
#
# _framework density 22.967195
#
# number of rings (size 3 to 8) (size 9 to 14) (size 15 to 20)
#    0.750    1.250    1.250    2.625    0.000    2.000 
#    0.000    7.500    0.000    0.000    0.000    0.000 
#    0.000    0.000    0.000    0.000    0.000    0.000 
#
# Total GULP energy -89073.385136 kJ/mol
# GULP energy per Si atom -5567.086571 kJ/mol
# Density = 2.291492 g / cm^3
# Si number density = 22.967195 Si / 1000 Ang^3
#
#
#
# Elastic Constant Matrix: (Units=GPa)
#
#
# Indices 1 2 3 4 5 6 
#
# 1 43.9355 5.2045 41.2351 10.7036 -1.8673 -12.7787
# 2 5.2045 52.8682 45.9493 -0.4631 -8.5303 -9.2804
# 3 41.2351 45.9493 183.2047 -12.9077 -2.9515 -24.5852
# 4 10.7036 -0.4631 -12.9077 31.4764 3.1823 -7.9601
# 5 -1.8673 -8.5303 -2.9515 3.1823 14.1758 -1.6942
# 6 -12.7787 -9.2804 -24.5852 -7.9601 -1.6942 23.1185
#
#
#
# Elastic Compliance Matrix: (Units=1/GPa)
#
#
# Indices 1 2 3 4 5 6 
#
# 1 0.039093 0.009141 -0.010851 -0.016677 0.013206 0.008964
# 2 0.009141 0.029999 -0.008789 -0.006506 0.019718 0.006953
# 3 -0.010851 -0.008789 0.011528 0.010373 -0.005945 0.005869
# 4 -0.016677 -0.006506 0.010373 0.046492 -0.012683 0.014280
# 5 0.013206 0.019718 -0.005945 -0.012683 0.087060 0.010906
# 6 0.008964 0.006953 0.005869 0.014280 0.010906 0.062959
#
#
# Mechanical properties :
#
#
# Convention : Reuss Voigt Hill
#
# Bulk Modulus (GPa) = 16.77251 51.64292 34.20771
# Shear Modulus (GPa) = 15.72311 26.26210 20.99261
#
# Velocity S-wave (km/s) = 2.61931 3.38518 3.02657
# Velocity P-wave (km/s) = 4.05787 6.14927 5.20960
#
# Compressibility (1/GPa) = 0.05962139
#
# Stress axis : x y z
#
# Youngs Moduli (GPa) = 25.57995 33.33457 86.74822
#
# Poissons Ratio (x) = -0.30470 0.94128
# Poissons Ratio (y) = -0.23382 0.76243
# Poissons Ratio (z) = 0.27756 0.29298
#
# Static dielectric constant tensor:
#      x y z
#    x 2.108200 0.080480 -0.093250 
#    y 0.080480 1.963250 0.072250 
#    z -0.093250 0.072250 1.943400 
# 
# From -- ./inp_files/497693.got.cif
#   From: 2010.05.17/outbox.cif.g08.bks.cpg/sg2_249_cif.got.tgz:497693.got - 2010.06.03 11:33:40.
