data_PCOD9091125
_publ_section_title
;
Structure prediction by ZEFSAII (Michael W. Deem and Ramdas Pophale) SiO2 
 PCOD9091125
Probable space group: P -1
;
_chemical_formula_sum "Si O2"
_cell_formula_units_Z 12
_cell_length_a 13.747599
_cell_length_b 6.918949
_cell_length_c 9.255636
_cell_angle_alpha 91.898101
_cell_angle_beta 150.731090
_cell_angle_gamma 88.891251
_cell_volume 430.110691
_symmetry_space_group_name_H-M "P -1"
_symmetry_group_IT_number 2
_symmetry_cell_setting 'triclinic'
loop_
_space_group_symop_operation_xyz
x,y,z
-x,-y,-z
loop_
_atom_site_type_symbol
_atom_site_label
_atom_site_fract_x
_atom_site_fract_y
_atom_site_fract_z
Si Si1 0.452197 0.655181 0.617297
Si Si2 0.357198 0.175348 0.845185
Si Si3 0.713468 0.289982 0.875639
Si Si4 0.851712 0.772603 0.689659
Si Si5 0.951112 0.268186 0.445035
Si Si6 0.936384 0.229454 0.766794
O O1 0.598115 0.486808 0.756644
O O2 0.413195 0.790336 0.428352
O O3 0.224310 0.622332 0.375183
O O4 0.547561 0.726658 0.890150
O O5 0.324570 0.281943 0.651504
O O6 0.130991 0.149655 0.606408
O O7 0.500000 0.000000 0.000000
O O8 0.759089 0.214307 0.094712
O O9 0.939649 0.301803 0.107757
O O10 0.861409 0.008840 0.693811
O O11 0.865302 0.742918 0.879062
O O12 0.946184 0.245833 0.609428
O O13 0.000000 0.500000 0.500000
#
# Coordination Sequence:
#
# PCOD9091125 Si02
#       6
#     2   2   2   2   2   2
#     4  10  19  39  63  93 123 161 206 248 305 361
#     4  11  21  39  65  91 126 159 205 258 300 364
#     4   9  20  37  64  88 124 164 196 253 302 369
#     4   9  20  39  64  91 124 162 201 247 313 362
#     4  11  23  42  63  89 125 164 206 251 309 360
#     4  10  21  40  65  90 124 163 203 250 306 371
#
# _framework density 27.899795999999998
#
# number of rings (size 3 to 8) (size 9 to 14) (size 15 to 20)
#    0.000    2.000    3.333    0.000    0.000    3.333 
#    0.000   10.000    0.000    0.000    0.000    0.000 
#    0.000    0.000    0.000    0.000    0.000    0.000 
#
# Total GULP energy -67037.450584 kJ/mol
# GULP energy per Si atom -5586.454215 kJ/mol
# Density = 2.783630 g / cm^3
# Si number density = 27.899796 Si / 1000 Ang^3
#
#
#
# Elastic Constant Matrix: (Units=GPa)
#
#
# Indices 1 2 3 4 5 6 
#
# 1 134.3156 48.4678 95.7999 -29.3514 -19.5130 -13.4287
# 2 48.4678 93.1740 40.5637 -18.2242 -11.7791 -27.9955
# 3 95.7999 40.5637 301.6421 -17.9446 -78.7701 -12.9939
# 4 -29.3514 -18.2242 -17.9446 55.6471 -21.9985 3.3378
# 5 -19.5130 -11.7791 -78.7701 -21.9985 98.0016 -7.4154
# 6 -13.4287 -27.9955 -12.9939 3.3378 -7.4154 45.3266
#
#
#
# Elastic Compliance Matrix: (Units=1/GPa)
#
#
# Indices 1 2 3 4 5 6 
#
# 1 0.011966 -0.004081 -0.002852 0.004277 0.000559 -0.000016
# 2 -0.004081 0.016716 0.000585 0.004261 0.003343 0.009516
# 3 -0.002852 0.000585 0.005538 0.002179 0.004571 0.001691
# 4 0.004277 0.004261 0.002179 0.025714 0.009200 0.004135
# 5 0.000559 0.003343 0.004571 0.009200 0.016882 0.005625
# 6 -0.000016 0.009516 0.001691 0.004135 0.005625 0.029035
#
#
# Mechanical properties :
#
#
# Convention : Reuss Voigt Hill
#
# Bulk Modulus (GPa) = 46.45828 99.86605 73.16217
# Shear Modulus (GPa) = 39.77009 62.74843 51.25926
#
# Velocity S-wave (km/s) = 3.77962 4.74757 4.29098
# Velocity P-wave (km/s) = 5.97791 8.11941 7.12953
#
# Compressibility (1/GPa) = 0.02152469
#
# Stress axis : x y z
#
# Youngs Moduli (GPa) = 83.57006 59.82186 180.55445
#
# Poissons Ratio (x) = 0.24411 0.51493
# Poissons Ratio (y) = 0.34102 -0.10554
# Poissons Ratio (z) = 0.23834 -0.03497
#
# Static dielectric constant tensor:
#      x y z
#    x 2.276080 0.169410 -0.021790 
#    y 0.169410 2.324960 0.069370 
#    z -0.021790 0.069370 2.176400 
# 
# From -- ./inp_files/197495.got.cif
#   From: 2010.05.17/outbox.cif.g08.bks.cpg/sg2_99_cif.got.tgz:197495.got - 2010.06.03 11:33:40.
