data_PCOD9091307
_publ_section_title
;
Structure prediction by ZEFSAII (Michael W. Deem and Ramdas Pophale) SiO2 
 PCOD9091307
Probable space group: P -1
;
_chemical_formula_sum "Si O2"
_cell_formula_units_Z 16
_cell_length_a 14.460718
_cell_length_b 9.646878
_cell_length_c 13.939755
_cell_angle_alpha 88.094747
_cell_angle_beta 150.675448
_cell_angle_gamma 82.127673
_cell_volume 895.481615
_symmetry_space_group_name_H-M "P -1"
_symmetry_group_IT_number 2
_symmetry_cell_setting 'triclinic'
loop_
_space_group_symop_operation_xyz
x,y,z
-x,-y,-z
loop_
_atom_site_type_symbol
_atom_site_label
_atom_site_fract_x
_atom_site_fract_y
_atom_site_fract_z
Si Si1 0.101564 0.859159 0.528748
Si Si2 0.127195 0.880632 0.042058
Si Si3 0.025238 0.370190 0.098736
Si Si4 0.558120 0.335272 0.017335
Si Si5 0.437900 0.118026 0.527281
Si Si6 0.871984 0.929407 0.615997
Si Si7 0.133084 0.611641 0.833007
Si Si8 0.862390 0.633386 0.308141
O O1 0.289945 0.763389 0.764507
O O2 0.966546 0.756678 0.387999
O O3 0.146372 0.933436 0.471076
O O4 0.000000 0.000000 0.500000
O O5 0.359556 0.860153 0.255383
O O6 0.089857 0.733510 0.044402
O O7 0.027803 0.917281 0.845407
O O8 0.000000 0.000000 0.000000
O O9 0.257326 0.266137 0.328108
O O10 0.918408 0.415989 0.104198
O O11 0.000000 0.500000 0.000000
O O12 0.672461 0.342944 0.021113
O O13 0.500000 0.500000 0.000000
O O14 0.353456 0.299508 0.836553
O O15 0.336463 0.055946 0.522228
O O16 0.500000 0.000000 0.500000
O O17 0.955674 0.767857 0.643444
O O18 0.152946 0.461489 0.797610
O O19 0.000000 0.500000 0.500000
#
# Coordination Sequence:
#
# PCOD9091307 Si02
#       8
#     2   2   2   2   2   2   2   2
#     4  12  23  41  60  94 126 148 207 260 289 359
#     4  10  19  39  65  85 122 162 196 242 307 361
#     4  10  23  40  60  93 125 151 204 259 292 353
#     4  10  20  40  62  84 120 160 202 237 302 361
#     4  10  19  41  65  86 121 165 197 244 307 359
#     4  10  22  38  61  91 123 154 203 257 296 350
#     4   9  19  43  57  85 123 158 197 246 300 359
#     4  11  21  39  63  83 120 167 196 240 307 357
#
# _framework density 17.86748
#
# number of rings (size 3 to 8) (size 9 to 14) (size 15 to 20)
#    0.000    2.000    6.250    0.000    0.000    3.000 
#   18.000    0.000    0.000    0.000    0.000    0.000 
#    0.000    0.000    0.000    0.000    0.000    0.000 
#
# Total GULP energy -89070.888964 kJ/mol
# GULP energy per Si atom -5566.930560 kJ/mol
# Density = 1.782681 g / cm^3
# Si number density = 17.867480 Si / 1000 Ang^3
#
#
#
# Elastic Constant Matrix: (Units=GPa)
#
#
# Indices 1 2 3 4 5 6 
#
# 1 144.8251 71.8561 65.9659 -9.9296 16.9190 26.4804
# 2 71.8561 120.6053 52.2114 0.5178 4.1531 23.2676
# 3 65.9659 52.2114 123.6099 5.5532 22.3588 26.3745
# 4 -9.9296 0.5178 5.5532 30.8496 8.2358 -0.7525
# 5 16.9190 4.1531 22.3588 8.2358 33.4604 -4.1766
# 6 26.4804 23.2676 26.3745 -0.7525 -4.1766 45.6933
#
#
#
# Elastic Compliance Matrix: (Units=1/GPa)
#
#
# Indices 1 2 3 4 5 6 
#
# 1 0.012644 -0.005435 -0.003024 0.006124 -0.005608 -0.003226
# 2 -0.005435 0.012904 -0.002709 -0.002412 0.003351 -0.001591
# 3 -0.003024 -0.002709 0.013375 -0.001499 -0.007363 -0.005286
# 4 0.006124 -0.002412 -0.001499 0.037668 -0.011300 -0.001868
# 5 -0.005608 0.003351 -0.007363 -0.011300 0.041177 0.009371
# 6 -0.003226 -0.001591 -0.005286 -0.001868 0.009371 0.028442
#
#
# Mechanical properties :
#
#
# Convention : Reuss Voigt Hill
#
# Bulk Modulus (GPa) = 60.28587 85.45630 72.87109
# Shear Modulus (GPa) = 28.72358 35.26778 31.99568
#
# Velocity S-wave (km/s) = 4.01383 4.44763 4.23628
# Velocity P-wave (km/s) = 7.43605 8.62014 8.04990
#
# Compressibility (1/GPa) = 0.01658764
#
# Stress axis : x y z
#
# Youngs Moduli (GPa) = 79.09094 77.49590 74.76629
#
# Poissons Ratio (x) = 0.42116 0.22612
# Poissons Ratio (y) = 0.42982 0.20251
# Poissons Ratio (z) = 0.23920 0.20990
#
# Static dielectric constant tensor:
#      x y z
#    x 1.600180 0.013050 0.012660 
#    y 0.013050 1.593890 0.028410 
#    z 0.012660 0.028410 1.623280 
# 
# From -- ./inp_files/528668.got.cif
#   From: 2010.05.17/outbox.cif.g08.bks.cpg/sg2_265_cif.got.tgz:528668.got - 2010.06.03 11:33:40.
