data_PCOD9091603
_publ_section_title
;
Structure prediction by ZEFSAII (Michael W. Deem and Ramdas Pophale) SiO2 
 PCOD9091603
Probable space group: P -1
;
_chemical_formula_sum "Si O2"
_cell_formula_units_Z 16
_cell_length_a 15.863157
_cell_length_b 5.765615
_cell_length_c 20.848928
_cell_angle_alpha 121.431189
_cell_angle_beta 24.873533
_cell_angle_gamma 119.457641
_cell_volume 683.441892
_symmetry_space_group_name_H-M "P -1"
_symmetry_group_IT_number 2
_symmetry_cell_setting 'triclinic'
loop_
_space_group_symop_operation_xyz
x,y,z
-x,-y,-z
loop_
_atom_site_type_symbol
_atom_site_label
_atom_site_fract_x
_atom_site_fract_y
_atom_site_fract_z
Si Si1 0.501253 0.554710 0.931583
Si Si2 0.964991 0.211637 0.156242
Si Si3 0.116220 0.223283 0.371366
Si Si4 0.826065 0.219095 0.891344
Si Si5 0.774936 0.782332 0.559317
Si Si6 0.624164 0.006671 0.127363
Si Si7 0.846525 0.176735 0.382961
Si Si8 0.528942 0.169107 0.435837
O O1 0.701581 0.715683 0.793837
O O2 0.477782 0.283732 0.865160
O O3 0.500000 0.500000 0.000000
O O4 0.303470 0.702730 0.068594
O O5 0.894911 0.201151 0.277264
O O6 0.759031 0.128793 0.249990
O O7 0.033218 0.525533 0.144615
O O8 0.166044 0.043008 0.988376
O O9 0.215086 0.160880 0.363145
O O10 0.000000 0.500000 0.500000
O O11 0.946655 0.986302 0.441727
O O12 0.961452 0.972110 0.748069
O O13 0.684400 0.147327 0.038838
O O14 0.824215 0.473453 0.468598
O O15 0.551116 0.831810 0.696339
O O16 0.647778 0.984973 0.504271
O O17 0.500000 0.500000 0.500000
O O18 0.500000 0.000000 0.500000
#
# Coordination Sequence:
#
# PCOD9091603 Si02
#       8
#     2   2   2   2   2   2   2   2
#     4  11  24  42  66  95 126 179 240 291 345 410
#     4   9  20  37  66  99 130 175 226 282 345 411
#     4  11  24  45  66  89 132 186 229 293 343 408
#     4  10  20  41  62  91 131 172 227 279 343 404
#     4  11  24  44  66  92 134 179 237 275 359 413
#     4  10  21  41  62  93 128 179 223 282 349 407
#     4  10  22  39  67 102 128 177 225 291 345 423
#     4  10  19  39  68 105 143 176 227 290 359 420
#
# _framework density 23.410917000000001
#
# number of rings (size 3 to 8) (size 9 to 14) (size 15 to 20)
#    0.000    1.750    3.750    0.000    0.000    5.500 
#    2.250    1.250    0.000    0.750    0.000    0.000 
#    0.000    0.000    0.000    0.000    0.000    0.000 
#
# Total GULP energy -89484.970820 kJ/mol
# GULP energy per Si atom -5592.810676 kJ/mol
# Density = 2.335763 g / cm^3
# Si number density = 23.410917 Si / 1000 Ang^3
#
#
#
# Elastic Constant Matrix: (Units=GPa)
#
#
# Indices 1 2 3 4 5 6 
#
# 1 31.4909 11.1236 27.2429 -14.0370 9.3637 -8.5446
# 2 11.1236 150.6658 66.0905 -15.7853 -10.1687 -3.1405
# 3 27.2429 66.0905 154.0711 -16.5498 -21.8073 2.3836
# 4 -14.0370 -15.7853 -16.5498 51.3438 -3.2270 -8.4624
# 5 9.3637 -10.1687 -21.8073 -3.2270 33.9193 -8.3645
# 6 -8.5446 -3.1405 2.3836 -8.4624 -8.3645 24.8935
#
#
#
# Elastic Compliance Matrix: (Units=1/GPa)
#
#
# Indices 1 2 3 4 5 6 
#
# 1 0.059591 0.001973 -0.012501 0.015304 -0.017180 0.021330
# 2 0.001973 0.008477 -0.003669 0.002529 0.000663 0.003180
# 3 -0.012501 -0.003669 0.011496 -0.000798 0.008892 -0.003138
# 4 0.015304 0.002529 -0.000798 0.026907 0.002430 0.015612
# 5 -0.017180 0.000663 0.008892 0.002430 0.042449 0.008424
# 6 0.021330 0.003180 -0.003138 0.015612 0.008424 0.056332
#
#
# Mechanical properties :
#
#
# Convention : Reuss Voigt Hill
#
# Bulk Modulus (GPa) = 19.54282 60.57133 40.05707
# Shear Modulus (GPa) = 19.94403 37.48271 28.71337
#
# Velocity S-wave (km/s) = 2.92192 4.00569 3.50593
# Velocity P-wave (km/s) = 4.44402 6.87920 5.79106
#
# Compressibility (1/GPa) = 0.05116968
#
# Stress axis : x y z
#
# Youngs Moduli (GPa) = 16.78114 117.96820 86.98607
#
# Poissons Ratio (x) = -0.23269 1.08739
# Poissons Ratio (y) = -0.03310 0.31913
# Poissons Ratio (z) = 0.20978 0.43280
#
# Static dielectric constant tensor:
#      x y z
#    x 2.116510 -0.044370 -0.026940 
#    y -0.044370 1.892620 0.010030 
#    z -0.026940 0.010030 1.879440 
# 
# From -- ./inp_files/480752.got.cif
#   From: 2010.05.17/outbox.cif.g08.bks.cpg/sg2_241_cif.got.tgz:480752.got - 2010.06.03 11:33:40.
