data_PCOD9091634
_publ_section_title
;
Structure prediction by ZEFSAII (Michael W. Deem and Ramdas Pophale) SiO2 
 PCOD9091634
Probable space group: P -1
;
_chemical_formula_sum "Si O2"
_cell_formula_units_Z 16
_cell_length_a 10.586544
_cell_length_b 15.664233
_cell_length_c 9.542887
_cell_angle_alpha 153.452600
_cell_angle_beta 68.944432
_cell_angle_gamma 108.719128
_cell_volume 660.054782
_symmetry_space_group_name_H-M "P -1"
_symmetry_group_IT_number 2
_symmetry_cell_setting 'triclinic'
loop_
_space_group_symop_operation_xyz
x,y,z
-x,-y,-z
loop_
_atom_site_type_symbol
_atom_site_label
_atom_site_fract_x
_atom_site_fract_y
_atom_site_fract_z
Si Si1 0.746045 0.213965 0.252654
Si Si2 0.018175 0.531447 0.373763
Si Si3 0.575227 0.528773 0.834125
Si Si4 0.202080 0.263455 0.762911
Si Si5 0.295086 0.488425 0.799099
Si Si6 0.715362 0.171441 0.890956
Si Si7 0.396928 0.249585 0.136488
Si Si8 0.140686 0.115515 0.130191
O O1 0.849271 0.333506 0.481265
O O2 0.604225 0.300847 0.486784
O O3 0.760581 0.258403 0.149109
O O4 0.784369 0.994713 0.935424
O O5 0.000000 0.500000 0.500000
O O6 0.905709 0.663078 0.537700
O O7 0.063905 0.338189 0.998396
O O8 0.417098 0.560530 0.956721
O O9 0.609114 0.607232 0.780681
O O10 0.671327 0.646629 0.070221
O O11 0.205632 0.358497 0.746253
O O12 0.222263 0.038573 0.443318
O O13 0.365068 0.362959 0.461090
O O14 0.242486 0.682058 0.032275
O O15 0.549151 0.164894 0.952174
O O16 0.267963 0.108392 0.960794
O O17 0.000000 0.000000 0.000000
#
# Coordination Sequence:
#
# PCOD9091634 Si02
#       8
#     2   2   2   2   2   2   2   2
#     4  10  19  39  68  95 128 170 228 274 328 414
#     4  10  23  47  68  88 131 185 235 273 333 404
#     4  10  20  41  62  98 139 178 217 266 349 412
#     4  11  25  41  65 101 140 174 222 298 341 386
#     4  11  22  40  66 102 143 176 214 280 348 413
#     4  11  23  42  67 109 137 173 224 275 361 407
#     4  11  21  40  73  95 139 183 222 273 340 424
#     4  10  22  38  64  99 121 174 239 278 312 395
#
# _framework density 24.240411000000002
#
# number of rings (size 3 to 8) (size 9 to 14) (size 15 to 20)
#    0.000    1.500    2.500    3.375    1.750    3.000 
#   18.000    3.125    0.000    0.000    0.000    0.000 
#    0.000    0.000    0.000    0.000    0.000    0.000 
#
# Total GULP energy -89230.831041 kJ/mol
# GULP energy per Si atom -5576.926940 kJ/mol
# Density = 2.418524 g / cm^3
# Si number density = 24.240411 Si / 1000 Ang^3
#
#
#
# Elastic Constant Matrix: (Units=GPa)
#
#
# Indices 1 2 3 4 5 6 
#
# 1 84.7297 32.0312 27.3740 18.9541 -9.1060 -3.0562
# 2 32.0312 119.6381 49.3679 22.8011 -40.3683 -11.6689
# 3 27.3740 49.3679 121.3614 31.6205 -27.9449 -16.1959
# 4 18.9541 22.8011 31.6205 39.3649 -9.7087 -6.6241
# 5 -9.1060 -40.3683 -27.9449 -9.7087 30.1797 10.5220
# 6 -3.0562 -11.6689 -16.1959 -6.6241 10.5220 44.7902
#
#
#
# Elastic Compliance Matrix: (Units=1/GPa)
#
#
# Indices 1 2 3 4 5 6 
#
# 1 0.014215 -0.003354 -0.001342 -0.004576 -0.002768 -0.000416
# 2 -0.003354 0.016858 -0.000918 -0.002628 0.020304 -0.001327
# 3 -0.001342 -0.000918 0.012587 -0.006884 0.007287 0.001490
# 4 -0.004576 -0.002628 -0.006884 0.034790 -0.000715 0.001827
# 5 -0.002768 0.020304 0.007287 -0.000715 0.068965 -0.008571
# 6 -0.000416 -0.001327 0.001490 0.001827 -0.008571 0.024775
#
#
# Mechanical properties :
#
#
# Convention : Reuss Voigt Hill
#
# Bulk Modulus (GPa) = 30.83559 60.36391 45.59975
# Shear Modulus (GPa) = 25.74287 37.33069 31.53678
#
# Velocity S-wave (km/s) = 3.26234 3.92856 3.61085
# Velocity P-wave (km/s) = 5.19026 6.74792 6.01969
#
# Compressibility (1/GPa) = 0.03243006
#
# Stress axis : x y z
#
# Youngs Moduli (GPa) = 70.34731 59.31942 79.44903
#
# Poissons Ratio (x) = 0.19897 0.10665
# Poissons Ratio (y) = 0.23596 0.07295
# Poissons Ratio (z) = 0.09443 0.05446
#
# Static dielectric constant tensor:
#      x y z
#    x 2.018680 0.035470 0.015460 
#    y 0.035470 1.962900 0.015840 
#    z 0.015460 0.015840 1.977310 
# 
# From -- ./inp_files/274815.got.cif
#   From: 2010.05.17/outbox.cif.g08.bks.cpg/sg2_138_cif.got.tgz:274815.got - 2010.06.03 11:33:40.
