data_PCOD9091781
_publ_section_title
;
Structure prediction by ZEFSAII (Michael W. Deem and Ramdas Pophale) SiO2 
 PCOD9091781
Probable space group: P -1
;
_chemical_formula_sum "Si O2"
_cell_formula_units_Z 14
_cell_length_a 19.864872
_cell_length_b 17.492904
_cell_length_c 8.916175
_cell_angle_alpha 54.674794
_cell_angle_beta 44.247970
_cell_angle_gamma 21.125801
_cell_volume 727.619614
_symmetry_space_group_name_H-M "P -1"
_symmetry_group_IT_number 2
_symmetry_cell_setting 'triclinic'
loop_
_space_group_symop_operation_xyz
x,y,z
-x,-y,-z
loop_
_atom_site_type_symbol
_atom_site_label
_atom_site_fract_x
_atom_site_fract_y
_atom_site_fract_z
Si Si1 0.383766 0.553082 0.267285
Si Si2 0.148360 0.126220 0.618537
Si Si3 0.251726 0.854208 0.260170
Si Si4 0.377832 0.014609 0.625154
Si Si5 0.431946 0.718324 0.456183
Si Si6 0.979521 0.248890 0.068463
Si Si7 0.329369 0.432230 0.280425
O O1 0.210485 0.786985 0.336394
O O2 0.552393 0.378599 0.335598
O O3 0.304491 0.523281 0.360123
O O4 0.500000 0.500000 0.000000
O O5 0.923555 0.357658 0.624802
O O6 0.292451 0.084176 0.509941
O O7 0.304525 0.918783 0.507997
O O8 0.054805 0.154328 0.885493
O O9 0.298122 0.811098 0.412227
O O10 0.074963 0.088325 0.213903
O O11 0.498503 0.669788 0.998322
O O12 0.548055 0.774380 0.643357
O O13 0.500000 0.000000 0.500000
O O14 0.139538 0.200290 0.886631
O O15 0.702932 0.502597 0.233196
#
# Coordination Sequence:
#
# PCOD9091781 Si02
#       7
#     2   2   2   2   2   2   2
#     4  10  21  38  58  86 122 159 204 243 287 349
#     4  10  21  38  60  87 117 161 191 241 305 348
#     4  10  20  38  57  86 119 159 203 245 288 341
#     4   9  19  40  66  87 116 154 197 244 300 358
#     4  12  21  38  62  86 123 161 199 242 297 349
#     4   9  22  40  59  87 121 157 198 245 295 351
#     4  10  19  40  60  84 124 157 194 247 295 351
#
# _framework density 19.240822999999999
#
# number of rings (size 3 to 8) (size 9 to 14) (size 15 to 20)
#    0.857    1.143    2.857    1.286    2.000    1.143 
#    2.571    2.857    0.000    4.286    0.000    0.000 
#    0.000    0.000    0.000    0.000    0.000    0.000 
#
# Total GULP energy -78022.160059 kJ/mol
# GULP energy per Si atom -5573.011433 kJ/mol
# Density = 1.919703 g / cm^3
# Si number density = 19.240823 Si / 1000 Ang^3
#
#
#
# Elastic Constant Matrix: (Units=GPa)
#
#
# Indices 1 2 3 4 5 6 
#
# 1 129.4498 54.3808 49.6356 -6.9241 4.3624 -2.7268
# 2 54.3808 91.9946 24.3834 14.3094 -1.8521 -19.3735
# 3 49.6356 24.3834 71.7275 13.1317 7.8903 -0.0631
# 4 -6.9241 14.3094 13.1317 29.8608 -0.9431 4.2908
# 5 4.3624 -1.8521 7.8903 -0.9431 32.0362 -4.9156
# 6 -2.7268 -19.3735 -0.0631 4.2908 -4.9156 35.5963
#
#
#
# Elastic Compliance Matrix: (Units=1/GPa)
#
#
# Indices 1 2 3 4 5 6 
#
# 1 0.017189 -0.011044 -0.010784 0.014946 -0.000902 -0.006639
# 2 -0.011044 0.022172 0.002672 -0.016211 0.003752 0.013698
# 3 -0.010784 0.002672 0.023645 -0.014579 -0.004349 0.001827
# 4 0.014946 -0.016211 -0.014579 0.053162 0.000018 -0.014109
# 5 -0.000902 0.003752 -0.004349 0.000018 0.033640 0.006609
# 6 -0.006639 0.013698 0.001827 -0.014109 0.006609 0.037656
#
#
# Mechanical properties :
#
#
# Convention : Reuss Voigt Hill
#
# Bulk Modulus (GPa) = 40.49303 61.10794 50.80048
# Shear Modulus (GPa) = 21.36690 30.48348 25.92519
#
# Velocity S-wave (km/s) = 3.33603 3.98466 3.67468
# Velocity P-wave (km/s) = 5.99415 7.28001 6.66815
#
# Compressibility (1/GPa) = 0.02469561
#
# Stress axis : x y z
#
# Youngs Moduli (GPa) = 58.17580 45.10147 42.29293
#
# Poissons Ratio (x) = 0.49810 0.45607
# Poissons Ratio (y) = 0.64249 -0.11302
# Poissons Ratio (z) = 0.62734 -0.12053
#
# Static dielectric constant tensor:
#      x y z
#    x 1.679210 -0.021030 -0.001840 
#    y -0.021030 1.664490 0.031380 
#    z -0.001840 0.031380 1.752560 
# 
# From -- ./inp_files/348403.got.cif
#   From: 2010.05.17/outbox.cif.g08.bks.cpg/sg2_175_cif.got.tgz:348403.got - 2010.06.03 11:33:40.
