data_PCOD9091254
_publ_section_title
;
Structure prediction by ZEFSAII (Michael W. Deem and Ramdas Pophale) SiO2 
 PCOD9091254
Probable space group: P -1
;
_chemical_formula_sum "Si O2"
_cell_formula_units_Z 16
_cell_length_a 25.278234
_cell_length_b 19.268616
_cell_length_c 5.134808
_cell_angle_alpha 70.480899
_cell_angle_beta 99.676099
_cell_angle_gamma 162.101448
_cell_volume 619.972428
_symmetry_space_group_name_H-M "P -1"
_symmetry_group_IT_number 2
_symmetry_cell_setting 'triclinic'
loop_
_space_group_symop_operation_xyz
x,y,z
-x,-y,-z
loop_
_atom_site_type_symbol
_atom_site_label
_atom_site_fract_x
_atom_site_fract_y
_atom_site_fract_z
Si Si1 0.218679 0.263275 0.278535
Si Si2 0.073798 0.716731 0.668717
Si Si3 0.303447 0.220345 0.353690
Si Si4 0.211986 0.772863 0.080740
Si Si5 0.523599 0.083650 0.664150
Si Si6 0.428302 0.683057 0.133589
Si Si7 0.886082 0.617771 0.582134
Si Si8 0.519653 0.690631 0.621846
O O1 0.256850 0.232575 0.460812
O O2 0.359664 0.519017 0.139971
O O3 0.300605 0.367761 0.919823
O O4 0.000000 0.000000 0.500000
O O5 0.111412 0.711078 0.945115
O O6 0.934586 0.602244 0.762113
O O7 0.290862 0.037344 0.373626
O O8 0.952130 0.505150 0.631657
O O9 0.365412 0.225306 0.537269
O O10 0.500000 0.500000 0.000000
O O11 0.106820 0.946711 0.352385
O O12 0.352997 0.918969 0.794377
O O13 0.367515 0.003086 0.142980
O O14 0.745683 0.414958 0.468096
O O15 0.500000 0.000000 0.500000
O O16 0.500000 0.000000 0.000000
O O17 0.251876 0.508925 0.210628
O O18 0.469417 0.700011 0.426721
#
# Coordination Sequence:
#
# PCOD9091254 Si02
#       8
#     2   2   2   2   2   2   2   2
#     4  11  21  39  62  90 120 166 218 275 335 400
#     4   9  17  38  65  87 131 173 219 269 342 407
#     4   9  19  39  64  87 131 167 218 282 340 403
#     4   9  19  39  63  94 133 172 221 277 335 407
#     4  11  23  43  69 102 138 180 230 286 345 418
#     4  10  21  37  60  92 125 166 223 265 335 398
#     4  10  19  39  64  93 131 177 219 284 335 412
#     4   9  21  39  61  88 128 161 215 277 335 407
#
# _framework density 25.807597999999999
#
# number of rings (size 3 to 8) (size 9 to 14) (size 15 to 20)
#    0.000    2.250    2.500    0.000    0.000    1.000 
#   13.500   12.500    2.750    0.000    0.000    0.000 
#    0.000    0.000    0.000    0.000    0.000    0.000 
#
# Total GULP energy -89154.710137 kJ/mol
# GULP energy per Si atom -5572.169384 kJ/mol
# Density = 2.574886 g / cm^3
# Si number density = 25.807598 Si / 1000 Ang^3
#
#
#
# Elastic Constant Matrix: (Units=GPa)
#
#
# Indices 1 2 3 4 5 6 
#
# 1 231.8686 46.3647 47.5141 -16.1731 -21.8621 10.5691
# 2 46.3647 142.9786 61.2227 -41.1507 -13.8065 -9.8357
# 3 47.5141 61.2227 71.3246 -18.8705 -8.1345 4.5780
# 4 -16.1731 -41.1507 -18.8705 44.6872 1.8957 -9.0833
# 5 -21.8621 -13.8065 -8.1345 1.8957 31.6578 -5.3684
# 6 10.5691 -9.8357 4.5780 -9.0833 -5.3684 50.5318
#
#
#
# Elastic Compliance Matrix: (Units=1/GPa)
#
#
# Indices 1 2 3 4 5 6 
#
# 1 0.005245 -0.000105 -0.002976 0.000328 0.002707 -0.000501
# 2 -0.000105 0.015400 -0.010148 0.010966 0.004462 0.006384
# 3 -0.002976 -0.010148 0.024677 -0.000743 -0.000740 -0.003801
# 4 0.000328 0.010966 -0.000743 0.033863 0.004261 0.008673
# 5 0.002707 0.004462 -0.000740 0.004261 0.035795 0.004938
# 6 -0.000501 0.006384 -0.003801 0.008673 0.004938 0.023565
#
#
# Mechanical properties :
#
#
# Convention : Reuss Voigt Hill
#
# Bulk Modulus (GPa) = 53.01508 84.04165 68.52836
# Shear Modulus (GPa) = 29.19039 44.78003 36.98521
#
# Velocity S-wave (km/s) = 3.36680 4.17003 3.78976
# Velocity P-wave (km/s) = 5.97501 7.47134 6.76468
#
# Compressibility (1/GPa) = 0.01886256
#
# Stress axis : x y z
#
# Youngs Moduli (GPa) = 190.67449 64.93667 40.52417
#
# Poissons Ratio (x) = 0.00683 0.12059
# Poissons Ratio (y) = 0.02007 0.41124
# Poissons Ratio (z) = 0.56741 0.65898
#
# Static dielectric constant tensor:
#      x y z
#    x 2.151190 -0.195760 -0.272120 
#    y -0.195760 2.518270 0.955260 
#    z -0.272120 0.955260 4.288500 
# 
# From -- ./inp_files/124760.got.cif
#   From: 2010.05.17/outbox.cif.g08.bks.cpg/sg2_63_cif.got.tgz:124760.got - 2010.06.03 11:33:40.
