data_PCOD9091549
_publ_section_title
;
Structure prediction by ZEFSAII (Michael W. Deem and Ramdas Pophale) SiO2 
 PCOD9091549
Probable space group: P -1
;
_chemical_formula_sum "Si O2"
_cell_formula_units_Z 14
_cell_length_a 9.041783
_cell_length_b 18.884646
_cell_length_c 22.006367
_cell_angle_alpha 17.994979
_cell_angle_beta 45.024997
_cell_angle_gamma 36.358423
_cell_volume 651.335556
_symmetry_space_group_name_H-M "P -1"
_symmetry_group_IT_number 2
_symmetry_cell_setting 'triclinic'
loop_
_space_group_symop_operation_xyz
x,y,z
-x,-y,-z
loop_
_atom_site_type_symbol
_atom_site_label
_atom_site_fract_x
_atom_site_fract_y
_atom_site_fract_z
Si Si1 0.885736 0.332451 0.194014
Si Si2 0.287966 0.038324 0.485694
Si Si3 0.475426 0.245158 0.718405
Si Si4 0.747537 0.657664 0.164685
Si Si5 0.237066 0.192041 0.708449
Si Si6 0.583860 0.324630 0.855633
Si Si7 0.548302 0.095987 0.584539
O O1 0.688755 0.521880 0.151678
O O2 0.738725 0.223131 0.290026
O O3 0.159091 0.023532 0.383488
O O4 0.000000 0.500000 0.000000
O O5 0.008312 0.343762 0.329930
O O6 0.500000 0.000000 0.500000
O O7 0.396234 0.037585 0.388451
O O8 0.500000 0.500000 0.500000
O O9 0.293214 0.312525 0.775220
O O10 0.374220 0.232130 0.692396
O O11 0.734388 0.922303 0.923923
O O12 0.497655 0.704306 0.164492
O O13 0.424920 0.031085 0.726775
O O14 0.000000 0.500000 0.500000
O O15 0.202992 0.966518 0.932439
O O16 0.634601 0.559165 0.649790
#
# Coordination Sequence:
#
# PCOD9091549 Si02
#       7
#     2   2   2   2   2   2   2
#     4  11  20  39  71  98 123 168 223 264 317 404
#     4  11  24  40  65 100 134 166 207 279 340 373
#     4  10  23  41  62  89 123 171 218 262 312 388
#     4  10  20  40  65  90 125 169 217 256 322 394
#     4  11  25  40  60  93 128 163 220 273 325 374
#     4  10  19  39  67  92 119 170 221 263 315 392
#     4  11  21  41  67  90 126 171 220 260 325 401
#
# _framework density 21.494299999999999
#
# number of rings (size 3 to 8) (size 9 to 14) (size 15 to 20)
#    0.000    1.429    4.286    1.714    2.000    0.571 
#    5.143    0.714    0.000    0.000    0.000    0.000 
#    0.000    0.000    0.000    0.000    0.000    0.000 
#
# Total GULP energy -78026.909440 kJ/mol
# GULP energy per Si atom -5573.350674 kJ/mol
# Density = 2.144538 g / cm^3
# Si number density = 21.494300 Si / 1000 Ang^3
#
#
#
# Elastic Constant Matrix: (Units=GPa)
#
#
# Indices 1 2 3 4 5 6 
#
# 1 99.9703 34.5956 31.4898 10.1206 2.6133 21.1218
# 2 34.5956 115.9502 34.5946 12.3565 -1.4572 18.9198
# 3 31.4898 34.5946 146.6259 2.7866 1.8131 2.1605
# 4 10.1206 12.3565 2.7866 39.0833 -0.7217 -0.5166
# 5 2.6133 -1.4572 1.8131 -0.7217 32.3539 -6.5967
# 6 21.1218 18.9198 2.1605 -0.5166 -6.5967 23.7377
#
#
#
# Elastic Compliance Matrix: (Units=1/GPa)
#
#
# Indices 1 2 3 4 5 6 
#
# 1 0.014315 -0.001131 -0.002509 -0.003408 -0.003736 -0.012720
# 2 -0.001131 0.011287 -0.002226 -0.003243 -0.001007 -0.008138
# 3 -0.002509 -0.002226 0.007813 0.000849 0.000381 0.003420
# 4 -0.003408 -0.003243 0.000849 0.027560 0.002065 0.006713
# 5 -0.003736 -0.001007 0.000381 0.002065 0.033957 0.013574
# 6 -0.012720 -0.008138 0.003420 0.006713 0.013574 0.063538
#
#
# Mechanical properties :
#
#
# Convention : Reuss Voigt Hill
#
# Bulk Modulus (GPa) = 46.12012 62.65628 54.38820
# Shear Modulus (GPa) = 28.18021 36.49274 32.33648
#
# Velocity S-wave (km/s) = 3.62478 4.12489 3.88289
# Velocity P-wave (km/s) = 6.24677 7.20415 6.74248
#
# Compressibility (1/GPa) = 0.02168251
#
# Stress axis : x y z
#
# Youngs Moduli (GPa) = 69.85805 88.59973 127.99280
#
# Poissons Ratio (x) = 0.10018 0.32115
# Poissons Ratio (y) = 0.07899 0.28493
# Poissons Ratio (z) = 0.17528 0.19724
#
# Static dielectric constant tensor:
#      x y z
#    x 1.653690 -0.120750 -0.057330 
#    y -0.120750 1.713720 -0.052600 
#    z -0.057330 -0.052600 1.834710 
# 
# From -- ./inp_files/273636.got.cif
#   From: 2010.05.17/outbox.cif.g08.bks.cpg/sg2_137_cif.got.tgz:273636.got - 2010.06.03 11:33:40.
