data_PCOD9091695
_publ_section_title
;
Structure prediction by ZEFSAII (Michael W. Deem and Ramdas Pophale) SiO2 
 PCOD9091695
Probable space group: P -1
;
_chemical_formula_sum "Si O2"
_cell_formula_units_Z 12
_cell_length_a 10.135231
_cell_length_b 9.565410
_cell_length_c 9.913827
_cell_angle_alpha 71.109260
_cell_angle_beta 135.613547
_cell_angle_gamma 129.226824
_cell_volume 506.017774
_symmetry_space_group_name_H-M "P -1"
_symmetry_group_IT_number 2
_symmetry_cell_setting 'triclinic'
loop_
_space_group_symop_operation_xyz
x,y,z
-x,-y,-z
loop_
_atom_site_type_symbol
_atom_site_label
_atom_site_fract_x
_atom_site_fract_y
_atom_site_fract_z
Si Si1 0.231415 0.010218 0.620046
Si Si2 0.706095 0.658197 0.514025
Si Si3 0.753325 0.470909 0.347333
Si Si4 0.938469 0.805237 0.219345
Si Si5 0.209307 0.937466 0.912200
Si Si6 0.624319 0.967774 0.720278
O O1 0.387828 0.223031 0.629854
O O2 0.292580 0.950271 0.816060
O O3 0.134667 0.882866 0.458593
O O4 0.000000 0.000000 0.500000
O O5 0.500000 0.500000 0.500000
O O6 0.757347 0.584581 0.442532
O O7 0.932943 0.767375 0.745606
O O8 0.538178 0.254795 0.295518
O O9 0.000000 0.500000 0.500000
O O10 0.766390 0.583405 0.187622
O O11 0.795359 0.887706 0.117835
O O12 0.103069 0.911196 0.175408
O O13 0.343110 0.937590 0.139812
O O14 0.500000 0.000000 0.500000
#
# Coordination Sequence:
#
# PCOD9091695 Si02
#       6
#     2   2   2   2   2   2
#     4   8  15  35  63  85 117 156 212 269 308 365
#     4  10  19  39  69  99 125 165 224 276 319 387
#     4  12  22  40  66  91 135 174 208 268 340 387
#     4  10  19  42  66  90 127 167 221 270 326 386
#     4  10  20  41  66  92 125 168 226 272 314 386
#     4  12  26  40  58  95 137 179 209 267 337 386
#
# _framework density 23.714583000000001
#
# number of rings (size 3 to 8) (size 9 to 14) (size 15 to 20)
#    0.000    2.000    6.667    2.500    0.000    0.667 
#    3.000    4.167    0.000    0.000    0.000    0.000 
#    0.000    0.000    0.000    0.000    0.000    0.000 
#
# Total GULP energy -66802.223118 kJ/mol
# GULP energy per Si atom -5566.851927 kJ/mol
# Density = 2.366061 g / cm^3
# Si number density = 23.714583 Si / 1000 Ang^3
#
#
#
# Elastic Constant Matrix: (Units=GPa)
#
#
# Indices 1 2 3 4 5 6 
#
# 1 76.6104 31.0427 13.7953 -13.2712 -23.2969 10.2153
# 2 31.0427 182.6302 32.5049 -17.0081 -11.4987 27.0889
# 3 13.7953 32.5049 153.7158 10.4379 -16.7345 6.5321
# 4 -13.2712 -17.0081 10.4379 23.4328 1.6557 -14.2400
# 5 -23.2969 -11.4987 -16.7345 1.6557 36.9768 -10.8754
# 6 10.2153 27.0889 6.5321 -14.2400 -10.8754 38.6764
#
#
#
# Elastic Compliance Matrix: (Units=1/GPa)
#
#
# Indices 1 2 3 4 5 6 
#
# 1 0.018940 -0.001832 -0.000994 0.011386 0.011547 0.003887
# 2 -0.001832 0.006700 -0.001366 0.002500 -0.000763 -0.003273
# 3 -0.000994 -0.001366 0.007609 -0.006141 0.002162 -0.001719
# 4 0.011386 0.002500 -0.006141 0.067408 0.009112 0.023660
# 5 0.011547 -0.000763 0.002162 0.009112 0.037928 0.011140
# 6 0.003887 -0.003273 -0.001719 0.023660 0.011140 0.039255
#
#
# Mechanical properties :
#
#
# Convention : Reuss Voigt Hill
#
# Bulk Modulus (GPa) = 40.21596 63.07136 51.64366
# Shear Modulus (GPa) = 25.70547 42.19144 33.94845
#
# Velocity S-wave (km/s) = 3.29591 4.22256 3.78768
# Velocity P-wave (km/s) = 5.61063 7.10120 6.39946
#
# Compressibility (1/GPa) = 0.02486575
#
# Stress axis : x y z
#
# Youngs Moduli (GPa) = 52.79933 149.24989 131.42309
#
# Poissons Ratio (x) = 0.27337 0.13060
# Poissons Ratio (y) = 0.09671 0.17955
# Poissons Ratio (z) = 0.05247 0.20390
#
# Static dielectric constant tensor:
#      x y z
#    x 2.004910 0.099070 0.077430 
#    y 0.099070 1.889600 -0.005280 
#    z 0.077430 -0.005280 2.034350 
# 
# From -- ./inp_files/182427.got.cif
#   From: 2010.05.17/outbox.cif.g08.bks.cpg/sg2_92_cif.got.tgz:182427.got - 2010.06.03 11:33:40.
