data_PCOD9091275
_publ_section_title
;
Structure prediction by ZEFSAII (Michael W. Deem and Ramdas Pophale) SiO2 
 PCOD9091275
Probable space group: P -1
;
_chemical_formula_sum "Si O2"
_cell_formula_units_Z 16
_cell_length_a 9.958904
_cell_length_b 9.242553
_cell_length_c 14.594036
_cell_angle_alpha 69.220209
_cell_angle_beta 45.005407
_cell_angle_gamma 97.298078
_cell_volume 728.817954
_symmetry_space_group_name_H-M "P -1"
_symmetry_group_IT_number 2
_symmetry_cell_setting 'triclinic'
loop_
_space_group_symop_operation_xyz
x,y,z
-x,-y,-z
loop_
_atom_site_type_symbol
_atom_site_label
_atom_site_fract_x
_atom_site_fract_y
_atom_site_fract_z
Si Si1 0.263992 0.986069 0.131379
Si Si2 0.946289 0.561149 0.417990
Si Si3 0.301002 0.778751 0.649183
Si Si4 0.491389 0.285054 0.597098
Si Si5 0.009509 0.866219 0.097570
Si Si6 0.596970 0.740190 0.831614
Si Si7 0.658040 0.139674 0.187023
Si Si8 0.862261 0.591148 0.783470
O O1 0.065217 0.782824 0.313091
O O2 0.168194 0.990251 0.078071
O O3 0.317607 0.145310 0.140421
O O4 0.500000 0.000000 0.000000
O O5 0.678408 0.433033 0.546395
O O6 0.000000 0.500000 0.500000
O O7 0.072396 0.524913 0.283763
O O8 0.399270 0.681902 0.564350
O O9 0.254846 0.742426 0.787469
O O10 0.079881 0.733196 0.709473
O O11 0.500000 0.000000 0.500000
O O12 0.255029 0.271706 0.712117
O O13 0.430713 0.077562 0.702284
O O14 0.136289 0.783503 0.004106
O O15 0.000000 0.000000 0.000000
O O16 0.545768 0.851055 0.759101
O O17 0.779824 0.690939 0.734202
O O18 0.350343 0.547580 0.016272
#
# Coordination Sequence:
#
# PCOD9091275 Si02
#       8
#     2   2   2   2   2   2   2   2
#     4  12  23  42  69  93 133 174 218 269 331 385
#     4  11  23  43  67  97 134 174 211 272 329 390
#     4   9  20  39  61  85 126 173 201 258 328 385
#     4   9  21  40  62  92 133 168 211 265 334 381
#     4  10  22  37  66  97 122 170 222 271 314 392
#     4  11  23  40  66  95 126 163 218 270 317 380
#     4  10  19  39  64  96 122 169 219 265 315 392
#     4  10  23  42  63  92 130 167 211 267 324 378
#
# _framework density 21.953357
#
# number of rings (size 3 to 8) (size 9 to 14) (size 15 to 20)
#    0.000    1.750    2.500    0.750    7.000    1.000 
#    4.500    6.250    0.000    0.000    0.000    0.000 
#    0.000    0.000    0.000    0.000    0.000    0.000 
#
# Total GULP energy -89416.368602 kJ/mol
# GULP energy per Si atom -5588.523038 kJ/mol
# Density = 2.190339 g / cm^3
# Si number density = 21.953357 Si / 1000 Ang^3
#
#
#
# Elastic Constant Matrix: (Units=GPa)
#
#
# Indices 1 2 3 4 5 6 
#
# 1 133.5341 29.4290 34.3889 -4.2081 -10.4837 15.6080
# 2 29.4290 56.9368 27.8259 -11.0128 -13.0134 6.2256
# 3 34.3889 27.8259 60.0332 -3.3782 -24.3812 10.6583
# 4 -4.2081 -11.0128 -3.3782 29.2486 2.9279 -2.3324
# 5 -10.4837 -13.0134 -24.3812 2.9279 43.3514 -4.9499
# 6 15.6080 6.2256 10.6583 -2.3324 -4.9499 37.8204
#
#
#
# Elastic Compliance Matrix: (Units=1/GPa)
#
#
# Indices 1 2 3 4 5 6 
#
# 1 0.009359 -0.002904 -0.004073 -0.000294 -0.001154 -0.002406
# 2 -0.002904 0.025345 -0.009182 0.007962 0.001235 0.000267
# 3 -0.004073 -0.009182 0.028659 -0.002222 0.012135 -0.003433
# 4 -0.000294 0.007962 -0.002222 0.037140 -0.001260 0.001562
# 5 -0.001154 0.001235 0.012135 -0.001260 0.030151 0.000722
# 6 -0.002406 0.000267 -0.003433 0.001562 0.000722 0.028548
#
#
# Mechanical properties :
#
#
# Convention : Reuss Voigt Hill
#
# Bulk Modulus (GPa) = 32.21153 48.19909 40.20531
# Shear Modulus (GPa) = 24.76856 32.67476 28.72166
#
# Velocity S-wave (km/s) = 3.36257 3.86213 3.62097
# Velocity P-wave (km/s) = 5.45714 6.47232 5.98629
#
# Compressibility (1/GPa) = 0.03104478
#
# Stress axis : x y z
#
# Youngs Moduli (GPa) = 106.84829 39.45568 34.89255
#
# Poissons Ratio (x) = 0.11460 0.14212
# Poissons Ratio (y) = 0.31033 0.32038
# Poissons Ratio (z) = 0.43521 0.36227
#
# Static dielectric constant tensor:
#      x y z
#    x 1.798580 -0.039280 0.025840 
#    y -0.039280 1.794270 0.007790 
#    z 0.025840 0.007790 1.867230 
# 
# From -- ./inp_files/273592.got.cif
#   From: 2010.05.17/outbox.cif.g08.bks.cpg/sg2_137_cif.got.tgz:273592.got - 2010.06.03 11:33:40.
