data_PCOD9091214
_publ_section_title
;
Structure prediction by ZEFSAII (Michael W. Deem and Ramdas Pophale) SiO2 
 PCOD9091214
Probable space group: P -1
;
_chemical_formula_sum "Si O2"
_cell_formula_units_Z 15
_cell_length_a 11.316726
_cell_length_b 7.505210
_cell_length_c 9.389566
_cell_angle_alpha 110.693400
_cell_angle_beta 113.683311
_cell_angle_gamma 107.793105
_cell_volume 582.585587
_symmetry_space_group_name_H-M "P -1"
_symmetry_group_IT_number 2
_symmetry_cell_setting 'triclinic'
loop_
_space_group_symop_operation_xyz
x,y,z
-x,-y,-z
loop_
_atom_site_type_symbol
_atom_site_label
_atom_site_fract_x
_atom_site_fract_y
_atom_site_fract_z
Si Si1 0.178736 0.653271 0.103169
Si Si2 0.708294 0.642740 0.784419
Si Si3 0.729785 0.468297 0.142991
Si Si4 0.632606 0.526270 0.397604
Si Si5 0.727276 0.016557 0.505305
Si Si6 0.000000 0.000000 0.500000
Si Si7 0.859376 0.940252 0.176926
Si Si8 0.428853 0.069072 0.860606
O O1 0.267560 0.533551 0.166012
O O2 0.242767 0.868303 0.294233
O O3 0.202282 0.657921 0.945792
O O4 0.000000 0.500000 0.000000
O O5 0.705656 0.580390 0.603046
O O6 0.550593 0.635334 0.728024
O O7 0.842829 0.868353 0.986324
O O8 0.712596 0.455528 0.299970
O O9 0.825414 0.732687 0.217855
O O10 0.554267 0.330835 0.971525
O O11 0.647148 0.753332 0.413477
O O12 0.883457 0.086389 0.521646
O O13 0.619505 0.048095 0.350861
O O14 0.986376 0.889848 0.626550
O O15 0.721534 0.965809 0.153443
O O16 0.500000 0.000000 0.000000
#
# Coordination Sequence:
#
# PCOD9091214 Si02
#       8
#     2   2   2   2   2   1   2   2
#     4  11  26  43  63  94 135 172 206 263 322 375
#     4  10  23  39  68  94 134 157 215 266 319 378
#     4  11  21  42  67  91 129 168 214 252 321 388
#     4  11  22  41  71  99 119 173 213 263 320 381
#     4  11  23  41  65  94 125 168 217 256 322 376
#     4  10  20  38  68  86 118 172 224 252 290 388
#     4  10  19  39  64  90 123 171 212 253 312 376
#     4  11  23  35  64  98 129 156 210 269 321 369
#
# _framework density 25.74729
#
# number of rings (size 3 to 8) (size 9 to 14) (size 15 to 20)
#    0.000    1.333    4.000    3.600    1.867    3.200 
#    0.000    6.000    0.000    0.000    0.000    0.000 
#    0.000    0.000    0.000    0.000    0.000    0.000 
#
# Total GULP energy -83550.002065 kJ/mol
# GULP energy per Si atom -5570.000138 kJ/mol
# Density = 2.568869 g / cm^3
# Si number density = 25.747290 Si / 1000 Ang^3
#
#
#
# Elastic Constant Matrix: (Units=GPa)
#
#
# Indices 1 2 3 4 5 6 
#
# 1 109.0261 12.6943 70.8394 -12.5073 -15.9010 10.6952
# 2 12.6943 41.7190 10.1251 -6.8915 5.7414 12.9898
# 3 70.8394 10.1251 204.9656 -22.5988 -22.0491 18.8096
# 4 -12.5073 -6.8915 -22.5988 36.7146 -7.1237 -5.8305
# 5 -15.9010 5.7414 -22.0491 -7.1237 62.7961 -10.6943
# 6 10.6952 12.9898 18.8096 -5.8305 -10.6943 20.5490
#
#
#
# Elastic Compliance Matrix: (Units=1/GPa)
#
#
# Indices 1 2 3 4 5 6 
#
# 1 0.012485 -0.003149 -0.003747 0.001962 0.002488 0.000773
# 2 -0.003149 0.033318 0.000882 0.000434 -0.007581 -0.024052
# 3 -0.003747 0.000882 0.006879 0.002773 0.001097 -0.003547
# 4 0.001962 0.000434 0.002773 0.032369 0.006599 0.008785
# 5 0.002488 -0.007581 0.001097 0.006599 0.020985 0.015287
# 6 0.000773 -0.024052 -0.003547 0.008785 0.015287 0.077161
#
#
# Mechanical properties :
#
#
# Convention : Reuss Voigt Hill
#
# Bulk Modulus (GPa) = 24.59679 60.33648 42.46663
# Shear Modulus (GPa) = 23.94911 41.48208 32.71560
#
# Velocity S-wave (km/s) = 3.05316 4.01824 3.56847
# Velocity P-wave (km/s) = 4.69073 6.70919 5.78862
#
# Compressibility (1/GPa) = 0.04065572
#
# Stress axis : x y z
#
# Youngs Moduli (GPa) = 80.09561 30.01387 145.36140
#
# Poissons Ratio (x) = 0.09451 0.54460
# Poissons Ratio (y) = 0.25220 -0.12820
# Poissons Ratio (z) = 0.30008 -0.02647
#
# Static dielectric constant tensor:
#      x y z
#    x 1.918230 -0.030780 -0.256210 
#    y -0.030780 2.083010 -0.180240 
#    z -0.256210 -0.180240 1.470240 
# 
# From -- ./inp_files/240661.got.cif
#   From: 2010.05.17/outbox.cif.g08.bks.cpg/sg2_121_cif.got.tgz:240661.got - 2010.06.03 11:33:40.
