data_PCOD9091098
_publ_section_title
;
Structure prediction by ZEFSAII (Michael W. Deem and Ramdas Pophale) SiO2 
 PCOD9091098
Probable space group: P -1
;
_chemical_formula_sum "Si O2"
_cell_formula_units_Z 14
_cell_length_a 13.849889
_cell_length_b 10.911145
_cell_length_c 22.468780
_cell_angle_alpha 28.791004
_cell_angle_beta 161.623857
_cell_angle_gamma 149.268024
_cell_volume 506.772216
_symmetry_space_group_name_H-M "P -1"
_symmetry_group_IT_number 2
_symmetry_cell_setting 'triclinic'
loop_
_space_group_symop_operation_xyz
x,y,z
-x,-y,-z
loop_
_atom_site_type_symbol
_atom_site_label
_atom_site_fract_x
_atom_site_fract_y
_atom_site_fract_z
Si Si1 0.799849 0.561418 0.193590
Si Si2 0.333285 0.931777 0.065363
Si Si3 0.726381 0.766975 0.265223
Si Si4 0.154184 0.741580 0.211066
Si Si5 0.667417 0.176664 0.469940
Si Si6 0.285956 0.995529 0.625375
Si Si7 0.814970 0.556515 0.976537
O O1 0.787802 0.279179 0.333232
O O2 0.076952 0.635803 0.277023
O O3 0.500000 0.500000 0.000000
O O4 0.784367 0.797380 0.128371
O O5 0.613932 0.892013 0.204910
O O6 0.442485 0.975417 0.178513
O O7 0.074475 0.672637 0.029775
O O8 0.769800 0.470548 0.429176
O O9 0.412083 0.701688 0.068185
O O10 0.035870 0.904211 0.353948
O O11 0.528080 0.795913 0.399126
O O12 0.967643 0.549463 0.133531
O O13 0.000000 0.000000 0.000000
O O14 0.406108 0.225691 0.248397
O O15 0.500000 0.000000 0.500000
O O16 0.000000 0.000000 0.500000
#
# Coordination Sequence:
#
# PCOD9091098 Si02
#       7
#     2   2   2   2   2   2   2
#     4  10  20  40  63  90 123 165 214 248 314 376
#     4  10  19  39  63  90 124 163 212 253 303 384
#     4   9  20  40  59  90 123 163 202 262 318 357
#     4  11  19  39  64  91 125 165 214 255 306 371
#     4   9  20  42  59  91 128 162 209 256 318 375
#     4  10  23  41  60  94 127 162 208 265 311 362
#     4   9  19  37  65  86 125 169 202 261 309 368
#
# _framework density 27.625823
#
# number of rings (size 3 to 8) (size 9 to 14) (size 15 to 20)
#    0.857    1.429    4.286    0.429    0.000    1.714 
#   10.286    7.857    0.000    0.000    0.000    0.000 
#    0.000    0.000    0.000    0.000    0.000    0.000 
#
# Total GULP energy -78305.135629 kJ/mol
# GULP energy per Si atom -5593.223973 kJ/mol
# Density = 2.756295 g / cm^3
# Si number density = 27.625823 Si / 1000 Ang^3
#
#
#
# Elastic Constant Matrix: (Units=GPa)
#
#
# Indices 1 2 3 4 5 6 
#
# 1 171.2388 61.9303 54.8308 9.1813 52.2598 19.3590
# 2 61.9303 110.4113 23.1476 19.3283 17.0533 14.4673
# 3 54.8308 23.1476 100.6650 15.3487 29.3458 15.9984
# 4 9.1813 19.3283 15.3487 39.6140 6.9212 6.2837
# 5 52.2598 17.0533 29.3458 6.9212 55.4930 22.4749
# 6 19.3590 14.4673 15.9984 6.2837 22.4749 57.2327
#
#
#
# Elastic Compliance Matrix: (Units=1/GPa)
#
#
# Indices 1 2 3 4 5 6 
#
# 1 0.010573 -0.004649 -0.002956 0.002118 -0.007727 0.001227
# 2 -0.004649 0.012474 0.000204 -0.005119 0.001797 -0.001781
# 3 -0.002956 0.000204 0.013223 -0.003786 -0.003395 -0.000999
# 4 0.002118 -0.005119 -0.003786 0.029156 -0.001691 -0.000901
# 5 -0.007727 0.001797 -0.003395 -0.001691 0.030223 -0.008575
# 6 0.001227 -0.001781 -0.000999 -0.000901 -0.008575 0.021253
#
#
# Mechanical properties :
#
#
# Convention : Reuss Voigt Hill
#
# Bulk Modulus (GPa) = 46.58104 73.57027 60.07565
# Shear Modulus (GPa) = 36.00729 46.62837 41.31783
#
# Velocity S-wave (km/s) = 3.61417 4.11281 3.87152
# Velocity P-wave (km/s) = 5.85784 7.01729 6.46362
#
# Compressibility (1/GPa) = 0.02146796
#
# Stress axis : x y z
#
# Youngs Moduli (GPa) = 94.57653 80.16627 75.62779
#
# Poissons Ratio (x) = 0.37271 0.22352
# Poissons Ratio (y) = 0.43971 -0.01541
# Poissons Ratio (z) = 0.27953 -0.01633
#
# Static dielectric constant tensor:
#      x y z
#    x 2.179010 0.052860 -0.107010 
#    y 0.052860 2.208780 -0.025050 
#    z -0.107010 -0.025050 2.298340 
# 
# From -- ./inp_files/619328.got.cif
#   From: 2010.05.17/outbox.cif.g08.bks.cpg/sg2_310_cif.got.tgz:619328.got - 2010.06.03 11:33:40.
