data_PCOD9091326
_publ_section_title
;
Structure prediction by ZEFSAII (Michael W. Deem and Ramdas Pophale) SiO2 
 PCOD9091326
Probable space group: P -1
;
_chemical_formula_sum "Si O2"
_cell_formula_units_Z 16
_cell_length_a 8.702141
_cell_length_b 12.417697
_cell_length_c 13.429057
_cell_angle_alpha 102.902821
_cell_angle_beta 105.571177
_cell_angle_gamma 31.894650
_cell_volume 738.557950
_symmetry_space_group_name_H-M "P -1"
_symmetry_group_IT_number 2
_symmetry_cell_setting 'triclinic'
loop_
_space_group_symop_operation_xyz
x,y,z
-x,-y,-z
loop_
_atom_site_type_symbol
_atom_site_label
_atom_site_fract_x
_atom_site_fract_y
_atom_site_fract_z
Si Si1 0.660805 0.458910 0.803482
Si Si2 0.726531 0.067393 0.364055
Si Si3 0.027381 0.908688 0.735578
Si Si4 0.183125 0.128572 0.473841
Si Si5 0.338831 0.059124 0.845569
Si Si6 0.354006 0.915685 0.010637
Si Si7 0.684953 0.486048 0.584708
Si Si8 0.704599 0.234143 0.906452
O O1 0.355958 0.704869 0.796004
O O2 0.724687 0.411323 0.685949
O O3 0.581136 0.401771 0.849220
O O4 0.998229 0.291996 0.859023
O O5 0.957457 0.999335 0.321772
O O6 0.476217 0.304339 0.385789
O O7 0.824004 0.967537 0.467316
O O8 0.633012 0.016497 0.271261
O O9 0.930587 0.856475 0.646754
O O10 0.810496 0.075768 0.817417
O O11 0.963520 0.341402 0.532757
O O12 0.500000 0.000000 0.500000
O O13 0.537167 0.050326 0.892342
O O14 0.434012 0.912101 0.913694
O O15 0.474827 0.727620 0.032693
O O16 0.000242 0.109533 0.983328
O O17 0.500000 0.500000 0.500000
#
# Coordination Sequence:
#
# PCOD9091326 Si02
#       8
#     2   2   2   2   2   2   2   2
#     4  10  20  36  63  89 117 162 208 247 297 372
#     4  11  22  39  67  85 124 172 205 242 312 372
#     4  11  22  38  65  90 124 162 212 244 305 389
#     4  12  26  40  62  98 129 162 203 260 309 362
#     4  10  19  39  65  89 122 162 208 257 305 367
#     4   9  20  37  65  90 119 162 205 258 315 364
#     4  11  22  39  65  91 124 165 216 245 293 385
#     4  10  20  39  64  89 124 162 199 257 321 360
#
# _framework density 21.663837999999998
#
# number of rings (size 3 to 8) (size 9 to 14) (size 15 to 20)
#    0.000    1.500    6.250    0.375    3.500    0.500 
#    0.000    8.750    2.750    0.000    0.000    0.000 
#    0.000    0.000    0.000    0.000    0.000    0.000 
#
# Total GULP energy -89184.952898 kJ/mol
# GULP energy per Si atom -5574.059556 kJ/mol
# Density = 2.161453 g / cm^3
# Si number density = 21.663838 Si / 1000 Ang^3
#
#
#
# Elastic Constant Matrix: (Units=GPa)
#
#
# Indices 1 2 3 4 5 6 
#
# 1 76.6510 3.5433 21.6836 -3.7741 4.4580 6.4098
# 2 3.5433 63.7826 6.9993 -3.3886 3.3733 7.0380
# 3 21.6836 6.9993 91.7656 -4.0747 13.4979 9.7822
# 4 -3.7741 -3.3886 -4.0747 15.4127 7.3898 -8.6341
# 5 4.4580 3.3733 13.4979 7.3898 28.2490 0.9718
# 6 6.4098 7.0380 9.7822 -8.6341 0.9718 27.7540
#
#
#
# Elastic Compliance Matrix: (Units=1/GPa)
#
#
# Indices 1 2 3 4 5 6 
#
# 1 0.014193 -0.000103 -0.002861 0.002655 -0.001508 -0.001365
# 2 -0.000103 0.016342 -0.000421 0.002942 -0.002401 -0.002972
# 3 -0.002861 -0.000421 0.013061 0.004803 -0.006923 -0.002099
# 4 0.002655 0.002942 0.004803 0.097464 -0.029535 0.028302
# 5 -0.001508 -0.002401 -0.006923 -0.029535 0.047215 -0.007444
# 6 -0.001365 -0.002972 -0.002099 0.028302 -0.007444 0.046905
#
#
# Mechanical properties :
#
#
# Convention : Reuss Voigt Hill
#
# Bulk Modulus (GPa) = 27.15557 32.96130 30.05843
# Shear Modulus (GPa) = 19.66771 27.61466 23.64119
#
# Velocity S-wave (km/s) = 3.01634 3.57415 3.30703
# Velocity P-wave (km/s) = 4.96923 5.68161 5.33732
#
# Compressibility (1/GPa) = 0.03682486
#
# Stress axis : x y z
#
# Youngs Moduli (GPa) = 70.45879 61.19384 76.56503
#
# Poissons Ratio (x) = 0.00631 0.21902
# Poissons Ratio (y) = 0.00727 0.03226
# Poissons Ratio (z) = 0.20155 0.02579
#
# Static dielectric constant tensor:
#      x y z
#    x 1.790230 -0.005360 -0.023050 
#    y -0.005360 1.885900 0.013900 
#    z -0.023050 0.013900 1.860010 
# 
# From -- ./inp_files/498054.got.cif
#   From: 2010.05.17/outbox.cif.g08.bks.cpg/sg2_250_cif.got.tgz:498054.got - 2010.06.03 11:33:40.
