data_PCOD9091400
_publ_section_title
;
Structure prediction by ZEFSAII (Michael W. Deem and Ramdas Pophale) SiO2 
 PCOD9091400
Probable space group: P -1
;
_chemical_formula_sum "Si O2"
_cell_formula_units_Z 15
_cell_length_a 8.834164
_cell_length_b 12.016875
_cell_length_c 20.210257
_cell_angle_alpha 31.354491
_cell_angle_beta 39.686599
_cell_angle_gamma 42.786634
_cell_volume 693.638187
_symmetry_space_group_name_H-M "P -1"
_symmetry_group_IT_number 2
_symmetry_cell_setting 'triclinic'
loop_
_space_group_symop_operation_xyz
x,y,z
-x,-y,-z
loop_
_atom_site_type_symbol
_atom_site_label
_atom_site_fract_x
_atom_site_fract_y
_atom_site_fract_z
Si Si1 0.207266 0.371544 0.044725
Si Si2 0.098515 0.901792 0.346423
Si Si3 0.000000 0.000000 0.000000
Si Si4 0.189255 0.246238 0.366673
Si Si5 0.387346 0.097346 0.558936
Si Si6 0.968367 0.452870 0.852524
Si Si7 0.277517 0.690768 0.168968
Si Si8 0.465035 0.584619 0.302345
O O1 0.193953 0.506978 0.047999
O O2 0.152001 0.139640 0.201004
O O3 0.466925 0.328144 0.944913
O O4 0.000000 0.500000 0.000000
O O5 0.337105 0.715307 0.342835
O O6 0.987293 0.868059 0.472620
O O7 0.895559 0.885637 0.367291
O O8 0.912772 0.104395 0.901693
O O9 0.930319 0.247880 0.927567
O O10 0.206292 0.458949 0.297009
O O11 0.090543 0.338161 0.282645
O O12 0.454732 0.082131 0.354125
O O13 0.434245 0.335101 0.437634
O O14 0.500000 0.000000 0.500000
O O15 0.251725 0.415019 0.795823
O O16 0.333359 0.703433 0.221120
#
# Coordination Sequence:
#
# PCOD9091400 Si02
#       8
#     2   2   1   2   2   2   2   2
#     4  12  25  42  70 103 133 179 233 275 334 408
#     4  11  24  40  67 103 135 175 230 275 343 398
#     4  10  26  44  64  96 140 178 216 276 346 394
#     4  10  23  44  68  96 139 174 225 283 333 403
#     4  10  19  39  65  98 131 173 222 274 334 393
#     4  11  25  46  68 100 139 180 224 282 340 399
#     4  11  23  45  66  98 139 179 227 277 336 402
#     4  12  23  40  72  98 135 179 225 284 330 402
#
# _framework density 21.625108999999998
#
# number of rings (size 3 to 8) (size 9 to 14) (size 15 to 20)
#    0.000    1.067    4.000    3.600    1.867    5.867 
#    2.400    0.000    0.000    0.000    0.000    0.000 
#    0.000    0.000    0.000    0.000    0.000    0.000 
#
# Total GULP energy -83643.087350 kJ/mol
# GULP energy per Si atom -5576.205823 kJ/mol
# Density = 2.157589 g / cm^3
# Si number density = 21.625109 Si / 1000 Ang^3
#
#
#
# Elastic Constant Matrix: (Units=GPa)
#
#
# Indices 1 2 3 4 5 6 
#
# 1 61.6052 8.4876 -3.3881 -10.9665 25.3813 6.6796
# 2 8.4876 73.4874 18.5855 -14.3470 -1.6051 6.3652
# 3 -3.3881 18.5855 100.6336 -4.9999 28.1170 -1.3475
# 4 -10.9665 -14.3470 -4.9999 40.5767 0.2374 4.1346
# 5 25.3813 -1.6051 28.1170 0.2374 56.7907 -14.0294
# 6 6.6796 6.3652 -1.3475 4.1346 -14.0294 34.0037
#
#
#
# Elastic Compliance Matrix: (Units=1/GPa)
#
#
# Indices 1 2 3 4 5 6 
#
# 1 0.028311 -0.002511 0.007224 0.009207 -0.019823 -0.014103
# 2 -0.002511 0.015973 -0.003622 0.004714 0.002843 -0.002041
# 3 0.007224 -0.003622 0.014197 0.003037 -0.011701 -0.005375
# 4 0.009207 0.004714 0.003037 0.030192 -0.007965 -0.009528
# 5 -0.019823 0.002843 -0.011701 -0.007965 0.037112 0.019179
# 6 -0.014103 -0.002041 -0.005375 -0.009528 0.019179 0.041419
#
#
# Mechanical properties :
#
#
# Convention : Reuss Voigt Hill
#
# Bulk Modulus (GPa) = 16.48443 31.45514 23.96978
# Shear Modulus (GPa) = 26.99166 40.41031 33.70098
#
# Velocity S-wave (km/s) = 3.53677 4.32751 3.95196
# Velocity P-wave (km/s) = 4.93129 6.28864 5.65087
#
# Compressibility (1/GPa) = 0.06066331
#
# Stress axis : x y z
#
# Youngs Moduli (GPa) = 35.32241 62.60582 70.43634
#
# Poissons Ratio (x) = 0.15719 -0.50883
# Poissons Ratio (y) = 0.08869 0.25512
# Poissons Ratio (z) = -0.25517 0.22675
#
# Static dielectric constant tensor:
#      x y z
#    x 1.816670 -0.025160 0.006140 
#    y -0.025160 1.846100 0.004330 
#    z 0.006140 0.004330 1.778990 
# 
# From -- ./inp_files/174297.got.cif
#   From: 2010.05.17/outbox.cif.g08.bks.cpg/sg2_88_cif.got.tgz:174297.got - 2010.06.03 11:33:40.
