data_PCOD9091129
_publ_section_title
;
Structure prediction by ZEFSAII (Michael W. Deem and Ramdas Pophale) SiO2 
 PCOD9091129
Probable space group: P -1
;
_chemical_formula_sum "Si O2"
_cell_formula_units_Z 16
_cell_length_a 10.008756
_cell_length_b 11.511478
_cell_length_c 9.592743
_cell_angle_alpha 134.628033
_cell_angle_beta 107.784177
_cell_angle_gamma 66.544939
_cell_volume 721.018134
_symmetry_space_group_name_H-M "P -1"
_symmetry_group_IT_number 2
_symmetry_cell_setting 'triclinic'
loop_
_space_group_symop_operation_xyz
x,y,z
-x,-y,-z
loop_
_atom_site_type_symbol
_atom_site_label
_atom_site_fract_x
_atom_site_fract_y
_atom_site_fract_z
Si Si1 0.012241 0.093639 0.227066
Si Si2 0.299230 0.824960 0.099574
Si Si3 0.448236 0.419247 0.551706
Si Si4 0.333075 0.574533 0.149754
Si Si5 0.928571 0.178284 0.555756
Si Si6 0.853192 0.397311 0.308316
Si Si7 0.427738 0.100491 0.422910
Si Si8 0.177991 0.362046 0.738422
O O1 0.896319 0.131118 0.346810
O O2 0.997410 0.287275 0.337331
O O3 0.156135 0.967488 0.231631
O O4 0.000000 0.000000 0.000000
O O5 0.360795 0.689849 0.126882
O O6 0.397194 0.947729 0.194618
O O7 0.239158 0.733178 0.879351
O O8 0.500000 0.500000 0.500000
O O9 0.523254 0.490449 0.766236
O O10 0.271488 0.472533 0.534945
O O11 0.493614 0.219295 0.442888
O O12 0.209924 0.701359 0.311011
O O13 0.267005 0.428762 0.943151
O O14 0.053682 0.278209 0.676146
O O15 0.000000 0.000000 0.500000
O O16 0.889975 0.474311 0.241306
O O17 0.291600 0.235271 0.566458
O O18 0.500000 0.000000 0.500000
#
# Coordination Sequence:
#
# PCOD9091129 Si02
#       8
#     2   2   2   2   2   2   2   2
#     4  10  20  39  62  89 124 159 206 255 310 366
#     4  10  19  39  63  94 115 163 216 257 301 371
#     4  11  24  42  59  90 130 165 203 254 328 376
#     4  11  22  39  63  90 130 162 205 263 316 371
#     4  12  22  39  63  91 126 157 210 262 308 361
#     4   9  22  39  63  87 127 163 203 253 315 378
#     4  11  21  38  67  91 118 161 215 258 301 376
#     4  10  23  39  61  96 120 163 214 254 312 374
#
# _framework density 22.190842
#
# number of rings (size 3 to 8) (size 9 to 14) (size 15 to 20)
#    0.000    1.500    3.750    1.125    1.750    2.000 
#    2.250    1.875    0.000    0.000    0.000    0.000 
#    0.000    0.000    0.000    0.000    0.000    0.000 
#
# Total GULP energy -89120.795280 kJ/mol
# GULP energy per Si atom -5570.049705 kJ/mol
# Density = 2.214033 g / cm^3
# Si number density = 22.190842 Si / 1000 Ang^3
#
#
#
# Elastic Constant Matrix: (Units=GPa)
#
#
# Indices 1 2 3 4 5 6 
#
# 1 73.3125 37.3419 17.8560 8.9895 1.1406 7.1221
# 2 37.3419 145.5929 23.5030 3.2327 6.0415 4.5275
# 3 17.8560 23.5030 110.4895 -2.6578 17.4723 16.9489
# 4 8.9895 3.2327 -2.6578 32.7441 5.7043 2.7621
# 5 1.1406 6.0415 17.4723 5.7043 34.3014 8.8497
# 6 7.1221 4.5275 16.9489 2.7621 8.8497 43.3683
#
#
#
# Elastic Compliance Matrix: (Units=1/GPa)
#
#
# Indices 1 2 3 4 5 6 
#
# 1 0.016862 -0.003925 -0.002124 -0.004693 0.002439 -0.001728
# 2 -0.003925 0.008053 -0.000977 0.000337 -0.000938 0.000356
# 3 -0.002124 -0.000977 0.010911 0.002686 -0.004997 -0.002965
# 4 -0.004693 0.000337 0.002686 0.033241 -0.006515 -0.001102
# 5 0.002439 -0.000938 -0.004997 -0.006515 0.034130 -0.004899
# 6 -0.001728 0.000356 -0.002965 -0.001102 -0.004899 0.025534
#
#
# Mechanical properties :
#
#
# Convention : Reuss Voigt Hill
#
# Bulk Modulus (GPa) = 45.92327 54.08854 50.00591
# Shear Modulus (GPa) = 33.32413 38.79569 36.05991
#
# Velocity S-wave (km/s) = 3.87939 4.18577 4.03549
# Velocity P-wave (km/s) = 6.38795 6.91289 6.65560
#
# Compressibility (1/GPa) = 0.02177545
#
# Stress axis : x y z
#
# Youngs Moduli (GPa) = 59.30406 124.17244 91.64887
#
# Poissons Ratio (x) = 0.48742 0.19462
# Poissons Ratio (y) = 0.23279 0.08952
# Poissons Ratio (z) = 0.12593 0.12129
#
# Static dielectric constant tensor:
#      x y z
#    x 1.878290 -0.042620 0.042180 
#    y -0.042620 1.904330 0.023780 
#    z 0.042180 0.023780 1.884850 
# 
# From -- ./inp_files/187866.got.cif
#   From: 2010.05.17/outbox.cif.g08.bks.cpg/sg2_94_cif.got.tgz:187866.got - 2010.06.03 11:33:40.
