data_PCOD9091352
_publ_section_title
;
Structure prediction by ZEFSAII (Michael W. Deem and Ramdas Pophale) SiO2 
 PCOD9091352
Probable space group: P -1
;
_chemical_formula_sum "Si O2"
_cell_formula_units_Z 12
_cell_length_a 9.703044
_cell_length_b 8.910386
_cell_length_c 18.202228
_cell_angle_alpha 144.404246
_cell_angle_beta 33.390486
_cell_angle_gamma 136.509553
_cell_volume 498.763046
_symmetry_space_group_name_H-M "P -1"
_symmetry_group_IT_number 2
_symmetry_cell_setting 'triclinic'
loop_
_space_group_symop_operation_xyz
x,y,z
-x,-y,-z
loop_
_atom_site_type_symbol
_atom_site_label
_atom_site_fract_x
_atom_site_fract_y
_atom_site_fract_z
Si Si1 0.949933 0.912413 0.903013
Si Si2 0.290427 0.449703 0.361292
Si Si3 0.794289 0.572797 0.448818
Si Si4 0.694091 0.650187 0.141753
Si Si5 0.299456 0.906034 0.331000
Si Si6 0.644572 0.133941 0.879798
O O1 0.093379 0.663977 0.730937
O O2 0.062123 0.132860 0.882084
O O3 0.653878 0.851850 0.992273
O O4 0.000000 0.000000 0.000000
O O5 0.346463 0.506316 0.444520
O O6 0.506352 0.608542 0.277958
O O7 0.000000 0.500000 0.500000
O O8 0.310543 0.144265 0.219289
O O9 0.053882 0.772690 0.430475
O O10 0.648090 0.781304 0.555164
O O11 0.527894 0.765859 0.199152
O O12 0.758061 0.375309 0.975244
O O13 0.255106 0.849457 0.241845
#
# Coordination Sequence:
#
# PCOD9091352 Si02
#       6
#     2   2   2   2   2   2
#     4  12  24  41  66  97 126 166 212 261 315 367
#     4  11  23  43  66  93 126 173 206 256 324 371
#     4  10  22  39  64  93 132 159 212 262 306 376
#     4  12  23  40  68  95 125 171 210 249 324 375
#     4  10  19  39  65  92 123 167 205 259 308 359
#     4  11  23  43  65  94 131 159 214 267 301 378
#
# _framework density 24.059519999999999
#
# number of rings (size 3 to 8) (size 9 to 14) (size 15 to 20)
#    0.000    1.000    5.000    2.000    0.000    2.000 
#    0.000    0.000    0.000    0.000    0.000    0.000 
#    0.000    0.000    0.000    0.000    0.000    0.000 
#
# Total GULP energy -67136.312008 kJ/mol
# GULP energy per Si atom -5594.692667 kJ/mol
# Density = 2.400476 g / cm^3
# Si number density = 24.059520 Si / 1000 Ang^3
#
#
#
# Elastic Constant Matrix: (Units=GPa)
#
#
# Indices 1 2 3 4 5 6 
#
# 1 41.7130 24.4992 22.9134 6.3391 0.3780 -13.4389
# 2 24.4992 140.9155 63.0797 -8.0750 20.4074 -27.2346
# 3 22.9134 63.0797 174.0641 26.3638 9.9975 -5.3639
# 4 6.3391 -8.0750 26.3638 50.5204 -6.7764 0.5380
# 5 0.3780 20.4074 9.9975 -6.7764 40.1999 -8.2831
# 6 -13.4389 -27.2346 -5.3639 0.5380 -8.2831 27.5551
#
#
#
# Elastic Compliance Matrix: (Units=1/GPa)
#
#
# Indices 1 2 3 4 5 6 
#
# 1 0.031657 -0.002317 -0.002748 -0.002520 0.003994 0.013864
# 2 -0.002317 0.011572 -0.004065 0.003847 -0.002396 0.008720
# 3 -0.002748 -0.004065 0.008272 -0.004796 -0.001630 -0.004144
# 4 -0.002520 0.003847 -0.004796 0.023704 0.003733 0.002299
# 5 0.003994 -0.002396 -0.001630 0.003733 0.028700 0.007816
# 6 0.013864 0.008720 -0.004144 0.002299 0.007816 0.053170
#
#
# Mechanical properties :
#
#
# Convention : Reuss Voigt Hill
#
# Bulk Modulus (GPa) = 30.08284 64.18636 47.13460
# Shear Modulus (GPa) = 26.82179 40.06844 33.44511
#
# Velocity S-wave (km/s) = 3.34250 4.08534 3.73245
# Velocity P-wave (km/s) = 5.23708 6.99925 6.18128
#
# Compressibility (1/GPa) = 0.03324154
#
# Stress axis : x y z
#
# Youngs Moduli (GPa) = 31.58827 86.41711 120.88658
#
# Poissons Ratio (x) = 0.20023 0.33220
# Poissons Ratio (y) = 0.07319 0.49139
# Poissons Ratio (z) = 0.08681 0.35128
#
# Static dielectric constant tensor:
#      x y z
#    x 1.970660 0.012510 -0.043360 
#    y 0.012510 1.949740 0.009320 
#    z -0.043360 0.009320 1.944240 
# 
# From -- ./inp_files/27142.got.cif
#   From: 2010.05.17/outbox.cif.g08.bks.cpg/sg2_14_cif.got.tgz:27142.got - 2010.06.03 11:33:40.
