data_PCOD9091103
_publ_section_title
;
Structure prediction by ZEFSAII (Michael W. Deem and Ramdas Pophale) SiO2 
 PCOD9091103
Probable space group: P -1
;
_chemical_formula_sum "Si O2"
_cell_formula_units_Z 16
_cell_length_a 15.956617
_cell_length_b 21.544146
_cell_length_c 10.277076
_cell_angle_alpha 137.634525
_cell_angle_beta 29.334567
_cell_angle_gamma 156.713086
_cell_volume 648.377388
_symmetry_space_group_name_H-M "P -1"
_symmetry_group_IT_number 2
_symmetry_cell_setting 'triclinic'
loop_
_space_group_symop_operation_xyz
x,y,z
-x,-y,-z
loop_
_atom_site_type_symbol
_atom_site_label
_atom_site_fract_x
_atom_site_fract_y
_atom_site_fract_z
Si Si1 0.822858 0.274589 0.872383
Si Si2 0.289284 0.106718 0.682003
Si Si3 0.237874 0.584700 0.638546
Si Si4 0.619262 0.955364 0.110598
Si Si5 0.209513 0.516575 0.111316
Si Si6 0.198372 0.764221 0.634766
Si Si7 0.849645 0.682203 0.276122
Si Si8 0.134781 0.135333 0.332418
O O1 0.557000 0.113982 0.894855
O O2 0.118344 0.437248 0.636287
O O3 0.935230 0.258007 0.807489
O O4 0.717055 0.322134 0.159454
O O5 0.464752 0.271962 0.634034
O O6 0.537327 0.161419 0.513516
O O7 0.157258 0.988955 0.558061
O O8 0.000000 0.000000 0.000000
O O9 0.955658 0.499412 0.802668
O O10 0.352921 0.827326 0.380381
O O11 0.812724 0.130312 0.163234
O O12 0.806237 0.944190 0.839839
O O13 0.065655 0.435339 0.321496
O O14 0.104333 0.364069 0.979072
O O15 0.566805 0.696593 0.894214
O O16 0.500000 0.500000 0.500000
O O17 0.876245 0.803556 0.432660
#
# Coordination Sequence:
#
# PCOD9091103 Si02
#       8
#     2   2   2   2   2   2   2   2
#     4  10  19  39  63  91 121 159 207 248 299 373
#     4  11  22  40  60  89 125 161 202 257 306 353
#     4   9  20  36  65  90 119 160 205 250 301 363
#     4  11  22  38  63  88 121 160 203 253 300 358
#     4   9  19  40  64  87 117 163 208 243 298 372
#     4  10  23  41  61  85 122 165 207 249 296 366
#     4   9  20  37  61  89 122 151 191 256 309 351
#     4  11  21  38  60  92 120 156 204 248 308 360
#
# _framework density 24.676984000000001
#
# number of rings (size 3 to 8) (size 9 to 14) (size 15 to 20)
#    0.000    2.000    2.500    0.750    1.750    2.500 
#    4.500    5.000    0.000    6.000    0.000    0.000 
#    0.000    0.000    0.000    0.000    0.000    0.000 
#
# Total GULP energy -89382.753396 kJ/mol
# GULP energy per Si atom -5586.422087 kJ/mol
# Density = 2.462082 g / cm^3
# Si number density = 24.676984 Si / 1000 Ang^3
#
#
#
# Elastic Constant Matrix: (Units=GPa)
#
#
# Indices 1 2 3 4 5 6 
#
# 1 47.9476 30.9584 -12.4770 -3.5312 3.4054 -2.4934
# 2 30.9584 95.9229 52.2949 8.3897 14.8123 -9.8803
# 3 -12.4770 52.2949 15.4618 -3.0230 -19.1113 -15.8672
# 4 -3.5312 8.3897 -3.0230 66.2809 -10.6049 7.7838
# 5 3.4054 14.8123 -19.1113 -10.6049 19.9333 -8.9877
# 6 -2.4934 -9.8803 -15.8672 7.7838 -8.9877 57.4757
#
#
#
# Elastic Compliance Matrix: (Units=1/GPa)
#
#
# Indices 1 2 3 4 5 6 
#
# 1 0.018892 0.000659 -0.008755 -0.001369 -0.014443 -0.003557
# 2 0.000659 0.002767 0.011121 0.001438 0.011600 0.005194
# 3 -0.008755 0.011121 -0.009380 -0.005099 -0.020053 -0.003503
# 4 -0.001369 0.001438 -0.005099 0.015112 0.000908 -0.003125
# 5 -0.014443 0.011600 -0.020053 0.000908 0.025107 -0.000365
# 6 -0.003557 0.005194 -0.003503 -0.003125 -0.000365 0.017536
#
#
# Mechanical properties :
#
#
# Convention : Reuss Voigt Hill
#
# Bulk Modulus (GPa) = 54.55291 33.43167 43.99229
# Shear Modulus (GPa) = 71.33211 34.64171 52.98691
#
# Velocity S-wave (km/s) = 5.38229 3.75081 4.63884
# Velocity P-wave (km/s) = 7.79617 5.68640 6.82332
#
# Compressibility (1/GPa) = 0.01833083
#
# Stress axis : x y z
#
# Youngs Moduli (GPa) = 52.93150 361.34632 -106.61398
#
# Poissons Ratio (x) = -0.23818 -0.93336
# Poissons Ratio (y) = -0.03489 1.18563
# Poissons Ratio (z) = 0.46339 -4.01846
#
# Static dielectric constant tensor:
#      x y z
#    x 2.044890 -0.005980 0.219030 
#    y -0.005980 1.966810 -0.000770 
#    z 0.219030 -0.000770 2.448390 
# 
# From -- ./inp_files/467457.got.cif
#   From: 2010.05.17/outbox.cif.g08.bks.cpg/sg2_234_cif.got.tgz:467457.got - 2010.06.03 11:33:40.
