data_PCOD9091291
_publ_section_title
;
Structure prediction by ZEFSAII (Michael W. Deem and Ramdas Pophale) SiO2 
 PCOD9091291
Probable space group: P -1
;
_chemical_formula_sum "Si O2"
_cell_formula_units_Z 16
_cell_length_a 25.707678
_cell_length_b 12.503943
_cell_length_c 10.179042
_cell_angle_alpha 34.885759
_cell_angle_beta 37.101748
_cell_angle_gamma 24.842803
_cell_volume 766.739675
_symmetry_space_group_name_H-M "P -1"
_symmetry_group_IT_number 2
_symmetry_cell_setting 'triclinic'
loop_
_space_group_symop_operation_xyz
x,y,z
-x,-y,-z
loop_
_atom_site_type_symbol
_atom_site_label
_atom_site_fract_x
_atom_site_fract_y
_atom_site_fract_z
Si Si1 0.848117 0.785574 0.019691
Si Si2 0.153123 0.775026 0.400447
Si Si3 0.721172 0.259616 0.394238
Si Si4 0.118348 0.718412 0.801491
Si Si5 0.276510 0.139635 0.082506
Si Si6 0.110610 0.830523 0.057811
Si Si7 0.481026 0.101614 0.787465
Si Si8 0.753321 0.659431 0.558074
O O1 0.778932 0.837398 0.970144
O O2 0.821849 0.046474 0.823895
O O3 0.798751 0.754205 0.278497
O O4 0.000000 0.500000 0.000000
O O5 0.185935 0.612366 0.632021
O O6 0.229588 0.548296 0.361848
O O7 0.000000 0.000000 0.500000
O O8 0.833789 0.161320 0.358456
O O9 0.601278 0.577747 0.355405
O O10 0.704381 0.070441 0.651502
O O11 0.772912 0.235963 0.169443
O O12 0.173541 0.450938 0.033568
O O13 0.966855 0.954874 0.880904
O O14 0.402594 0.065832 0.904396
O O15 0.157737 0.551389 0.288409
O O16 0.000000 0.000000 0.000000
O O17 0.614587 0.916009 0.634674
O O18 0.500000 0.000000 0.000000
#
# Coordination Sequence:
#
# PCOD9091291 Si02
#       8
#     2   2   2   2   2   2   2   2
#     4  12  24  42  71 107 139 175 224 284 349 424
#     4  12  21  40  66  99 142 169 215 283 347 409
#     4  10  22  43  69  93 134 182 233 282 333 402
#     4  10  19  39  64  99 136 172 214 285 351 401
#     4  11  24  43  73 100 138 185 226 283 350 400
#     4  10  21  39  67  98 136 178 224 282 347 402
#     4  11  26  50  69  95 141 188 238 284 329 403
#     4  12  25  44  69 102 137 185 229 279 350 406
#
# _framework density 20.867578000000002
#
# number of rings (size 3 to 8) (size 9 to 14) (size 15 to 20)
#    0.000    1.000    6.250    0.000    1.750    2.500 
#    2.250    1.250    0.000    0.000    0.000    0.000 
#    0.000    0.000    0.000    0.000    0.000    0.000 
#
# Total GULP energy -89173.106285 kJ/mol
# GULP energy per Si atom -5573.319143 kJ/mol
# Density = 2.082008 g / cm^3
# Si number density = 20.867578 Si / 1000 Ang^3
#
#
#
# Elastic Constant Matrix: (Units=GPa)
#
#
# Indices 1 2 3 4 5 6 
#
# 1 62.3314 16.4095 28.9009 6.8011 7.4184 -3.1506
# 2 16.4095 143.8268 86.3922 19.3059 1.9274 9.7743
# 3 28.9009 86.3922 174.7274 -10.0498 3.5639 10.7607
# 4 6.8011 19.3059 -10.0498 42.8472 12.8999 2.4262
# 5 7.4184 1.9274 3.5639 12.8999 34.7549 -3.2039
# 6 -3.1506 9.7743 10.7607 2.4262 -3.2039 28.9975
#
#
#
# Elastic Compliance Matrix: (Units=1/GPa)
#
#
# Indices 1 2 3 4 5 6 
#
# 1 0.018393 0.000309 -0.003557 -0.003482 -0.001983 0.003287
# 2 0.000309 0.011728 -0.006301 -0.007583 0.002684 -0.000651
# 3 -0.003557 -0.006301 0.010044 0.006728 -0.002681 -0.002849
# 4 -0.003482 -0.007583 0.006728 0.032777 -0.012098 -0.004398
# 5 -0.001983 0.002684 -0.002681 -0.012098 0.034243 0.004670
# 6 0.003287 -0.000651 -0.002849 -0.004398 0.004670 0.037003
#
#
# Mechanical properties :
#
#
# Convention : Reuss Voigt Hill
#
# Bulk Modulus (GPa) = 47.46702 71.58785 59.52744
# Shear Modulus (GPa) = 29.35806 37.93213 33.64509
#
# Velocity S-wave (km/s) = 3.75490 4.26814 4.01972
# Velocity P-wave (km/s) = 6.44943 7.65961 7.08042
#
# Compressibility (1/GPa) = 0.02106726
#
# Stress axis : x y z
#
# Youngs Moduli (GPa) = 54.36711 85.26317 99.56029
#
# Poissons Ratio (x) = -0.02634 0.35417
# Poissons Ratio (y) = -0.01679 0.62732
# Poissons Ratio (z) = 0.19340 0.53724
#
# Static dielectric constant tensor:
#      x y z
#    x 1.980770 -0.000010 0.123690 
#    y -0.000010 1.780400 -0.004890 
#    z 0.123690 -0.004890 1.815820 
# 
# From -- ./inp_files/477661.got.cif
#   From: 2010.05.17/outbox.cif.g08.bks.cpg/sg2_239_cif.got.tgz:477661.got - 2010.06.03 11:33:40.
