data_PCOD9091011
_publ_section_title
;
Structure prediction by ZEFSAII (Michael W. Deem and Ramdas Pophale) SiO2 
 PCOD9091011
Probable space group: P -1
;
_chemical_formula_sum "Si O2"
_cell_formula_units_Z 16
_cell_length_a 14.135459
_cell_length_b 8.511620
_cell_length_c 16.877144
_cell_angle_alpha 102.512999
_cell_angle_beta 41.480069
_cell_angle_gamma 136.024387
_cell_volume 665.848024
_symmetry_space_group_name_H-M "P -1"
_symmetry_group_IT_number 2
_symmetry_cell_setting 'triclinic'
loop_
_space_group_symop_operation_xyz
x,y,z
-x,-y,-z
loop_
_atom_site_type_symbol
_atom_site_label
_atom_site_fract_x
_atom_site_fract_y
_atom_site_fract_z
Si Si1 0.025728 0.212415 0.493702
Si Si2 0.436663 0.798719 0.398608
Si Si3 0.674411 0.236231 0.163065
Si Si4 0.253689 0.066306 0.656016
Si Si5 0.677167 0.980313 0.003915
Si Si6 0.302602 0.475334 0.714409
Si Si7 0.843509 0.737017 0.747279
Si Si8 0.129506 0.853823 0.260203
O O1 0.329685 0.560029 0.376401
O O2 0.004650 0.214146 0.413875
O O3 0.812371 0.088936 0.675690
O O4 0.000000 0.000000 0.500000
O O5 0.698155 0.016268 0.314879
O O6 0.039121 0.204575 0.235713
O O7 0.502592 0.006987 0.322385
O O8 0.655652 0.408353 0.211497
O O9 0.589931 0.045461 0.120336
O O10 0.000000 0.500000 0.000000
O O11 0.311826 0.291771 0.687890
O O12 0.478417 0.268865 0.465500
O O13 0.835398 0.469290 0.402632
O O14 0.994810 0.236555 0.853890
O O15 0.674597 0.020754 0.917182
O O16 0.476433 0.630244 0.101538
O O17 0.901030 0.983580 0.725160
#
# Coordination Sequence:
#
# PCOD9091011 Si02
#       8
#     2   2   2   2   2   2   2   2
#     4   8  17  32  55  92 119 159 206 251 288 374
#     4  10  19  39  62  92 122 160 213 255 300 366
#     4  10  23  39  64  88 122 172 214 247 298 389
#     4  11  21  37  64  97 127 154 203 274 309 357
#     4  11  18  37  61  91 120 169 211 244 304 379
#     4  10  21  39  59  92 126 166 205 246 315 371
#     4  11  19  33  64  93 131 155 206 258 323 353
#     4   9  17  31  59  89 119 154 212 250 288 360
#
# _framework density 24.029506000000001
#
# number of rings (size 3 to 8) (size 9 to 14) (size 15 to 20)
#    0.750    1.250    3.750    1.125    0.000    0.500 
#    0.000    3.125    5.500    3.000    0.000    0.000 
#    0.000    0.000    0.000    0.000    0.000    0.000 
#
# Total GULP energy -89165.543740 kJ/mol
# GULP energy per Si atom -5572.846484 kJ/mol
# Density = 2.397481 g / cm^3
# Si number density = 24.029506 Si / 1000 Ang^3
#
#
#
# Elastic Constant Matrix: (Units=GPa)
#
#
# Indices 1 2 3 4 5 6 
#
# 1 57.5081 23.7941 30.5711 20.0621 4.9226 16.7517
# 2 23.7941 101.3448 48.5082 27.3742 3.7742 21.8878
# 3 30.5711 48.5082 92.7289 16.0399 13.5145 -8.2729
# 4 20.0621 27.3742 16.0399 44.5493 15.2798 0.2686
# 5 4.9226 3.7742 13.5145 15.2798 39.9027 7.3545
# 6 16.7517 21.8878 -8.2729 0.2686 7.3545 15.5363
#
#
#
# Elastic Compliance Matrix: (Units=1/GPa)
#
#
# Indices 1 2 3 4 5 6 
#
# 1 -0.003052 -0.024167 0.018901 0.016057 -0.020348 0.056757
# 2 -0.024167 -0.006207 0.015667 0.014454 -0.016629 0.050767
# 3 0.018901 0.015667 -0.007240 -0.020883 0.016547 -0.053778
# 4 0.016057 0.014454 -0.020883 0.010960 0.009374 -0.053423
# 5 -0.020348 -0.016629 0.016547 0.009374 0.010950 0.048834
# 6 0.056757 0.050767 -0.053778 -0.053423 0.048834 -0.119183
#
#
# Mechanical properties :
#
#
# Convention : Reuss Voigt Hill
#
# Bulk Modulus (GPa) = 232.47731 50.81428 141.64580
# Shear Modulus (GPa) = -37.55490 29.91155 -3.82167
#
# Velocity S-wave (km/s) = -3.95760 3.53198 -1.26248
# Velocity P-wave (km/s) = 8.72199 6.15026 7.54648
#
# Compressibility (1/GPa) = 0.00430150
#
# Stress axis : x y z
#
# Youngs Moduli (GPa) = -327.65794 -161.11490 -138.12138
#
# Poissons Ratio (x) = -3.89374 2.61057
# Poissons Ratio (y) = -7.91867 2.16396
# Poissons Ratio (z) = 6.19291 2.52420
#
# Static dielectric constant tensor:
#      x y z
#    x 1.926900 0.038030 -0.014250 
#    y 0.038030 1.964250 -0.015600 
#    z -0.014250 -0.015600 1.984800 
# 
# From -- ./inp_files/601023.got.cif
#   From: 2010.05.17/outbox.cif.g08.bks.cpg/sg2_301_cif.got.tgz:601023.got - 2010.06.03 11:33:40.
