data_PCOD9091748
_publ_section_title
;
Structure prediction by ZEFSAII (Michael W. Deem and Ramdas Pophale) SiO2 
 PCOD9091748
Probable space group: P -1
;
_chemical_formula_sum "Si O2"
_cell_formula_units_Z 16
_cell_length_a 23.749672
_cell_length_b 9.203913
_cell_length_c 19.975425
_cell_angle_alpha 30.830384
_cell_angle_beta 18.946292
_cell_angle_gamma 32.306343
_cell_volume 712.105610
_symmetry_space_group_name_H-M "P -1"
_symmetry_group_IT_number 2
_symmetry_cell_setting 'triclinic'
loop_
_space_group_symop_operation_xyz
x,y,z
-x,-y,-z
loop_
_atom_site_type_symbol
_atom_site_label
_atom_site_fract_x
_atom_site_fract_y
_atom_site_fract_z
Si Si1 0.426322 0.217059 0.273018
Si Si2 0.055929 0.821136 0.665316
Si Si3 0.455402 0.851974 0.175373
Si Si4 0.965746 0.832346 0.037711
Si Si5 0.695906 0.157307 0.877469
Si Si6 0.379616 0.764667 0.732796
Si Si7 0.518015 0.692983 0.468530
Si Si8 0.826360 0.203596 0.318216
O O1 0.321075 0.547456 0.263331
O O2 0.487983 0.021783 0.346419
O O3 0.298491 0.032572 0.452141
O O4 0.598544 0.228715 0.030179
O O5 0.245858 0.902440 0.404417
O O6 0.068881 0.477928 0.777381
O O7 0.030951 0.876090 0.751823
O O8 0.894845 0.994138 0.734135
O O9 0.527554 0.511883 0.222647
O O10 0.500000 0.000000 0.000000
O O11 0.574758 0.964271 0.053208
O O12 0.801573 0.066090 0.101362
O O13 0.101344 0.777438 0.845224
O O14 0.000000 0.000000 0.000000
O O15 0.378887 0.669473 0.692842
O O16 0.500000 0.000000 0.500000
O O17 0.500000 0.500000 0.500000
O O18 0.708778 0.516716 0.348176
#
# Coordination Sequence:
#
# PCOD9091748 Si02
#       8
#     2   2   2   2   2   2   2   2
#     4  10  22  42  70 106 143 190 251 302 368 442
#     4  12  25  49  75 104 152 195 254 311 366 462
#     4  12  27  49  73 104 153 202 247 303 390 449
#     4  12  25  41  72 114 148 187 252 314 376 438
#     4  11  25  45  70 105 150 199 245 302 379 446
#     4  12  24  44  68 102 144 185 243 307 362 435
#     4  10  19  39  73  96 138 188 238 302 366 425
#     4  11  22  44  74 110 146 193 250 316 378 435
#
# _framework density 22.468577
#
# number of rings (size 3 to 8) (size 9 to 14) (size 15 to 20)
#    0.000    0.750    3.750    4.125    1.750    4.000 
#    2.250    0.000    0.000    0.000    0.000    0.000 
#    0.000    0.000    0.000    0.000    0.000    0.000 
#
# Total GULP energy -89392.153160 kJ/mol
# GULP energy per Si atom -5587.009573 kJ/mol
# Density = 2.241744 g / cm^3
# Si number density = 22.468577 Si / 1000 Ang^3
#
#
#
# Elastic Constant Matrix: (Units=GPa)
#
#
# Indices 1 2 3 4 5 6 
#
# 1 79.7192 46.9403 44.1351 -4.7322 -4.7941 -8.4842
# 2 46.9403 160.4017 67.3896 -3.9472 -4.5192 -29.6451
# 3 44.1351 67.3896 102.0367 -3.2131 -3.5988 -15.8517
# 4 -4.7322 -3.9472 -3.2131 47.0034 -4.7692 1.1250
# 5 -4.7941 -4.5192 -3.5988 -4.7692 44.3391 -2.2056
# 6 -8.4842 -29.6451 -15.8517 1.1250 -2.2056 44.6447
#
#
#
# Elastic Compliance Matrix: (Units=1/GPa)
#
#
# Indices 1 2 3 4 5 6 
#
# 1 0.017413 -0.002712 -0.005734 0.001272 0.001253 -0.000498
# 2 -0.002712 0.009783 -0.004582 0.000188 0.000570 0.004377
# 3 -0.005734 -0.004582 0.015535 0.000092 0.000253 0.001394
# 4 0.001272 0.000188 0.000092 0.021679 0.002495 -0.000023
# 5 0.001253 0.000570 0.000253 0.002495 0.023125 0.001786
# 6 -0.000498 0.004377 0.001394 -0.000023 0.001786 0.025795
#
#
# Mechanical properties :
#
#
# Convention : Reuss Voigt Hill
#
# Bulk Modulus (GPa) = 59.96880 73.23196 66.60038
# Shear Modulus (GPa) = 34.49622 39.44360 36.96991
#
# Velocity S-wave (km/s) = 3.92255 4.19441 4.06076
# Velocity P-wave (km/s) = 6.87483 7.49142 7.18973
#
# Compressibility (1/GPa) = 0.01667534
#
# Stress axis : x y z
#
# Youngs Moduli (GPa) = 57.42699 102.22182 64.37156
#
# Poissons Ratio (x) = 0.27727 0.36909
# Poissons Ratio (y) = 0.15576 0.29493
# Poissons Ratio (z) = 0.32927 0.46834
#
# Static dielectric constant tensor:
#      x y z
#    x 1.963530 -0.002470 -0.085640 
#    y -0.002470 1.705320 -0.132700 
#    z -0.085640 -0.132700 1.685100 
# 
# From -- ./inp_files/601907.got.cif
#   From: 2010.05.17/outbox.cif.g08.bks.cpg/sg2_301_cif.got.tgz:601907.got - 2010.06.03 11:33:40.
