data_PCOD9091819
_publ_section_title
;
Structure prediction by ZEFSAII (Michael W. Deem and Ramdas Pophale) SiO2 
 PCOD9091819
Probable space group: P -1
;
_chemical_formula_sum "Si O2"
_cell_formula_units_Z 12
_cell_length_a 14.632865
_cell_length_b 8.456776
_cell_length_c 7.896213
_cell_angle_alpha 125.497663
_cell_angle_beta 51.087948
_cell_angle_gamma 96.376911
_cell_volume 567.211340
_symmetry_space_group_name_H-M "P -1"
_symmetry_group_IT_number 2
_symmetry_cell_setting 'triclinic'
loop_
_space_group_symop_operation_xyz
x,y,z
-x,-y,-z
loop_
_atom_site_type_symbol
_atom_site_label
_atom_site_fract_x
_atom_site_fract_y
_atom_site_fract_z
Si Si1 0.355678 0.614807 0.169868
Si Si2 0.337749 0.196623 0.950490
Si Si3 0.413366 0.991071 0.249837
Si Si4 0.013217 0.795021 0.092482
Si Si5 0.177462 0.967196 0.837150
Si Si6 0.181383 0.299120 0.549870
O O1 0.321862 0.421543 0.027591
O O2 0.255635 0.745027 0.512438
O O3 0.500000 0.500000 0.000000
O O4 0.635579 0.198073 0.838187
O O5 0.255777 0.249183 0.254316
O O6 0.486940 0.067383 0.747333
O O7 0.278341 0.063322 0.829837
O O8 0.288186 0.206627 0.515928
O O9 0.500000 0.000000 0.000000
O O10 0.919464 0.808873 0.366032
O O11 0.923787 0.878311 0.081937
O O12 0.102201 0.925908 0.058195
O O13 0.103570 0.548689 0.814300
#
# Coordination Sequence:
#
# PCOD9091819 Si02
#       6
#     2   2   2   2   2   2
#     4  10  20  39  63  86 121 155 191 255 298 344
#     4  10  22  38  67  89 117 155 206 244 294 357
#     4   9  19  37  63  86 118 155 190 250 305 342
#     4  10  22  38  62  84 128 161 195 247 289 353
#     4  11  22  41  61  93 115 159 207 241 292 355
#     4  10  19  40  61  86 123 165 190 241 308 344
#
# _framework density 21.156136
#
# number of rings (size 3 to 8) (size 9 to 14) (size 15 to 20)
#    0.000    2.000    3.333    0.000    0.000    4.000 
#    0.000    7.500    0.000    0.000    0.000    0.000 
#    0.000    0.000    0.000    0.000    0.000    0.000 
#
# Total GULP energy -66897.789421 kJ/mol
# GULP energy per Si atom -5574.815785 kJ/mol
# Density = 2.110798 g / cm^3
# Si number density = 21.156136 Si / 1000 Ang^3
#
#
#
# Elastic Constant Matrix: (Units=GPa)
#
#
# Indices 1 2 3 4 5 6 
#
# 1 65.6869 35.0543 35.5045 20.0596 -14.6522 16.4821
# 2 35.0543 140.9682 27.0743 -13.1685 -13.2857 20.3428
# 3 35.5045 27.0743 84.0706 4.2938 -35.7472 -8.5119
# 4 20.0596 -13.1685 4.2938 49.2166 -3.1519 -13.0126
# 5 -14.6522 -13.2857 -35.7472 -3.1519 30.3987 3.0365
# 6 16.4821 20.3428 -8.5119 -13.0126 3.0365 37.0197
#
#
#
# Elastic Compliance Matrix: (Units=1/GPa)
#
#
# Indices 1 2 3 4 5 6 
#
# 1 0.043001 -0.005418 -0.020309 -0.025284 -0.005219 -0.029297
# 2 -0.005418 0.009275 -0.000390 0.004473 0.001580 -0.001331
# 3 -0.020309 -0.000390 0.034794 0.012109 0.030311 0.019027
# 4 -0.025284 0.004473 0.012109 0.037548 0.005471 0.024333
# 5 -0.005219 0.001580 0.030311 0.005471 0.066796 0.004869
# 6 -0.029297 -0.001331 0.019027 0.024333 0.004869 0.053316
#
#
# Mechanical properties :
#
#
# Convention : Reuss Voigt Hill
#
# Bulk Modulus (GPa) = 28.70755 53.99908 41.35331
# Shear Modulus (GPa) = 16.20348 36.19984 26.20166
#
# Velocity S-wave (km/s) = 2.77049 4.14101 3.52304
# Velocity P-wave (km/s) = 4.88191 6.96013 6.01151
#
# Compressibility (1/GPa) = 0.03483404
#
# Stress axis : x y z
#
# Youngs Moduli (GPa) = 23.25535 107.81669 28.74100
#
# Poissons Ratio (x) = 0.58420 0.58371
# Poissons Ratio (y) = 0.12601 0.01121
# Poissons Ratio (z) = 0.47230 0.04205
#
# Static dielectric constant tensor:
#      x y z
#    x 1.761490 0.006440 -0.014730 
#    y 0.006440 1.807750 -0.032500 
#    z -0.014730 -0.032500 1.762470 
# 
# From -- ./inp_files/163031.got.cif
#   From: 2010.05.17/outbox.cif.g08.bks.cpg/sg2_82_cif.got.tgz:163031.got - 2010.06.03 11:33:40.
