data_PCOD9091084
_publ_section_title
;
Structure prediction by ZEFSAII (Michael W. Deem and Ramdas Pophale) SiO2 
 PCOD9091084
Probable space group: P -1
;
_chemical_formula_sum "Si O2"
_cell_formula_units_Z 16
_cell_length_a 14.924689
_cell_length_b 9.196777
_cell_length_c 10.826911
_cell_angle_alpha 41.337965
_cell_angle_beta 119.849968
_cell_angle_gamma 106.902247
_cell_volume 842.363957
_symmetry_space_group_name_H-M "P -1"
_symmetry_group_IT_number 2
_symmetry_cell_setting 'triclinic'
loop_
_space_group_symop_operation_xyz
x,y,z
-x,-y,-z
loop_
_atom_site_type_symbol
_atom_site_label
_atom_site_fract_x
_atom_site_fract_y
_atom_site_fract_z
Si Si1 0.777623 0.588828 0.530316
Si Si2 0.632622 0.995797 0.896116
Si Si3 0.083963 0.166768 0.970942
Si Si4 0.723495 0.174378 0.611066
Si Si5 0.855461 0.923548 0.195107
Si Si6 0.944599 0.368392 0.947746
Si Si7 0.532021 0.664720 0.311130
Si Si8 0.427498 0.482435 0.842158
O O1 0.778923 0.371768 0.582717
O O2 0.842750 0.764853 0.401315
O O3 0.832744 0.500618 0.749665
O O4 0.655139 0.679964 0.397442
O O5 0.640695 0.108681 0.696661
O O6 0.537294 0.105770 0.843631
O O7 0.737939 0.036590 0.010915
O O8 0.629941 0.734802 0.042836
O O9 0.185439 0.037349 0.194646
O O10 0.114284 0.217274 0.819788
O O11 0.020518 0.355334 0.889065
O O12 0.000000 0.000000 0.000000
O O13 0.655954 0.293205 0.376625
O O14 0.926654 0.118141 0.132494
O O15 0.000000 0.500000 0.000000
O O16 0.500000 0.500000 0.500000
O O17 0.517608 0.571845 0.221169
O O18 0.500000 0.500000 0.000000
#
# Coordination Sequence:
#
# PCOD9091084 Si02
#       8
#     2   2   2   2   2   2   2   2
#     4  11  20  36  65  86 120 159 212 247 291 370
#     4  11  19  39  66  88 122 166 212 244 295 382
#     4   9  18  38  64  86 112 159 203 247 303 371
#     4  10  19  39  63  89 119 158 213 247 300 368
#     4  10  20  37  65  91 112 160 212 244 294 373
#     4  11  23  42  59  90 127 150 196 265 317 354
#     4  11  20  39  65  91 119 175 211 242 302 375
#     4  11  24  38  58  93 127 158 205 264 306 349
#
# _framework density 18.994167000000001
#
# number of rings (size 3 to 8) (size 9 to 14) (size 15 to 20)
#    0.000    1.500    8.750    0.375    0.000    1.500 
#    2.250    3.750    0.000    0.000    0.000    0.000 
#    0.000    0.000    0.000    0.000    0.000    0.000 
#
# Total GULP energy -89109.158714 kJ/mol
# GULP energy per Si atom -5569.322420 kJ/mol
# Density = 1.895094 g / cm^3
# Si number density = 18.994167 Si / 1000 Ang^3
#
#
#
# Elastic Constant Matrix: (Units=GPa)
#
#
# Indices 1 2 3 4 5 6 
#
# 1 88.2156 31.3475 20.4154 2.2953 -3.8247 -6.0130
# 2 31.3475 70.3809 28.1544 15.3763 -5.1237 8.4705
# 3 20.4154 28.1544 82.3329 8.5726 -14.1061 14.0560
# 4 2.2953 15.3763 8.5726 29.3413 11.7172 1.4171
# 5 -3.8247 -5.1237 -14.1061 11.7172 38.7153 -9.5969
# 6 -6.0130 8.4705 14.0560 1.4171 -9.5969 24.7330
#
#
#
# Elastic Compliance Matrix: (Units=1/GPa)
#
#
# Indices 1 2 3 4 5 6 
#
# 1 0.014961 -0.007017 -0.002803 0.002704 0.000623 0.007720
# 2 -0.007017 0.021863 -0.003131 -0.010904 0.002961 -0.005640
# 3 -0.002803 -0.003131 0.016397 -0.004608 0.005012 -0.006719
# 4 0.002704 -0.010904 -0.004608 0.048325 -0.018177 -0.002812
# 5 0.000623 0.002961 0.005012 -0.018177 0.036455 0.011476
# 6 0.007720 -0.005640 -0.006719 -0.002812 0.011476 0.052673
#
#
# Mechanical properties :
#
#
# Convention : Reuss Voigt Hill
#
# Bulk Modulus (GPa) = 36.60363 44.52931 40.56647
# Shear Modulus (GPa) = 22.15517 29.29207 25.72362
#
# Velocity S-wave (km/s) = 3.41899 3.93130 3.68406
# Velocity P-wave (km/s) = 5.90752 6.64089 6.28491
#
# Compressibility (1/GPa) = 0.02731969
#
# Stress axis : x y z
#
# Youngs Moduli (GPa) = 66.84096 45.74033 60.98687
#
# Poissons Ratio (x) = 0.32095 0.17095
# Poissons Ratio (y) = 0.46901 0.19092
# Poissons Ratio (z) = 0.18736 0.14319
#
# Static dielectric constant tensor:
#      x y z
#    x 1.708920 -0.035260 -0.016720 
#    y -0.035260 1.660490 -0.023480 
#    z -0.016720 -0.023480 1.768720 
# 
# From -- ./inp_files/202883.got.cif
#   From: 2010.05.17/outbox.cif.g08.bks.cpg/sg2_102_cif.got.tgz:202883.got - 2010.06.03 11:33:40.
