data_PCOD9091137
_publ_section_title
;
Structure prediction by ZEFSAII (Michael W. Deem and Ramdas Pophale) SiO2 
 PCOD9091137
Probable space group: P -1
;
_chemical_formula_sum "Si O2"
_cell_formula_units_Z 16
_cell_length_a 7.885880
_cell_length_b 10.438285
_cell_length_c 15.262219
_cell_angle_alpha 145.291916
_cell_angle_beta 116.320659
_cell_angle_gamma 63.529094
_cell_volume 632.999814
_symmetry_space_group_name_H-M "P -1"
_symmetry_group_IT_number 2
_symmetry_cell_setting 'triclinic'
loop_
_space_group_symop_operation_xyz
x,y,z
-x,-y,-z
loop_
_atom_site_type_symbol
_atom_site_label
_atom_site_fract_x
_atom_site_fract_y
_atom_site_fract_z
Si Si1 0.870018 0.124703 0.963485
Si Si2 0.671667 0.755929 0.687434
Si Si3 0.885592 0.286270 0.486111
Si Si4 0.228850 0.287378 0.107036
Si Si5 0.293824 0.054739 0.827821
Si Si6 0.492550 0.452107 0.073638
Si Si7 0.323151 0.765666 0.409603
Si Si8 0.693194 0.760702 0.419770
O O1 0.807797 0.926878 0.778223
O O2 0.671394 0.255675 0.028331
O O3 0.000382 0.295288 0.049089
O O4 0.000000 0.000000 0.000000
O O5 0.738014 0.496200 0.528719
O O6 0.715517 0.734073 0.790713
O O7 0.457564 0.892717 0.719436
O O8 0.809598 0.226150 0.530880
O O9 0.092349 0.365814 0.587358
O O10 0.889139 0.057836 0.302185
O O11 0.296302 0.522376 0.226120
O O12 0.313072 0.068857 0.945065
O O13 0.309898 0.315871 0.957627
O O14 0.563803 0.661489 0.259774
O O15 0.500000 0.500000 0.000000
O O16 0.553067 0.758120 0.470102
O O17 0.273947 0.990627 0.465987
#
# Coordination Sequence:
#
# PCOD9091137 Si02
#       8
#     2   2   2   2   2   2   2   2
#     4   9  19  38  64  92 127 166 216 262 321 388
#     4   9  20  39  64  87 127 170 211 266 328 389
#     4  11  23  42  64  90 130 167 216 265 329 385
#     4  10  19  39  63  95 121 166 219 268 319 386
#     4  11  22  39  61  97 127 163 213 270 330 376
#     4  11  22  39  64  96 130 167 216 275 325 378
#     4  10  22  40  65  88 121 172 214 256 320 393
#     4  11  22  42  65  88 127 174 219 252 329 396
#
# _framework density 25.276468999999999
#
# number of rings (size 3 to 8) (size 9 to 14) (size 15 to 20)
#    0.000    1.750    1.250    4.125    0.000    1.000 
#   13.500    1.875    0.000    0.000    0.000    0.000 
#    0.000    0.000    0.000    0.000    0.000    0.000 
#
# Total GULP energy -89164.846293 kJ/mol
# GULP energy per Si atom -5572.802893 kJ/mol
# Density = 2.521894 g / cm^3
# Si number density = 25.276469 Si / 1000 Ang^3
#
#
#
# Elastic Constant Matrix: (Units=GPa)
#
#
# Indices 1 2 3 4 5 6 
#
# 1 98.2601 -4.9944 18.7891 0.3765 19.7289 5.0555
# 2 -4.9944 32.7743 8.5444 6.7494 0.8965 -4.4536
# 3 18.7891 8.5444 133.0732 -1.6052 26.9258 -1.0155
# 4 0.3765 6.7494 -1.6052 32.1483 4.1460 4.9080
# 5 19.7289 0.8965 26.9258 4.1460 45.0431 6.8806
# 6 5.0555 -4.4536 -1.0155 4.9080 6.8806 20.8261
#
#
#
# Elastic Compliance Matrix: (Units=1/GPa)
#
#
# Indices 1 2 3 4 5 6 
#
# 1 0.011364 0.001911 -0.000849 0.000136 -0.004371 -0.000979
# 2 0.001911 0.034458 -0.002379 -0.008670 -0.000687 0.009059
# 3 -0.000849 -0.002379 0.008878 0.001395 -0.005251 0.001536
# 4 0.000136 -0.008670 0.001395 0.034719 -0.002516 -0.009170
# 5 -0.004371 -0.000687 -0.005251 -0.002516 0.028760 -0.008251
# 6 -0.000979 0.009059 0.001536 -0.009170 -0.008251 0.055153
#
#
# Mechanical properties :
#
#
# Convention : Reuss Voigt Hill
#
# Bulk Modulus (GPa) = 19.20550 34.30955 26.75753
# Shear Modulus (GPa) = 25.86367 35.72141 30.79254
#
# Velocity S-wave (km/s) = 3.20227 3.76337 3.49410
# Velocity P-wave (km/s) = 4.61382 5.69975 5.18529
#
# Compressibility (1/GPa) = 0.05206842
#
# Stress axis : x y z
#
# Youngs Moduli (GPa) = 87.99716 29.02052 112.63385
#
# Poissons Ratio (x) = -0.05547 0.09558
# Poissons Ratio (y) = -0.16820 0.26794
# Poissons Ratio (z) = 0.07468 0.06904
#
# Static dielectric constant tensor:
#      x y z
#    x 2.154420 0.013750 -0.018880 
#    y 0.013750 1.998770 -0.003750 
#    z -0.018880 -0.003750 2.075780 
# 
# From -- ./inp_files/515632.got.cif
#   From: 2010.05.17/outbox.cif.g08.bks.cpg/sg2_258_cif.got.tgz:515632.got - 2010.06.03 11:33:40.
