data_PCOD9091626
_publ_section_title
;
Structure prediction by ZEFSAII (Michael W. Deem and Ramdas Pophale) SiO2 
 PCOD9091626
Probable space group: P -1
;
_chemical_formula_sum "Si O2"
_cell_formula_units_Z 14
_cell_length_a 21.880565
_cell_length_b 11.409203
_cell_length_c 10.038148
_cell_angle_alpha 58.697259
_cell_angle_beta 37.759809
_cell_angle_gamma 31.524918
_cell_volume 702.968946
_symmetry_space_group_name_H-M "P -1"
_symmetry_group_IT_number 2
_symmetry_cell_setting 'triclinic'
loop_
_space_group_symop_operation_xyz
x,y,z
-x,-y,-z
loop_
_atom_site_type_symbol
_atom_site_label
_atom_site_fract_x
_atom_site_fract_y
_atom_site_fract_z
Si Si1 0.324308 0.107125 0.707310
Si Si2 0.534633 0.608607 0.728557
Si Si3 0.926456 0.734050 0.447134
Si Si4 0.871354 0.293636 0.694122
Si Si5 0.035956 0.359511 0.867782
Si Si6 0.454909 0.716223 0.110303
Si Si7 0.957957 0.204234 0.296507
O O1 0.210214 0.250661 0.680391
O O2 0.500000 0.000000 0.500000
O O3 0.412526 0.854388 0.709662
O O4 0.159035 0.332328 0.963926
O O5 0.541493 0.447379 0.756003
O O6 0.744918 0.417357 0.498150
O O7 0.444569 0.716804 0.967380
O O8 0.937651 0.728001 0.272469
O O9 0.000000 0.500000 0.500000
O O10 0.050105 0.704132 0.326040
O O11 0.717813 0.003708 0.697414
O O12 0.958955 0.234824 0.434793
O O13 0.650096 0.557714 0.904931
O O14 0.927317 0.069916 0.753272
O O15 0.022481 0.251443 0.062093
#
# Coordination Sequence:
#
# PCOD9091626 Si02
#       7
#     2   2   2   2   2   2   2
#     4  11  23  40  64  94 126 168 214 262 313 380
#     4  10  19  39  68  94 121 163 222 270 303 372
#     4  12  27  43  62  95 138 170 203 264 331 387
#     4  10  23  41  69  93 127 169 215 266 313 377
#     4  11  26  40  64  97 131 168 211 266 324 378
#     4  10  22  40  65  93 123 169 217 259 317 372
#     4  10  20  42  69  98 121 166 224 265 312 373
#
# _framework density 19.915531000000001
#
# number of rings (size 3 to 8) (size 9 to 14) (size 15 to 20)
#    0.000    1.429    2.857    1.714    8.000    2.286 
#    0.000    1.429    0.000    0.000    0.000    0.000 
#    0.000    0.000    0.000    0.000    0.000    0.000 
#
# Total GULP energy -78237.150905 kJ/mol
# GULP energy per Si atom -5588.367922 kJ/mol
# Density = 1.987020 g / cm^3
# Si number density = 19.915531 Si / 1000 Ang^3
#
#
#
# Elastic Constant Matrix: (Units=GPa)
#
#
# Indices 1 2 3 4 5 6 
#
# 1 145.6268 29.8683 60.3899 18.1717 1.9788 -4.9288
# 2 29.8683 118.9654 48.5826 20.7592 2.6720 12.3850
# 3 60.3899 48.5826 84.4926 19.2497 -2.2363 -0.2175
# 4 18.1717 20.7592 19.2497 42.8122 -0.3924 -1.5105
# 5 1.9788 2.6720 -2.2363 -0.3924 30.4308 7.3442
# 6 -4.9288 12.3850 -0.2175 -1.5105 7.3442 27.8995
#
#
#
# Elastic Compliance Matrix: (Units=1/GPa)
#
#
# Indices 1 2 3 4 5 6 
#
# 1 0.009979 0.000474 -0.007174 -0.001189 -0.001686 0.001876
# 2 0.000474 0.012126 -0.006578 -0.003319 -0.000307 -0.005449
# 3 -0.007174 -0.006578 0.021588 -0.003414 0.002340 0.001020
# 4 -0.001189 -0.003319 -0.003414 0.027103 -0.000198 0.002756
# 5 -0.001686 -0.000307 0.002340 -0.000198 0.035457 -0.009488
# 6 0.001876 -0.005449 0.001020 0.002756 -0.009488 0.041248
#
#
# Mechanical properties :
#
#
# Convention : Reuss Voigt Hill
#
# Bulk Modulus (GPa) = 58.34872 69.64072 63.99472
# Shear Modulus (GPa) = 27.81351 34.24477 31.02914
#
# Velocity S-wave (km/s) = 3.74113 4.15119 3.95148
# Velocity P-wave (km/s) = 6.92987 7.61711 7.28160
#
# Compressibility (1/GPa) = 0.01713834
#
# Stress axis : x y z
#
# Youngs Moduli (GPa) = 100.20562 82.46647 46.32285
#
# Poissons Ratio (x) = -0.03912 0.33233
# Poissons Ratio (y) = -0.04754 0.30469
# Poissons Ratio (z) = 0.71891 0.54243
#
# Static dielectric constant tensor:
#      x y z
#    x 1.694440 0.000740 -0.038790 
#    y 0.000740 1.713230 -0.023050 
#    z -0.038790 -0.023050 1.719340 
# 
# From -- ./inp_files/282785.got.cif
#   From: 2010.05.17/outbox.cif.g08.bks.cpg/sg2_142_cif.got.tgz:282785.got - 2010.06.03 11:33:40.
