data_PCOD9091168
_publ_section_title
;
Structure prediction by ZEFSAII (Michael W. Deem and Ramdas Pophale) SiO2 
 PCOD9091168
Probable space group: P -1
;
_chemical_formula_sum "Si O2"
_cell_formula_units_Z 12
_cell_length_a 6.472131
_cell_length_b 18.927981
_cell_length_c 8.129228
_cell_angle_alpha 71.101486
_cell_angle_beta 79.804991
_cell_angle_gamma 29.787522
_cell_volume 456.437247
_symmetry_space_group_name_H-M "P -1"
_symmetry_group_IT_number 2
_symmetry_cell_setting 'triclinic'
loop_
_space_group_symop_operation_xyz
x,y,z
-x,-y,-z
loop_
_atom_site_type_symbol
_atom_site_label
_atom_site_fract_x
_atom_site_fract_y
_atom_site_fract_z
Si Si1 0.847054 0.727517 0.316840
Si Si2 0.668958 0.517311 0.172103
Si Si3 0.505041 0.270215 0.895240
Si Si4 0.078809 0.716314 0.782474
Si Si5 0.697953 0.963096 0.828383
Si Si6 0.460507 0.326155 0.519680
O O1 0.704519 0.738787 0.146344
O O2 0.698980 0.707713 0.475749
O O3 0.338510 0.594881 0.306646
O O4 0.566506 0.883063 0.299308
O O5 0.796216 0.564638 0.148841
O O6 0.976205 0.352628 0.212764
O O7 0.381695 0.615591 0.974832
O O8 0.725207 0.230393 0.722995
O O9 0.823260 0.161666 0.083575
O O10 0.310937 0.690194 0.624195
O O11 0.716768 0.886461 0.763032
O O12 0.500000 0.000000 0.000000
O O13 0.000000 0.500000 0.500000
#
# Coordination Sequence:
#
# PCOD9091168 Si02
#       6
#     2   2   2   2   2   2
#     4  10  20  38  66  81 120 156 197 236 300 346
#     4  10  19  39  64  84 117 157 202 240 284 352
#     4   9  21  36  65  86 114 160 197 234 303 344
#     4  10  20  36  61  90 117 155 195 247 290 341
#     4  11  20  39  65  83 118 163 197 238 289 352
#     4  10  21  39  60  90 125 146 195 248 301 343
#
# _framework density 26.290582000000001
#
# number of rings (size 3 to 8) (size 9 to 14) (size 15 to 20)
#    1.000    1.000    5.000    0.500    0.000    1.333 
#    0.000   21.667    0.000    0.000    0.000    0.000 
#    0.000    0.000    0.000    0.000    0.000    0.000 
#
# Total GULP energy -66913.120487 kJ/mol
# GULP energy per Si atom -5576.093374 kJ/mol
# Density = 2.623074 g / cm^3
# Si number density = 26.290582 Si / 1000 Ang^3
#
#
#
# Elastic Constant Matrix: (Units=GPa)
#
#
# Indices 1 2 3 4 5 6 
#
# 1 79.2547 53.3104 -11.2358 -6.0833 8.4623 12.9444
# 2 53.3104 207.8256 12.8348 3.2876 -15.8096 55.1741
# 3 -11.2358 12.8348 85.8274 3.8160 -9.0262 -8.4379
# 4 -6.0833 3.2876 3.8160 35.4161 5.5188 -8.3362
# 5 8.4623 -15.8096 -9.0262 5.5188 52.5162 6.5245
# 6 12.9444 55.1741 -8.4379 -8.3362 6.5245 45.2189
#
#
#
# Elastic Compliance Matrix: (Units=1/GPa)
#
#
# Indices 1 2 3 4 5 6 
#
# 1 0.017668 -0.006689 0.003019 0.005495 -0.005601 0.005488
# 2 -0.006689 0.011052 -0.002985 -0.006171 0.006301 -0.014174
# 3 0.003019 -0.002985 0.012999 0.000623 0.000125 0.005300
# 4 0.005495 -0.006171 0.000623 0.034093 -0.007896 0.013498
# 5 -0.005601 0.006301 0.000125 -0.007896 0.024058 -0.010989
# 6 0.005488 -0.014174 0.005300 0.013498 -0.010989 0.042901
#
#
# Mechanical properties :
#
#
# Convention : Reuss Voigt Hill
#
# Bulk Modulus (GPa) = 35.19704 53.63628 44.41666
# Shear Modulus (GPa) = 30.20257 47.83011 39.01634
#
# Velocity S-wave (km/s) = 3.39307 4.26994 3.85651
# Velocity P-wave (km/s) = 5.36352 6.68995 6.06312
#
# Compressibility (1/GPa) = 0.02841148
#
# Stress axis : x y z
#
# Youngs Moduli (GPa) = 56.59931 90.48412 76.92637
#
# Poissons Ratio (x) = 0.60520 -0.23227
# Poissons Ratio (y) = 0.37857 0.22960
# Poissons Ratio (z) = -0.17089 0.27007
#
# Static dielectric constant tensor:
#      x y z
#    x 2.213300 0.096790 -0.071140 
#    y 0.096790 2.166360 -0.135210 
#    z -0.071140 -0.135210 2.324700 
# 
# From -- ./inp_files/150161.got.cif
#   From: 2010.05.17/outbox.cif.g08.bks.cpg/sg2_76_cif.got.tgz:150161.got - 2010.06.03 11:33:40.
