data_PCOD9091232
_publ_section_title
;
Structure prediction by ZEFSAII (Michael W. Deem and Ramdas Pophale) SiO2 
 PCOD9091232
Probable space group: P -1
;
_chemical_formula_sum "Si O2"
_cell_formula_units_Z 16
_cell_length_a 11.757573
_cell_length_b 9.352430
_cell_length_c 16.263402
_cell_angle_alpha 32.383789
_cell_angle_beta 136.606861
_cell_angle_gamma 141.451935
_cell_volume 585.026825
_symmetry_space_group_name_H-M "P -1"
_symmetry_group_IT_number 2
_symmetry_cell_setting 'triclinic'
loop_
_space_group_symop_operation_xyz
x,y,z
-x,-y,-z
loop_
_atom_site_type_symbol
_atom_site_label
_atom_site_fract_x
_atom_site_fract_y
_atom_site_fract_z
Si Si1 0.065800 0.591009 0.735029
Si Si2 0.027377 0.296128 0.543720
Si Si3 0.344262 0.873392 0.269882
Si Si4 0.350023 0.911611 0.865262
Si Si5 0.464509 0.547056 0.602980
Si Si6 0.087588 0.848476 0.889068
Si Si7 0.261742 0.251880 0.928460
Si Si8 0.581121 0.660577 0.788666
O O1 0.179989 0.815488 0.757831
O O2 0.155825 0.365396 0.879468
O O3 0.078783 0.732776 0.582899
O O4 0.846112 0.400995 0.727401
O O5 0.245051 0.430404 0.566854
O O6 0.000000 0.500000 0.500000
O O7 0.978022 0.983721 0.713315
O O8 0.487196 0.757875 0.434391
O O9 0.302822 0.031203 0.251423
O O10 0.394354 0.136870 0.100942
O O11 0.291709 0.974202 0.894729
O O12 0.493678 0.250673 0.748090
O O13 0.364837 0.606222 0.036179
O O14 0.567554 0.706430 0.663010
O O15 0.115263 0.975737 0.932572
O O16 0.000000 0.500000 0.000000
O O17 0.378913 0.515746 0.797761
#
# Coordination Sequence:
#
# PCOD9091232 Si02
#       8
#     2   2   2   2   2   2   2   2
#     4  11  23  41  70  96 127 168 221 266 320 377
#     4  10  19  39  64  91 129 166 211 266 317 381
#     4  11  25  39  69  98 129 163 223 270 313 381
#     4  11  24  42  67  93 129 177 211 262 328 384
#     4  10  23  42  62  95 130 170 214 262 323 383
#     4  11  24  38  65  97 133 164 215 269 323 376
#     4  12  23  43  65  98 131 167 219 265 319 385
#     4  12  23  43  69  90 133 178 213 256 324 392
#
# _framework density 27.349171999999999
#
# number of rings (size 3 to 8) (size 9 to 14) (size 15 to 20)
#    0.000    1.000    5.000    2.250    1.750    5.500 
#    0.000    1.875    0.000    0.000    0.000    0.000 
#    0.000    0.000    0.000    0.000    0.000    0.000 
#
# Total GULP energy -89650.933110 kJ/mol
# GULP energy per Si atom -5603.183319 kJ/mol
# Density = 2.728692 g / cm^3
# Si number density = 27.349172 Si / 1000 Ang^3
#
#
#
# Elastic Constant Matrix: (Units=GPa)
#
#
# Indices 1 2 3 4 5 6 
#
# 1 61.4242 1.9576 2.0033 3.4925 3.4527 -0.0123
# 2 1.9576 128.9650 14.9421 5.6460 -9.7709 -17.7539
# 3 2.0033 14.9421 183.9681 1.2107 -17.0079 -13.1619
# 4 3.4925 5.6460 1.2107 50.1610 -15.6413 -0.6797
# 5 3.4527 -9.7709 -17.0079 -15.6413 41.9066 0.1115
# 6 -0.0123 -17.7539 -13.1619 -0.6797 0.1115 41.1844
#
#
#
# Elastic Compliance Matrix: (Units=1/GPa)
#
#
# Indices 1 2 3 4 5 6 
#
# 1 0.016534 -0.000339 -0.000371 -0.001815 -0.002269 -0.000284
# 2 -0.000339 0.008424 -0.000263 -0.000323 0.001755 0.003537
# 3 -0.000371 -0.000263 0.005823 0.000752 0.002608 0.001753
# 4 -0.001815 -0.000323 0.000752 0.022866 0.008913 0.000454
# 5 -0.002269 0.001755 0.002608 0.008913 0.028840 0.001659
# 6 -0.000284 0.003537 0.001753 0.000454 0.001659 0.026369
#
#
# Mechanical properties :
#
#
# Convention : Reuss Voigt Hill
#
# Bulk Modulus (GPa) = 34.68113 45.79593 40.23853
# Shear Modulus (GPa) = 41.52416 50.34737 45.93577
#
# Velocity S-wave (km/s) = 3.90076 4.29524 4.10274
# Velocity P-wave (km/s) = 5.74424 6.43273 6.09821
#
# Compressibility (1/GPa) = 0.02883413
#
# Stress axis : x y z
#
# Youngs Moduli (GPa) = 60.48219 118.71227 171.74125
#
# Poissons Ratio (x) = 0.04030 0.06364
# Poissons Ratio (y) = 0.02053 0.04517
# Poissons Ratio (z) = 0.02241 0.03122
#
# Static dielectric constant tensor:
#      x y z
#    x 2.246130 0.057140 -0.001330 
#    y 0.057140 2.050650 0.014930 
#    z -0.001330 0.014930 2.177850 
# 
# From -- ./inp_files/298034.got.cif
#   From: 2010.05.17/outbox.cif.g08.bks.cpg/sg2_150_cif.got.tgz:298034.got - 2010.06.03 11:33:40.
