data_PCOD9091774
_publ_section_title
;
Structure prediction by ZEFSAII (Michael W. Deem and Ramdas Pophale) SiO2 
 PCOD9091774
Probable space group: P -1
;
_chemical_formula_sum "Si O2"
_cell_formula_units_Z 14
_cell_length_a 21.018910
_cell_length_b 5.758499
_cell_length_c 16.065581
_cell_angle_alpha 109.261275
_cell_angle_beta 160.475945
_cell_angle_gamma 62.168736
_cell_volume 533.291072
_symmetry_space_group_name_H-M "P -1"
_symmetry_group_IT_number 2
_symmetry_cell_setting 'triclinic'
loop_
_space_group_symop_operation_xyz
x,y,z
-x,-y,-z
loop_
_atom_site_type_symbol
_atom_site_label
_atom_site_fract_x
_atom_site_fract_y
_atom_site_fract_z
Si Si1 0.975195 0.749818 0.397478
Si Si2 0.359797 0.347077 0.916107
Si Si3 0.792315 0.931463 0.476503
Si Si4 0.581258 0.787680 0.498500
Si Si5 0.078279 0.298342 0.222297
Si Si6 0.238246 0.830345 0.946997
Si Si7 0.081733 0.779597 0.205376
O O1 0.220461 0.481804 0.675674
O O2 0.801081 0.719214 0.235330
O O3 0.000000 0.000000 0.500000
O O4 0.869934 0.860448 0.191393
O O5 0.359151 0.606753 0.995976
O O6 0.601129 0.082513 0.191342
O O7 0.806882 0.736535 0.549887
O O8 0.032279 0.794913 0.716366
O O9 0.774303 0.195447 0.540233
O O10 0.728261 0.859096 0.625355
O O11 0.500000 0.000000 0.500000
O O12 0.753165 0.451281 0.684001
O O13 0.386685 0.800939 0.204444
O O14 0.966158 0.618932 0.087677
O O15 0.963613 0.104105 0.067444
#
# Coordination Sequence:
#
# PCOD9091774 Si02
#       7
#     2   2   2   2   2   2   2
#     4   9  21  37  61  87 118 161 205 253 313 374
#     4  10  19  40  59  84 126 159 202 260 309 373
#     4  10  20  35  62  88 123 167 202 256 315 370
#     4  10  20  37  63  89 122 167 209 259 315 372
#     4   8  17  36  57  80 120 161 199 252 315 357
#     4  11  21  37  61  92 117 164 213 250 313 381
#     4   8  18  36  58  83 120 162 201 253 310 362
#
# _framework density 26.252078999999998
#
# number of rings (size 3 to 8) (size 9 to 14) (size 15 to 20)
#    1.714    0.857    1.429    0.857    0.000    2.286 
#    0.000    7.857    0.000    0.000    0.000    0.000 
#    0.000    0.000    0.000    0.000    0.000    0.000 
#
# Total GULP energy -78085.793997 kJ/mol
# GULP energy per Si atom -5577.556714 kJ/mol
# Density = 2.619233 g / cm^3
# Si number density = 26.252079 Si / 1000 Ang^3
#
#
#
# Elastic Constant Matrix: (Units=GPa)
#
#
# Indices 1 2 3 4 5 6 
#
# 1 87.3775 19.8668 -7.6477 -8.8149 -9.3301 6.9712
# 2 19.8668 142.0190 36.4177 -23.8443 -3.8181 20.6301
# 3 -7.6477 36.4177 92.2345 -0.0228 -14.3927 6.9992
# 4 -8.8149 -23.8443 -0.0228 46.5617 -8.8847 -3.3659
# 5 -9.3301 -3.8181 -14.3927 -8.8847 30.0776 -4.6482
# 6 6.9712 20.6301 6.9992 -3.3659 -4.6482 45.0992
#
#
#
# Elastic Compliance Matrix: (Units=1/GPa)
#
#
# Indices 1 2 3 4 5 6 
#
# 1 0.013044 -0.001827 0.002767 0.002577 0.005773 -0.000823
# 2 -0.001827 0.009388 -0.003678 0.004155 -0.000398 -0.003172
# 3 0.002767 -0.003678 0.013606 -0.000055 0.006862 -0.000153
# 4 0.002577 0.004155 -0.000055 0.025856 0.009026 0.000570
# 5 0.005773 -0.000398 0.006862 0.009026 0.041427 0.003168
# 6 -0.000823 -0.003172 -0.000153 0.000570 0.003168 0.024144
#
#
# Mechanical properties :
#
#
# Convention : Reuss Voigt Hill
#
# Bulk Modulus (GPa) = 32.72158 46.54497 39.63327
# Shear Modulus (GPa) = 34.93340 42.54730 38.74035
#
# Velocity S-wave (km/s) = 3.65182 4.03019 3.84566
# Velocity P-wave (km/s) = 5.50204 6.27894 5.90328
#
# Compressibility (1/GPa) = 0.03056087
#
# Stress axis : x y z
#
# Youngs Moduli (GPa) = 76.66292 106.52204 73.49604
#
# Poissons Ratio (x) = 0.19459 -0.20334
# Poissons Ratio (y) = 0.14004 0.27036
# Poissons Ratio (z) = -0.21210 0.39184
#
# Static dielectric constant tensor:
#      x y z
#    x 2.036310 -0.024470 -0.041440 
#    y -0.024470 2.224500 -0.003690 
#    z -0.041440 -0.003690 2.054060 
# 
# From -- ./inp_files/578743.got.cif
#   From: 2010.05.17/outbox.cif.g08.bks.cpg/sg2_290_cif.got.tgz:578743.got - 2010.06.03 11:33:40.
