data_PCOD9091448
_publ_section_title
;
Structure prediction by ZEFSAII (Michael W. Deem and Ramdas Pophale) SiO2 
 PCOD9091448
Probable space group: P -1
;
_chemical_formula_sum "Si O2"
_cell_formula_units_Z 15
_cell_length_a 8.829742
_cell_length_b 15.771152
_cell_length_c 12.087894
_cell_angle_alpha 150.315007
_cell_angle_beta 110.984932
_cell_angle_gamma 81.076026
_cell_volume 732.698582
_symmetry_space_group_name_H-M "P -1"
_symmetry_group_IT_number 2
_symmetry_cell_setting 'triclinic'
loop_
_space_group_symop_operation_xyz
x,y,z
-x,-y,-z
loop_
_atom_site_type_symbol
_atom_site_label
_atom_site_fract_x
_atom_site_fract_y
_atom_site_fract_z
Si Si1 0.601009 0.355988 0.971986
Si Si2 0.143587 0.859896 0.178695
Si Si3 0.635595 0.836447 0.752938
Si Si4 0.639129 0.208462 0.183410
Si Si5 0.805044 0.622219 0.708902
Si Si6 0.665743 0.748095 0.413377
Si Si7 0.360691 0.232650 0.973059
Si Si8 0.000000 0.000000 0.500000
O O1 0.699702 0.216163 0.863124
O O2 0.489715 0.297254 0.765574
O O3 0.468714 0.342317 0.022345
O O4 0.718639 0.566950 0.227736
O O5 0.193771 0.067151 0.383712
O O6 0.072851 0.869453 0.293588
O O7 0.999600 0.727062 0.912457
O O8 0.461825 0.797934 0.735064
O O9 0.744415 0.726533 0.714398
O O10 0.607514 0.783712 0.559170
O O11 0.725872 0.054405 0.031588
O O12 0.762526 0.413040 0.430379
O O13 0.490804 0.159313 0.994288
O O14 0.693900 0.642436 0.810491
O O15 0.190187 0.083747 0.710766
#
# Coordination Sequence:
#
# PCOD9091448 Si02
#       8
#     2   2   2   2   2   2   2   1
#     4  11  23  40  67  93 123 170 209 249 316 382
#     4  11  24  42  63  92 129 168 203 260 314 369
#     4  10  21  37  61  94 121 164 209 259 302 365
#     4  10  20  37  65  92 119 171 214 247 308 371
#     4  10  22  40  63  92 128 163 208 260 307 356
#     4  11  23  39  63  93 128 160 212 257 306 377
#     4  10  19  39  66  90 123 163 209 259 305 369
#     4  10  22  38  64  92 124 158 208 260 310 364
#
# _framework density 20.472266000000001
#
# number of rings (size 3 to 8) (size 9 to 14) (size 15 to 20)
#    0.000    1.600    1.333    4.400    1.867    1.600 
#    0.000    5.333    0.000    0.000    0.000    0.000 
#    0.000    0.000    0.000    0.000    0.000    0.000 
#
# Total GULP energy -83519.330763 kJ/mol
# GULP energy per Si atom -5567.955384 kJ/mol
# Density = 2.042567 g / cm^3
# Si number density = 20.472266 Si / 1000 Ang^3
#
#
#
# Elastic Constant Matrix: (Units=GPa)
#
#
# Indices 1 2 3 4 5 6 
#
# 1 12.1392 -6.3815 4.2264 -1.7828 2.2887 -10.0351
# 2 -6.3815 55.8522 30.1503 2.6555 -4.7196 -4.4996
# 3 4.2264 30.1503 103.5642 25.3979 14.8389 -7.8315
# 4 -1.7828 2.6555 25.3979 35.5700 0.7686 -8.1638
# 5 2.2887 -4.7196 14.8389 0.7686 19.0630 -7.0755
# 6 -10.0351 -4.4996 -7.8315 -8.1638 -7.0755 -13.0116
#
#
#
# Elastic Compliance Matrix: (Units=1/GPa)
#
#
# Indices 1 2 3 4 5 6 
#
# 1 0.059688 0.004620 -0.003477 -0.002575 -0.016238 -0.035094
# 2 0.004620 0.023260 -0.009642 0.002487 0.008218 -0.011832
# 3 -0.003477 -0.009642 0.017321 -0.009680 -0.012019 0.008200
# 4 -0.002575 0.002487 -0.009680 0.031476 0.002031 -0.013902
# 5 -0.016238 0.008218 -0.012019 0.002031 0.059510 -0.016719
# 6 -0.035094 -0.011832 0.008200 -0.013902 -0.016719 -0.032818
#
#
# Mechanical properties :
#
#
# Convention : Reuss Voigt Hill
#
# Bulk Modulus (GPa) = 12.00895 25.28290 18.64593
# Shear Modulus (GPa) = 24.60704 17.89498 21.25101
#
# Velocity S-wave (km/s) = 3.47070 2.95974 3.22536
# Velocity P-wave (km/s) = 4.68399 4.90477 4.79565
#
# Compressibility (1/GPa) = 0.08327120
#
# Stress axis : x y z
#
# Youngs Moduli (GPa) = 16.75366 42.99157 57.73313
#
# Poissons Ratio (x) = -0.19860 0.20071
# Poissons Ratio (y) = -0.07739 0.55668
# Poissons Ratio (z) = 0.05824 0.41454
#
# Static dielectric constant tensor:
#      x y z
#    x 1.744750 0.032990 0.012650 
#    y 0.032990 1.784280 0.029930 
#    z 0.012650 0.029930 1.738510 
# 
# From -- ./inp_files/308017.got.cif
#   From: 2010.05.17/outbox.cif.g08.bks.cpg/sg2_155_cif.got.tgz:308017.got - 2010.06.03 11:33:40.
