data_PCOD9091560
_publ_section_title
;
Structure prediction by ZEFSAII (Michael W. Deem and Ramdas Pophale) SiO2 
 PCOD9091560
Probable space group: P -1
;
_chemical_formula_sum "Si O2"
_cell_formula_units_Z 16
_cell_length_a 8.894231
_cell_length_b 11.797430
_cell_length_c 10.772229
_cell_angle_alpha 50.751339
_cell_angle_beta 44.892197
_cell_angle_gamma 61.946972
_cell_volume 617.280944
_symmetry_space_group_name_H-M "P -1"
_symmetry_group_IT_number 2
_symmetry_cell_setting 'triclinic'
loop_
_space_group_symop_operation_xyz
x,y,z
-x,-y,-z
loop_
_atom_site_type_symbol
_atom_site_label
_atom_site_fract_x
_atom_site_fract_y
_atom_site_fract_z
Si Si1 0.315064 0.815664 0.238686
Si Si2 0.241243 0.539745 0.881506
Si Si3 0.984198 0.256861 0.938328
Si Si4 0.643811 0.081487 0.128593
Si Si5 0.077713 0.536759 0.564708
Si Si6 0.439674 0.802174 0.452804
Si Si7 0.979880 0.919407 0.721744
Si Si8 0.741250 0.729927 0.791640
O O1 0.438922 0.811685 0.298032
O O2 0.260438 0.649289 0.365439
O O3 0.102404 0.915776 0.324683
O O4 0.397350 0.890973 0.013837
O O5 0.197364 0.645056 0.951605
O O6 0.384490 0.636742 0.640437
O O7 0.341586 0.389602 0.979076
O O8 0.000000 0.500000 0.000000
O O9 0.863631 0.153793 0.985609
O O10 0.080715 0.162207 0.059544
O O11 0.127282 0.380761 0.710191
O O12 0.448363 0.182554 0.228396
O O13 0.627126 0.913306 0.298984
O O14 0.897667 0.630772 0.682079
O O15 0.000000 0.500000 0.500000
O O16 0.228911 0.889578 0.571021
O O17 0.865319 0.841937 0.728423
#
# Coordination Sequence:
#
# PCOD9091560 Si02
#       8
#     2   2   2   2   2   2   2   2
#     4  12  23  41  66  97 131 170 221 268 314 383
#     4  10  19  39  67  94 119 163 224 269 300 379
#     4  10  23  42  64  95 132 168 214 270 324 374
#     4  12  26  41  60  98 142 166 203 275 338 374
#     4  11  22  43  69  95 125 173 220 263 311 391
#     4  11  21  39  68  96 123 169 217 270 318 381
#     4  11  22  41  72  95 120 176 230 261 302 389
#     4  11  22  42  71  96 126 170 222 261 321 386
#
# _framework density 25.920126
#
# number of rings (size 3 to 8) (size 9 to 14) (size 15 to 20)
#    0.000    1.000    6.250    2.250    0.000    4.500 
#    0.000    3.125    0.000    0.000    0.000    0.000 
#    0.000    0.000    0.000    0.000    0.000    0.000 
#
# Total GULP energy -89489.400018 kJ/mol
# GULP energy per Si atom -5593.087501 kJ/mol
# Density = 2.586113 g / cm^3
# Si number density = 25.920126 Si / 1000 Ang^3
#
#
#
# Elastic Constant Matrix: (Units=GPa)
#
#
# Indices 1 2 3 4 5 6 
#
# 1 31.8128 29.7659 33.8400 -7.2244 0.5381 8.2192
# 2 29.7659 92.7192 56.4829 -27.8981 -10.1206 -0.1566
# 3 33.8400 56.4829 197.4122 -31.9897 -1.5706 10.5363
# 4 -7.2244 -27.8981 -31.9897 62.4237 -0.8362 -0.1335
# 5 0.5381 -10.1206 -1.5706 -0.8362 44.0188 -0.8498
# 6 8.2192 -0.1566 10.5363 -0.1335 -0.8498 32.5204
#
#
#
# Elastic Compliance Matrix: (Units=1/GPa)
#
#
# Indices 1 2 3 4 5 6 
#
# 1 0.053812 -0.016063 -0.004555 -0.003376 -0.004816 -0.012342
# 2 -0.016063 0.019526 -0.002111 0.005861 0.004818 0.004988
# 3 -0.004555 -0.002111 0.006835 0.002027 -0.000168 -0.001069
# 4 -0.003376 0.005861 0.002027 0.019312 0.001835 0.000352
# 5 -0.004816 0.004818 -0.000168 0.001835 0.023950 0.001928
# 6 -0.012342 0.004988 -0.001069 0.000352 0.001928 0.034291
#
#
# Mechanical properties :
#
#
# Convention : Reuss Voigt Hill
#
# Bulk Modulus (GPa) = 28.80705 62.45796 45.63251
# Shear Modulus (GPa) = 23.28213 41.24961 32.26587
#
# Velocity S-wave (km/s) = 3.00029 3.99358 3.53203
# Velocity P-wave (km/s) = 4.81043 6.73896 5.85465
#
# Compressibility (1/GPa) = 0.03471372
#
# Stress axis : x y z
#
# Youngs Moduli (GPa) = 18.58318 51.21393 146.31157
#
# Poissons Ratio (x) = 0.82264 0.66648
# Poissons Ratio (y) = 0.29850 0.30892
# Poissons Ratio (z) = 0.08465 0.10813
#
# Static dielectric constant tensor:
#      x y z
#    x 2.015720 -0.012580 -0.003350 
#    y -0.012580 2.078050 0.038730 
#    z -0.003350 0.038730 2.154040 
# 
# From -- ./inp_files/391954.got.cif
#   From: 2010.05.17/outbox.cif.g08.bks.cpg/sg2_196_cif.got.tgz:391954.got - 2010.06.03 11:33:40.
