data_PCOD9091331
_publ_section_title
;
Structure prediction by ZEFSAII (Michael W. Deem and Ramdas Pophale) SiO2 
 PCOD9091331
Probable space group: P -1
;
_chemical_formula_sum "Si O2"
_cell_formula_units_Z 16
_cell_length_a 9.162605
_cell_length_b 14.768875
_cell_length_c 12.341630
_cell_angle_alpha 66.345270
_cell_angle_beta 37.675595
_cell_angle_gamma 48.996650
_cell_volume 744.657151
_symmetry_space_group_name_H-M "P -1"
_symmetry_group_IT_number 2
_symmetry_cell_setting 'triclinic'
loop_
_space_group_symop_operation_xyz
x,y,z
-x,-y,-z
loop_
_atom_site_type_symbol
_atom_site_label
_atom_site_fract_x
_atom_site_fract_y
_atom_site_fract_z
Si Si1 0.644916 0.964393 0.097976
Si Si2 0.679319 0.116838 0.823804
Si Si3 0.207453 0.544103 0.346480
Si Si4 0.619666 0.018747 0.530652
Si Si5 0.768285 0.474537 0.424687
Si Si6 0.206840 0.304830 0.666713
Si Si7 0.124632 0.376652 0.054988
Si Si8 0.874886 0.305503 0.065989
O O1 0.447658 0.927410 0.171909
O O2 0.516183 0.004734 0.274610
O O3 0.989277 0.838004 0.956020
O O4 0.633487 0.065927 0.985662
O O5 0.468264 0.265721 0.882665
O O6 0.023048 0.060351 0.634563
O O7 0.202282 0.590206 0.448141
O O8 0.535871 0.420396 0.185956
O O9 0.000000 0.500000 0.500000
O O10 0.056223 0.644555 0.291953
O O11 0.476307 0.163974 0.552293
O O12 0.500000 0.000000 0.500000
O O13 0.500000 0.500000 0.500000
O O14 0.697732 0.605541 0.432698
O O15 0.052569 0.404829 0.210547
O O16 0.074685 0.314810 0.857333
O O17 0.950251 0.326128 0.131534
O O18 0.000000 0.500000 0.000000
#
# Coordination Sequence:
#
# PCOD9091331 Si02
#       8
#     2   2   2   2   2   2   2   2
#     4   9  22  43  69  99 122 175 229 273 330 390
#     4  10  23  43  70  94 131 173 220 282 326 392
#     4  10  22  36  57  96 127 171 210 258 323 390
#     4  11  25  45  65  98 133 177 222 272 333 395
#     4  11  22  39  64  98 130 165 212 272 324 387
#     4  10  23  41  63  91 131 177 212 261 331 391
#     4  11  22  40  62  96 127 162 214 266 332 381
#     4  10  19  39  65  89 130 170 212 266 321 391
#
# _framework density 21.486398000000001
#
# number of rings (size 3 to 8) (size 9 to 14) (size 15 to 20)
#    0.000    1.750    2.500    0.750    3.500    3.500 
#   11.250    0.000    0.000    0.000    0.000    0.000 
#    0.000    0.000    0.000    0.000    0.000    0.000 
#
# Total GULP energy -89371.369421 kJ/mol
# GULP energy per Si atom -5585.710589 kJ/mol
# Density = 2.143749 g / cm^3
# Si number density = 21.486398 Si / 1000 Ang^3
#
#
#
# Elastic Constant Matrix: (Units=GPa)
#
#
# Indices 1 2 3 4 5 6 
#
# 1 79.8776 24.8913 37.0301 10.0626 20.6827 -15.7052
# 2 24.8913 98.4731 53.9398 22.7236 2.1407 -19.9914
# 3 37.0301 53.9398 106.5614 30.8316 10.3603 -8.5126
# 4 10.0626 22.7236 30.8316 39.9823 -16.9204 -3.5774
# 5 20.6827 2.1407 10.3603 -16.9204 43.5699 2.4549
# 6 -15.7052 -19.9914 -8.5126 -3.5774 2.4549 32.2691
#
#
#
# Elastic Compliance Matrix: (Units=1/GPa)
#
#
# Indices 1 2 3 4 5 6 
#
# 1 0.019535 0.000498 -0.003174 -0.006904 -0.011737 0.009106
# 2 0.000498 0.016208 -0.006226 -0.004552 -0.001786 0.008272
# 3 -0.003174 -0.006226 0.017892 -0.012677 -0.007278 -0.001534
# 4 -0.006904 -0.004552 -0.012677 0.049631 0.026128 -0.006010
# 5 -0.011737 -0.001786 -0.007278 0.026128 0.040993 -0.008961
# 6 0.009106 0.008272 -0.001534 -0.006010 -0.008961 0.040157
#
#
# Mechanical properties :
#
#
# Convention : Reuss Voigt Hill
#
# Bulk Modulus (GPa) = 27.90951 57.40383 42.65667
# Shear Modulus (GPa) = 23.34660 34.43432 28.89046
#
# Velocity S-wave (km/s) = 3.29990 4.00760 3.67085
# Velocity P-wave (km/s) = 5.24754 6.94182 6.15328
#
# Compressibility (1/GPa) = 0.03583008
#
# Stress axis : x y z
#
# Youngs Moduli (GPa) = 51.19087 61.69756 55.89176
#
# Poissons Ratio (x) = -0.03071 0.17741
# Poissons Ratio (y) = -0.02548 0.34797
# Poissons Ratio (z) = 0.16249 0.38412
#
# Static dielectric constant tensor:
#      x y z
#    x 1.840070 -0.019320 0.065830 
#    y -0.019320 1.810700 0.000910 
#    z 0.065830 0.000910 1.894640 
# 
# From -- ./inp_files/271739.got.cif
#   From: 2010.05.17/outbox.cif.g08.bks.cpg/sg2_136_cif.got.tgz:271739.got - 2010.06.03 11:33:40.
