data_PCOD9091936
_publ_section_title
;
Structure prediction by ZEFSAII (Michael W. Deem and Ramdas Pophale) SiO2 
 PCOD9091936
Probable space group: P -1
;
_chemical_formula_sum "Si O2"
_cell_formula_units_Z 14
_cell_length_a 11.083798
_cell_length_b 5.290827
_cell_length_c 22.170768
_cell_angle_alpha 57.982751
_cell_angle_beta 34.596052
_cell_angle_gamma 73.434305
_cell_volume 594.197579
_symmetry_space_group_name_H-M "P -1"
_symmetry_group_IT_number 2
_symmetry_cell_setting 'triclinic'
loop_
_space_group_symop_operation_xyz
x,y,z
-x,-y,-z
loop_
_atom_site_type_symbol
_atom_site_label
_atom_site_fract_x
_atom_site_fract_y
_atom_site_fract_z
Si Si1 0.292886 0.143247 0.430004
Si Si2 0.883603 0.131592 0.083679
Si Si3 0.307958 0.098359 0.690425
Si Si4 0.488635 0.743315 0.848731
Si Si5 0.663983 0.786549 0.462753
Si Si6 0.476239 0.905776 0.091097
Si Si7 0.867568 0.623272 0.646913
O O1 0.223779 0.169923 0.523966
O O2 0.243418 0.384167 0.372478
O O3 0.550903 0.147898 0.327612
O O4 0.127461 0.809098 0.516700
O O5 0.636529 0.089783 0.165063
O O6 0.859962 0.950061 0.179195
O O7 0.000000 0.500000 0.000000
O O8 0.000000 0.000000 0.000000
O O9 0.500997 0.431796 0.571532
O O10 0.199185 0.103866 0.669087
O O11 0.745747 0.826756 0.711798
O O12 0.406712 0.368149 0.917050
O O13 0.448557 0.825794 0.923421
O O14 0.500000 0.000000 0.500000
O O15 0.222511 0.709640 0.241015
O O16 0.500000 0.000000 0.000000
#
# Coordination Sequence:
#
# PCOD9091936 Si02
#       7
#     2   2   2   2   2   2   2
#     4  10  19  40  63  99 126 167 213 271 328 402
#     4  12  27  44  70 100 129 178 232 276 330 398
#     4  10  21  41  64  94 131 172 215 281 328 390
#     4  10  22  43  64  94 128 171 213 275 326 382
#     4   9  21  37  67  88 134 170 213 269 343 378
#     4  10  21  41  67  91 133 176 214 263 332 389
#     4   9  22  35  67  97 128 167 216 262 336 393
#
# _framework density 23.561188999999999
#
# number of rings (size 3 to 8) (size 9 to 14) (size 15 to 20)
#    0.857    1.143    1.429    1.286    6.000    1.143 
#    2.571    8.571    0.000    0.000    0.000    0.000 
#    0.000    0.000    0.000    0.000    0.000    0.000 
#
# Total GULP energy -78104.338671 kJ/mol
# GULP energy per Si atom -5578.881334 kJ/mol
# Density = 2.350756 g / cm^3
# Si number density = 23.561189 Si / 1000 Ang^3
#
#
#
# Elastic Constant Matrix: (Units=GPa)
#
#
# Indices 1 2 3 4 5 6 
#
# 1 147.5275 25.4120 53.6198 10.9873 54.2750 15.7159
# 2 25.4120 77.5250 15.9887 19.7246 11.8067 10.7875
# 3 53.6198 15.9887 89.9766 5.7631 42.4252 -0.4009
# 4 10.9873 19.7246 5.7631 27.8490 4.4045 10.8149
# 5 54.2750 11.8067 42.4252 4.4045 59.1590 5.7445
# 6 15.7159 10.7875 -0.4009 10.8149 5.7445 28.1295
#
#
#
# Elastic Compliance Matrix: (Units=1/GPa)
#
#
# Indices 1 2 3 4 5 6 
#
# 1 0.011338 -0.001342 -0.002953 -0.000042 -0.007597 -0.004294
# 2 -0.001342 0.016471 -0.001429 -0.010182 -0.000113 -0.001649
# 3 -0.002953 -0.001429 0.018197 -0.002023 -0.010426 0.005364
# 4 -0.000042 -0.010182 -0.002023 0.049295 0.001340 -0.015326
# 5 -0.007597 -0.000113 -0.010426 0.001340 0.031546 -0.002818
# 6 -0.004294 -0.001649 0.005364 -0.015326 -0.002818 0.045126
#
#
# Mechanical properties :
#
#
# Convention : Reuss Voigt Hill
#
# Bulk Modulus (GPa) = 28.93681 56.11892 42.52787
# Shear Modulus (GPa) = 25.64880 37.69475 31.67177
#
# Velocity S-wave (km/s) = 3.30298 4.00417 3.67036
# Velocity P-wave (km/s) = 5.18213 6.72666 6.00426
#
# Compressibility (1/GPa) = 0.03455805
#
# Stress axis : x y z
#
# Youngs Moduli (GPa) = 88.19743 60.71234 54.95436
#
# Poissons Ratio (x) = 0.08150 0.16227
# Poissons Ratio (y) = 0.11839 0.07853
# Poissons Ratio (z) = 0.26043 0.08676
#
# Static dielectric constant tensor:
#      x y z
#    x 1.922720 0.000450 -0.008850 
#    y 0.000450 1.953980 0.039100 
#    z -0.008850 0.039100 1.934550 
# 
# From -- ./inp_files/609140.got.cif
#   From: 2010.05.17/outbox.cif.g08.bks.cpg/sg2_305_cif.got.tgz:609140.got - 2010.06.03 11:33:40.
