data_PCOD9091147
_publ_section_title
;
Structure prediction by ZEFSAII (Michael W. Deem and Ramdas Pophale) SiO2 
 PCOD9091147
Probable space group: P -1
;
_chemical_formula_sum "Si O2"
_cell_formula_units_Z 14
_cell_length_a 20.370679
_cell_length_b 4.784874
_cell_length_c 22.407200
_cell_angle_alpha 94.633262
_cell_angle_beta 167.095027
_cell_angle_gamma 85.567548
_cell_volume 486.171006
_symmetry_space_group_name_H-M "P -1"
_symmetry_group_IT_number 2
_symmetry_cell_setting 'triclinic'
loop_
_space_group_symop_operation_xyz
x,y,z
-x,-y,-z
loop_
_atom_site_type_symbol
_atom_site_label
_atom_site_fract_x
_atom_site_fract_y
_atom_site_fract_z
Si Si1 0.194603 0.590097 0.313691
Si Si2 0.031700 0.619265 0.400524
Si Si3 0.736864 0.811089 0.740747
Si Si4 0.281478 0.189106 0.769973
Si Si5 0.274450 0.289292 0.501848
Si Si6 0.594326 0.987626 0.941747
Si Si7 0.736377 0.060470 0.935751
O O1 0.540073 0.673367 0.615516
O O2 0.152148 0.413619 0.212407
O O3 0.994356 0.866374 0.140221
O O4 0.627622 0.365294 0.821505
O O5 0.121122 0.381788 0.428691
O O6 0.847891 0.566465 0.298269
O O7 0.823666 0.823427 0.182167
O O8 0.326729 0.782313 0.683500
O O9 0.500000 0.000000 0.500000
O O10 0.000000 0.000000 0.000000
O O11 0.451585 0.235586 0.859184
O O12 0.000000 0.000000 0.500000
O O13 0.500000 0.000000 0.000000
O O14 0.164422 0.400744 0.343583
O O15 0.397524 0.969219 0.613519
O O16 0.743859 0.073183 0.014086
#
# Coordination Sequence:
#
# PCOD9091147 Si02
#       7
#     2   2   2   2   2   2   2
#     4  11  28  52  80 109 156 190 228 307 364 422
#     4  10  19  39  63  95 139 186 240 299 355 414
#     4  11  28  55  83 114 143 187 244 285 357 446
#     4   8  16  30  60  90 126 187 239 288 359 414
#     4  12  27  44  70 109 147 190 243 291 358 431
#     4  10  19  39  63  95 139 186 240 299 355 414
#     4  12  27  44  70 109 147 190 243 291 358 431
#
# _framework density 28.796451000000001
#
# number of rings (size 3 to 8) (size 9 to 14) (size 15 to 20)
#    0.000    1.429    1.429    2.571    0.000    9.143 
#    0.000    3.571    0.000    0.000    0.000    0.000 
#    0.000    0.000    0.000    0.000    0.000    0.000 
#
# Total GULP energy -78370.843098 kJ/mol
# GULP energy per Si atom -5597.917364 kJ/mol
# Density = 2.873091 g / cm^3
# Si number density = 28.796451 Si / 1000 Ang^3
#
#
#
# Elastic Constant Matrix: (Units=GPa)
#
#
# Indices 1 2 3 4 5 6 
#
# 1 201.4865 92.7423 62.2867 -26.4333 43.2635 -35.8818
# 2 92.7423 154.8057 84.1878 -20.1972 14.6602 -39.2447
# 3 62.2867 84.1878 173.9149 -19.8343 -9.3456 -19.6398
# 4 -26.4333 -20.1972 -19.8343 67.6603 -11.2979 9.4211
# 5 43.2635 14.6602 -9.3456 -11.2979 69.6598 -14.4544
# 6 -35.8818 -39.2447 -19.6398 9.4211 -14.4544 64.4892
#
#
#
# Elastic Compliance Matrix: (Units=1/GPa)
#
#
# Indices 1 2 3 4 5 6 
#
# 1 0.008107 -0.003408 -0.001255 0.000955 -0.004126 0.000990
# 2 -0.003408 0.011712 -0.003947 0.000458 0.000020 0.003966
# 3 -0.001255 -0.003947 0.008407 0.001296 0.002933 -0.000072
# 4 0.000955 0.000458 0.001296 0.016094 0.001947 -0.000710
# 5 -0.004126 0.000020 0.002933 0.001947 0.018118 0.002386
# 6 0.000990 0.003966 -0.000072 -0.000710 0.002386 0.019088
#
#
# Mechanical properties :
#
#
# Convention : Reuss Voigt Hill
#
# Bulk Modulus (GPa) = 90.86179 112.07117 101.46648
# Shear Modulus (GPa) = 48.82082 59.76122 54.29102
#
# Velocity S-wave (km/s) = 4.12196 4.56049 4.34676
# Velocity P-wave (km/s) = 7.36721 8.16906 7.77847
#
# Compressibility (1/GPa) = 0.01100573
#
# Stress axis : x y z
#
# Youngs Moduli (GPa) = 123.34433 85.38496 118.94188
#
# Poissons Ratio (x) = 0.29102 0.14923
# Poissons Ratio (y) = 0.42039 0.46952
# Poissons Ratio (z) = 0.15476 0.33705
#
# Static dielectric constant tensor:
#      x y z
#    x 2.221500 0.008890 0.041210 
#    y 0.008890 2.300290 0.251170 
#    z 0.041210 0.251170 2.445510 
# 
# From -- ./inp_files/620878.got.cif
#   From: 2010.05.17/outbox.cif.g08.bks.cpg/sg2_311_cif.got.tgz:620878.got - 2010.06.03 11:33:40.
