data_PCOD9091472
_publ_section_title
;
Structure prediction by ZEFSAII (Michael W. Deem and Ramdas Pophale) SiO2 
 PCOD9091472
Probable space group: P -1
;
_chemical_formula_sum "Si O2"
_cell_formula_units_Z 12
_cell_length_a 12.467743
_cell_length_b 8.309644
_cell_length_c 9.765358
_cell_angle_alpha 100.280851
_cell_angle_beta 86.000423
_cell_angle_gamma 34.806924
_cell_volume 524.403865
_symmetry_space_group_name_H-M "P -1"
_symmetry_group_IT_number 2
_symmetry_cell_setting 'triclinic'
loop_
_space_group_symop_operation_xyz
x,y,z
-x,-y,-z
loop_
_atom_site_type_symbol
_atom_site_label
_atom_site_fract_x
_atom_site_fract_y
_atom_site_fract_z
Si Si1 0.302845 0.162008 0.968201
Si Si2 0.866299 0.296319 0.967494
Si Si3 0.659560 0.174323 0.568595
Si Si4 0.058715 0.775292 0.362954
Si Si5 0.581730 0.226524 0.885208
Si Si6 0.531484 0.719718 0.634363
O O1 0.365249 0.006230 0.794117
O O2 0.119043 0.525766 0.019137
O O3 0.500000 0.000000 0.000000
O O4 0.278616 0.046434 0.059907
O O5 0.894101 0.219352 0.792078
O O6 0.637187 0.576074 0.087689
O O7 0.000000 0.000000 0.000000
O O8 0.693581 0.094233 0.711334
O O9 0.563924 0.482206 0.625706
O O10 0.515539 0.229291 0.514190
O O11 0.862862 0.914816 0.418221
O O12 0.266687 0.444479 0.361492
O O13 0.000000 0.000000 0.500000
O O14 0.500000 0.500000 0.000000
#
# Coordination Sequence:
#
# PCOD9091472 Si02
#       6
#     2   2   2   2   2   2
#     4  10  20  42  68  90 134 180 216 267 334 397
#     4  11  25  41  66  94 127 175 227 267 330 396
#     4  10  22  35  67 104 127 169 226 266 331 398
#     4  10  20  40  62  93 134 172 211 274 333 386
#     4  11  20  41  67  96 128 173 218 268 330 392
#     4  10  19  39  66  92 136 178 209 273 332 390
#
# _framework density 22.883123999999999
#
# number of rings (size 3 to 8) (size 9 to 14) (size 15 to 20)
#    0.000    1.667    5.000    1.000    7.000    0.000 
#    0.000    9.167    0.000    0.000    0.000    1.167 
#    0.000    0.000    0.000    0.000    0.000    0.000 
#
# Total GULP energy -66880.939085 kJ/mol
# GULP energy per Si atom -5573.411590 kJ/mol
# Density = 2.283104 g / cm^3
# Si number density = 22.883124 Si / 1000 Ang^3
#
#
#
# Elastic Constant Matrix: (Units=GPa)
#
#
# Indices 1 2 3 4 5 6 
#
# 1 30.1802 27.3671 19.2697 -7.6079 6.4907 1.1054
# 2 27.3671 133.1699 31.8829 -10.5318 10.9552 14.5734
# 3 19.2697 31.8829 141.5626 -5.9731 15.4009 4.3779
# 4 -7.6079 -10.5318 -5.9731 25.6224 -1.0851 -0.4313
# 5 6.4907 10.9552 15.4009 -1.0851 29.9211 4.8906
# 6 1.1054 14.5734 4.3779 -0.4313 4.8906 28.2639
#
#
#
# Elastic Compliance Matrix: (Units=1/GPa)
#
#
# Indices 1 2 3 4 5 6 
#
# 1 0.045941 -0.007800 -0.003617 0.009423 -0.005542 0.003888
# 2 -0.007800 0.010005 -0.000912 0.001477 -0.000702 -0.004568
# 3 -0.003617 -0.000912 0.008107 0.000311 -0.003024 -0.000116
# 4 0.009423 0.001477 0.000311 0.042452 -0.001151 -0.000332
# 5 -0.005542 -0.000702 -0.003024 -0.001151 0.037282 -0.005421
# 6 0.003888 -0.004568 -0.000116 -0.000332 -0.005421 0.038535
#
#
# Mechanical properties :
#
#
# Convention : Reuss Voigt Hill
#
# Bulk Modulus (GPa) = 25.38230 51.32799 38.35515
# Shear Modulus (GPa) = 22.71593 31.85434 27.28514
#
# Velocity S-wave (km/s) = 3.15412 3.73506 3.45682
# Velocity P-wave (km/s) = 4.93770 6.40938 5.72106
#
# Compressibility (1/GPa) = 0.03939753
#
# Stress axis : x y z
#
# Youngs Moduli (GPa) = 21.76709 99.95182 123.34416
#
# Poissons Ratio (x) = 0.77958 0.44609
# Poissons Ratio (y) = 0.16977 0.11245
# Poissons Ratio (z) = 0.07872 0.09112
#
# Static dielectric constant tensor:
#      x y z
#    x 2.051840 0.002980 0.007950 
#    y 0.002980 1.924500 -0.009890 
#    z 0.007950 -0.009890 1.800500 
# 
# From -- ./inp_files/156099.got.cif
#   From: 2010.05.17/outbox.cif.g08.bks.cpg/sg2_79_cif.got.tgz:156099.got - 2010.06.03 11:33:40.
