data_PCOD9091641
_publ_section_title
;
Structure prediction by ZEFSAII (Michael W. Deem and Ramdas Pophale) SiO2 
 PCOD9091641
Probable space group: P -1
;
_chemical_formula_sum "Si O2"
_cell_formula_units_Z 16
_cell_length_a 7.138086
_cell_length_b 19.060088
_cell_length_c 8.130379
_cell_angle_alpha 135.554864
_cell_angle_beta 56.884050
_cell_angle_gamma 124.700707
_cell_volume 617.703659
_symmetry_space_group_name_H-M "P -1"
_symmetry_group_IT_number 2
_symmetry_cell_setting 'triclinic'
loop_
_space_group_symop_operation_xyz
x,y,z
-x,-y,-z
loop_
_atom_site_type_symbol
_atom_site_label
_atom_site_fract_x
_atom_site_fract_y
_atom_site_fract_z
Si Si1 0.887438 0.098507 0.013735
Si Si2 0.666703 0.794552 0.806549
Si Si3 0.848100 0.886193 0.560153
Si Si4 0.131219 0.282746 0.005959
Si Si5 0.331769 0.923598 0.584330
Si Si6 0.929477 0.552093 0.937162
Si Si7 0.279952 0.435910 0.613089
Si Si8 0.389585 0.722249 0.106729
O O1 0.698057 0.052323 0.170294
O O2 0.137684 0.122801 0.034629
O O3 0.927731 0.213272 0.107822
O O4 0.857860 0.007665 0.738771
O O5 0.645729 0.834163 0.701433
O O6 0.732606 0.686041 0.579069
O O7 0.430956 0.770048 0.983287
O O8 0.850735 0.805254 0.281948
O O9 0.078705 0.894185 0.571541
O O10 0.383382 0.313212 0.025321
O O11 0.107568 0.385267 0.099586
O O12 0.397717 0.816309 0.380422
O O13 0.500000 0.000000 0.500000
O O14 0.142455 0.635811 0.073246
O O15 0.720901 0.531066 0.136456
O O16 0.048491 0.460751 0.692150
O O17 0.500000 0.500000 0.500000
#
# Coordination Sequence:
#
# PCOD9091641 Si02
#       8
#     2   2   2   2   2   2   2   2
#     4  10  22  38  63  98 139 175 225 277 334 407
#     4  10  19  39  68  96 129 177 222 274 342 398
#     4  11  20  40  67  92 135 184 217 276 340 398
#     4  11  23  43  66 101 138 175 225 281 337 403
#     4  11  20  37  61  95 130 181 231 269 332 398
#     4  11  23  45  72  98 136 180 222 286 346 399
#     4  11  22  42  75 100 130 180 233 276 343 414
#     4  11  22  41  67  95 137 177 222 279 334 405
#
# _framework density 25.902387999999998
#
# number of rings (size 3 to 8) (size 9 to 14) (size 15 to 20)
#    0.000    1.250    3.750    4.875    0.000    0.000 
#    4.500    6.250    0.000    0.000    0.000    0.000 
#    0.000    0.000    0.000    0.000    0.000    0.000 
#
# Total GULP energy -89421.115541 kJ/mol
# GULP energy per Si atom -5588.819721 kJ/mol
# Density = 2.584343 g / cm^3
# Si number density = 25.902388 Si / 1000 Ang^3
#
#
#
# Elastic Constant Matrix: (Units=GPa)
#
#
# Indices 1 2 3 4 5 6 
#
# 1 62.6175 16.6361 -8.3001 -8.6758 -11.2264 -8.9536
# 2 16.6361 146.5214 22.0740 -19.7081 -8.4050 -2.6877
# 3 -8.3001 22.0740 95.0334 -6.3222 3.7986 12.7510
# 4 -8.6758 -19.7081 -6.3222 60.6862 -2.3771 -5.1238
# 5 -11.2264 -8.4050 3.7986 -2.3771 30.8799 3.0485
# 6 -8.9536 -2.6877 12.7510 -5.1238 3.0485 39.1516
#
#
#
# Elastic Compliance Matrix: (Units=1/GPa)
#
#
# Indices 1 2 3 4 5 6 
#
# 1 0.018551 -0.001531 0.001446 0.002843 0.006016 0.003570
# 2 -0.001531 0.007724 -0.001984 0.002238 0.001866 0.000974
# 3 0.001446 -0.001984 0.011646 0.000442 -0.001072 -0.003457
# 4 0.002843 0.002238 0.000442 0.018000 0.002697 0.002806
# 5 0.006016 0.001866 -0.001072 0.002697 0.035473 -0.000556
# 6 0.003570 0.000974 -0.003457 0.002806 -0.000556 0.027961
#
#
# Mechanical properties :
#
#
# Convention : Reuss Voigt Hill
#
# Bulk Modulus (GPa) = 29.60221 40.55470 35.07846
# Shear Modulus (GPa) = 37.10437 44.39436 40.74937
#
# Velocity S-wave (km/s) = 3.78890 4.14443 3.97065
# Velocity P-wave (km/s) = 5.53121 6.21228 5.88161
#
# Compressibility (1/GPa) = 0.03378126
#
# Stress axis : x y z
#
# Youngs Moduli (GPa) = 53.90447 129.47303 85.86773
#
# Poissons Ratio (x) = 0.19824 -0.12412
# Poissons Ratio (y) = 0.08254 0.17037
# Poissons Ratio (z) = -0.07792 0.25689
#
# Static dielectric constant tensor:
#      x y z
#    x 2.025920 0.015280 -0.022720 
#    y 0.015280 2.185420 -0.039630 
#    z -0.022720 -0.039630 2.071800 
# 
# From -- ./inp_files/218504.got.cif
#   From: 2010.05.17/outbox.cif.g08.bks.cpg/sg2_110_cif.got.tgz:218504.got - 2010.06.03 11:33:40.
