data_PCOD9091612
_publ_section_title
;
Structure prediction by ZEFSAII (Michael W. Deem and Ramdas Pophale) SiO2 
 PCOD9091612
Probable space group: P -1
;
_chemical_formula_sum "Si O2"
_cell_formula_units_Z 16
_cell_length_a 14.449835
_cell_length_b 9.418697
_cell_length_c 14.955113
_cell_angle_alpha 138.833724
_cell_angle_beta 41.059160
_cell_angle_gamma 139.763481
_cell_volume 784.658800
_symmetry_space_group_name_H-M "P -1"
_symmetry_group_IT_number 2
_symmetry_cell_setting 'triclinic'
loop_
_space_group_symop_operation_xyz
x,y,z
-x,-y,-z
loop_
_atom_site_type_symbol
_atom_site_label
_atom_site_fract_x
_atom_site_fract_y
_atom_site_fract_z
Si Si1 0.546745 0.089652 0.159890
Si Si2 0.595589 0.466021 0.996410
Si Si3 0.968011 0.739793 0.363721
Si Si4 0.895579 0.227920 0.909592
Si Si5 0.083505 0.132628 0.860190
Si Si6 0.962059 0.668801 0.830724
Si Si7 0.602073 0.395600 0.431495
Si Si8 0.552881 0.527997 0.259236
O O1 0.576650 0.171935 0.280971
O O2 0.497473 0.262213 0.217673
O O3 0.715317 0.136314 0.020955
O O4 0.431098 0.808798 0.105961
O O5 0.537623 0.521575 0.160359
O O6 0.500000 0.500000 0.000000
O O7 0.783109 0.622388 0.920263
O O8 0.785741 0.586094 0.393159
O O9 0.078418 0.779643 0.216944
O O10 0.008051 0.563167 0.313614
O O11 0.000000 0.000000 0.500000
O O12 0.966796 0.070711 0.833148
O O13 0.000000 0.500000 0.000000
O O14 0.258140 0.322750 0.793652
O O15 0.019631 0.249655 0.039766
O O16 0.079583 0.895520 0.794798
O O17 0.500000 0.500000 0.500000
O O18 0.533889 0.352176 0.561036
#
# Coordination Sequence:
#
# PCOD9091612 Si02
#       8
#     2   2   2   2   2   2   2   2
#     4  11  21  37  67  92 124 161 216 267 313 381
#     4  11  24  40  61  96 129 170 211 267 325 379
#     4  12  26  40  64  96 135 171 212 266 323 378
#     4  12  18  38  65  95 117 159 221 260 310 382
#     4  10  19  39  68  91 122 161 216 269 316 381
#     4  10  22  41  63  94 130 166 214 268 322 377
#     4  10  22  40  63  96 125 166 211 263 323 377
#     4  10  21  38  63  93 123 163 212 265 322 375
#
# _framework density 20.391027999999999
#
# number of rings (size 3 to 8) (size 9 to 14) (size 15 to 20)
#    0.000    1.250    3.750    2.625    5.250    2.000 
#    0.000    3.125    0.000    0.000    0.000    0.000 
#    0.000    0.000    0.000    0.000    0.000    0.000 
#
# Total GULP energy -89364.933121 kJ/mol
# GULP energy per Si atom -5585.308320 kJ/mol
# Density = 2.034462 g / cm^3
# Si number density = 20.391028 Si / 1000 Ang^3
#
#
#
# Elastic Constant Matrix: (Units=GPa)
#
#
# Indices 1 2 3 4 5 6 
#
# 1 76.5198 -1.6707 9.3857 -4.2894 2.8031 -11.3802
# 2 -1.6707 58.1127 18.3898 2.5163 2.1087 -10.9628
# 3 9.3857 18.3898 94.5665 0.1428 16.3507 -8.0748
# 4 -4.2894 2.5163 0.1428 26.4579 -0.5479 -4.6185
# 5 2.8031 2.1087 16.3507 -0.5479 25.3115 1.6377
# 6 -11.3802 -10.9628 -8.0748 -4.6185 1.6377 29.2834
#
#
#
# Elastic Compliance Matrix: (Units=1/GPa)
#
#
# Indices 1 2 3 4 5 6 
#
# 1 0.014461 0.001894 -0.000983 0.003302 -0.001484 0.006662
# 2 0.001894 0.019698 -0.003386 -0.000305 -0.000132 0.007136
# 3 -0.000983 -0.003386 0.012941 0.000348 -0.008118 0.002428
# 4 0.003302 -0.000305 0.000348 0.039669 -0.000194 0.007532
# 5 -0.001484 -0.000132 -0.008118 -0.000194 0.045274 -0.005427
# 6 0.006662 0.007136 0.002428 0.007532 -0.005427 0.041570
#
#
# Mechanical properties :
#
#
# Convention : Reuss Voigt Hill
#
# Bulk Modulus (GPa) = 23.72475 31.26763 27.49619
# Shear Modulus (GPa) = 25.95879 29.75018 27.85448
#
# Velocity S-wave (km/s) = 3.57185 3.82381 3.69998
# Velocity P-wave (km/s) = 5.35453 5.90446 5.63621
#
# Compressibility (1/GPa) = 0.04215008
#
# Stress axis : x y z
#
# Youngs Moduli (GPa) = 69.15331 50.76630 77.27357
#
# Poissons Ratio (x) = -0.09617 0.07598
# Poissons Ratio (y) = -0.13101 0.26165
# Poissons Ratio (z) = 0.06800 0.17190
#
# Static dielectric constant tensor:
#      x y z
#    x 1.743210 -0.024310 -0.011850 
#    y -0.024310 1.721500 0.087050 
#    z -0.011850 0.087050 1.462600 
# 
# From -- ./inp_files/274784.got.cif
#   From: 2010.05.17/outbox.cif.g08.bks.cpg/sg2_138_cif.got.tgz:274784.got - 2010.06.03 11:33:40.
