data_PCOD9091679
_publ_section_title
;
Structure prediction by ZEFSAII (Michael W. Deem and Ramdas Pophale) SiO2 
 PCOD9091679
Probable space group: P -1
;
_chemical_formula_sum "Si O2"
_cell_formula_units_Z 16
_cell_length_a 19.040154
_cell_length_b 10.987980
_cell_length_c 9.831111
_cell_angle_alpha 101.397032
_cell_angle_beta 38.743453
_cell_angle_gamma 129.363920
_cell_volume 785.523263
_symmetry_space_group_name_H-M "P -1"
_symmetry_group_IT_number 2
_symmetry_cell_setting 'triclinic'
loop_
_space_group_symop_operation_xyz
x,y,z
-x,-y,-z
loop_
_atom_site_type_symbol
_atom_site_label
_atom_site_fract_x
_atom_site_fract_y
_atom_site_fract_z
Si Si1 0.588990 0.142353 0.273061
Si Si2 0.914687 0.288028 0.420203
Si Si3 0.261442 0.464368 0.825072
Si Si4 0.025841 0.648191 0.336391
Si Si5 0.540519 0.917887 0.828736
Si Si6 0.112853 0.195414 0.465547
Si Si7 0.417792 0.550627 0.891434
Si Si8 0.822562 0.809170 0.318619
O O1 0.616246 0.308393 0.311093
O O2 0.462466 0.035737 0.309621
O O3 0.500000 0.000000 0.500000
O O4 0.775260 0.232971 0.974861
O O5 0.974632 0.339825 0.497261
O O6 0.901183 0.422606 0.432100
O O7 0.737005 0.055107 0.615075
O O8 0.065809 0.351056 0.121178
O O9 0.324349 0.446223 0.862611
O O10 0.250253 0.378309 0.686063
O O11 0.975321 0.741850 0.382481
O O12 0.403732 0.684422 0.982701
O O13 0.500000 0.000000 0.000000
O O14 0.125417 0.160806 0.594970
O O15 0.307401 0.380875 0.136225
O O16 0.000000 0.000000 0.500000
O O17 0.632830 0.720451 0.585665
O O18 0.000000 0.000000 0.000000
#
# Coordination Sequence:
#
# PCOD9091679 Si02
#       8
#     2   2   2   2   2   2   2   2
#     4  10  23  38  59  97 133 165 210 271 335 390
#     4  10  19  39  69  95 123 167 218 268 332 387
#     4  10  22  42  66  90 126 173 213 274 328 393
#     4  10  21  40  65  91 130 170 213 269 333 386
#     4  11  21  35  66  97 123 167 218 271 326 392
#     4  12  27  44  68  98 133 177 227 274 327 397
#     4  11  24  44  67  95 131 173 229 273 326 399
#     4  12  27  45  66  95 132 179 222 271 338 395
#
# _framework density 20.368589
#
# number of rings (size 3 to 8) (size 9 to 14) (size 15 to 20)
#    0.000    1.250    2.500    3.000    1.750    6.000 
#    0.000    2.500    0.000    0.000    0.000    0.000 
#    0.000    0.000    0.000    0.000    0.000    0.000 
#
# Total GULP energy -89197.941403 kJ/mol
# GULP energy per Si atom -5574.871338 kJ/mol
# Density = 2.032223 g / cm^3
# Si number density = 20.368589 Si / 1000 Ang^3
#
#
#
# Elastic Constant Matrix: (Units=GPa)
#
#
# Indices 1 2 3 4 5 6 
#
# 1 60.8835 27.8442 12.2580 5.2916 6.0945 4.1321
# 2 27.8442 110.0912 22.8463 18.0896 3.1723 23.3999
# 3 12.2580 22.8463 62.4904 6.9223 5.7402 -2.3800
# 4 5.2916 18.0896 6.9223 31.9513 -0.1796 -1.4426
# 5 6.0945 3.1723 5.7402 -0.1796 35.6110 2.5011
# 6 4.1321 23.3999 -2.3800 -1.4426 2.5011 29.3796
#
#
#
# Elastic Compliance Matrix: (Units=1/GPa)
#
#
# Indices 1 2 3 4 5 6 
#
# 1 0.019083 -0.004578 -0.001770 -0.000153 -0.002646 0.001037
# 2 -0.004578 0.014829 -0.004263 -0.007248 0.000952 -0.011950
# 3 -0.001770 -0.004263 0.018475 -0.001071 -0.002674 0.005316
# 4 -0.000153 -0.007248 -0.001071 0.035997 0.000504 0.007432
# 5 -0.002646 0.000952 -0.002674 0.000504 0.029097 -0.003055
# 6 0.001037 -0.011950 0.005316 0.007432 -0.003055 0.044465
#
#
# Mechanical properties :
#
#
# Convention : Reuss Voigt Hill
#
# Bulk Modulus (GPa) = 32.08775 39.92914 36.00844
# Shear Modulus (GPa) = 25.83220 30.75615 28.29417
#
# Velocity S-wave (km/s) = 3.56510 3.89006 3.73112
# Velocity P-wave (km/s) = 5.72139 6.31052 6.02316
#
# Compressibility (1/GPa) = 0.03116454
#
# Stress axis : x y z
#
# Youngs Moduli (GPa) = 52.40348 67.43364 54.12713
#
# Poissons Ratio (x) = 0.30871 0.09581
# Poissons Ratio (y) = 0.23990 0.23076
# Poissons Ratio (z) = 0.09275 0.28749
#
# Static dielectric constant tensor:
#      x y z
#    x 1.738890 -0.048990 -0.033090 
#    y -0.048990 1.712270 -0.010060 
#    z -0.033090 -0.010060 1.752540 
# 
# From -- ./inp_files/333340.got.cif
#   From: 2010.05.17/outbox.cif.g08.bks.cpg/sg2_167_cif.got.tgz:333340.got - 2010.06.03 11:33:40.
