data_PCOD9091795
_publ_section_title
;
Structure prediction by ZEFSAII (Michael W. Deem and Ramdas Pophale) SiO2 
 PCOD9091795
Probable space group: P -1
;
_chemical_formula_sum "Si O2"
_cell_formula_units_Z 16
_cell_length_a 9.362179
_cell_length_b 14.859486
_cell_length_c 5.580751
_cell_angle_alpha 86.309753
_cell_angle_beta 125.536068
_cell_angle_gamma 83.164768
_cell_volume 618.660699
_symmetry_space_group_name_H-M "P -1"
_symmetry_group_IT_number 2
_symmetry_cell_setting 'triclinic'
loop_
_space_group_symop_operation_xyz
x,y,z
-x,-y,-z
loop_
_atom_site_type_symbol
_atom_site_label
_atom_site_fract_x
_atom_site_fract_y
_atom_site_fract_z
Si Si1 0.286528 0.678300 0.629172
Si Si2 0.449722 0.199671 0.911204
Si Si3 0.779360 0.519679 0.297954
Si Si4 0.824835 0.581436 0.831728
Si Si5 0.682951 0.194497 0.751406
Si Si6 0.616036 0.033795 0.390231
Si Si7 0.900325 0.753479 0.140913
Si Si8 0.960803 0.913007 0.832176
O O1 0.421224 0.731265 0.886300
O O2 0.296255 0.572461 0.713762
O O3 0.300898 0.707828 0.358982
O O4 0.080688 0.722857 0.470805
O O5 0.508474 0.092310 0.061994
O O6 0.487350 0.201123 0.667791
O O7 0.261482 0.234823 0.837039
O O8 0.735143 0.580650 0.484467
O O9 0.000000 0.500000 0.500000
O O10 0.718412 0.559990 0.970009
O O11 0.886652 0.674671 0.947694
O O12 0.000000 0.500000 0.000000
O O13 0.691456 0.119834 0.563719
O O14 0.853771 0.145162 0.083695
O O15 0.500000 0.000000 0.500000
O O16 0.787125 0.955878 0.500383
O O17 0.902681 0.845087 0.981488
O O18 0.000000 0.000000 0.000000
#
# Coordination Sequence:
#
# PCOD9091795 Si02
#       8
#     2   2   2   2   2   2   2   2
#     4  10  22  42  66  92 133 176 221 283 342 415
#     4  11  24  41  64  99 134 172 230 280 347 411
#     4  10  20  39  70  99 135 181 234 290 352 416
#     4  10  21  40  68 104 135 182 239 286 351 424
#     4   9  22  39  60  94 129 170 224 280 335 417
#     4  10  19  40  60  89 132 168 217 282 337 408
#     4  11  21  43  68  96 133 182 223 284 345 420
#     4   9  19  39  66  88 130 175 219 276 340 409
#
# _framework density 25.862317999999998
#
# number of rings (size 3 to 8) (size 9 to 14) (size 15 to 20)
#    0.000    2.000    3.750    0.750    1.750    2.000 
#    6.750    1.250    0.000    0.000    0.000    0.000 
#    0.000    0.000    0.000    0.000    0.000    0.000 
#
# Total GULP energy -89453.588991 kJ/mol
# GULP energy per Si atom -5590.849312 kJ/mol
# Density = 2.580345 g / cm^3
# Si number density = 25.862318 Si / 1000 Ang^3
#
#
#
# Elastic Constant Matrix: (Units=GPa)
#
#
# Indices 1 2 3 4 5 6 
#
# 1 122.2585 55.5407 28.9510 1.4234 -1.8141 12.0036
# 2 55.5407 161.7260 43.1300 -7.9583 -12.6496 29.9978
# 3 28.9510 43.1300 79.3089 2.1053 -4.9939 -0.1017
# 4 1.4234 -7.9583 2.1053 32.7909 3.2841 -8.4732
# 5 -1.8141 -12.6496 -4.9939 3.2841 39.8303 -1.1439
# 6 12.0036 29.9978 -0.1017 -8.4732 -1.1439 41.8211
#
#
#
# Elastic Compliance Matrix: (Units=1/GPa)
#
#
# Indices 1 2 3 4 5 6 
#
# 1 0.010074 -0.002769 -0.002180 -0.001209 -0.000628 -0.001173
# 2 -0.002769 0.009502 -0.004056 0.000981 0.002136 -0.005774
# 3 -0.002180 -0.004056 0.015692 -0.001103 0.000768 0.003370
# 4 -0.001209 0.000981 -0.001103 0.032700 -0.002400 0.006201
# 5 -0.000628 0.002136 0.000768 -0.002400 0.026018 -0.001125
# 6 -0.001173 -0.005774 0.003370 0.006201 -0.001125 0.029623
#
#
# Mechanical properties :
#
#
# Convention : Reuss Voigt Hill
#
# Bulk Modulus (GPa) = 57.94408 68.72632 63.33520
# Shear Modulus (GPa) = 33.92769 38.59990 36.26379
#
# Velocity S-wave (km/s) = 3.62589 3.86750 3.74864
# Velocity P-wave (km/s) = 6.32320 6.82459 6.57867
#
# Compressibility (1/GPa) = 0.01725802
#
# Stress axis : x y z
#
# Youngs Moduli (GPa) = 99.26943 105.23907 63.72572
#
# Poissons Ratio (x) = 0.29143 0.13894
# Poissons Ratio (y) = 0.27490 0.25844
# Poissons Ratio (z) = 0.21643 0.42680
#
# Static dielectric constant tensor:
#      x y z
#    x 2.054130 -0.003940 0.094160 
#    y -0.003940 1.978390 0.014300 
#    z 0.094160 0.014300 2.312840 
# 
# From -- ./inp_files/38216.got.cif
#   From: 2010.05.17/outbox.cif.g08.bks.cpg/sg2_20_cif.got.tgz:38216.got - 2010.06.03 11:33:40.
