data_PCOD9091252
_publ_section_title
;
Structure prediction by ZEFSAII (Michael W. Deem and Ramdas Pophale) SiO2 
 PCOD9091252
Probable space group: P -1
;
_chemical_formula_sum "Si O2"
_cell_formula_units_Z 16
_cell_length_a 26.939495
_cell_length_b 6.125118
_cell_length_c 7.362418
_cell_angle_alpha 68.336010
_cell_angle_beta 133.029161
_cell_angle_gamma 133.577139
_cell_volume 631.497201
_symmetry_space_group_name_H-M "P -1"
_symmetry_group_IT_number 2
_symmetry_cell_setting 'triclinic'
loop_
_space_group_symop_operation_xyz
x,y,z
-x,-y,-z
loop_
_atom_site_type_symbol
_atom_site_label
_atom_site_fract_x
_atom_site_fract_y
_atom_site_fract_z
Si Si1 0.498426 0.282832 0.411409
Si Si2 0.865178 0.787631 0.227275
Si Si3 0.773916 0.933290 0.398352
Si Si4 0.278874 0.685622 0.457381
Si Si5 0.874715 0.291785 0.868169
Si Si6 0.298452 0.840632 0.050962
Si Si7 0.602259 0.732454 0.245461
Si Si8 0.012321 0.272143 0.690247
O O1 0.500000 0.500000 0.500000
O O2 0.588209 0.546710 0.448908
O O3 0.500000 0.000000 0.500000
O O4 0.397233 0.091633 0.144855
O O5 0.766702 0.479862 0.119240
O O6 0.911586 0.699725 0.237443
O O7 0.922778 0.942181 0.506299
O O8 0.868395 0.031799 0.040443
O O9 0.771169 0.651210 0.491394
O O10 0.683006 0.796461 0.320804
O O11 0.859271 0.214860 0.638166
O O12 0.755020 0.030289 0.135839
O O13 0.210449 0.745647 0.281904
O O14 0.365509 0.939226 0.712749
O O15 0.306299 0.746362 0.297680
O O16 0.958064 0.617898 0.061819
O O17 0.500000 0.500000 0.000000
O O18 0.000000 0.500000 0.500000
#
# Coordination Sequence:
#
# PCOD9091252 Si02
#       8
#     2   2   2   2   2   2   2   2
#     4  12  27  45  70 101 138 187 241 291 349 413
#     4  10  20  37  66  95 131 169 216 274 331 410
#     4  11  24  41  64  95 134 174 226 282 340 408
#     4  11  23  42  65  90 131 178 220 280 341 401
#     4  10  19  39  64  93 129 170 217 270 336 401
#     4  12  23  43  66 100 131 179 230 281 343 412
#     4  11  24  44  60  92 135 175 228 283 343 403
#     4   9  18  35  65  98 125 172 216 260 339 409
#
# _framework density 25.336614000000001
#
# number of rings (size 3 to 8) (size 9 to 14) (size 15 to 20)
#    0.000    1.250    5.000    0.750    1.750    1.500 
#    4.500    0.625    0.000   10.500    0.000    0.000 
#    0.000    0.000    0.000    0.000    0.000    0.000 
#
# Total GULP energy -89300.562479 kJ/mol
# GULP energy per Si atom -5581.285155 kJ/mol
# Density = 2.527895 g / cm^3
# Si number density = 25.336614 Si / 1000 Ang^3
#
#
#
# Elastic Constant Matrix: (Units=GPa)
#
#
# Indices 1 2 3 4 5 6 
#
# 1 77.9832 32.5030 35.4437 4.0234 10.0690 -4.9292
# 2 32.5030 112.6800 47.0362 17.2736 -0.1980 -24.8058
# 3 35.4437 47.0362 149.5728 32.0732 1.0260 -20.7119
# 4 4.0234 17.2736 32.0732 66.4953 -6.3067 9.7692
# 5 10.0690 -0.1980 1.0260 -6.3067 32.6101 2.5579
# 6 -4.9292 -24.8058 -20.7119 9.7692 2.5579 37.2771
#
#
#
# Elastic Compliance Matrix: (Units=1/GPa)
#
#
# Indices 1 2 3 4 5 6 
#
# 1 0.016368 -0.004184 -0.003224 0.001598 -0.004471 -0.002523
# 2 -0.004184 0.012998 -0.001096 -0.003843 -0.000004 0.008495
# 3 -0.003224 -0.001096 0.009661 -0.005071 -0.000734 0.005592
# 4 0.001598 -0.003843 -0.005071 0.020396 0.004435 -0.010814
# 5 -0.004471 -0.000004 -0.000734 0.004435 0.033276 -0.004448
# 6 -0.002523 0.008495 0.005592 -0.010814 -0.004448 0.038392
#
#
# Mechanical properties :
#
#
# Convention : Reuss Voigt Hill
#
# Bulk Modulus (GPa) = 45.41410 63.35575 54.38492
# Shear Modulus (GPa) = 32.16715 42.29338 37.23026
#
# Velocity S-wave (km/s) = 3.56700 4.09009 3.83747
# Velocity P-wave (km/s) = 5.90998 6.88222 6.41455
#
# Compressibility (1/GPa) = 0.02201959
#
# Stress axis : x y z
#
# Youngs Moduli (GPa) = 61.09523 76.93371 103.50674
#
# Poissons Ratio (x) = 0.32188 0.33376
# Poissons Ratio (y) = 0.25561 0.11340
# Poissons Ratio (z) = 0.19700 0.08429
#
# Static dielectric constant tensor:
#      x y z
#    x 2.086150 -0.012500 -0.160810 
#    y -0.012500 2.052380 -0.056790 
#    z -0.160810 -0.056790 2.174420 
# 
# From -- ./inp_files/135387.got.cif
#   From: 2010.05.17/outbox.cif.g08.bks.cpg/sg2_68_cif.got.tgz:135387.got - 2010.06.03 11:33:40.
