data_PCOD9091459
_publ_section_title
;
Structure prediction by ZEFSAII (Michael W. Deem and Ramdas Pophale) SiO2 
 PCOD9091459
Probable space group: P -1
;
_chemical_formula_sum "Si O2"
_cell_formula_units_Z 14
_cell_length_a 7.199823
_cell_length_b 11.975189
_cell_length_c 10.226979
_cell_angle_alpha 101.779790
_cell_angle_beta 45.774286
_cell_angle_gamma 114.922932
_cell_volume 567.532926
_symmetry_space_group_name_H-M "P -1"
_symmetry_group_IT_number 2
_symmetry_cell_setting 'triclinic'
loop_
_space_group_symop_operation_xyz
x,y,z
-x,-y,-z
loop_
_atom_site_type_symbol
_atom_site_label
_atom_site_fract_x
_atom_site_fract_y
_atom_site_fract_z
Si Si1 0.946517 0.797441 0.747656
Si Si2 0.488690 0.189606 0.584637
Si Si3 0.423488 0.583172 0.907073
Si Si4 0.140798 0.749989 0.194722
Si Si5 0.091827 0.986922 0.304499
Si Si6 0.183610 0.290643 0.933857
Si Si7 0.543419 0.631338 0.569894
O O1 0.761009 0.653853 0.771596
O O2 0.779710 0.877051 0.790567
O O3 0.250236 0.848076 0.544210
O O4 0.971450 0.798527 0.891992
O O5 0.436905 0.251731 0.755432
O O6 0.568213 0.292817 0.455634
O O7 0.192878 0.084866 0.658252
O O8 0.299414 0.435876 0.948566
O O9 0.385836 0.609925 0.779557
O O10 0.300814 0.657629 0.082685
O O11 0.995730 0.729747 0.116174
O O12 0.883725 0.703953 0.415405
O O13 0.265429 0.898858 0.192149
O O14 0.000000 0.000000 0.500000
O O15 0.500000 0.500000 0.500000
#
# Coordination Sequence:
#
# PCOD9091459 Si02
#       7
#     2   2   2   2   2   2   2
#     4  12  25  39  64  92 134 174 203 261 327 372
#     4  10  23  42  66  95 127 167 208 267 322 374
#     4  12  23  39  63 100 131 166 214 258 314 388
#     4  10  23  40  68  92 125 168 216 271 306 371
#     4  10  23  47  68  93 121 165 230 266 309 378
#     4  10  23  40  60  98 130 162 211 256 322 385
#     4  10  19  39  66  91 122 171 210 252 315 365
#
# _framework density 24.668172999999999
#
# number of rings (size 3 to 8) (size 9 to 14) (size 15 to 20)
#    0.000    1.714    2.857    3.857    2.000    5.714 
#    0.000    4.286    0.000    0.000    0.000    0.000 
#    0.000    0.000    0.000    0.000    0.000    0.000 
#
# Total GULP energy -78249.900106 kJ/mol
# GULP energy per Si atom -5589.278579 kJ/mol
# Density = 2.461203 g / cm^3
# Si number density = 24.668173 Si / 1000 Ang^3
#
#
#
# Elastic Constant Matrix: (Units=GPa)
#
#
# Indices 1 2 3 4 5 6 
#
# 1 31.8328 9.7582 21.2871 12.5198 12.8495 3.4824
# 2 9.7582 125.2073 33.5898 25.5304 11.0867 -7.5080
# 3 21.2871 33.5898 127.4498 36.8058 5.5829 -19.0753
# 4 12.5198 25.5304 36.8058 41.3207 -7.9720 0.3783
# 5 12.8495 11.0867 5.5829 -7.9720 42.8120 0.5368
# 6 3.4824 -7.5080 -19.0753 0.3783 0.5368 30.4335
#
#
#
# Elastic Compliance Matrix: (Units=1/GPa)
#
#
# Indices 1 2 3 4 5 6 
#
# 1 0.047043 0.001466 -0.004511 -0.014251 -0.016472 -0.007381
# 2 0.001466 0.009935 -0.000240 -0.007230 -0.004356 0.002299
# 3 -0.004511 -0.000240 0.013231 -0.010822 -0.002436 0.008928
# 4 -0.014251 -0.007230 -0.010822 0.045820 0.016191 -0.007791
# 5 -0.016472 -0.004356 -0.002436 0.016191 0.032781 -0.001496
# 6 -0.007381 0.002299 0.008928 -0.007791 -0.001496 0.039989
#
#
# Mechanical properties :
#
#
# Convention : Reuss Voigt Hill
#
# Bulk Modulus (GPa) = 15.71410 45.97337 30.84373
# Shear Modulus (GPa) = 23.08575 37.57021 30.32798
#
# Velocity S-wave (km/s) = 3.06249 3.90683 3.51014
# Velocity P-wave (km/s) = 4.34616 6.24726 5.38133
#
# Compressibility (1/GPa) = 0.06363714
#
# Stress axis : x y z
#
# Youngs Moduli (GPa) = 21.25720 100.65598 75.57930
#
# Poissons Ratio (x) = -0.14753 0.34096
# Poissons Ratio (y) = -0.03116 0.01816
# Poissons Ratio (z) = 0.09590 0.02419
#
# Static dielectric constant tensor:
#      x y z
#    x 2.030480 -0.026120 -0.046080 
#    y -0.026120 1.983860 0.006970 
#    z -0.046080 0.006970 1.991020 
# 
# From -- ./inp_files/286047.got.cif
#   From: 2010.05.17/outbox.cif.g08.bks.cpg/sg2_144_cif.got.tgz:286047.got - 2010.06.03 11:33:40.
