data_PCOD9091838
_publ_section_title
;
Structure prediction by ZEFSAII (Michael W. Deem and Ramdas Pophale) SiO2 
 PCOD9091838
Probable space group: P -1
;
_chemical_formula_sum "Si O2"
_cell_formula_units_Z 16
_cell_length_a 10.870215
_cell_length_b 9.671651
_cell_length_c 17.556910
_cell_angle_alpha 47.929516
_cell_angle_beta 66.576487
_cell_angle_gamma 106.770100
_cell_volume 729.171334
_symmetry_space_group_name_H-M "P -1"
_symmetry_group_IT_number 2
_symmetry_cell_setting 'triclinic'
loop_
_space_group_symop_operation_xyz
x,y,z
-x,-y,-z
loop_
_atom_site_type_symbol
_atom_site_label
_atom_site_fract_x
_atom_site_fract_y
_atom_site_fract_z
Si Si1 0.435093 0.692989 0.848183
Si Si2 0.929295 0.159214 0.221890
Si Si3 0.386151 0.237197 0.685125
Si Si4 0.186830 0.951763 0.982446
Si Si5 0.851677 0.651776 0.458881
Si Si6 0.298609 0.723379 0.710088
Si Si7 0.572139 0.071503 0.811119
Si Si8 0.292620 0.121158 0.067906
O O1 0.402623 0.744278 0.753170
O O2 0.609503 0.983171 0.758018
O O3 0.437856 0.471929 0.922213
O O4 0.200957 0.472480 0.033681
O O5 0.810578 0.200451 0.271607
O O6 0.846939 0.080331 0.182828
O O7 0.860928 0.886484 0.379474
O O8 0.500000 0.500000 0.500000
O O9 0.593486 0.324626 0.607843
O O10 0.313786 0.230431 0.787295
O O11 0.919838 0.630654 0.143073
O O12 0.218096 0.045510 0.026446
O O13 0.342066 0.940119 0.930866
O O14 0.802414 0.466229 0.612046
O O15 0.060705 0.852773 0.276276
O O16 0.500000 0.000000 0.500000
O O17 0.574121 0.917483 0.933052
#
# Coordination Sequence:
#
# PCOD9091838 Si02
#       8
#     2   2   2   2   2   2   2   2
#     4  11  23  42  66  92 125 169 215 258 314 383
#     4  10  19  40  61  92 125 165 209 252 320 389
#     4   9  18  35  62  88 120 161 199 249 311 387
#     4  11  23  40  64  94 131 165 207 263 330 374
#     4   9  21  37  65  92 119 165 218 259 302 377
#     4  12  25  38  63  97 136 161 203 271 327 375
#     4  11  22  44  68  87 126 174 221 257 301 383
#     4  11  25  41  63  97 129 167 213 265 315 363
#
# _framework density 21.942717999999999
#
# number of rings (size 3 to 8) (size 9 to 14) (size 15 to 20)
#    0.000    1.500    2.500    3.000    3.500    3.500 
#    0.000    0.000    0.000    1.500    0.000    0.000 
#    0.000    0.000    0.000    0.000    0.000    0.000 
#
# Total GULP energy -89091.554992 kJ/mol
# GULP energy per Si atom -5568.222187 kJ/mol
# Density = 2.189278 g / cm^3
# Si number density = 21.942718 Si / 1000 Ang^3
#
#
#
# Elastic Constant Matrix: (Units=GPa)
#
#
# Indices 1 2 3 4 5 6 
#
# 1 51.5551 4.1096 20.3011 4.1297 12.8751 -13.9915
# 2 4.1096 40.9493 -0.2506 6.7778 16.7774 1.3548
# 3 20.3011 -0.2506 104.1151 4.1375 16.4069 -2.9293
# 4 4.1297 6.7778 4.1375 13.3296 1.3941 0.9027
# 5 12.8751 16.7774 16.4069 1.3941 31.2915 -2.6419
# 6 -13.9915 1.3548 -2.9293 0.9027 -2.6419 26.8696
#
#
#
# Elastic Compliance Matrix: (Units=1/GPa)
#
#
# Indices 1 2 3 4 5 6 
#
# 1 0.026903 0.001901 -0.003132 -0.008268 -0.008983 0.012966
# 2 0.001901 0.036029 0.003743 -0.017698 -0.021437 -0.001932
# 3 -0.003132 0.003743 0.011383 -0.003699 -0.006615 -0.001105
# 4 -0.008268 -0.017698 -0.003699 0.087021 0.010472 -0.005710
# 5 -0.008983 -0.021437 -0.006615 0.010472 0.050172 0.000263
# 6 0.012966 -0.001932 -0.001105 -0.005710 0.000263 0.044163
#
#
# Mechanical properties :
#
#
# Convention : Reuss Voigt Hill
#
# Bulk Modulus (GPa) = 12.60422 27.21553 19.90987
# Shear Modulus (GPa) = 18.04449 25.79545 21.91997
#
# Velocity S-wave (km/s) = 2.87077 3.43239 3.16407
# Velocity P-wave (km/s) = 4.09207 5.30456 4.73727
#
# Compressibility (1/GPa) = 0.07933853
#
# Stress axis : x y z
#
# Youngs Moduli (GPa) = 37.17034 27.75568 87.85166
#
# Poissons Ratio (x) = -0.05276 0.27517
# Poissons Ratio (y) = -0.07066 -0.32883
# Poissons Ratio (z) = 0.11642 -0.10389
#
# Static dielectric constant tensor:
#      x y z
#    x 2.458490 0.022160 0.469670 
#    y 0.022160 1.887450 -0.082890 
#    z 0.469670 -0.082890 2.172170 
# 
# From -- ./inp_files/515193.got.cif
#   From: 2010.05.17/outbox.cif.g08.bks.cpg/sg2_258_cif.got.tgz:515193.got - 2010.06.03 11:33:40.
