data_PCOD9091156
_publ_section_title
;
Structure prediction by ZEFSAII (Michael W. Deem and Ramdas Pophale) SiO2 
 PCOD9091156
Probable space group: P -1
;
_chemical_formula_sum "Si O2"
_cell_formula_units_Z 16
_cell_length_a 15.521816
_cell_length_b 13.859236
_cell_length_c 9.042337
_cell_angle_alpha 88.256237
_cell_angle_beta 42.234307
_cell_angle_gamma 51.774275
_cell_volume 602.365424
_symmetry_space_group_name_H-M "P -1"
_symmetry_group_IT_number 2
_symmetry_cell_setting 'triclinic'
loop_
_space_group_symop_operation_xyz
x,y,z
-x,-y,-z
loop_
_atom_site_type_symbol
_atom_site_label
_atom_site_fract_x
_atom_site_fract_y
_atom_site_fract_z
Si Si1 0.202624 0.433318 0.339179
Si Si2 0.700967 0.712994 0.449204
Si Si3 0.451778 0.350983 0.550775
Si Si4 0.168380 0.180895 0.614134
Si Si5 0.903281 0.146667 0.463602
Si Si6 0.529843 0.439449 0.180226
Si Si7 0.754296 0.088581 0.455953
Si Si8 0.049788 0.210233 0.456594
O O1 0.263586 0.353619 0.428125
O O2 0.041139 0.642833 0.539468
O O3 0.000000 0.500000 0.500000
O O4 0.478043 0.261095 0.898675
O O5 0.515213 0.771610 0.574220
O O6 0.642330 0.866590 0.540510
O O7 0.000000 0.500000 0.000000
O O8 0.471346 0.423617 0.404560
O O9 0.667282 0.206983 0.417606
O O10 0.137794 0.567547 0.001284
O O11 0.239334 0.118396 0.353574
O O12 0.161110 0.076311 0.687798
O O13 0.740348 0.328873 0.554302
O O14 0.957990 0.014291 0.306860
O O15 0.671574 0.278231 0.879623
O O16 0.878065 0.933244 0.721768
O O17 0.767618 0.361875 0.890668
#
# Coordination Sequence:
#
# PCOD9091156 Si02
#       8
#     2   2   2   2   2   2   2   2
#     4  12  20  41  73  96 121 169 214 259 324 378
#     4  10  22  41  66  92 126 167 209 264 319 377
#     4  11  22  42  66  92 131 173 210 261 322 368
#     4  11  24  41  62  98 129 166 219 258 317 383
#     4   9  18  37  64  93 123 170 210 261 310 372
#     4   9  18  37  69  90 125 174 213 257 312 382
#     4  12  24  40  67  96 131 165 216 262 314 380
#     4  10  19  39  63  98 124 162 218 257 314 373
#
# _framework density 26.561948999999998
#
# number of rings (size 3 to 8) (size 9 to 14) (size 15 to 20)
#    0.750    0.750    3.750    2.250    0.000    3.500 
#    0.000    2.500    8.250    0.000    0.000    0.000 
#    0.000    0.000    0.000    0.000    0.000    0.000 
#
# Total GULP energy -89593.030012 kJ/mol
# GULP energy per Si atom -5599.564376 kJ/mol
# Density = 2.650149 g / cm^3
# Si number density = 26.561949 Si / 1000 Ang^3
#
#
#
# Elastic Constant Matrix: (Units=GPa)
#
#
# Indices 1 2 3 4 5 6 
#
# 1 191.0054 59.4585 29.1090 -3.8774 28.3424 26.5674
# 2 59.4585 149.4106 16.7003 -2.9974 23.3094 8.5355
# 3 29.1090 16.7003 95.9703 -4.6151 15.7166 -4.9704
# 4 -3.8774 -2.9974 -4.6151 37.0291 0.5378 13.0429
# 5 28.3424 23.3094 15.7166 0.5378 34.5414 3.3927
# 6 26.5674 8.5355 -4.9704 13.0429 3.3927 58.4877
#
#
#
# Elastic Compliance Matrix: (Units=1/GPa)
#
#
# Indices 1 2 3 4 5 6 
#
# 1 0.007028 -0.001873 -0.001300 0.001593 -0.003625 -0.003175
# 2 -0.001873 0.008081 -0.000200 0.000578 -0.003810 -0.000253
# 3 -0.001300 -0.000200 0.011676 0.000770 -0.004289 0.001689
# 4 0.001593 0.000578 0.000770 0.029916 -0.001795 -0.007310
# 5 -0.003625 -0.003810 -0.004289 -0.001795 0.036463 0.000123
# 6 -0.003175 -0.000253 0.001689 -0.007310 0.000123 0.020343
#
#
# Mechanical properties :
#
#
# Convention : Reuss Voigt Hill
#
# Bulk Modulus (GPa) = 49.89986 71.88022 60.89004
# Shear Modulus (GPa) = 39.39087 48.08621 43.73854
#
# Velocity S-wave (km/s) = 3.85513 4.25943 4.06231
# Velocity P-wave (km/s) = 6.21635 7.16313 6.70647
#
# Compressibility (1/GPa) = 0.02004014
#
# Stress axis : x y z
#
# Youngs Moduli (GPa) = 142.28087 123.74681 85.64670
#
# Poissons Ratio (x) = 0.23176 0.11135
# Poissons Ratio (y) = 0.26647 0.01709
# Poissons Ratio (z) = 0.18498 0.02470
#
# Static dielectric constant tensor:
#      x y z
#    x 2.105520 0.064320 -0.021150 
#    y 0.064320 2.061380 0.013510 
#    z -0.021150 0.013510 2.095590 
# 
# From -- ./inp_files/333195.got.cif
#   From: 2010.05.17/outbox.cif.g08.bks.cpg/sg2_167_cif.got.tgz:333195.got - 2010.06.03 11:33:40.
