data_PCOD9091812
_publ_section_title
;
Structure prediction by ZEFSAII (Michael W. Deem and Ramdas Pophale) SiO2 
 PCOD9091812
Probable space group: P -1
;
_chemical_formula_sum "Si O2"
_cell_formula_units_Z 16
_cell_length_a 9.226785
_cell_length_b 9.264522
_cell_length_c 14.793759
_cell_angle_alpha 88.243239
_cell_angle_beta 105.510840
_cell_angle_gamma 133.382143
_cell_volume 864.220339
_symmetry_space_group_name_H-M "P -1"
_symmetry_group_IT_number 2
_symmetry_cell_setting 'triclinic'
loop_
_space_group_symop_operation_xyz
x,y,z
-x,-y,-z
loop_
_atom_site_type_symbol
_atom_site_label
_atom_site_fract_x
_atom_site_fract_y
_atom_site_fract_z
Si Si1 0.600018 0.085073 0.281339
Si Si2 0.017317 0.540910 0.759202
Si Si3 0.154180 0.896197 0.257542
Si Si4 0.010777 0.054893 0.104814
Si Si5 0.295091 0.133848 0.622258
Si Si6 0.678018 0.559217 0.731502
Si Si7 0.817910 0.866096 0.595219
Si Si8 0.675234 0.068112 0.097199
O O1 0.819953 0.319916 0.299238
O O2 0.577116 0.987814 0.182629
O O3 0.398073 0.047906 0.263409
O O4 0.617241 0.969731 0.358956
O O5 0.156508 0.687923 0.865244
O O6 0.943431 0.328363 0.757807
O O7 0.823618 0.522008 0.726332
O O8 0.155258 0.960229 0.357205
O O9 0.031412 0.926959 0.173186
O O10 0.806065 0.014635 0.093800
O O11 0.211689 0.289705 0.166582
O O12 0.000000 0.000000 0.000000
O O13 0.442362 0.337652 0.703107
O O14 0.286765 0.190641 0.518673
O O15 0.055136 0.964639 0.621480
O O16 0.694524 0.685367 0.650347
O O17 0.500000 0.000000 0.000000
#
# Coordination Sequence:
#
# PCOD9091812 Si02
#       8
#     2   2   2   2   2   2   2   2
#     4  10  20  36  62  80 120 153 192 239 289 346
#     4   9  20  37  59  83 116 153 195 233 283 356
#     4  11  21  39  59  88 118 152 188 249 292 330
#     4  10  21  38  60  91 120 146 196 251 281 338
#     4  11  20  39  63  85 111 165 195 231 304 348
#     4  10  19  40  61  83 116 159 195 235 292 354
#     4  10  23  37  60  88 121 144 201 252 280 348
#     4   9  19  40  60  80 117 158 190 233 287 351
#
# _framework density 18.513795999999999
#
# number of rings (size 3 to 8) (size 9 to 14) (size 15 to 20)
#    0.750    1.250    2.500    1.875    0.000    2.500 
#    2.250    3.125    0.000    0.000    0.000    0.000 
#    0.000    0.000    0.000    0.000    0.000    0.000 
#
# Total GULP energy -89143.716267 kJ/mol
# GULP energy per Si atom -5571.482267 kJ/mol
# Density = 1.847166 g / cm^3
# Si number density = 18.513796 Si / 1000 Ang^3
#
#
#
# Elastic Constant Matrix: (Units=GPa)
#
#
# Indices 1 2 3 4 5 6 
#
# 1 86.0108 10.0060 23.2940 6.5693 5.8247 -16.2105
# 2 10.0060 73.2619 14.2409 13.2138 10.1327 -20.5626
# 3 23.2940 14.2409 59.9304 5.8431 5.4012 -1.6075
# 4 6.5693 13.2138 5.8431 13.9497 -1.3377 -4.7043
# 5 5.8247 10.1327 5.4012 -1.3377 29.1728 2.2304
# 6 -16.2105 -20.5626 -1.6075 -4.7043 2.2304 28.0400
#
#
#
# Elastic Compliance Matrix: (Units=1/GPa)
#
#
# Indices 1 2 3 4 5 6 
#
# 1 0.015437 0.003479 -0.005666 -0.005011 -0.004285 0.010651
# 2 0.003479 0.023090 -0.003800 -0.017277 -0.010074 0.016629
# 3 -0.005666 -0.003800 0.020140 -0.004129 -0.001045 -0.005518
# 4 -0.005011 -0.017277 -0.004129 0.092904 0.012116 -0.001180
# 5 -0.004285 -0.010074 -0.001045 0.012116 0.040230 -0.011093
# 6 0.010651 0.016629 -0.005518 -0.001180 -0.011093 0.054383
#
#
# Mechanical properties :
#
#
# Convention : Reuss Voigt Hill
#
# Bulk Modulus (GPa) = 21.41733 34.92053 28.16893
# Shear Modulus (GPa) = 18.26659 25.67664 21.97162
#
# Velocity S-wave (km/s) = 3.14450 3.72814 3.44869
# Velocity P-wave (km/s) = 4.97768 6.11841 5.57728
#
# Compressibility (1/GPa) = 0.04669117
#
# Stress axis : x y z
#
# Youngs Moduli (GPa) = 64.78129 43.30898 49.65204
#
# Poissons Ratio (x) = -0.15067 0.28134
# Poissons Ratio (y) = -0.22537 0.18870
# Poissons Ratio (z) = 0.36706 0.16460
#
# Static dielectric constant tensor:
#      x y z
#    x 1.641490 0.015720 0.004390 
#    y 0.015720 1.646560 0.003760 
#    z 0.004390 0.003760 1.640860 
# 
# From -- ./inp_files/493203.got.cif
#   From: 2010.05.17/outbox.cif.g08.bks.cpg/sg2_247_cif.got.tgz:493203.got - 2010.06.03 11:33:40.
