data_PCOD9091382
_publ_section_title
;
Structure prediction by ZEFSAII (Michael W. Deem and Ramdas Pophale) SiO2 
 PCOD9091382
Probable space group: P -1
;
_chemical_formula_sum "Si O2"
_cell_formula_units_Z 14
_cell_length_a 12.078566
_cell_length_b 10.053888
_cell_length_c 8.506283
_cell_angle_alpha 59.351872
_cell_angle_beta 73.195155
_cell_angle_gamma 114.618113
_cell_volume 619.989081
_symmetry_space_group_name_H-M "P -1"
_symmetry_group_IT_number 2
_symmetry_cell_setting 'triclinic'
loop_
_space_group_symop_operation_xyz
x,y,z
-x,-y,-z
loop_
_atom_site_type_symbol
_atom_site_label
_atom_site_fract_x
_atom_site_fract_y
_atom_site_fract_z
Si Si1 0.985759 0.780028 0.481884
Si Si2 0.247955 0.657118 0.979105
Si Si3 0.455645 0.284187 0.103486
Si Si4 0.130453 0.843144 0.075950
Si Si5 0.156173 0.044346 0.541750
Si Si6 0.641640 0.685925 0.214667
Si Si7 0.132325 0.388697 0.906639
O O1 0.891671 0.567476 0.744371
O O2 0.858214 0.796511 0.476731
O O3 0.101859 0.990733 0.413333
O O4 0.095745 0.796950 0.301883
O O5 0.204413 0.596916 0.849167
O O6 0.406135 0.712163 0.928094
O O7 0.236097 0.815273 0.960233
O O8 0.327870 0.132110 0.387320
O O9 0.500000 0.500000 0.000000
O O10 0.414399 0.264703 0.944910
O O11 0.949943 0.660164 0.196403
O O12 0.225205 0.092169 0.879184
O O13 0.025759 0.822839 0.815460
O O14 0.500000 0.500000 0.500000
O O15 0.734479 0.620658 0.151140
#
# Coordination Sequence:
#
# PCOD9091382 Si02
#       7
#     2   2   2   2   2   2   2
#     4  10  19  39  65  95 126 168 226 270 314 390
#     4  11  25  42  67 100 135 177 217 269 340 392
#     4  12  22  42  71  92 133 173 224 270 319 400
#     4  12  25  43  65 101 139 171 219 278 332 386
#     4  10  19  39  69  96 119 173 231 265 312 385
#     4  12  27  44  67 102 131 173 224 276 332 385
#     4  11  24  44  69  95 134 177 225 267 326 398
#
# _framework density 22.581043999999999
#
# number of rings (size 3 to 8) (size 9 to 14) (size 15 to 20)
#    0.000    0.857    5.714    2.143    4.000    0.571 
#    0.000    4.286    0.000    0.000    0.000    0.000 
#    0.000    0.000    0.000    0.000    0.000    0.000 
#
# Total GULP energy -78031.778005 kJ/mol
# GULP energy per Si atom -5573.698429 kJ/mol
# Density = 2.252965 g / cm^3
# Si number density = 22.581044 Si / 1000 Ang^3
#
#
#
# Elastic Constant Matrix: (Units=GPa)
#
#
# Indices 1 2 3 4 5 6 
#
# 1 56.1719 22.5681 -5.8882 10.8191 -18.7921 5.6925
# 2 22.5681 110.1960 -1.7822 24.9006 -12.2351 -15.0759
# 3 -5.8882 -1.7822 90.1365 4.0050 -26.7190 -5.6778
# 4 10.8191 24.9006 4.0050 14.9964 -4.0165 -5.1365
# 5 -18.7921 -12.2351 -26.7190 -4.0165 26.2123 3.3580
# 6 5.6925 -15.0759 -5.6778 -5.1365 3.3580 26.2667
#
#
#
# Elastic Compliance Matrix: (Units=1/GPa)
#
#
# Indices 1 2 3 4 5 6 
#
# 1 0.040956 0.001219 0.015963 -0.029643 0.043725 -0.016112
# 2 0.001219 0.015999 0.004214 -0.025018 0.008308 0.003875
# 3 0.015963 0.004214 0.023050 -0.016628 0.034841 -0.003764
# 4 -0.029643 -0.025018 -0.016628 0.131747 -0.032040 0.018330
# 5 0.043725 0.008308 0.034841 -0.032040 0.106160 -0.017013
# 6 -0.016112 0.003875 -0.003764 0.018330 -0.017013 0.048733
#
#
# Mechanical properties :
#
#
# Convention : Reuss Voigt Hill
#
# Bulk Modulus (GPa) = 8.14340 31.81110 19.97725
# Shear Modulus (GPa) = 13.70669 29.60220 21.65444
#
# Velocity S-wave (km/s) = 2.46641 3.62461 3.10008
# Velocity P-wave (km/s) = 3.42418 5.62451 4.65619
#
# Compressibility (1/GPa) = 0.12279882
#
# Stress axis : x y z
#
# Youngs Moduli (GPa) = 24.41626 62.50386 43.38375
#
# Poissons Ratio (x) = -0.07620 -0.69254
# Poissons Ratio (y) = -0.02977 -0.18284
# Poissons Ratio (z) = -0.38976 -0.26342
#
# Static dielectric constant tensor:
#      x y z
#    x 2.001750 0.115890 -0.019840 
#    y 0.115890 1.902960 0.036320 
#    z -0.019840 0.036320 1.901760 
# 
# From -- ./inp_files/185824.got.cif
#   From: 2010.05.17/outbox.cif.g08.bks.cpg/sg2_93_cif.got.tgz:185824.got - 2010.06.03 11:33:40.
