data_PCOD9091206
_publ_section_title
;
Structure prediction by ZEFSAII (Michael W. Deem and Ramdas Pophale) SiO2 
 PCOD9091206
Probable space group: P -1
;
_chemical_formula_sum "Si O2"
_cell_formula_units_Z 14
_cell_length_a 8.518205
_cell_length_b 9.363028
_cell_length_c 9.674064
_cell_angle_alpha 61.835709
_cell_angle_beta 119.464704
_cell_angle_gamma 114.555690
_cell_volume 575.077143
_symmetry_space_group_name_H-M "P -1"
_symmetry_group_IT_number 2
_symmetry_cell_setting 'triclinic'
loop_
_space_group_symop_operation_xyz
x,y,z
-x,-y,-z
loop_
_atom_site_type_symbol
_atom_site_label
_atom_site_fract_x
_atom_site_fract_y
_atom_site_fract_z
Si Si1 0.168386 0.934318 0.025037
Si Si2 0.096440 0.660383 0.876934
Si Si3 0.146166 0.182463 0.487810
Si Si4 0.375142 0.635346 0.767272
Si Si5 0.161444 0.769266 0.359647
Si Si6 0.653174 0.896815 0.630567
Si Si7 0.745479 0.718769 0.201869
O O1 0.122721 0.815690 0.925237
O O2 0.292623 0.111643 0.951325
O O3 0.252788 0.827350 0.223518
O O4 0.000000 0.000000 0.000000
O O5 0.273270 0.654297 0.858904
O O6 0.955240 0.688945 0.685014
O O7 0.000000 0.500000 0.000000
O O8 0.317848 0.184095 0.462349
O O9 0.225352 0.245143 0.640657
O O10 0.000000 0.000000 0.500000
O O11 0.254162 0.680011 0.559988
O O12 0.576316 0.760986 0.774656
O O13 0.391002 0.448809 0.830483
O O14 0.949464 0.685657 0.267832
O O15 0.165700 0.954965 0.335607
O O16 0.500000 0.000000 0.500000
#
# Coordination Sequence:
#
# PCOD9091206 Si02
#       7
#     2   2   2   2   2   2   2
#     4  10  21  36  60  95 126 159 212 272 309 364
#     4  12  24  40  66 100 130 166 220 265 317 386
#     4  12  20  40  69  97 123 176 217 260 315 392
#     4  11  24  41  64  95 131 168 209 268 322 379
#     4  10  19  39  64  89 125 168 207 256 315 377
#     4  10  22  40  65  94 132 169 214 262 325 382
#     4  11  21  36  67  95 127 160 223 261 316 376
#
# _framework density 24.344559
#
# number of rings (size 3 to 8) (size 9 to 14) (size 15 to 20)
#    0.000    1.143    4.286    3.857    2.000    0.571 
#    0.000    3.571    0.000    0.000    0.000    0.000 
#    0.000    0.000    0.000    0.000    0.000    0.000 
#
# Total GULP energy -78093.011640 kJ/mol
# GULP energy per Si atom -5578.072260 kJ/mol
# Density = 2.428915 g / cm^3
# Si number density = 24.344559 Si / 1000 Ang^3
#
#
#
# Elastic Constant Matrix: (Units=GPa)
#
#
# Indices 1 2 3 4 5 6 
#
# 1 81.5741 32.7086 39.1152 -2.4338 -20.9665 -16.3646
# 2 32.7086 150.0318 39.5288 -12.8918 -27.5312 -4.1532
# 3 39.1152 39.5288 148.6437 -1.5015 -22.9123 -12.9385
# 4 -2.4338 -12.8918 -1.5015 51.2484 0.5506 -12.3730
# 5 -20.9665 -27.5312 -22.9123 0.5506 43.6863 5.8696
# 6 -16.3646 -4.1532 -12.9385 -12.3730 5.8696 26.5648
#
#
#
# Elastic Compliance Matrix: (Units=1/GPa)
#
#
# Indices 1 2 3 4 5 6 
#
# 1 0.017309 -0.001796 -0.002539 0.002492 0.004563 0.009297
# 2 -0.001796 0.008187 -0.001144 0.001813 0.003724 -0.000361
# 3 -0.002539 -0.001144 0.008192 0.000270 0.002097 0.001909
# 4 0.002492 0.001813 0.000270 0.023136 0.000494 0.012617
# 5 0.004563 0.003724 0.002097 0.000494 0.028750 -0.001708
# 6 0.009297 -0.000361 0.001909 0.012617 -0.001708 0.050499
#
#
# Mechanical properties :
#
#
# Convention : Reuss Voigt Hill
#
# Bulk Modulus (GPa) = 43.99456 66.99499 55.49478
# Shear Modulus (GPa) = 32.34000 42.22637 37.28318
#
# Velocity S-wave (km/s) = 3.64871 4.16929 3.91766
# Velocity P-wave (km/s) = 5.98846 7.12436 6.58096
#
# Compressibility (1/GPa) = 0.02273008
#
# Stress axis : x y z
#
# Youngs Moduli (GPa) = 57.77427 122.14163 122.06907
#
# Poissons Ratio (x) = 0.21932 0.30999
# Poissons Ratio (y) = 0.10374 0.13963
# Poissons Ratio (z) = 0.14671 0.13972
#
# Static dielectric constant tensor:
#      x y z
#    x 1.962880 0.014920 -0.035210 
#    y 0.014920 1.932660 -0.051840 
#    z -0.035210 -0.051840 1.979420 
# 
# From -- ./inp_files/157525.got.cif
#   From: 2010.05.17/outbox.cif.g08.bks.cpg/sg2_79_cif.got.tgz:157525.got - 2010.06.03 11:33:40.
