data_PCOD9091726
_publ_section_title
;
Structure prediction by ZEFSAII (Michael W. Deem and Ramdas Pophale) SiO2 
 PCOD9091726
Probable space group: P -1
;
_chemical_formula_sum "Si O2"
_cell_formula_units_Z 16
_cell_length_a 14.556363
_cell_length_b 8.392893
_cell_length_c 9.522066
_cell_angle_alpha 98.603717
_cell_angle_beta 140.252367
_cell_angle_gamma 89.777743
_cell_volume 724.004600
_symmetry_space_group_name_H-M "P -1"
_symmetry_group_IT_number 2
_symmetry_cell_setting 'triclinic'
loop_
_space_group_symop_operation_xyz
x,y,z
-x,-y,-z
loop_
_atom_site_type_symbol
_atom_site_label
_atom_site_fract_x
_atom_site_fract_y
_atom_site_fract_z
Si Si1 0.437844 0.221686 0.855778
Si Si2 0.679697 0.885088 0.019711
Si Si3 0.856144 0.595483 0.243857
Si Si4 0.963480 0.117752 0.349269
Si Si5 0.698989 0.465111 0.307393
Si Si6 0.038573 0.588641 0.203417
Si Si7 0.443388 0.984695 0.590451
Si Si8 0.901254 0.038101 0.760078
O O1 0.348940 0.358475 0.714148
O O2 0.491360 0.138186 0.772012
O O3 0.351710 0.090278 0.847616
O O4 0.561724 0.322221 0.112883
O O5 0.532504 0.857498 0.752019
O O6 0.754852 0.724191 0.090112
O O7 0.794779 0.038759 0.113717
O O8 0.769035 0.473128 0.235673
O O9 0.986443 0.704301 0.501876
O O10 0.919561 0.522717 0.172891
O O11 0.000000 0.000000 0.500000
O O12 0.065957 0.090867 0.335799
O O13 0.808601 0.436679 0.554057
O O14 0.041870 0.781798 0.212334
O O15 0.000000 0.500000 0.000000
O O16 0.500000 0.000000 0.500000
O O17 0.267064 0.962110 0.393804
O O18 0.000000 0.000000 0.000000
#
# Coordination Sequence:
#
# PCOD9091726 Si02
#       8
#     2   2   2   2   2   2   2   2
#     4  10  23  41  70  94 135 175 226 284 336 402
#     4  10  20  40  67  98 127 169 227 282 341 386
#     4  10  22  40  68  96 133 176 229 281 333 400
#     4  10  19  39  71  95 124 171 225 287 332 379
#     4  10  23  44  65  96 131 182 229 274 335 408
#     4  12  27  41  65  99 137 181 222 279 344 407
#     4  12  26  39  65 101 134 177 222 280 342 408
#     4  12  26  45  67  97 139 178 224 284 343 399
#
# _framework density 22.099309999999999
#
# number of rings (size 3 to 8) (size 9 to 14) (size 15 to 20)
#    0.000    1.250    2.500    4.500    5.250    1.000 
#    0.000    0.000    0.000    6.000    0.000    0.000 
#    0.000    0.000    0.000    0.000    0.000    0.000 
#
# Total GULP energy -89400.147670 kJ/mol
# GULP energy per Si atom -5587.509229 kJ/mol
# Density = 2.204901 g / cm^3
# Si number density = 22.099310 Si / 1000 Ang^3
#
#
#
# Elastic Constant Matrix: (Units=GPa)
#
#
# Indices 1 2 3 4 5 6 
#
# 1 144.4990 20.7207 53.1384 -5.1773 -14.8531 -7.8712
# 2 20.7207 42.2892 33.6207 -16.6928 1.8903 -0.6088
# 3 53.1384 33.6207 139.1559 -36.5765 0.2071 -6.7647
# 4 -5.1773 -16.6928 -36.5765 41.8045 -5.5972 4.1499
# 5 -14.8531 1.8903 0.2071 -5.5972 48.8170 2.4473
# 6 -7.8712 -0.6088 -6.7647 4.1499 2.4473 37.8551
#
#
#
# Elastic Compliance Matrix: (Units=1/GPa)
#
#
# Indices 1 2 3 4 5 6 
#
# 1 0.008773 -0.002830 -0.003333 -0.002770 0.002409 0.001331
# 2 -0.002830 0.031991 -0.004489 0.008534 -0.001015 -0.001746
# 3 -0.003333 -0.004489 0.011654 0.007947 -0.000001 0.000446
# 4 -0.002770 0.008534 0.007947 0.034627 0.002914 -0.003003
# 5 0.002409 -0.001015 -0.000001 0.002914 0.021653 -0.001235
# 6 0.001331 -0.001746 0.000446 -0.003003 -0.001235 0.027154
#
#
# Mechanical properties :
#
#
# Convention : Reuss Voigt Hill
#
# Bulk Modulus (GPa) = 32.14041 60.10043 46.12042
# Shear Modulus (GPa) = 29.84604 40.25961 35.05283
#
# Velocity S-wave (km/s) = 3.67896 4.27284 3.98697
# Velocity P-wave (km/s) = 5.71152 7.18314 6.48918
#
# Compressibility (1/GPa) = 0.03111348
#
# Stress axis : x y z
#
# Youngs Moduli (GPa) = 113.98735 31.25903 85.80795
#
# Poissons Ratio (x) = 0.08848 0.28600
# Poissons Ratio (y) = 0.32263 0.38516
# Poissons Ratio (z) = 0.37993 0.14031
#
# Static dielectric constant tensor:
#      x y z
#    x 1.866450 0.000780 0.085800 
#    y 0.000780 1.852660 0.006370 
#    z 0.085800 0.006370 1.844360 
# 
# From -- ./inp_files/299014.got.cif
#   From: 2010.05.17/outbox.cif.g08.bks.cpg/sg2_150_cif.got.tgz:299014.got - 2010.06.03 11:33:40.
