data_PCOD9091843
_publ_section_title
;
Structure prediction by ZEFSAII (Michael W. Deem and Ramdas Pophale) SiO2 
 PCOD9091843
Probable space group: P -1
;
_chemical_formula_sum "Si O2"
_cell_formula_units_Z 16
_cell_length_a 10.772314
_cell_length_b 9.264973
_cell_length_c 11.918473
_cell_angle_alpha 139.911918
_cell_angle_beta 70.767502
_cell_angle_gamma 92.138233
_cell_volume 676.669332
_symmetry_space_group_name_H-M "P -1"
_symmetry_group_IT_number 2
_symmetry_cell_setting 'triclinic'
loop_
_space_group_symop_operation_xyz
x,y,z
-x,-y,-z
loop_
_atom_site_type_symbol
_atom_site_label
_atom_site_fract_x
_atom_site_fract_y
_atom_site_fract_z
Si Si1 0.614731 0.255006 0.862050
Si Si2 0.342995 0.125596 0.215898
Si Si3 0.154863 0.335864 0.818132
Si Si4 0.135676 0.861823 0.448867
Si Si5 0.824679 0.452705 0.303049
Si Si6 0.397865 0.767861 0.713466
Si Si7 0.903391 0.590112 0.691111
Si Si8 0.580950 0.937137 0.319449
O O1 0.747659 0.228261 0.733445
O O2 0.542485 0.076328 0.729535
O O3 0.651777 0.140624 0.906407
O O4 0.500000 0.500000 0.000000
O O5 0.251967 0.328003 0.456158
O O6 0.500658 0.137479 0.181789
O O7 0.245734 0.219374 0.190182
O O8 0.185917 0.432845 0.748310
O O9 0.284981 0.304437 0.843707
O O10 0.163555 0.061866 0.636041
O O11 0.000000 0.500000 0.000000
O O12 0.122946 0.639063 0.385986
O O13 0.000000 0.000000 0.500000
O O14 0.743460 0.265756 0.220346
O O15 0.990830 0.340543 0.216900
O O16 0.500000 0.500000 0.500000
O O17 0.366808 0.892664 0.674028
O O18 0.000000 0.500000 0.500000
O O19 0.500000 0.000000 0.500000
#
# Coordination Sequence:
#
# PCOD9091843 Si02
#       8
#     2   2   2   2   2   2   2   2
#     4  11  24  42  69  99 133 171 223 276 329 395
#     4   9  18  39  63 100 126 170 218 271 332 399
#     4  12  26  42  66  99 133 174 229 276 333 399
#     4  12  23  43  70  94 132 180 217 277 337 390
#     4  10  19  40  61  97 129 170 220 276 328 398
#     4   9  19  33  65  91 128 169 218 268 333 392
#     4  10  21  35  67  97 126 171 225 264 333 400
#     4  11  22  42  66  99 131 173 226 271 330 403
#
# _framework density 23.645227999999999
#
# number of rings (size 3 to 8) (size 9 to 14) (size 15 to 20)
#    0.000    1.500    3.750    2.250    7.000    1.000 
#    0.000    1.250    5.500    1.500    0.000    0.000 
#    0.000    0.000    0.000    0.000    0.000    0.000 
#
# Total GULP energy -89309.016663 kJ/mol
# GULP energy per Si atom -5581.813541 kJ/mol
# Density = 2.359141 g / cm^3
# Si number density = 23.645228 Si / 1000 Ang^3
#
#
#
# Elastic Constant Matrix: (Units=GPa)
#
#
# Indices 1 2 3 4 5 6 
#
# 1 162.6391 101.6779 46.5355 -0.0228 -32.2011 -14.3810
# 2 101.6779 222.2142 36.2353 -4.0347 -23.3442 -3.6061
# 3 46.5355 36.2353 59.4894 12.0243 -28.0146 2.0982
# 4 -0.0228 -4.0347 12.0243 21.2980 -2.8554 -10.5454
# 5 -32.2011 -23.3442 -28.0146 -2.8554 47.5943 3.1609
# 6 -14.3810 -3.6061 2.0982 -10.5454 3.1609 54.1690
#
#
#
# Elastic Compliance Matrix: (Units=1/GPa)
#
#
# Indices 1 2 3 4 5 6 
#
# 1 0.011047 -0.003593 -0.006857 0.005368 0.001739 0.003903
# 2 -0.003593 0.006425 -0.001542 0.002044 -0.000060 -0.000065
# 3 -0.006857 -0.001542 0.034536 -0.022047 0.014166 -0.008379
# 4 0.005368 0.002044 -0.022047 0.066869 -0.005377 0.015747
# 5 0.001739 -0.000060 0.014166 -0.005377 0.030367 -0.002910
# 6 0.003903 -0.000065 -0.008379 0.015747 -0.002910 0.023052
#
#
# Mechanical properties :
#
#
# Convention : Reuss Voigt Hill
#
# Bulk Modulus (GPa) = 35.68371 90.36002 63.02187
# Shear Modulus (GPa) = 24.31652 41.93852 33.12752
#
# Velocity S-wave (km/s) = 3.21033 4.21605 3.74709
# Velocity P-wave (km/s) = 5.37268 7.87388 6.74031
#
# Compressibility (1/GPa) = 0.02802399
#
# Stress axis : x y z
#
# Youngs Moduli (GPa) = 90.52325 155.63017 28.95549
#
# Poissons Ratio (x) = 0.55921 0.19854
# Poissons Ratio (y) = 0.32527 0.04466
# Poissons Ratio (z) = 0.62068 0.24002
#
# Static dielectric constant tensor:
#      x y z
#    x 2.324980 -0.055110 0.332280 
#    y -0.055110 1.753460 0.044650 
#    z 0.332280 0.044650 2.087070 
# 
# From -- ./inp_files/419949.got.cif
#   From: 2010.05.17/outbox.cif.g08.bks.cpg/sg2_210_cif.got.tgz:419949.got - 2010.06.03 11:33:40.
