data_PCOD9091124
_publ_section_title
;
Structure prediction by ZEFSAII (Michael W. Deem and Ramdas Pophale) SiO2 
 PCOD9091124
Probable space group: P -1
;
_chemical_formula_sum "Si O2"
_cell_formula_units_Z 16
_cell_length_a 7.859543
_cell_length_b 16.663206
_cell_length_c 13.313378
_cell_angle_alpha 45.922694
_cell_angle_beta 116.719204
_cell_angle_gamma 143.722346
_cell_volume 715.365560
_symmetry_space_group_name_H-M "P -1"
_symmetry_group_IT_number 2
_symmetry_cell_setting 'triclinic'
loop_
_space_group_symop_operation_xyz
x,y,z
-x,-y,-z
loop_
_atom_site_type_symbol
_atom_site_label
_atom_site_fract_x
_atom_site_fract_y
_atom_site_fract_z
Si Si1 0.229687 0.491150 0.831353
Si Si2 0.847182 0.251818 0.529174
Si Si3 0.705286 0.736942 0.403912
Si Si4 0.247401 0.252725 0.121766
Si Si5 0.793224 0.968155 0.392410
Si Si6 0.808938 0.581673 0.333069
Si Si7 0.286435 0.599914 0.224155
Si Si8 0.170478 0.170464 0.959247
O O1 0.460385 0.658290 0.819676
O O2 0.267065 0.524715 0.692657
O O3 0.884316 0.360699 0.870522
O O4 0.304019 0.396787 0.958449
O O5 0.494189 0.106506 0.566974
O O6 0.996944 0.196126 0.606915
O O7 0.956141 0.350220 0.580508
O O8 0.010925 0.396123 0.359698
O O9 0.730889 0.846705 0.396170
O O10 0.491924 0.548893 0.567025
O O11 0.518980 0.698068 0.292859
O O12 0.142091 0.134456 0.100957
O O13 0.993529 0.148185 0.229150
O O14 0.000000 0.000000 0.500000
O O15 0.932987 0.753987 0.171629
O O16 0.480922 0.666804 0.119496
O O17 0.000000 0.000000 0.000000
#
# Coordination Sequence:
#
# PCOD9091124 Si02
#       8
#     2   2   2   2   2   2   2   2
#     4  10  22  41  67  87 126 175 211 261 318 383
#     4  11  22  39  68  97 127 167 214 268 320 376
#     4  11  21  40  67  97 129 164 215 270 317 381
#     4  10  24  44  59  93 129 169 215 257 322 387
#     4  12  26  43  64  95 131 168 214 268 321 382
#     4  10  19  39  63  93 123 160 212 263 317 372
#     4  11  20  40  65 100 119 163 218 259 320 379
#     4  11  22  37  63  89 131 166 203 261 311 376
#
# _framework density 22.366187
#
# number of rings (size 3 to 8) (size 9 to 14) (size 15 to 20)
#    0.000    1.250    2.500    4.500    0.000    4.000 
#    0.000    3.125    0.000    0.000    0.000    0.000 
#    0.000    0.000    0.000    0.000    0.000    0.000 
#
# Total GULP energy -89277.677148 kJ/mol
# GULP energy per Si atom -5579.854822 kJ/mol
# Density = 2.231528 g / cm^3
# Si number density = 22.366187 Si / 1000 Ang^3
#
#
#
# Elastic Constant Matrix: (Units=GPa)
#
#
# Indices 1 2 3 4 5 6 
#
# 1 85.9550 28.4184 10.9588 7.7610 -4.8339 36.2938
# 2 28.4184 60.3248 15.2849 5.3590 2.3724 19.5015
# 3 10.9588 15.2849 87.2857 3.2106 -17.9313 15.8832
# 4 7.7610 5.3590 3.2106 20.0373 8.1625 4.2140
# 5 -4.8339 2.3724 -17.9313 8.1625 33.6424 -8.8210
# 6 36.2938 19.5015 15.8832 4.2140 -8.8210 42.3351
#
#
#
# Elastic Compliance Matrix: (Units=1/GPa)
#
#
# Indices 1 2 3 4 5 6 
#
# 1 0.019509 -0.004513 0.001330 -0.003891 0.000957 -0.014558
# 2 -0.004513 0.021703 -0.003262 -0.000022 -0.005498 -0.006048
# 3 0.001330 -0.003262 0.014280 -0.004805 0.008477 -0.002750
# 4 -0.003891 -0.000022 -0.004805 0.061060 -0.019228 -0.004936
# 5 0.000957 -0.005498 0.008477 -0.019228 0.041835 0.009163
# 6 -0.014558 -0.006048 -0.002750 -0.004936 0.009163 0.042320
#
#
# Mechanical properties :
#
#
# Convention : Reuss Voigt Hill
#
# Bulk Modulus (GPa) = 23.47385 38.09884 30.78634
# Shear Modulus (GPa) = 21.94936 31.12986 26.53961
#
# Velocity S-wave (km/s) = 3.13607 3.73477 3.44844
# Velocity P-wave (km/s) = 4.86120 5.97236 5.44520
#
# Compressibility (1/GPa) = 0.04260060
#
# Stress axis : x y z
#
# Youngs Moduli (GPa) = 51.25914 46.07707 70.03034
#
# Poissons Ratio (x) = 0.20795 -0.09312
# Poissons Ratio (y) = 0.23133 0.22844
# Poissons Ratio (z) = -0.06816 0.15030
#
# Static dielectric constant tensor:
#      x y z
#    x 1.893790 -0.036820 0.034100 
#    y -0.036820 1.871630 -0.029830 
#    z 0.034100 -0.029830 1.866570 
# 
# From -- ./inp_files/403039.got.cif
#   From: 2010.05.17/outbox.cif.g08.bks.cpg/sg2_202_cif.got.tgz:403039.got - 2010.06.03 11:33:40.
