data_PCOD9091076
_publ_section_title
;
Structure prediction by ZEFSAII (Michael W. Deem and Ramdas Pophale) SiO2 
 PCOD9091076
Probable space group: P -1
;
_chemical_formula_sum "Si O2"
_cell_formula_units_Z 16
_cell_length_a 15.469488
_cell_length_b 9.708200
_cell_length_c 30.132617
_cell_angle_alpha 142.020452
_cell_angle_beta 161.704050
_cell_angle_gamma 36.662852
_cell_volume 839.662927
_symmetry_space_group_name_H-M "P -1"
_symmetry_group_IT_number 2
_symmetry_cell_setting 'triclinic'
loop_
_space_group_symop_operation_xyz
x,y,z
-x,-y,-z
loop_
_atom_site_type_symbol
_atom_site_label
_atom_site_fract_x
_atom_site_fract_y
_atom_site_fract_z
Si Si1 0.324696 0.368274 0.576889
Si Si2 0.831316 0.130792 0.260348
Si Si3 0.996121 0.868663 0.511141
Si Si4 0.174965 0.423452 0.020286
Si Si5 0.421449 0.801774 0.244433
Si Si6 0.112880 0.935033 0.256541
Si Si7 0.240392 0.245093 0.321219
Si Si8 0.896855 0.234628 0.635118
O O1 0.473134 0.314327 0.684504
O O2 0.548657 0.202353 0.609769
O O3 0.040681 0.278930 0.418571
O O4 0.240031 0.633232 0.584875
O O5 0.503665 0.266478 0.143278
O O6 0.935498 0.063569 0.244235
O O7 0.899964 0.888198 0.257923
O O8 0.703737 0.791714 0.351828
O O9 0.973141 0.062867 0.586926
O O10 0.000000 0.000000 0.500000
O O11 0.220583 0.667889 0.088701
O O12 0.000000 0.500000 0.000000
O O13 0.017569 0.270378 0.876330
O O14 0.264537 0.068779 0.247168
O O15 0.106353 0.131162 0.266286
O O16 0.570118 0.243013 0.491644
O O17 0.085253 0.510203 0.302515
#
# Coordination Sequence:
#
# PCOD9091076 Si02
#       8
#     2   2   2   2   2   2   2   2
#     4  11  20  38  65  93 121 154 213 259 306 357
#     4  12  23  39  64  91 126 157 212 260 301 363
#     4  11  22  34  57  97 125 155 198 259 316 364
#     4  12  23  40  65  88 124 170 210 255 303 362
#     4  10  19  39  63  88 121 162 207 252 301 366
#     4  11  24  38  64  96 119 165 208 254 305 363
#     4   9  19  36  59  90 125 154 203 241 322 364
#     4  10  21  35  58  90 128 160 190 258 317 363
#
# _framework density 19.055266
#
# number of rings (size 3 to 8) (size 9 to 14) (size 15 to 20)
#    0.000    1.250    7.500    1.875    1.750    2.000 
#    0.000    0.625    0.000    4.500    0.000    0.000 
#    0.000    0.000    0.000    0.000    0.000    0.000 
#
# Total GULP energy -89220.933498 kJ/mol
# GULP energy per Si atom -5576.308344 kJ/mol
# Density = 1.901189 g / cm^3
# Si number density = 19.055266 Si / 1000 Ang^3
#
#
#
# Elastic Constant Matrix: (Units=GPa)
#
#
# Indices 1 2 3 4 5 6 
#
# 1 81.4147 18.6804 17.0664 -0.4617 18.7945 -0.8480
# 2 18.6804 126.2134 24.7805 14.6269 13.7267 0.6753
# 3 17.0664 24.7805 63.6832 13.2875 14.3217 -4.4626
# 4 -0.4617 14.6269 13.2875 34.0891 -6.8624 8.8690
# 5 18.7945 13.7267 14.3217 -6.8624 20.8910 -0.1378
# 6 -0.8480 0.6753 -4.4626 8.8690 -0.1378 27.1530
#
#
#
# Elastic Compliance Matrix: (Units=1/GPa)
#
#
# Indices 1 2 3 4 5 6 
#
# 1 0.015821 -0.000373 -0.000005 -0.003001 -0.014961 0.001407
# 2 -0.000373 0.009564 -0.000675 -0.005707 -0.007350 0.001466
# 3 -0.000005 -0.000675 0.024952 -0.016279 -0.021943 0.009323
# 4 -0.003001 -0.005707 -0.016279 0.049767 0.033835 -0.018711
# 5 -0.014961 -0.007350 -0.021943 0.033835 0.092219 -0.014474
# 6 0.001407 0.001466 0.009323 -0.018711 -0.014474 0.044406
#
#
# Mechanical properties :
#
#
# Convention : Reuss Voigt Hill
#
# Bulk Modulus (GPa) = 20.73412 43.59621 32.16516
# Shear Modulus (GPa) = 19.61464 30.47890 25.04677
#
# Velocity S-wave (km/s) = 3.21184 4.00371 3.62944
# Velocity P-wave (km/s) = 4.96580 6.65593 5.87200
#
# Compressibility (1/GPa) = 0.04822969
#
# Stress axis : x y z
#
# Youngs Moduli (GPa) = 63.20759 104.56129 40.07760
#
# Poissons Ratio (x) = 0.03902 0.00021
# Poissons Ratio (y) = 0.02359 0.02705
# Poissons Ratio (z) = 0.00033 0.07058
#
# Static dielectric constant tensor:
#      x y z
#    x 1.709590 -0.026360 -0.008360 
#    y -0.026360 1.696930 0.006670 
#    z -0.008360 0.006670 1.692180 
# 
# From -- ./inp_files/593097.got.cif
#   From: 2010.05.17/outbox.cif.g08.bks.cpg/sg2_297_cif.got.tgz:593097.got - 2010.06.03 11:33:40.
