data_PCOD9091902
_publ_section_title
;
Structure prediction by ZEFSAII (Michael W. Deem and Ramdas Pophale) SiO2 
 PCOD9091902
Probable space group: P -1
;
_chemical_formula_sum "Si O2"
_cell_formula_units_Z 16
_cell_length_a 11.449077
_cell_length_b 8.986254
_cell_length_c 11.388799
_cell_angle_alpha 57.980229
_cell_angle_beta 61.894903
_cell_angle_gamma 41.044918
_cell_volume 647.003669
_symmetry_space_group_name_H-M "P -1"
_symmetry_group_IT_number 2
_symmetry_cell_setting 'triclinic'
loop_
_space_group_symop_operation_xyz
x,y,z
-x,-y,-z
loop_
_atom_site_type_symbol
_atom_site_label
_atom_site_fract_x
_atom_site_fract_y
_atom_site_fract_z
Si Si1 0.869753 0.110666 0.902995
Si Si2 0.501452 0.047059 0.829648
Si Si3 0.698279 0.152749 0.583912
Si Si4 0.036300 0.370312 0.355361
Si Si5 0.089042 0.311092 0.937117
Si Si6 0.505186 0.701393 0.046640
Si Si7 0.542135 0.390283 0.330413
Si Si8 0.774471 0.531607 0.617070
O O1 0.657072 0.252135 0.961904
O O2 0.863291 0.286606 0.749306
O O3 0.928904 0.868791 0.929444
O O4 0.000000 0.000000 0.000000
O O5 0.546940 0.135494 0.666731
O O6 0.294668 0.183414 0.874778
O O7 0.552078 0.120535 0.889087
O O8 0.596984 0.770643 0.897288
O O9 0.693736 0.227535 0.422949
O O10 0.621409 0.364155 0.623158
O O11 0.877002 0.882502 0.636714
O O12 0.174179 0.336290 0.395622
O O13 0.995453 0.555540 0.201787
O O14 0.865965 0.468160 0.472771
O O15 0.000000 0.500000 0.000000
O O16 0.609923 0.456008 0.167078
O O17 0.437001 0.320212 0.355337
#
# Coordination Sequence:
#
# PCOD9091902 Si02
#       8
#     2   2   2   2   2   2   2   2
#     4  10  19  40  63  89 123 165 198 249 312 365
#     4   9  18  36  58  85 121 156 193 252 306 355
#     4  10  21  37  61  88 117 157 208 254 300 362
#     4  11  24  39  60  92 120 162 213 247 307 368
#     4  11  24  38  64  96 123 157 207 256 310 367
#     4   8  17  31  60  81 110 160 192 237 298 359
#     4   9  19  38  59  82 118 159 196 252 306 353
#     4  10  22  42  62  83 127 166 199 255 304 368
#
# _framework density 24.729381
#
# number of rings (size 3 to 8) (size 9 to 14) (size 15 to 20)
#    0.000    2.250    1.250    0.750   10.500    1.000 
#    6.750    0.000    0.000    4.500    0.000    0.000 
#    0.000    0.000    0.000    0.000    0.000    0.000 
#
# Total GULP energy -89225.518079 kJ/mol
# GULP energy per Si atom -5576.594880 kJ/mol
# Density = 2.467310 g / cm^3
# Si number density = 24.729381 Si / 1000 Ang^3
#
#
#
# Elastic Constant Matrix: (Units=GPa)
#
#
# Indices 1 2 3 4 5 6 
#
# 1 80.8651 -0.9107 10.2406 2.2274 -1.8460 -0.7253
# 2 -0.9107 53.5014 3.3334 3.7158 -1.3962 1.3915
# 3 10.2406 3.3334 76.4215 -8.5158 -0.7941 1.2140
# 4 2.2274 3.7158 -8.5158 19.9665 -3.4815 -1.2429
# 5 -1.8460 -1.3962 -0.7941 -3.4815 39.6799 -8.6266
# 6 -0.7253 1.3915 1.2140 -1.2429 -8.6266 22.6358
#
#
#
# Elastic Compliance Matrix: (Units=1/GPa)
#
#
# Indices 1 2 3 4 5 6 
#
# 1 0.012700 0.000493 -0.001975 -0.002231 0.000492 0.000548
# 2 0.000493 0.019115 -0.001355 -0.004271 0.000007 -0.001318
# 3 -0.001975 -0.001355 0.014156 0.006626 0.000702 -0.000108
# 4 -0.002231 -0.004271 0.006626 0.055289 0.005837 0.005096
# 5 0.000492 0.000007 0.000702 0.005837 0.028148 0.011026
# 6 0.000548 -0.001318 -0.000108 0.005096 0.011026 0.048764
#
#
# Mechanical properties :
#
#
# Convention : Reuss Voigt Hill
#
# Bulk Modulus (GPa) = 24.81617 26.23497 25.52557
# Shear Modulus (GPa) = 25.34487 29.66475 27.50481
#
# Velocity S-wave (km/s) = 3.20486 3.46725 3.33863
# Velocity P-wave (km/s) = 4.87358 5.16342 5.02059
#
# Compressibility (1/GPa) = 0.04029631
#
# Stress axis : x y z
#
# Youngs Moduli (GPa) = 78.74274 52.31496 70.63900
#
# Poissons Ratio (x) = -0.02578 0.13954
# Poissons Ratio (y) = -0.03880 0.09570
# Poissons Ratio (z) = 0.15555 0.07087
#
# Static dielectric constant tensor:
#      x y z
#    x 1.964410 -0.019730 0.025320 
#    y -0.019730 2.015270 -0.007950 
#    z 0.025320 -0.007950 1.999360 
# 
# From -- ./inp_files/419136.got.cif
#   From: 2010.05.17/outbox.cif.g08.bks.cpg/sg2_210_cif.got.tgz:419136.got - 2010.06.03 11:33:40.
