data_PCOD9091447
_publ_section_title
;
Structure prediction by ZEFSAII (Michael W. Deem and Ramdas Pophale) SiO2 
 PCOD9091447
Probable space group: P -1
;
_chemical_formula_sum "Si O2"
_cell_formula_units_Z 16
_cell_length_a 9.545521
_cell_length_b 13.697342
_cell_length_c 9.252384
_cell_angle_alpha 124.101026
_cell_angle_beta 49.430073
_cell_angle_gamma 102.062570
_cell_volume 737.251951
_symmetry_space_group_name_H-M "P -1"
_symmetry_group_IT_number 2
_symmetry_cell_setting 'triclinic'
loop_
_space_group_symop_operation_xyz
x,y,z
-x,-y,-z
loop_
_atom_site_type_symbol
_atom_site_label
_atom_site_fract_x
_atom_site_fract_y
_atom_site_fract_z
Si Si1 0.259444 0.817643 0.940890
Si Si2 0.579087 0.604203 0.611502
Si Si3 0.083598 0.870081 0.406510
Si Si4 0.416219 0.544233 0.248414
Si Si5 0.024126 0.702151 0.763027
Si Si6 0.786043 0.595769 0.051769
Si Si7 0.947454 0.646214 0.283609
Si Si8 0.052281 0.064592 0.160932
O O1 0.470801 0.733111 0.725328
O O2 0.129104 0.757444 0.871058
O O3 0.214642 0.807670 0.133849
O O4 0.215889 0.959242 0.040232
O O5 0.500000 0.500000 0.500000
O O6 0.555535 0.574391 0.768636
O O7 0.798858 0.588349 0.418974
O O8 0.943630 0.781313 0.444608
O O9 0.118139 0.899096 0.574835
O O10 0.000000 0.000000 0.500000
O O11 0.198502 0.617418 0.484523
O O12 0.500000 0.500000 0.000000
O O13 0.560879 0.628971 0.259263
O O14 0.871572 0.638135 0.884224
O O15 0.915655 0.810796 0.821322
O O16 0.852866 0.449197 0.901230
O O17 0.890978 0.644659 0.153285
O O18 0.000000 0.000000 0.000000
#
# Coordination Sequence:
#
# PCOD9091447 Si02
#       8
#     2   2   2   2   2   2   2   2
#     4  10  19  39  66  90 122 169 225 269 322 379
#     4  12  21  40  66  97 133 170 216 274 331 394
#     4  10  21  38  64  93 119 169 229 265 313 386
#     4  12  27  39  59 100 141 173 208 268 341 397
#     4  11  21  41  64  91 133 174 215 266 335 392
#     4  11  22  39  66  97 135 171 215 274 336 392
#     4  11  21  37  67 101 127 167 225 276 326 387
#     4   9  22  39  63  87 126 177 217 266 328 389
#
# _framework density 21.702214999999999
#
# number of rings (size 3 to 8) (size 9 to 14) (size 15 to 20)
#    0.000    1.250    5.000    0.750    3.500    1.500 
#    0.000    2.500    5.500    3.000    0.000    0.000 
#    0.000    0.000    0.000    0.000    0.000    0.000 
#
# Total GULP energy -89143.358748 kJ/mol
# GULP energy per Si atom -5571.459922 kJ/mol
# Density = 2.165282 g / cm^3
# Si number density = 21.702215 Si / 1000 Ang^3
#
#
#
# Elastic Constant Matrix: (Units=GPa)
#
#
# Indices 1 2 3 4 5 6 
#
# 1 34.4348 22.6259 23.8411 -3.9874 1.4057 -7.9114
# 2 22.6259 126.2979 37.8982 -8.2244 -2.4342 -17.3711
# 3 23.8411 37.8982 112.1788 -23.8768 19.7650 -8.2757
# 4 -3.9874 -8.2244 -23.8768 46.3787 -7.3859 2.0525
# 5 1.4057 -2.4342 19.7650 -7.3859 38.3709 -6.8074
# 6 -7.9114 -17.3711 -8.2757 2.0525 -6.8074 32.1026
#
#
#
# Elastic Compliance Matrix: (Units=1/GPa)
#
#
# Indices 1 2 3 4 5 6 
#
# 1 0.037513 -0.003809 -0.006919 -0.000824 0.002864 0.006060
# 2 -0.003809 0.010117 -0.002745 0.000342 0.003051 0.004453
# 3 -0.006919 -0.002745 0.013320 0.004867 -0.006086 -0.001358
# 4 -0.000824 0.000342 0.004867 0.024412 0.002272 0.000158
# 5 0.002864 0.003051 -0.006086 0.002272 0.031003 0.007217
# 6 0.006060 0.004453 -0.001358 0.000158 0.007217 0.036224
#
#
# Mechanical properties :
#
#
# Convention : Reuss Voigt Hill
#
# Bulk Modulus (GPa) = 29.40699 49.07132 39.23916
# Shear Modulus (GPa) = 26.19591 35.94018 31.06805
#
# Velocity S-wave (km/s) = 3.47805 4.07389 3.78770
# Velocity P-wave (km/s) = 5.45057 6.69246 6.10319
#
# Compressibility (1/GPa) = 0.03400552
#
# Stress axis : x y z
#
# Youngs Moduli (GPa) = 26.65711 98.83934 75.07514
#
# Poissons Ratio (x) = 0.37650 0.51943
# Poissons Ratio (y) = 0.10154 0.20605
# Poissons Ratio (z) = 0.18443 0.27128
#
# Static dielectric constant tensor:
#      x y z
#    x 1.836890 -0.076210 0.053910 
#    y -0.076210 1.597970 -0.018580 
#    z 0.053910 -0.018580 1.868080 
# 
# From -- ./inp_files/259826.got.cif
#   From: 2010.05.17/outbox.cif.g08.bks.cpg/sg2_130_cif.got.tgz:259826.got - 2010.06.03 11:33:40.
