data_PCOD9091739
_publ_section_title
;
Structure prediction by ZEFSAII (Michael W. Deem and Ramdas Pophale) SiO2 
 PCOD9091739
Probable space group: P -1
;
_chemical_formula_sum "Si O2"
_cell_formula_units_Z 12
_cell_length_a 7.215948
_cell_length_b 15.363071
_cell_length_c 11.445391
_cell_angle_alpha 33.623297
_cell_angle_beta 57.825154
_cell_angle_gamma 42.723219
_cell_volume 465.955206
_symmetry_space_group_name_H-M "P -1"
_symmetry_group_IT_number 2
_symmetry_cell_setting 'triclinic'
loop_
_space_group_symop_operation_xyz
x,y,z
-x,-y,-z
loop_
_atom_site_type_symbol
_atom_site_label
_atom_site_fract_x
_atom_site_fract_y
_atom_site_fract_z
Si Si1 0.151141 0.043614 0.496410
Si Si2 0.373754 0.395890 0.217612
Si Si3 0.201009 0.995465 0.186316
Si Si4 0.777590 0.211210 0.901485
Si Si5 0.778558 0.733466 0.946972
Si Si6 0.314643 0.415577 0.493035
O O1 0.457154 0.829800 0.636023
O O2 0.861078 0.775574 0.748817
O O3 0.000000 0.000000 0.500000
O O4 0.976087 0.078634 0.629859
O O5 0.415527 0.377540 0.365095
O O6 0.500000 0.500000 0.000000
O O7 0.049358 0.534184 0.136681
O O8 0.488099 0.793981 0.269532
O O9 0.285435 0.083266 0.157839
O O10 0.972324 0.181923 0.975803
O O11 0.687380 0.410677 0.646987
O O12 0.497443 0.246537 0.991342
O O13 0.000000 0.000000 0.000000
O O14 0.000000 0.500000 0.500000
#
# Coordination Sequence:
#
# PCOD9091739 Si02
#       6
#     2   2   2   2   2   2
#     4  10  19  39  72 103 130 178 227 275 348 408
#     4  12  20  41  76 102 135 178 230 280 341 413
#     4  11  23  47  72  95 143 179 227 286 342 408
#     4  12  29  45  65 101 140 183 235 278 340 411
#     4  11  23  42  72 100 135 180 225 283 343 403
#     4  12  26  44  72 102 136 187 230 281 352 405
#
# _framework density 25.753546
#
# number of rings (size 3 to 8) (size 9 to 14) (size 15 to 20)
#    0.000    0.667    8.333    1.000    2.333    4.000 
#    0.000    5.833    0.000    0.000    0.000    0.000 
#    0.000    0.000    0.000    0.000    0.000    0.000 
#
# Total GULP energy -67192.930780 kJ/mol
# GULP energy per Si atom -5599.410898 kJ/mol
# Density = 2.569493 g / cm^3
# Si number density = 25.753546 Si / 1000 Ang^3
#
#
#
# Elastic Constant Matrix: (Units=GPa)
#
#
# Indices 1 2 3 4 5 6 
#
# 1 110.0946 22.8684 34.1352 -10.7969 6.0867 -26.1785
# 2 22.8684 76.4925 15.5733 -20.4349 5.0269 -29.7563
# 3 34.1352 15.5733 99.5735 -19.0189 14.7700 -21.0537
# 4 -10.7969 -20.4349 -19.0189 55.6533 -14.8370 8.3462
# 5 6.0867 5.0269 14.7700 -14.8370 37.0327 -3.9483
# 6 -26.1785 -29.7563 -21.0537 8.3462 -3.9483 47.9909
#
#
#
# Elastic Compliance Matrix: (Units=1/GPa)
#
#
# Indices 1 2 3 4 5 6 
#
# 1 0.011174 -0.001108 -0.002728 0.000181 -0.000080 0.004173
# 2 -0.001108 0.018745 0.000587 0.005503 0.000714 0.010378
# 3 -0.002728 0.000587 0.012645 0.002587 -0.003243 0.003707
# 4 0.000181 0.005503 0.002587 0.022690 0.007422 0.001310
# 5 -0.000080 0.000714 -0.003243 0.007422 0.031213 0.000254
# 6 0.004173 0.010378 0.003707 0.001310 0.000254 0.030967
#
#
# Mechanical properties :
#
#
# Convention : Reuss Voigt Hill
#
# Bulk Modulus (GPa) = 27.72682 47.92383 37.82532
# Shear Modulus (GPa) = 34.25720 42.37428 38.31574
#
# Velocity S-wave (km/s) = 3.65114 4.06072 3.86137
# Velocity P-wave (km/s) = 5.34453 6.37456 5.88213
#
# Compressibility (1/GPa) = 0.03606616
#
# Stress axis : x y z
#
# Youngs Moduli (GPa) = 89.49615 53.34763 79.08138
#
# Poissons Ratio (x) = 0.05911 0.21576
# Poissons Ratio (y) = 0.09916 -0.04646
# Poissons Ratio (z) = 0.24417 -0.03134
#
# Static dielectric constant tensor:
#      x y z
#    x 2.021600 0.077730 0.053730 
#    y 0.077730 2.095340 0.079430 
#    z 0.053730 0.079430 2.061760 
# 
# From -- ./inp_files/98670.got.cif
#   From: 2010.05.17/outbox.cif.g08.bks.cpg/sg2_50_cif.got.tgz:98670.got - 2010.06.03 11:33:40.
