data_PCOD9091986
_publ_section_title
;
Structure prediction by ZEFSAII (Michael W. Deem and Ramdas Pophale) SiO2 
 PCOD9091986
Probable space group: P -1
;
_chemical_formula_sum "Si O2"
_cell_formula_units_Z 10
_cell_length_a 9.425600
_cell_length_b 9.371368
_cell_length_c 9.028531
_cell_angle_alpha 50.009424
_cell_angle_beta 47.493195
_cell_angle_gamma 43.762746
_cell_volume 387.481724
_symmetry_space_group_name_H-M "P -1"
_symmetry_group_IT_number 2
_symmetry_cell_setting 'triclinic'
loop_
_space_group_symop_operation_xyz
x,y,z
-x,-y,-z
loop_
_atom_site_type_symbol
_atom_site_label
_atom_site_fract_x
_atom_site_fract_y
_atom_site_fract_z
Si Si1 0.074121 0.560413 0.058306
Si Si2 0.372102 0.321934 0.578027
Si Si3 0.763509 0.178957 0.618872
Si Si4 0.216999 0.292117 0.415667
Si Si5 0.037028 0.976051 0.815646
O O1 0.836741 0.704159 0.211960
O O2 0.718502 0.422262 0.503726
O O3 0.227708 0.365106 0.191906
O O4 0.000000 0.500000 0.000000
O O5 0.566503 0.198556 0.642779
O O6 0.405587 0.261028 0.420732
O O7 0.165818 0.720842 0.855580
O O8 0.800365 0.090093 0.818787
O O9 0.000000 0.000000 0.500000
O O10 0.000000 0.500000 0.500000
O O11 0.156999 0.105253 0.591369
O O12 0.000000 0.000000 0.000000
#
# Coordination Sequence:
#
# PCOD9091986 Si02
#       5
#     2   2   2   2   2
#     4  11  22  38  68 102 132 171 222 279 329 396
#     4  10  21  43  65  92 137 179 212 278 340 383
#     4  11  23  40  67  97 130 177 228 272 329 401
#     4  10  19  40  64  92 134 176 213 275 331 395
#     4  12  21  38  69  93 131 178 218 266 342 393
#
# _framework density 25.807670999999999
#
# number of rings (size 3 to 8) (size 9 to 14) (size 15 to 20)
#    0.000    1.200    8.000    1.200    0.000    0.800 
#    0.000    3.000    0.000    7.200    0.000    0.000 
#    0.000    0.000    0.000    0.000    0.000    0.000 
#
# Total GULP energy -55940.643193 kJ/mol
# GULP energy per Si atom -5594.064319 kJ/mol
# Density = 2.574893 g / cm^3
# Si number density = 25.807671 Si / 1000 Ang^3
#
#
#
# Elastic Constant Matrix: (Units=GPa)
#
#
# Indices 1 2 3 4 5 6 
#
# 1 227.6945 66.7197 82.5428 -47.2465 30.7790 -9.4147
# 2 66.7197 119.5444 54.5979 -33.5413 7.6641 -12.1133
# 3 82.5428 54.5979 111.7012 -60.2683 29.2060 -5.0026
# 4 -47.2465 -33.5413 -60.2683 46.2780 -1.4982 3.5417
# 5 30.7790 7.6641 29.2060 -1.4982 64.7040 -19.2962
# 6 -9.4147 -12.1133 -5.0026 3.5417 -19.2962 70.0282
#
#
#
# Elastic Compliance Matrix: (Units=1/GPa)
#
#
# Indices 1 2 3 4 5 6 
#
# 1 0.006448 -0.001884 -0.001764 0.002875 -0.002071 -0.000301
# 2 -0.001884 0.011696 -0.004337 0.000820 0.002081 0.001992
# 3 -0.001764 -0.004337 0.050673 0.060832 -0.022056 -0.006522
# 4 0.002875 0.000820 0.060832 0.104063 -0.029014 -0.008384
# 5 -0.002071 0.002081 -0.022056 -0.029014 0.027750 0.007620
# 6 -0.000301 0.001992 -0.006522 -0.008384 0.007620 0.016642
#
#
# Mechanical properties :
#
#
# Convention : Reuss Voigt Hill
#
# Bulk Modulus (GPa) = 18.92291 96.29565 57.60928
# Shear Modulus (GPa) = 19.93168 53.20733 36.56951
#
# Velocity S-wave (km/s) = 2.78207 4.54551 3.76839
# Velocity P-wave (km/s) = 4.20334 8.05870 6.42693
#
# Compressibility (1/GPa) = 0.05284599
#
# Stress axis : x y z
#
# Youngs Moduli (GPa) = 155.09794 85.50050 19.73440
#
# Poissons Ratio (x) = 0.16105 0.03482
# Poissons Ratio (y) = 0.29214 0.08559
# Poissons Ratio (z) = 0.27366 0.37083
#
# Static dielectric constant tensor:
#      x y z
#    x 2.084050 0.003270 0.049120 
#    y 0.003270 2.100840 -0.012170 
#    z 0.049120 -0.012170 2.109770 
# 
# From -- ./inp_files/173403.got.cif
#   From: 2010.05.17/outbox.cif.g08.bks.cpg/sg2_87_cif.got.tgz:173403.got - 2010.06.03 11:33:40.
