data_PCOD9091436
_publ_section_title
;
Structure prediction by ZEFSAII (Michael W. Deem and Ramdas Pophale) SiO2 
 PCOD9091436
Probable space group: P -1
;
_chemical_formula_sum "Si O2"
_cell_formula_units_Z 16
_cell_length_a 9.631774
_cell_length_b 13.484552
_cell_length_c 9.444910
_cell_angle_alpha 108.796548
_cell_angle_beta 62.058244
_cell_angle_gamma 141.853439
_cell_volume 666.962773
_symmetry_space_group_name_H-M "P -1"
_symmetry_group_IT_number 2
_symmetry_cell_setting 'triclinic'
loop_
_space_group_symop_operation_xyz
x,y,z
-x,-y,-z
loop_
_atom_site_type_symbol
_atom_site_label
_atom_site_fract_x
_atom_site_fract_y
_atom_site_fract_z
Si Si1 0.995665 0.585837 0.784720
Si Si2 0.770960 0.521631 0.401556
Si Si3 0.695762 0.793335 0.401934
Si Si4 0.452089 0.957502 0.839024
Si Si5 0.421554 0.613000 0.876720
Si Si6 0.375050 0.037680 0.651089
Si Si7 0.133705 0.306693 0.321216
Si Si8 0.778144 0.947436 0.722193
O O1 0.907141 0.605532 0.700810
O O2 0.093033 0.520633 0.667333
O O3 0.214754 0.766690 0.830588
O O4 0.777021 0.469489 0.946904
O O5 0.520302 0.394984 0.552833
O O6 0.714730 0.494187 0.250070
O O7 0.894651 0.680962 0.493310
O O8 0.768105 0.859140 0.558830
O O9 0.576223 0.828282 0.387148
O O10 0.960326 0.900682 0.263788
O O11 0.442594 0.055019 0.790608
O O12 0.678225 0.998692 0.715241
O O13 0.500000 0.000000 0.000000
O O14 0.624051 0.627877 0.814530
O O15 0.576070 0.796334 0.853248
O O16 0.088246 0.879300 0.700463
O O17 0.500000 0.000000 0.500000
#
# Coordination Sequence:
#
# PCOD9091436 Si02
#       8
#     2   2   2   2   2   2   2   2
#     4  11  23  43  63  88 134 168 203 264 323 372
#     4  11  23  41  65  99 126 165 215 261 310 378
#     4  10  19  39  66  89 124 161 205 259 315 359
#     4  11  24  41  61  91 125 163 213 255 311 385
#     4  11  22  41  65  91 129 171 206 257 322 375
#     4  11  21  40  65  91 123 163 208 262 312 363
#     4  11  24  41  64  97 126 164 222 255 308 381
#     4  10  20  39  64  90 124 164 206 259 315 365
#
# _framework density 23.989346000000001
#
# number of rings (size 3 to 8) (size 9 to 14) (size 15 to 20)
#    0.000    1.250    5.000    2.250    0.000    2.000 
#    2.250    0.625    0.000    0.000    0.000    0.000 
#    0.000    0.000    0.000    0.000    0.000    0.000 
#
# Total GULP energy -89429.838369 kJ/mol
# GULP energy per Si atom -5589.364898 kJ/mol
# Density = 2.393475 g / cm^3
# Si number density = 23.989346 Si / 1000 Ang^3
#
#
#
# Elastic Constant Matrix: (Units=GPa)
#
#
# Indices 1 2 3 4 5 6 
#
# 1 101.1338 33.8349 15.1704 -0.8794 -14.4922 17.3294
# 2 33.8349 52.1499 48.5457 -14.7973 -2.8040 7.8201
# 3 15.1704 48.5457 87.9394 -11.5122 5.2065 7.6852
# 4 -0.8794 -14.7973 -11.5122 38.0940 6.8667 0.8880
# 5 -14.4922 -2.8040 5.2065 6.8667 24.9075 -2.8342
# 6 17.3294 7.8201 7.6852 0.8880 -2.8342 27.1256
#
#
#
# Elastic Compliance Matrix: (Units=1/GPa)
#
#
# Indices 1 2 3 4 5 6 
#
# 1 0.016514 -0.015769 0.005288 -0.005337 0.007454 -0.006549
# 2 -0.015769 0.059929 -0.028490 0.014368 -0.000393 0.000357
# 3 0.005288 -0.028490 0.026553 -0.001848 -0.005536 -0.003206
# 4 -0.005337 0.014368 -0.001848 0.033099 -0.010498 -0.002390
# 5 0.007454 -0.000393 -0.005536 -0.010498 0.048761 0.002358
# 6 -0.006549 0.000357 -0.003206 -0.002390 0.002358 0.042179
#
#
# Mechanical properties :
#
#
# Convention : Reuss Voigt Hill
#
# Bulk Modulus (GPa) = 39.91121 48.48057 44.19589
# Shear Modulus (GPa) = 15.95781 27.60356 21.78068
#
# Velocity S-wave (km/s) = 2.58195 3.39582 3.01646
# Velocity P-wave (km/s) = 5.05587 5.96896 5.53129
#
# Compressibility (1/GPa) = 0.02505561
#
# Stress axis : x y z
#
# Youngs Moduli (GPa) = 60.55471 16.68643 37.66118
#
# Poissons Ratio (x) = 0.26312 -0.19917
# Poissons Ratio (y) = 0.95487 1.07295
# Poissons Ratio (z) = -0.32024 0.47539
#
# Static dielectric constant tensor:
#      x y z
#    x 1.996240 -0.034550 -0.110330 
#    y -0.034550 2.099980 0.124320 
#    z -0.110330 0.124320 2.243890 
# 
# From -- ./inp_files/207723.got.cif
#   From: 2010.05.17/outbox.cif.g08.bks.cpg/sg2_104_cif.got.tgz:207723.got - 2010.06.03 11:33:40.
