data_PCOD9091259
_publ_section_title
;
Structure prediction by ZEFSAII (Michael W. Deem and Ramdas Pophale) SiO2 
 PCOD9091259
Probable space group: P -1
;
_chemical_formula_sum "Si O2"
_cell_formula_units_Z 16
_cell_length_a 19.480164
_cell_length_b 7.898965
_cell_length_c 7.508000
_cell_angle_alpha 54.451392
_cell_angle_beta 142.971662
_cell_angle_gamma 116.540303
_cell_volume 565.700336
_symmetry_space_group_name_H-M "P -1"
_symmetry_group_IT_number 2
_symmetry_cell_setting 'triclinic'
loop_
_space_group_symop_operation_xyz
x,y,z
-x,-y,-z
loop_
_atom_site_type_symbol
_atom_site_label
_atom_site_fract_x
_atom_site_fract_y
_atom_site_fract_z
Si Si1 0.689203 0.491513 0.935753
Si Si2 0.588502 0.778788 0.956800
Si Si3 0.956682 0.718988 0.966620
Si Si4 0.875133 0.331482 0.147060
Si Si5 0.715038 0.379665 0.443526
Si Si6 0.170822 0.008948 0.187329
Si Si7 0.491267 0.181599 0.633541
Si Si8 0.840954 0.872802 0.310350
O O1 0.790017 0.404735 0.078797
O O2 0.589773 0.323986 0.825106
O O3 0.628034 0.709711 0.615009
O O4 0.733102 0.503207 0.221403
O O5 0.518194 0.779118 0.625483
O O6 0.524920 0.937036 0.865058
O O7 0.618312 0.541326 0.223001
O O8 0.709213 0.885273 0.095349
O O9 0.971288 0.498646 0.228469
O O10 0.854579 0.836765 0.795857
O O11 0.909032 0.707784 0.674848
O O12 0.071085 0.844188 0.118887
O O13 0.803674 0.354720 0.801831
O O14 0.899428 0.087920 0.361550
O O15 0.717629 0.141919 0.521134
O O16 0.152876 0.125702 0.890674
#
# Coordination Sequence:
#
# PCOD9091259 Si02
#       8
#     2   2   2   2   2   2   2   2
#     4  10  20  40  63  95 129 173 210 264 327 361
#     4  10  19  39  64  94 126 172 208 263 319 366
#     4  11  24  45  65  97 132 161 218 265 312 385
#     4  11  23  39  69  95 126 174 211 260 319 384
#     4  10  22  39  65  93 129 166 211 263 312 383
#     4  10  25  43  64  99 126 166 214 265 311 390
#     4   9  20  36  66  89 131 169 213 268 311 380
#     4  11  22  42  68  91 133 174 206 259 325 376
#
# _framework density 28.283525000000001
#
# number of rings (size 3 to 8) (size 9 to 14) (size 15 to 20)
#    0.000    1.750    2.500    1.125    3.500    2.000 
#    2.250    8.125    0.000    0.000    0.000    0.000 
#    0.000    0.000    0.000    0.000    0.000    0.000 
#
# Total GULP energy -89599.312750 kJ/mol
# GULP energy per Si atom -5599.957047 kJ/mol
# Density = 2.821915 g / cm^3
# Si number density = 28.283525 Si / 1000 Ang^3
#
#
#
# Elastic Constant Matrix: (Units=GPa)
#
#
# Indices 1 2 3 4 5 6 
#
# 1 131.1938 47.1445 31.6446 -9.4185 17.7202 -14.6308
# 2 47.1445 73.3639 32.9358 -6.5508 15.2121 -7.8289
# 3 31.6446 32.9358 114.5143 -16.9085 13.3217 -2.6407
# 4 -9.4185 -6.5508 -16.9085 53.2478 -12.1915 13.6115
# 5 17.7202 15.2121 13.3217 -12.1915 39.1232 -9.7453
# 6 -14.6308 -7.8289 -2.6407 13.6115 -9.7453 60.1904
#
#
#
# Elastic Compliance Matrix: (Units=1/GPa)
#
#
# Indices 1 2 3 4 5 6 
#
# 1 0.010289 -0.005654 -0.000972 0.000048 -0.001760 0.001427
# 2 -0.005654 0.019764 -0.003770 -0.000818 -0.003952 0.000576
# 3 -0.000972 -0.003770 0.010596 0.002746 -0.001111 -0.001063
# 4 0.000048 -0.000818 0.002746 0.021775 0.005134 -0.004067
# 5 -0.001760 -0.003952 -0.001111 0.005134 0.030569 0.002798
# 6 0.001427 0.000576 -0.001063 -0.004067 0.002798 0.018362
#
#
# Mechanical properties :
#
#
# Convention : Reuss Voigt Hill
#
# Bulk Modulus (GPa) = 50.36036 60.28021 55.32029
# Shear Modulus (GPa) = 36.03212 44.33543 40.18377
#
# Velocity S-wave (km/s) = 3.57313 3.96351 3.77337
# Velocity P-wave (km/s) = 5.90485 6.50423 6.21177
#
# Compressibility (1/GPa) = 0.01985689
#
# Stress axis : x y z
#
# Youngs Moduli (GPa) = 97.19270 50.59695 94.37817
#
# Poissons Ratio (x) = 0.28606 0.09177
# Poissons Ratio (y) = 0.54949 0.35579
# Poissons Ratio (z) = 0.09451 0.19074
#
# Static dielectric constant tensor:
#      x y z
#    x 2.202360 0.028000 0.078200 
#    y 0.028000 2.317000 -0.018530 
#    z 0.078200 -0.018530 2.146930 
# 
# From -- ./inp_files/343349.got.cif
#   From: 2010.05.17/outbox.cif.g08.bks.cpg/sg2_172_cif.got.tgz:343349.got - 2010.06.03 11:33:40.
