data_PCOD9091050
_publ_section_title
;
Structure prediction by ZEFSAII (Michael W. Deem and Ramdas Pophale) SiO2 
 PCOD9091050
Probable space group: P -1
;
_chemical_formula_sum "Si O2"
_cell_formula_units_Z 14
_cell_length_a 14.103114
_cell_length_b 14.466574
_cell_length_c 7.277701
_cell_angle_alpha 78.040408
_cell_angle_beta 52.825467
_cell_angle_gamma 35.347117
_cell_volume 537.221027
_symmetry_space_group_name_H-M "P -1"
_symmetry_group_IT_number 2
_symmetry_cell_setting 'triclinic'
loop_
_space_group_symop_operation_xyz
x,y,z
-x,-y,-z
loop_
_atom_site_type_symbol
_atom_site_label
_atom_site_fract_x
_atom_site_fract_y
_atom_site_fract_z
Si Si1 0.575116 0.792591 0.656222
Si Si2 0.589875 0.276268 0.933712
Si Si3 0.971725 0.157001 0.610629
Si Si4 0.021872 0.270292 0.204224
Si Si5 0.570480 0.149175 0.584986
Si Si6 0.593397 0.537184 0.312553
Si Si7 0.271319 0.238942 0.165584
O O1 0.572114 0.799385 0.438653
O O2 0.546455 0.704347 0.788576
O O3 0.414895 0.749005 0.505209
O O4 0.779386 0.701503 0.585911
O O5 0.422820 0.440139 0.898399
O O6 0.736388 0.253996 0.885243
O O7 0.815609 0.058497 0.653873
O O8 0.901195 0.285050 0.491067
O O9 0.138529 0.084091 0.610485
O O10 0.856108 0.380388 0.170133
O O11 0.065641 0.338805 0.227911
O O12 0.302136 0.032603 0.927464
O O13 0.397516 0.242011 0.923570
O O14 0.500000 0.500000 0.500000
O O15 0.500000 0.000000 0.000000
#
# Coordination Sequence:
#
# PCOD9091050 Si02
#       7
#     2   2   2   2   2   2   2
#     4  10  21  39  62  88 115 155 203 241 283 350
#     4   9  17  34  58  78 118 154 189 237 291 344
#     4   9  16  33  57  83 111 153 194 235 283 347
#     4  10  20  36  61  88 117 154 195 241 295 344
#     4  11  22  38  63  89 117 156 198 241 292 347
#     4  11  21  38  62  87 121 158 187 241 309 347
#     4  10  19  39  63  85 117 155 200 244 284 341
#
# _framework density 26.060036
#
# number of rings (size 3 to 8) (size 9 to 14) (size 15 to 20)
#    0.000    2.000    7.143    0.000    2.000    3.429 
#    0.000    2.857    0.000    0.000    0.000    0.000 
#    0.000    0.000    0.000    0.000    0.000    0.000 
#
# Total GULP energy -78321.071139 kJ/mol
# GULP energy per Si atom -5594.362224 kJ/mol
# Density = 2.600072 g / cm^3
# Si number density = 26.060036 Si / 1000 Ang^3
#
#
#
# Elastic Constant Matrix: (Units=GPa)
#
#
# Indices 1 2 3 4 5 6 
#
# 1 142.7564 32.5773 28.1057 -8.2483 1.4795 -26.7207
# 2 32.5773 109.2690 19.9350 -11.2081 0.3369 -25.6545
# 3 28.1057 19.9350 63.4082 -13.8206 10.8547 -8.4414
# 4 -8.2483 -11.2081 -13.8206 34.2301 -8.2598 7.5254
# 5 1.4795 0.3369 10.8547 -8.2598 40.9499 -7.2507
# 6 -26.7207 -25.6545 -8.4414 7.5254 -7.2507 63.7130
#
#
#
# Elastic Compliance Matrix: (Units=1/GPa)
#
#
# Indices 1 2 3 4 5 6 
#
# 1 0.008415 -0.001306 -0.003136 -0.000016 0.001014 0.002705
# 2 -0.001306 0.010975 -0.002240 0.001980 0.001573 0.003519
# 3 -0.003136 -0.002240 0.019695 0.005640 -0.004082 -0.000739
# 4 -0.000016 0.001980 0.005640 0.033747 0.004963 -0.001884
# 5 0.001014 0.001573 -0.004082 0.004963 0.026985 0.003003
# 6 0.002705 0.003519 -0.000739 -0.001884 0.003003 0.018713
#
#
# Mechanical properties :
#
#
# Convention : Reuss Voigt Hill
#
# Bulk Modulus (GPa) = 38.88252 52.96330 45.92291
# Shear Modulus (GPa) = 35.59469 43.43297 39.51383
#
# Velocity S-wave (km/s) = 3.69978 4.08689 3.89814
# Velocity P-wave (km/s) = 5.76228 6.52977 6.15800
#
# Compressibility (1/GPa) = 0.02571850
#
# Stress axis : x y z
#
# Youngs Moduli (GPa) = 118.82921 91.12019 50.77380
#
# Poissons Ratio (x) = 0.11905 0.15925
# Poissons Ratio (y) = 0.15525 0.11376
# Poissons Ratio (z) = 0.37270 0.20415
#
# Static dielectric constant tensor:
#      x y z
#    x 2.064860 -0.004530 0.083530 
#    y -0.004530 2.132490 0.073540 
#    z 0.083530 0.073540 2.023400 
# 
# From -- ./inp_files/99658.got.cif
#   From: 2010.05.17/outbox.cif.g08.bks.cpg/sg2_50_cif.got.tgz:99658.got - 2010.06.03 11:33:40.
