data_PCOD9091974
_publ_section_title
;
Structure prediction by ZEFSAII (Michael W. Deem and Ramdas Pophale) SiO2 
 PCOD9091974
Probable space group: P -1
;
_chemical_formula_sum "Si O2"
_cell_formula_units_Z 16
_cell_length_a 9.593299
_cell_length_b 11.381647
_cell_length_c 7.836278
_cell_angle_alpha 82.453576
_cell_angle_beta 53.788579
_cell_angle_gamma 75.642476
_cell_volume 668.666309
_symmetry_space_group_name_H-M "P -1"
_symmetry_group_IT_number 2
_symmetry_cell_setting 'triclinic'
loop_
_space_group_symop_operation_xyz
x,y,z
-x,-y,-z
loop_
_atom_site_type_symbol
_atom_site_label
_atom_site_fract_x
_atom_site_fract_y
_atom_site_fract_z
Si Si1 0.534519 0.380712 0.380829
Si Si2 0.529148 0.945084 0.672917
Si Si3 0.364938 0.824555 0.374324
Si Si4 0.918060 0.383254 0.124612
Si Si5 0.234752 0.883145 0.107826
Si Si6 0.968851 0.846344 0.728900
Si Si7 0.154496 0.459895 0.535525
Si Si8 0.912142 0.783729 0.394639
O O1 0.500000 0.500000 0.500000
O O2 0.538403 0.272428 0.538366
O O3 0.734639 0.371285 0.167389
O O4 0.366542 0.405054 0.367445
O O5 0.714512 0.856152 0.535959
O O6 0.500000 0.000000 0.500000
O O7 0.539659 0.064536 0.749637
O O8 0.378349 0.881466 0.860049
O O9 0.323017 0.793898 0.215063
O O10 0.167789 0.870925 0.586011
O O11 0.852940 0.427630 0.356065
O O12 0.043769 0.252243 0.097058
O O13 0.000000 0.500000 0.000000
O O14 0.055154 0.845696 0.191012
O O15 0.166394 0.024309 0.188360
O O16 0.956106 0.785195 0.565254
O O17 0.089218 0.341829 0.674728
O O18 0.000000 0.500000 0.500000
#
# Coordination Sequence:
#
# PCOD9091974 Si02
#       8
#     2   2   2   2   2   2   2   2
#     4   9  21  39  64  93 127 176 224 267 335 397
#     4  12  25  40  61  98 136 170 218 278 345 399
#     4  10  19  40  64  90 129 169 224 279 325 405
#     4  10  22  42  67  97 130 178 230 276 331 405
#     4  11  23  41  70  97 124 185 226 268 344 404
#     4  10  19  40  70  92 128 176 228 278 328 403
#     4  11  22  43  67  93 132 180 219 277 349 388
#     4  11  22  43  64  98 136 165 224 283 335 395
#
# _framework density 23.928225999999999
#
# number of rings (size 3 to 8) (size 9 to 14) (size 15 to 20)
#    0.000    1.500    3.750    1.875    1.750    3.500 
#    6.750    0.625    0.000    0.000    0.000    0.000 
#    0.000    0.000    0.000    0.000    0.000    0.000 
#
# Total GULP energy -89161.002413 kJ/mol
# GULP energy per Si atom -5572.562651 kJ/mol
# Density = 2.387376 g / cm^3
# Si number density = 23.928226 Si / 1000 Ang^3
#
#
#
# Elastic Constant Matrix: (Units=GPa)
#
#
# Indices 1 2 3 4 5 6 
#
# 1 124.8485 28.9765 42.5544 -4.6122 -23.2682 -22.3909
# 2 28.9765 99.0827 20.2064 -13.8343 -13.1941 -10.1739
# 3 42.5544 20.2064 105.9525 -29.2969 -26.8941 -21.4846
# 4 -4.6122 -13.8343 -29.2969 33.8820 8.5473 1.4512
# 5 -23.2682 -13.1941 -26.8941 8.5473 32.4414 -1.5675
# 6 -22.3909 -10.1739 -21.4846 1.4512 -1.5675 43.4212
#
#
#
# Elastic Compliance Matrix: (Units=1/GPa)
#
#
# Indices 1 2 3 4 5 6 
#
# 1 0.011133 -0.001918 -0.002548 -0.003209 0.006149 0.004360
# 2 -0.001918 0.011726 0.001049 0.004536 0.003176 0.002241
# 3 -0.002548 0.001049 0.018039 0.012673 0.010593 0.007816
# 4 -0.003209 0.004536 0.012673 0.041904 -0.000786 0.004250
# 5 0.006149 0.003176 0.010593 -0.000786 0.046039 0.010844
# 6 0.004360 0.002241 0.007816 0.004250 0.010844 0.029920
#
#
# Mechanical properties :
#
#
# Convention : Reuss Voigt Hill
#
# Bulk Modulus (GPa) = 29.35626 57.03982 43.19804
# Shear Modulus (GPa) = 28.25677 37.82536 33.04106
#
# Velocity S-wave (km/s) = 3.44015 3.98022 3.72000
# Velocity P-wave (km/s) = 5.29854 6.70914 6.04513
#
# Compressibility (1/GPa) = 0.03406429
#
# Stress axis : x y z
#
# Youngs Moduli (GPa) = 89.82680 85.28133 55.43444
#
# Poissons Ratio (x) = 0.16354 0.14124
# Poissons Ratio (y) = 0.17225 -0.05814
# Poissons Ratio (z) = 0.22887 -0.08945
#
# Static dielectric constant tensor:
#      x y z
#    x 1.974230 0.196040 0.054240 
#    y 0.196040 2.029050 0.007450 
#    z 0.054240 0.007450 1.996850 
# 
# From -- ./inp_files/186367.got.cif
#   From: 2010.05.17/outbox.cif.g08.bks.cpg/sg2_94_cif.got.tgz:186367.got - 2010.06.03 11:33:40.
