data_PCOD9091999
_publ_section_title
;
Structure prediction by ZEFSAII (Michael W. Deem and Ramdas Pophale) SiO2 
 PCOD9091999
Probable space group: P -1
;
_chemical_formula_sum "Si O2"
_cell_formula_units_Z 14
_cell_length_a 7.509822
_cell_length_b 9.858505
_cell_length_c 7.462733
_cell_angle_alpha 114.670700
_cell_angle_beta 85.234631
_cell_angle_gamma 101.575537
_cell_volume 491.864216
_symmetry_space_group_name_H-M "P -1"
_symmetry_group_IT_number 2
_symmetry_cell_setting 'triclinic'
loop_
_space_group_symop_operation_xyz
x,y,z
-x,-y,-z
loop_
_atom_site_type_symbol
_atom_site_label
_atom_site_fract_x
_atom_site_fract_y
_atom_site_fract_z
Si Si1 0.931334 0.650180 0.544398
Si Si2 0.377054 0.098154 0.763395
Si Si3 0.786154 0.901273 0.846544
Si Si4 0.398337 0.777817 0.619529
Si Si5 0.956773 0.154911 0.695812
Si Si6 0.383059 0.386544 0.715927
Si Si7 0.273937 0.691916 0.977169
O O1 0.896216 0.764902 0.763099
O O2 0.737551 0.600433 0.438870
O O3 0.000000 0.500000 0.500000
O O4 0.048118 0.749505 0.437377
O O5 0.290740 0.224608 0.729712
O O6 0.374536 0.930343 0.597449
O O7 0.259940 0.062057 0.930156
O O8 0.572498 0.184681 0.863978
O O9 0.595572 0.839238 0.728206
O O10 0.879655 0.045923 0.811361
O O11 0.430408 0.650298 0.402287
O O12 0.282288 0.728247 0.781441
O O13 0.913657 0.304662 0.904854
O O14 0.000000 0.000000 0.500000
O O15 0.358874 0.536658 0.905980
#
# Coordination Sequence:
#
# PCOD9091999 Si02
#       7
#     2   2   2   2   2   2   2
#     4  10  24  44  63  83 126 175 212 259 311 364
#     4  11  20  39  69  95 129 164 203 259 323 374
#     4   9  18  39  66  92 117 166 214 253 305 376
#     4  10  19  40  64  94 132 163 204 256 317 377
#     4  10  20  40  68  89 119 170 222 248 301 376
#     4  11  25  39  61 100 130 161 211 263 314 372
#     4  11  21  40  65  97 131 163 202 261 321 374
#
# _framework density 28.463135999999999
#
# number of rings (size 3 to 8) (size 9 to 14) (size 15 to 20)
#    0.000    1.714    2.857    2.143    2.000    0.571 
#    5.143    2.143    0.000    0.000    0.000    0.000 
#    0.000    0.000    0.000    0.000    0.000    0.000 
#
# Total GULP energy -78010.127433 kJ/mol
# GULP energy per Si atom -5572.151959 kJ/mol
# Density = 2.839835 g / cm^3
# Si number density = 28.463136 Si / 1000 Ang^3
#
#
#
# Elastic Constant Matrix: (Units=GPa)
#
#
# Indices 1 2 3 4 5 6 
#
# 1 992.8104 -66.6111 -162.2065 -230.0808 -205.7503 134.5110
# 2 -66.6111 249.6026 80.5221 52.1523 -12.3471 -49.7383
# 3 -162.2065 80.5221 186.8107 64.8503 1.2610 -26.7811
# 4 -230.0808 52.1523 64.8503 145.2096 57.9334 -53.2162
# 5 -205.7503 -12.3471 1.2610 57.9334 69.1290 -15.4144
# 6 134.5110 -49.7383 -26.7811 -53.2162 -15.4144 63.2576
#
#
#
# Elastic Compliance Matrix: (Units=1/GPa)
#
#
# Indices 1 2 3 4 5 6 
#
# 1 0.006740 -0.000246 0.005683 -0.003859 0.020853 -0.010284
# 2 -0.000246 0.005567 -0.001727 -0.001025 0.001998 0.003794
# 3 0.005683 -0.001727 0.012119 -0.007503 0.020527 -0.009622
# 4 -0.003859 -0.001025 -0.007503 0.019859 -0.024859 0.014873
# 5 0.020853 0.001998 0.020527 -0.024859 0.089974 -0.033069
# 6 -0.010284 0.003794 -0.009622 0.014873 -0.033069 0.041041
#
#
# Mechanical properties :
#
#
# Convention : Reuss Voigt Hill
#
# Bulk Modulus (GPa) = 31.40230 125.84808 78.62519
# Shear Modulus (GPa) = 28.01205 160.68720 94.34963
#
# Velocity S-wave (km/s) = 3.14052 7.52177 5.76368
# Velocity P-wave (km/s) = 4.92007 10.94287 8.48391
#
# Compressibility (1/GPa) = 0.03184480
#
# Stress axis : x y z
#
# Youngs Moduli (GPa) = 148.36971 179.63570 82.51764
#
# Poissons Ratio (x) = 0.04421 -0.46894
# Poissons Ratio (y) = 0.03651 0.14251
# Poissons Ratio (z) = -0.84316 0.31024
#
# Static dielectric constant tensor:
#      x y z
#    x 7.252800 0.399790 -2.415340 
#    y 0.399790 2.285620 -0.113370 
#    z -2.415340 -0.113370 3.392680 
# 
# From -- ./inp_files/159508.got.cif
#   From: 2010.05.17/outbox.cif.g08.bks.cpg/sg2_80_cif.got.tgz:159508.got - 2010.06.03 11:33:40.
