data_PCOD9091068
_publ_section_title
;
Structure prediction by ZEFSAII (Michael W. Deem and Ramdas Pophale) SiO2 
 PCOD9091068
Probable space group: P -1
;
_chemical_formula_sum "Si O2"
_cell_formula_units_Z 16
_cell_length_a 8.829338
_cell_length_b 15.077224
_cell_length_c 13.268501
_cell_angle_alpha 45.797461
_cell_angle_beta 102.142420
_cell_angle_gamma 136.624537
_cell_volume 694.337761
_symmetry_space_group_name_H-M "P -1"
_symmetry_group_IT_number 2
_symmetry_cell_setting 'triclinic'
loop_
_space_group_symop_operation_xyz
x,y,z
-x,-y,-z
loop_
_atom_site_type_symbol
_atom_site_label
_atom_site_fract_x
_atom_site_fract_y
_atom_site_fract_z
Si Si1 0.150828 0.451792 0.239089
Si Si2 0.033118 0.007627 0.649681
Si Si3 0.928411 0.221125 0.875467
Si Si4 0.720638 0.977903 0.483301
Si Si5 0.570164 0.456957 0.451594
Si Si6 0.830384 0.468843 0.162947
Si Si7 0.625106 0.279624 0.748610
Si Si8 0.514815 0.629217 0.972218
O O1 0.241825 0.536995 0.297995
O O2 0.869308 0.190234 0.388478
O O3 0.086534 0.548662 0.115775
O O4 0.380679 0.537271 0.135528
O O5 0.297529 0.267730 0.494783
O O6 0.825396 0.929158 0.601158
O O7 0.149378 0.956786 0.660645
O O8 0.839717 0.875019 0.825076
O O9 0.799241 0.267110 0.781933
O O10 0.161021 0.331611 0.742435
O O11 0.070353 0.350114 0.899867
O O12 0.677750 0.961578 0.064219
O O13 0.393211 0.751201 0.623447
O O14 0.500000 0.500000 0.500000
O O15 0.608199 0.343544 0.592086
O O16 0.673044 0.398530 0.094847
O O17 0.500000 0.500000 0.000000
#
# Coordination Sequence:
#
# PCOD9091068 Si02
#       8
#     2   2   2   2   2   2   2   2
#     4  11  22  40  62  91 123 158 207 254 311 364
#     4  10  22  38  57  92 120 159 201 245 312 375
#     4  10  23  46  67  89 128 167 215 262 311 372
#     4  10  19  39  63  87 126 155 198 256 311 369
#     4  12  25  41  66  95 127 167 214 259 316 373
#     4  10  22  40  64  91 119 160 205 257 308 373
#     4  10  25  44  65  93 125 171 214 261 310 369
#     4  11  23  37  60  88 124 157 194 250 311 368
#
# _framework density 23.04354
#
# number of rings (size 3 to 8) (size 9 to 14) (size 15 to 20)
#    0.000    1.500    2.500    1.875    3.500    1.500 
#    0.000    0.000    0.000    0.000    0.000    0.000 
#    0.000    0.000    0.000    0.000    0.000    0.000 
#
# Total GULP energy -89398.823376 kJ/mol
# GULP energy per Si atom -5587.426461 kJ/mol
# Density = 2.299109 g / cm^3
# Si number density = 23.043540 Si / 1000 Ang^3
#
#
#
# Elastic Constant Matrix: (Units=GPa)
#
#
# Indices 1 2 3 4 5 6 
#
# 1 63.9322 15.1044 13.8815 6.7593 -18.8169 -7.9566
# 2 15.1044 71.6246 13.7923 -14.0789 -12.5353 -7.0995
# 3 13.8815 13.7923 60.3289 -8.2920 -17.1052 5.7265
# 4 6.7593 -14.0789 -8.2920 32.7736 3.8811 6.5528
# 5 -18.8169 -12.5353 -17.1052 3.8811 36.1002 0.4115
# 6 -7.9566 -7.0995 5.7265 6.5528 0.4115 34.9560
#
#
#
# Elastic Compliance Matrix: (Units=1/GPa)
#
#
# Indices 1 2 3 4 5 6 
#
# 1 0.021757 -0.003456 -0.003420 -0.009241 0.009440 0.006432
# 2 -0.003456 0.016971 -0.001537 0.006993 0.002593 0.001570
# 3 -0.003420 -0.001537 0.021049 0.005665 0.007113 -0.005685
# 4 -0.009241 0.006993 0.005665 0.039084 -0.003805 -0.008893
# 5 0.009440 0.002593 0.007113 -0.003805 0.037281 0.001785
# 6 0.006432 0.001570 -0.005685 -0.008893 0.001785 0.032968
#
#
# Mechanical properties :
#
#
# Convention : Reuss Voigt Hill
#
# Bulk Modulus (GPa) = 23.28326 31.27135 27.27730
# Shear Modulus (GPa) = 24.96845 30.97312 27.97078
#
# Velocity S-wave (km/s) = 3.29528 3.67019 3.48778
# Velocity P-wave (km/s) = 4.96029 5.61787 5.29929
#
# Compressibility (1/GPa) = 0.04294932
#
# Stress axis : x y z
#
# Youngs Moduli (GPa) = 45.96298 58.92516 47.50787
#
# Poissons Ratio (x) = 0.20367 0.16248
# Poissons Ratio (y) = 0.15886 0.07303
# Poissons Ratio (z) = 0.15720 0.09058
#
# Static dielectric constant tensor:
#      x y z
#    x 1.924730 0.003500 0.018170 
#    y 0.003500 1.834700 0.020050 
#    z 0.018170 0.020050 1.917520 
# 
# From -- ./inp_files/224362.got.cif
#   From: 2010.05.17/outbox.cif.g08.bks.cpg/sg2_113_cif.got.tgz:224362.got - 2010.06.03 11:33:40.
