data_PCOD9091484
_publ_section_title
;
Structure prediction by ZEFSAII (Michael W. Deem and Ramdas Pophale) SiO2 
 PCOD9091484
Probable space group: P -1
;
_chemical_formula_sum "Si O2"
_cell_formula_units_Z 13
_cell_length_a 13.159884
_cell_length_b 9.951946
_cell_length_c 7.374011
_cell_angle_alpha 61.672636
_cell_angle_beta 71.328722
_cell_angle_gamma 121.837279
_cell_volume 466.988707
_symmetry_space_group_name_H-M "P -1"
_symmetry_group_IT_number 2
_symmetry_cell_setting 'triclinic'
loop_
_space_group_symop_operation_xyz
x,y,z
-x,-y,-z
loop_
_atom_site_type_symbol
_atom_site_label
_atom_site_fract_x
_atom_site_fract_y
_atom_site_fract_z
Si Si1 0.558669 0.788934 0.219345
Si Si2 0.000000 0.000000 0.000000
Si Si3 0.214334 0.577508 0.442332
Si Si4 0.279582 0.299152 0.969898
Si Si5 0.727466 0.157327 0.444202
Si Si6 0.152354 0.929090 0.851538
Si Si7 0.709170 0.399909 0.007745
O O1 0.419536 0.755577 0.253628
O O2 0.434346 0.562336 0.588758
O O3 0.637065 0.774412 0.022840
O O4 0.734685 0.035138 0.086915
O O5 0.800035 0.838986 0.315288
O O6 0.905472 0.922279 0.898639
O O7 0.200596 0.715226 0.479243
O O8 0.057279 0.284606 0.810536
O O9 0.188566 0.539044 0.269325
O O10 0.255319 0.384147 0.096715
O O11 0.754544 0.341708 0.188210
O O12 0.510104 0.872304 0.731898
O O13 0.833394 0.142355 0.295865
#
# Coordination Sequence:
#
# PCOD9091484 Si02
#       7
#     2   1   2   2   2   2   2
#     4  10  20  39  66  92 128 167 213 260 317 377
#     4  10  20  38  68  98 120 168 212 260 320 384
#     4  12  24  41  66  98 129 169 217 266 312 380
#     4  10  19  39  66  94 126 170 209 263 315 379
#     4  11  22  42  63  93 129 173 213 261 318 384
#     4  11  22  39  68  93 129 169 214 261 321 378
#     4  11  23  41  67  94 130 170 215 265 321 374
#
# _framework density 27.837935000000002
#
# number of rings (size 3 to 8) (size 9 to 14) (size 15 to 20)
#    0.000    1.231    4.615    1.846    0.000    1.231 
#    0.000    6.154    0.000    0.000    0.000    0.000 
#    0.000    0.000    0.000    0.000    0.000    0.000 
#
# Total GULP energy -72679.928815 kJ/mol
# GULP energy per Si atom -5590.763755 kJ/mol
# Density = 2.777457 g / cm^3
# Si number density = 27.837935 Si / 1000 Ang^3
#
#
#
# Elastic Constant Matrix: (Units=GPa)
#
#
# Indices 1 2 3 4 5 6 
#
# 1 70.1014 32.9985 47.5085 8.5516 -14.4348 -5.7938
# 2 32.9985 213.3848 71.9157 51.4475 -14.7755 -19.1517
# 3 47.5085 71.9157 120.0047 27.2019 -15.5361 1.2024
# 4 8.5516 51.4475 27.2019 64.0693 -0.1791 -17.4339
# 5 -14.4348 -14.7755 -15.5361 -0.1791 35.3127 2.0463
# 6 -5.7938 -19.1517 1.2024 -17.4339 2.0463 47.5062
#
#
#
# Elastic Compliance Matrix: (Units=1/GPa)
#
#
# Indices 1 2 3 4 5 6 
#
# 1 0.020730 -0.000397 -0.007765 0.001672 0.004727 0.002974
# 2 -0.000397 0.006877 -0.002930 -0.003861 0.001330 0.001324
# 3 -0.007765 -0.002930 0.014331 -0.003768 0.002115 -0.003965
# 4 0.001672 -0.003861 -0.003768 0.021962 -0.002880 0.006926
# 5 0.004727 0.001330 0.002115 -0.002880 0.031803 -0.001368
# 6 0.002974 0.001324 -0.003965 0.006926 -0.001368 0.024647
#
#
# Mechanical properties :
#
#
# Convention : Reuss Voigt Hill
#
# Bulk Modulus (GPa) = 50.62563 78.70403 64.66483
# Shear Modulus (GPa) = 33.53012 46.11553 39.82282
#
# Velocity S-wave (km/s) = 3.47432 4.07452 3.78633
# Velocity P-wave (km/s) = 5.85832 7.10417 6.51111
#
# Compressibility (1/GPa) = 0.01975284
#
# Stress axis : x y z
#
# Youngs Moduli (GPa) = 48.23900 145.40971 69.78013
#
# Poissons Ratio (x) = 0.05779 0.54187
# Poissons Ratio (y) = 0.01917 0.20444
# Poissons Ratio (z) = 0.37459 0.42601
#
# Static dielectric constant tensor:
#      x y z
#    x 2.404790 -0.267200 0.111100 
#    y -0.267200 2.390730 -0.106830 
#    z 0.111100 -0.106830 2.235960 
# 
# From -- ./inp_files/330121.got.cif
#   From: 2010.05.17/outbox.cif.g08.bks.cpg/sg2_166_cif.got.tgz:330121.got - 2010.06.03 11:33:40.
