data_PCOD9091714
_publ_section_title
;
Structure prediction by ZEFSAII (Michael W. Deem and Ramdas Pophale) SiO2 
 PCOD9091714
Probable space group: P -1
;
_chemical_formula_sum "Si O2"
_cell_formula_units_Z 16
_cell_length_a 12.048399
_cell_length_b 8.516903
_cell_length_c 9.918138
_cell_angle_alpha 87.950212
_cell_angle_beta 44.291077
_cell_angle_gamma 64.976128
_cell_volume 583.840178
_symmetry_space_group_name_H-M "P -1"
_symmetry_group_IT_number 2
_symmetry_cell_setting 'triclinic'
loop_
_space_group_symop_operation_xyz
x,y,z
-x,-y,-z
loop_
_atom_site_type_symbol
_atom_site_label
_atom_site_fract_x
_atom_site_fract_y
_atom_site_fract_z
Si Si1 0.198470 0.969882 0.868468
Si Si2 0.798582 0.307529 0.575008
Si Si3 0.466029 0.669475 0.434220
Si Si4 0.159166 0.764675 0.151129
Si Si5 0.758683 0.901181 0.834234
Si Si6 0.180643 0.225268 0.684595
Si Si7 0.204760 0.409903 0.007649
Si Si8 0.367100 0.242552 0.274647
O O1 0.176265 0.165742 0.845224
O O2 0.058987 0.157430 0.709100
O O3 0.241137 0.850469 0.972784
O O4 0.000000 0.000000 0.000000
O O5 0.657500 0.301573 0.592254
O O6 0.811487 0.225699 0.716054
O O7 0.720326 0.531930 0.651680
O O8 0.019615 0.169078 0.331741
O O9 0.500000 0.500000 0.500000
O O10 0.351011 0.847858 0.624602
O O11 0.673760 0.623773 0.227830
O O12 0.256544 0.540443 0.043711
O O13 0.723805 0.782064 0.974293
O O14 0.769531 0.802508 0.686245
O O15 0.563287 0.112264 0.019316
O O16 0.360454 0.177592 0.436295
O O17 0.974690 0.545785 0.194170
#
# Coordination Sequence:
#
# PCOD9091714 Si02
#       8
#     2   2   2   2   2   2   2   2
#     4  10  20  41  64  93 134 190 228 282 351 420
#     4  12  23  44  69 107 147 176 241 299 347 420
#     4  12  25  44  67 100 138 193 237 292 363 418
#     4   9  18  36  66  96 136 183 223 286 351 403
#     4  11  21  39  69 107 143 186 233 284 365 426
#     4   9  17  36  68  96 136 184 229 277 355 413
#     4  10  19  39  70  96 137 186 234 273 359 420
#     4  11  20  38  72 103 145 188 227 290 360 432
#
# _framework density 27.404757
#
# number of rings (size 3 to 8) (size 9 to 14) (size 15 to 20)
#    0.750    0.750    5.000    1.125    0.000    0.500 
#    4.500    3.125    0.000    1.500    0.000    0.000 
#    0.000    0.000    0.000    0.000    0.000    0.000 
#
# Total GULP energy -89415.144064 kJ/mol
# GULP energy per Si atom -5588.446504 kJ/mol
# Density = 2.734238 g / cm^3
# Si number density = 27.404757 Si / 1000 Ang^3
#
#
#
# Elastic Constant Matrix: (Units=GPa)
#
#
# Indices 1 2 3 4 5 6 
#
# 1 160.7893 12.2293 22.5045 -5.2211 15.5859 -7.5008
# 2 12.2293 110.9811 50.3909 -4.4046 -1.1766 -16.7268
# 3 22.5045 50.3909 172.9452 -22.4766 8.6759 -1.0869
# 4 -5.2211 -4.4046 -22.4766 65.8340 -9.0036 8.0110
# 5 15.5859 -1.1766 8.6759 -9.0036 35.2334 -12.6314
# 6 -7.5008 -16.7268 -1.0869 8.0110 -12.6314 25.7622
#
#
#
# Elastic Compliance Matrix: (Units=1/GPa)
#
#
# Indices 1 2 3 4 5 6 
#
# 1 0.006611 -0.000434 -0.000612 -0.000123 -0.002701 0.000331
# 2 -0.000434 0.012444 -0.003905 -0.001133 0.005094 0.010638
# 3 -0.000612 -0.003905 0.007418 0.002400 -0.002671 -0.004456
# 4 -0.000123 -0.001133 0.002400 0.016790 0.001947 -0.004937
# 5 -0.002701 0.005094 -0.002671 0.001947 0.038277 0.020570
# 6 0.000331 0.010638 -0.004456 -0.004937 0.020570 0.057253
#
#
# Mechanical properties :
#
#
# Convention : Reuss Voigt Hill
#
# Bulk Modulus (GPa) = 60.35164 68.32943 64.34054
# Shear Modulus (GPa) = 32.42140 49.33865 40.88002
#
# Velocity S-wave (km/s) = 3.44329 4.24768 3.86646
# Velocity P-wave (km/s) = 6.15455 7.00318 6.59254
#
# Compressibility (1/GPa) = 0.01656956
#
# Stress axis : x y z
#
# Youngs Moduli (GPa) = 151.25604 80.36054 134.81567
#
# Poissons Ratio (x) = 0.03489 0.08254
# Poissons Ratio (y) = 0.06567 0.52648
# Poissons Ratio (z) = 0.09261 0.31382
#
# Static dielectric constant tensor:
#      x y z
#    x 2.244980 0.007900 0.050510 
#    y 0.007900 2.263410 0.041540 
#    z 0.050510 0.041540 2.082800 
# 
# From -- ./inp_files/252786.got.cif
#   From: 2010.05.17/outbox.cif.g08.bks.cpg/sg2_127_cif.got.tgz:252786.got - 2010.06.03 11:33:40.
