data_PCOD9091866
_publ_section_title
;
Structure prediction by ZEFSAII (Michael W. Deem and Ramdas Pophale) SiO2 
 PCOD9091866
Probable space group: P -1
;
_chemical_formula_sum "Si O2"
_cell_formula_units_Z 16
_cell_length_a 8.021408
_cell_length_b 6.207009
_cell_length_c 14.682467
_cell_angle_alpha 73.417104
_cell_angle_beta 105.572457
_cell_angle_gamma 113.055836
_cell_volume 634.399531
_symmetry_space_group_name_H-M "P -1"
_symmetry_group_IT_number 2
_symmetry_cell_setting 'triclinic'
loop_
_space_group_symop_operation_xyz
x,y,z
-x,-y,-z
loop_
_atom_site_type_symbol
_atom_site_label
_atom_site_fract_x
_atom_site_fract_y
_atom_site_fract_z
Si Si1 0.054153 0.881195 0.156531
Si Si2 0.514106 0.717619 0.082393
Si Si3 0.356778 0.082961 0.719730
Si Si4 0.174629 0.865683 0.986406
Si Si5 0.962977 0.743999 0.352866
Si Si6 0.261859 0.631272 0.492242
Si Si7 0.428182 0.231122 0.221803
Si Si8 0.387457 0.412665 0.382063
O O1 0.971797 0.712632 0.249451
O O2 0.049643 0.775699 0.068140
O O3 0.270230 0.000702 0.189862
O O4 0.965477 0.092452 0.112705
O O5 0.580841 0.859893 0.171690
O O6 0.318516 0.726061 0.017887
O O7 0.493426 0.450334 0.136023
O O8 0.676652 0.861604 0.021031
O O9 0.149312 0.074854 0.675601
O O10 0.483526 0.313584 0.654806
O O11 0.401218 0.853838 0.721734
O O12 0.846118 0.508225 0.419100
O O13 0.165138 0.811740 0.418491
O O14 0.242017 0.439827 0.429805
O O15 0.476395 0.710669 0.538265
O O16 0.338260 0.307076 0.287749
#
# Coordination Sequence:
#
# PCOD9091866 Si02
#       8
#     2   2   2   2   2   2   2   2
#     4  11  22  39  61  96 127 166 205 268 315 368
#     4  10  21  42  65  88 121 174 212 255 313 372
#     4  10  19  40  62  90 128 169 206 260 311 371
#     4  10  22  41  66  89 129 166 211 258 319 367
#     4  10  20  37  65  86 129 167 201 261 315 368
#     4   9  19  39  66  94 119 168 215 252 319 383
#     4  11  23  38  67  95 125 168 214 255 318 375
#     4   9  20  40  65  92 124 166 212 261 313 377
#
# _framework density 25.220700000000001
#
# number of rings (size 3 to 8) (size 9 to 14) (size 15 to 20)
#    0.000    2.000    2.500    0.750    1.750    1.000 
#    0.000   18.750    0.000    0.000    0.000    0.000 
#    0.000    0.000    0.000    0.000    0.000    0.000 
#
# Total GULP energy -89366.878442 kJ/mol
# GULP energy per Si atom -5585.429903 kJ/mol
# Density = 2.516330 g / cm^3
# Si number density = 25.220700 Si / 1000 Ang^3
#
#
#
# Elastic Constant Matrix: (Units=GPa)
#
#
# Indices 1 2 3 4 5 6 
#
# 1 131.5818 14.1508 53.1294 -15.6705 15.8228 -20.9417
# 2 14.1508 33.8937 13.4417 -5.3277 -0.7272 -5.7206
# 3 53.1294 13.4417 145.9574 -9.9462 -9.3394 -12.6626
# 4 -15.6705 -5.3277 -9.9462 31.8006 -11.0838 5.5146
# 5 15.8228 -0.7272 -9.3394 -11.0838 65.6542 -5.3944
# 6 -20.9417 -5.7206 -12.6626 5.5146 -5.3944 15.3053
#
#
#
# Elastic Compliance Matrix: (Units=1/GPa)
#
#
# Indices 1 2 3 4 5 6 
#
# 1 0.011134 -0.001386 -0.002980 0.001753 -0.001928 0.010939
# 2 -0.001386 0.032668 -0.001413 0.003493 0.001784 0.008515
# 3 -0.002980 -0.001413 0.008553 0.001305 0.002373 0.002837
# 4 0.001753 0.003493 0.001305 0.036295 0.005404 -0.006388
# 5 -0.001928 0.001784 0.002373 0.005404 0.017306 0.004145
# 6 0.010939 0.008515 0.002837 -0.006388 0.004145 0.089597
#
#
# Mechanical properties :
#
#
# Convention : Reuss Voigt Hill
#
# Bulk Modulus (GPa) = 24.51201 52.54185 38.52693
# Shear Modulus (GPa) = 22.65429 37.93275 30.29352
#
# Velocity S-wave (km/s) = 3.00032 3.88239 3.46950
# Velocity P-wave (km/s) = 4.66290 6.40120 5.59991
#
# Compressibility (1/GPa) = 0.04079633
#
# Stress axis : x y z
#
# Youngs Moduli (GPa) = 89.81677 30.61140 116.91799
#
# Poissons Ratio (x) = 0.04243 0.34841
# Poissons Ratio (y) = 0.12449 0.16521
# Poissons Ratio (z) = 0.26765 0.04325
#
# Static dielectric constant tensor:
#      x y z
#    x 2.047870 -0.012130 0.024510 
#    y -0.012130 1.985250 0.045950 
#    z 0.024510 0.045950 2.035750 
# 
# From -- ./inp_files/552388.got.cif
#   From: 2010.05.17/outbox.cif.g08.bks.cpg/sg2_277_cif.got.tgz:552388.got - 2010.06.03 11:33:40.
