data_PCOD9091045
_publ_section_title
;
Structure prediction by ZEFSAII (Michael W. Deem and Ramdas Pophale) SiO2 
 PCOD9091045
Probable space group: P -1
;
_chemical_formula_sum "Si O2"
_cell_formula_units_Z 14
_cell_length_a 7.406540
_cell_length_b 9.060570
_cell_length_c 18.039489
_cell_angle_alpha 141.366279
_cell_angle_beta 47.493707
_cell_angle_gamma 128.774918
_cell_volume 544.291399
_symmetry_space_group_name_H-M "P -1"
_symmetry_group_IT_number 2
_symmetry_cell_setting 'triclinic'
loop_
_space_group_symop_operation_xyz
x,y,z
-x,-y,-z
loop_
_atom_site_type_symbol
_atom_site_label
_atom_site_fract_x
_atom_site_fract_y
_atom_site_fract_z
Si Si1 0.704997 0.389763 0.840335
Si Si2 0.865933 0.770057 0.403329
Si Si3 0.354523 0.874637 0.903345
Si Si4 0.132977 0.761828 0.100715
Si Si5 0.091032 0.901517 0.617443
Si Si6 0.794183 0.869742 0.085112
Si Si7 0.395334 0.478586 0.384108
O O1 0.802982 0.299070 0.855275
O O2 0.431773 0.232776 0.835999
O O3 0.916462 0.377093 0.718934
O O4 0.713147 0.664853 0.963408
O O5 0.610312 0.596582 0.427792
O O6 0.808706 0.892929 0.389687
O O7 0.000000 0.000000 0.500000
O O8 0.468227 0.632498 0.766790
O O9 0.589787 0.091818 0.944452
O O10 0.263259 0.904877 0.854956
O O11 0.087677 0.872471 0.018548
O O12 0.955417 0.955950 0.238529
O O13 0.000000 0.500000 0.000000
O O14 0.252778 0.695974 0.492935
O O15 0.810235 0.747885 0.617732
#
# Coordination Sequence:
#
# PCOD9091045 Si02
#       7
#     2   2   2   2   2   2   2
#     4   9  18  34  57  80 115 150 188 247 295 349
#     4  11  22  38  62  92 119 157 202 251 300 355
#     4   9  17  31  60  81 110 154 191 240 298 351
#     4   9  18  35  57  85 116 149 196 245 295 358
#     4   9  21  39  64  86 120 167 195 246 305 353
#     4   9  16  32  56  81 107 150 189 235 302 347
#     4  10  19  39  63  84 123 159 205 242 300 365
#
# _framework density 25.721516999999999
#
# number of rings (size 3 to 8) (size 9 to 14) (size 15 to 20)
#    0.000    2.571    1.429    1.286    0.000    0.571 
#    7.714    0.714    6.286    0.000    0.000    0.000 
#    0.000    0.000    0.000    0.000    0.000    0.000 
#
# Total GULP energy -78035.303552 kJ/mol
# GULP energy per Si atom -5573.950254 kJ/mol
# Density = 2.566297 g / cm^3
# Si number density = 25.721517 Si / 1000 Ang^3
#
#
#
# Elastic Constant Matrix: (Units=GPa)
#
#
# Indices 1 2 3 4 5 6 
#
# 1 88.7330 58.7580 38.7444 -0.7016 -15.4082 59.2849
# 2 58.7580 154.2065 50.6516 7.6314 3.5211 54.7357
# 3 38.7444 50.6516 115.4100 17.7127 -32.7044 20.3834
# 4 -0.7016 7.6314 17.7127 37.7497 6.8580 -3.5250
# 5 -15.4082 3.5211 -32.7044 6.8580 35.9393 6.3722
# 6 59.2849 54.7357 20.3834 -3.5250 6.3722 56.4324
#
#
#
# Elastic Compliance Matrix: (Units=1/GPa)
#
#
# Indices 1 2 3 4 5 6 
#
# 1 0.109947 -0.001046 0.020929 -0.037931 0.097536 -0.135432
# 2 -0.001046 0.011128 -0.004261 -0.000264 -0.003997 -0.007720
# 3 0.020929 -0.004261 0.023916 -0.020404 0.040787 -0.032373
# 4 -0.037931 -0.000264 -0.020404 0.050623 -0.054534 0.056795
# 5 0.097536 -0.003997 0.040787 -0.054534 0.141076 -0.132658
# 6 -0.135432 -0.007720 -0.032373 0.056795 -0.132658 0.197706
#
#
# Mechanical properties :
#
#
# Convention : Reuss Voigt Hill
#
# Bulk Modulus (GPa) = 5.67428 72.73972 39.20700
# Shear Modulus (GPa) = 8.89845 40.03732 24.46789
#
# Velocity S-wave (km/s) = 1.86200 3.94962 3.08760
# Velocity P-wave (km/s) = 2.61411 7.01002 5.29027
#
# Compressibility (1/GPa) = 0.17623379
#
# Stress axis : x y z
#
# Youngs Moduli (GPa) = 9.09532 89.86592 41.81324
#
# Poissons Ratio (x) = 0.09403 -0.87513
# Poissons Ratio (y) = 0.00952 0.17817
# Poissons Ratio (z) = -0.19036 0.38294
#
# Static dielectric constant tensor:
#      x y z
#    x 2.911990 -0.200990 -0.114120 
#    y -0.200990 2.079300 -0.033930 
#    z -0.114120 -0.033930 2.170400 
# 
# From -- ./inp_files/167924.got.cif
#   From: 2010.05.17/outbox.cif.g08.bks.cpg/sg2_84_cif.got.tgz:167924.got - 2010.06.03 11:33:40.
