data_PCOD9091792
_publ_section_title
;
Structure prediction by ZEFSAII (Michael W. Deem and Ramdas Pophale) SiO2 
 PCOD9091792
Probable space group: P -1
;
_chemical_formula_sum "Si O2"
_cell_formula_units_Z 16
_cell_length_a 14.411395
_cell_length_b 16.268104
_cell_length_c 13.299043
_cell_angle_alpha 39.148132
_cell_angle_beta 159.058291
_cell_angle_gamma 141.613953
_cell_volume 678.602393
_symmetry_space_group_name_H-M "P -1"
_symmetry_group_IT_number 2
_symmetry_cell_setting 'triclinic'
loop_
_space_group_symop_operation_xyz
x,y,z
-x,-y,-z
loop_
_atom_site_type_symbol
_atom_site_label
_atom_site_fract_x
_atom_site_fract_y
_atom_site_fract_z
Si Si1 0.686400 0.801731 0.601092
Si Si2 0.591473 0.632630 0.033661
Si Si3 0.636348 0.656118 0.478607
Si Si4 0.952432 0.470986 0.307812
Si Si5 0.761872 0.090159 0.438324
Si Si6 0.184306 0.775208 0.262105
Si Si7 0.263482 0.071705 0.093763
Si Si8 0.860281 0.328476 0.159721
O O1 0.631780 0.716797 0.526168
O O2 0.452888 0.767504 0.481949
O O3 0.709149 0.954821 0.449030
O O4 0.962932 0.793235 0.940298
O O5 0.855490 0.614150 0.372523
O O6 0.641797 0.781788 0.893039
O O7 0.500000 0.500000 0.000000
O O8 0.348510 0.605389 0.892824
O O9 0.500000 0.500000 0.500000
O O10 0.931936 0.673570 0.716478
O O11 0.440558 0.702295 0.158007
O O12 0.051893 0.622419 0.311748
O O13 0.952323 0.465141 0.191425
O O14 0.870298 0.213769 0.358271
O O15 0.976958 0.074153 0.755210
O O16 0.485297 0.090499 0.212777
O O17 0.237060 0.914963 0.249498
#
# Coordination Sequence:
#
# PCOD9091792 Si02
#       8
#     2   2   2   2   2   2   2   2
#     4  10  21  38  56  85 122 155 201 242 298 334
#     4  12  24  41  65  92 122 150 186 247 302 351
#     4  12  24  36  52  81 120 157 194 249 300 331
#     4  12  23  41  63  93 116 152 208 237 284 364
#     4  10  20  36  61  83 110 158 200 242 283 348
#     4  10  21  38  65  84 118 164 198 241 282 349
#     4  10  19  40  60  88 118 154 194 232 298 355
#     4  12  22  36  60  80 114 154 203 242 288 340
#
# _framework density 23.577870999999998
#
# number of rings (size 3 to 8) (size 9 to 14) (size 15 to 20)
#    0.000    1.000    2.500    5.250    0.000    1.000 
#    0.000    1.250    0.000    0.000    0.000    0.000 
#    0.000    0.000    0.000    0.000    0.000    0.000 
#
# Total GULP energy -89458.377116 kJ/mol
# GULP energy per Si atom -5591.148570 kJ/mol
# Density = 2.352421 g / cm^3
# Si number density = 23.577871 Si / 1000 Ang^3
#
#
#
# Elastic Constant Matrix: (Units=GPa)
#
#
# Indices 1 2 3 4 5 6 
#
# 1 78.3255 44.7971 61.9936 33.5376 18.5396 -4.4335
# 2 44.7971 207.2745 61.7479 34.6730 12.6956 -0.2578
# 3 61.9936 61.7479 220.8638 156.9664 37.3032 27.1255
# 4 33.5376 34.6730 156.9664 202.2109 36.8708 46.9846
# 5 18.5396 12.6956 37.3032 36.8708 29.3833 9.4671
# 6 -4.4335 -0.2578 27.1255 46.9846 9.4671 57.0598
#
#
#
# Elastic Compliance Matrix: (Units=1/GPa)
#
#
# Indices 1 2 3 4 5 6 
#
# 1 0.019715 -0.002504 -0.005187 0.001792 -0.008272 0.003883
# 2 -0.002504 0.005638 -0.001079 0.000220 0.000195 0.000130
# 3 -0.005187 -0.001079 0.012610 -0.008665 -0.001724 0.001019
# 4 0.001792 0.000220 -0.008665 0.013778 -0.005526 -0.006169
# 5 -0.008272 0.000195 -0.001724 -0.005526 0.049409 -0.003470
# 6 0.003883 0.000130 0.001019 -0.006169 -0.003470 0.022998
#
#
# Mechanical properties :
#
#
# Convention : Reuss Voigt Hill
#
# Bulk Modulus (GPa) = 48.96324 93.72676 71.34500
# Shear Modulus (GPa) = 33.67063 80.25914 56.96488
#
# Velocity S-wave (km/s) = 3.78307 5.84071 4.92065
# Velocity P-wave (km/s) = 6.31616 9.23707 7.91256
#
# Compressibility (1/GPa) = 0.02042348
#
# Stress axis : x y z
#
# Youngs Moduli (GPa) = 50.72157 177.35227 79.30276
#
# Poissons Ratio (x) = 0.44409 0.41136
# Poissons Ratio (y) = 0.12701 0.08557
# Poissons Ratio (z) = 0.26310 0.19136
#
# Static dielectric constant tensor:
#      x y z
#    x 1.904340 -0.050940 -0.071000 
#    y -0.050940 1.996850 -0.009140 
#    z -0.071000 -0.009140 1.948810 
# 
# From -- ./inp_files/485603.got.cif
#   From: 2010.05.17/outbox.cif.g08.bks.cpg/sg2_243_cif.got.tgz:485603.got - 2010.06.03 11:33:40.
