data_PCOD9091482
_publ_section_title
;
Structure prediction by ZEFSAII (Michael W. Deem and Ramdas Pophale) SiO2 
 PCOD9091482
Probable space group: P -1
;
_chemical_formula_sum "Si O2"
_cell_formula_units_Z 12
_cell_length_a 9.070786
_cell_length_b 7.807077
_cell_length_c 10.245559
_cell_angle_alpha 104.459842
_cell_angle_beta 134.636066
_cell_angle_gamma 65.854488
_cell_volume 470.326329
_symmetry_space_group_name_H-M "P -1"
_symmetry_group_IT_number 2
_symmetry_cell_setting 'triclinic'
loop_
_space_group_symop_operation_xyz
x,y,z
-x,-y,-z
loop_
_atom_site_type_symbol
_atom_site_label
_atom_site_fract_x
_atom_site_fract_y
_atom_site_fract_z
Si Si1 0.021921 0.698712 0.664698
Si Si2 0.367192 0.941623 0.187581
Si Si3 0.448419 0.758104 0.927581
Si Si4 0.079828 0.885070 0.200494
Si Si5 0.954122 0.564289 0.134439
Si Si6 0.218810 0.055093 0.632739
O O1 0.280690 0.643099 0.784151
O O2 0.970635 0.588272 0.732890
O O3 0.884347 0.732489 0.450739
O O4 0.960459 0.913626 0.721586
O O5 0.302447 0.838319 0.248129
O O6 0.564148 0.024492 0.342317
O O7 0.446992 0.803418 0.088068
O O8 0.130948 0.085894 0.021387
O O9 0.337695 0.957033 0.821222
O O10 0.690975 0.654908 0.006611
O O11 0.068404 0.721717 0.256511
O O12 0.000000 0.500000 0.000000
O O13 0.000000 0.000000 0.500000
#
# Coordination Sequence:
#
# PCOD9091482 Si02
#       6
#     2   2   2   2   2   2
#     4  10  24  41  64  98 131 162 212 262 322 373
#     4  10  19  39  66  94 121 174 215 252 314 382
#     4  10  21  39  68  90 126 172 216 260 307 381
#     4  10  22  40  67  94 128 167 212 262 311 376
#     4  12  23  40  66  97 124 167 223 260 307 380
#     4  10  21  37  65  97 128 168 208 260 324 375
#
# _framework density 25.514201
#
# number of rings (size 3 to 8) (size 9 to 14) (size 15 to 20)
#    0.000    1.667    1.667    4.000    4.667    0.667 
#    0.000    1.667    7.333    0.000    0.000    0.000 
#    0.000    0.000    0.000    0.000    0.000    0.000 
#
# Total GULP energy -66962.314356 kJ/mol
# GULP energy per Si atom -5580.192863 kJ/mol
# Density = 2.545613 g / cm^3
# Si number density = 25.514201 Si / 1000 Ang^3
#
#
#
# Elastic Constant Matrix: (Units=GPa)
#
#
# Indices 1 2 3 4 5 6 
#
# 1 248.3332 70.0723 65.5167 -13.0972 8.3934 27.4822
# 2 70.0723 107.6455 34.7359 -15.2066 -19.1382 28.1510
# 3 65.5167 34.7359 126.8723 -12.1335 -0.0987 17.7751
# 4 -13.0972 -15.2066 -12.1335 28.1849 15.4047 -11.2647
# 5 8.3934 -19.1382 -0.0987 15.4047 48.7694 -4.2536
# 6 27.4822 28.1510 17.7751 -11.2647 -4.2536 62.0868
#
#
#
# Elastic Compliance Matrix: (Units=1/GPa)
#
#
# Indices 1 2 3 4 5 6 
#
# 1 0.005643 -0.003259 -0.001830 0.001398 -0.002733 -0.000430
# 2 -0.003259 0.014023 -0.001518 0.000838 0.005451 -0.003956
# 3 -0.001830 -0.001518 0.009627 0.002810 -0.001221 -0.000832
# 4 0.001398 0.000838 0.002810 0.048138 -0.014594 0.005931
# 5 -0.002733 0.005451 -0.001221 -0.014594 0.027576 -0.001671
# 6 -0.000430 -0.003956 -0.000832 0.005931 -0.001671 0.019290
#
#
# Mechanical properties :
#
#
# Convention : Reuss Voigt Hill
#
# Bulk Modulus (GPa) = 62.19164 91.50009 76.84586
# Shear Modulus (GPa) = 34.99707 48.64331 41.82019
#
# Velocity S-wave (km/s) = 3.70762 4.37111 4.05297
# Velocity P-wave (km/s) = 6.53887 7.83682 7.21708
#
# Compressibility (1/GPa) = 0.01607933
#
# Stress axis : x y z
#
# Youngs Moduli (GPa) = 177.21730 71.31292 103.87618
#
# Poissons Ratio (x) = 0.23238 0.19009
# Poissons Ratio (y) = 0.57748 0.15768
# Poissons Ratio (z) = 0.32430 0.10825
#
# Static dielectric constant tensor:
#      x y z
#    x 2.029900 0.021170 -0.005800 
#    y 0.021170 2.140730 0.107790 
#    z -0.005800 0.107790 2.254860 
# 
# From -- ./inp_files/210944.got.cif
#   From: 2010.05.17/outbox.cif.g08.bks.cpg/sg2_106_cif.got.tgz:210944.got - 2010.06.03 11:33:40.
