data_PCOD9091140
_publ_section_title
;
Structure prediction by ZEFSAII (Michael W. Deem and Ramdas Pophale) SiO2 
 PCOD9091140
Probable space group: P -1
;
_chemical_formula_sum "Si O2"
_cell_formula_units_Z 16
_cell_length_a 12.788256
_cell_length_b 9.984742
_cell_length_c 9.559202
_cell_angle_alpha 112.610570
_cell_angle_beta 119.597101
_cell_angle_gamma 55.247122
_cell_volume 862.908839
_symmetry_space_group_name_H-M "P -1"
_symmetry_group_IT_number 2
_symmetry_cell_setting 'triclinic'
loop_
_space_group_symop_operation_xyz
x,y,z
-x,-y,-z
loop_
_atom_site_type_symbol
_atom_site_label
_atom_site_fract_x
_atom_site_fract_y
_atom_site_fract_z
Si Si1 0.808236 0.699231 0.804048
Si Si2 0.223615 0.505058 0.046664
Si Si3 0.222777 0.384746 0.696743
Si Si4 0.384830 0.645313 0.388704
Si Si5 0.089684 0.855990 0.394234
Si Si6 0.022106 0.129955 0.973735
Si Si7 0.953501 0.407766 0.578226
Si Si8 0.563991 0.806160 0.476825
O O1 0.814836 0.602765 0.913569
O O2 0.913062 0.572878 0.707615
O O3 0.663629 0.752383 0.656015
O O4 0.842416 0.849556 0.908088
O O5 0.330095 0.551089 0.211203
O O6 0.095555 0.683095 0.005952
O O7 0.266167 0.419182 0.889653
O O8 0.128428 0.544899 0.602609
O O9 0.345772 0.273433 0.633144
O O10 0.114949 0.316032 0.622856
O O11 0.500000 0.500000 0.500000
O O12 0.250120 0.787698 0.436014
O O13 0.456690 0.738343 0.396916
O O14 0.092518 0.694819 0.396285
O O15 0.003039 0.905600 0.215091
O O16 0.000000 0.000000 0.500000
O O17 0.000000 0.000000 0.000000
O O18 0.500000 0.000000 0.500000
#
# Coordination Sequence:
#
# PCOD9091140 Si02
#       8
#     2   2   2   2   2   2   2   2
#     4  11  20  43  67  90 126 171 212 257 325 394
#     4  11  21  40  68  93 123 166 223 267 309 387
#     4  10  22  36  65  93 121 161 216 262 309 382
#     4  11  22  46  66  89 127 178 220 251 321 396
#     4  11  25  39  66  96 131 164 212 276 331 374
#     4  11  24  37  62 100 132 161 207 275 334 366
#     4  10  19  39  63  95 122 163 210 260 321 387
#     4  11  26  42  62  89 130 176 208 256 325 386
#
# _framework density 18.541936
#
# number of rings (size 3 to 8) (size 9 to 14) (size 15 to 20)
#    0.000    1.250    5.000    1.875    7.000    0.500 
#    0.000    1.875    0.000    0.000    0.000    0.000 
#    0.000    0.000    0.000    0.000    0.000    0.000 
#
# Total GULP energy -89214.056090 kJ/mol
# GULP energy per Si atom -5575.878506 kJ/mol
# Density = 1.849973 g / cm^3
# Si number density = 18.541936 Si / 1000 Ang^3
#
#
#
# Elastic Constant Matrix: (Units=GPa)
#
#
# Indices 1 2 3 4 5 6 
#
# 1 148.6323 43.0341 53.1353 9.0031 -1.9289 6.7783
# 2 43.0341 66.7587 41.5549 7.2351 -10.2990 9.6789
# 3 53.1353 41.5549 124.3178 0.0009 -9.4384 -1.0873
# 4 9.0031 7.2351 0.0009 20.0623 2.4216 -6.5493
# 5 -1.9289 -10.2990 -9.4384 2.4216 35.1477 3.9294
# 6 6.7783 9.6789 -1.0873 -6.5493 3.9294 40.2098
#
#
#
# Elastic Compliance Matrix: (Units=1/GPa)
#
#
# Indices 1 2 3 4 5 6 
#
# 1 0.008995 -0.003855 -0.002644 -0.002856 -0.001034 -0.001024
# 2 -0.003855 0.024633 -0.006126 -0.010556 0.006966 -0.007845
# 3 -0.002644 -0.006126 0.011283 0.004277 0.000473 0.002876
# 4 -0.002856 -0.010556 0.004277 0.060356 -0.007795 0.013730
# 5 -0.001034 0.006966 0.000473 -0.007795 0.031755 -0.005862
# 6 -0.001024 -0.007845 0.002876 0.013730 -0.005862 0.029818
#
#
# Mechanical properties :
#
#
# Convention : Reuss Voigt Hill
#
# Bulk Modulus (GPa) = 50.85851 68.35082 59.60466
# Shear Modulus (GPa) = 25.17064 32.54960 28.86012
#
# Velocity S-wave (km/s) = 3.68842 4.19436 3.94950
# Velocity P-wave (km/s) = 6.75483 7.77173 7.28105
#
# Compressibility (1/GPa) = 0.01966239
#
# Stress axis : x y z
#
# Youngs Moduli (GPa) = 111.16700 40.59519 88.63071
#
# Poissons Ratio (x) = 0.15648 0.23433
# Poissons Ratio (y) = 0.42850 0.54298
# Poissons Ratio (z) = 0.29391 0.24870
#
# Static dielectric constant tensor:
#      x y z
#    x 1.595590 -0.011600 0.000870 
#    y -0.011600 1.657400 0.004990 
#    z 0.000870 0.004990 1.684020 
# 
# From -- ./inp_files/242877.got.cif
#   From: 2010.05.17/outbox.cif.g08.bks.cpg/sg2_122_cif.got.tgz:242877.got - 2010.06.03 11:33:40.
