data_PCOD9091912
_publ_section_title
;
Structure prediction by ZEFSAII (Michael W. Deem and Ramdas Pophale) SiO2 
 PCOD9091912
Probable space group: P -1
;
_chemical_formula_sum "Si O2"
_cell_formula_units_Z 14
_cell_length_a 9.023669
_cell_length_b 16.337737
_cell_length_c 10.966113
_cell_angle_alpha 148.443789
_cell_angle_beta 92.783281
_cell_angle_gamma 65.222292
_cell_volume 584.162242
_symmetry_space_group_name_H-M "P -1"
_symmetry_group_IT_number 2
_symmetry_cell_setting 'triclinic'
loop_
_space_group_symop_operation_xyz
x,y,z
-x,-y,-z
loop_
_atom_site_type_symbol
_atom_site_label
_atom_site_fract_x
_atom_site_fract_y
_atom_site_fract_z
Si Si1 0.632080 0.804100 0.363157
Si Si2 0.986196 0.194377 0.219808
Si Si3 0.401476 0.343189 0.209775
Si Si4 0.477901 0.423248 0.052456
Si Si5 0.837275 0.115183 0.490384
Si Si6 0.141069 0.121663 0.385654
Si Si7 0.249073 0.117707 0.915479
O O1 0.653426 0.613710 0.071923
O O2 0.500000 0.000000 0.500000
O O3 0.820341 0.768411 0.376959
O O4 0.486194 0.901006 0.600954
O O5 0.758124 0.411565 0.423411
O O6 0.996999 0.264685 0.443295
O O7 0.171711 0.119082 0.045175
O O8 0.000000 0.000000 0.000000
O O9 0.470570 0.373010 0.125180
O O10 0.633102 0.103117 0.954228
O O11 0.250622 0.303321 0.142435
O O12 0.716282 0.242100 0.773535
O O13 0.351539 0.679277 0.348793
O O14 0.881371 0.897390 0.200413
O O15 0.035134 0.064328 0.386822
#
# Coordination Sequence:
#
# PCOD9091912 Si02
#       7
#     2   2   2   2   2   2   2
#     4  10  20  39  65  94 129 164 209 265 312 377
#     4  12  24  45  66  92 134 164 216 270 313 380
#     4  11  23  41  68  94 125 172 213 263 321 375
#     4  10  19  40  63  91 135 165 205 266 314 377
#     4  10  21  38  65  96 125 170 210 256 326 370
#     4  11  23  40  68  97 124 173 214 258 323 377
#     4  10  21  41  66  91 129 171 207 268 318 368
#
# _framework density 23.965945999999999
#
# number of rings (size 3 to 8) (size 9 to 14) (size 15 to 20)
#    0.000    1.429    5.714    0.429    0.000    4.000 
#    0.000    0.000    9.429    0.000    0.000    0.000 
#    0.000    0.000    0.000    0.000    0.000    0.000 
#
# Total GULP energy -78044.608663 kJ/mol
# GULP energy per Si atom -5574.614904 kJ/mol
# Density = 2.391140 g / cm^3
# Si number density = 23.965946 Si / 1000 Ang^3
#
#
#
# Elastic Constant Matrix: (Units=GPa)
#
#
# Indices 1 2 3 4 5 6 
#
# 1 137.2181 18.4669 34.4584 -1.9935 -10.1163 31.5500
# 2 18.4669 79.6736 13.0926 -5.0926 -15.7053 22.2427
# 3 34.4584 13.0926 87.5054 7.5641 -9.1117 11.2690
# 4 -1.9935 -5.0926 7.5641 36.0146 14.4567 -2.9351
# 5 -10.1163 -15.7053 -9.1117 14.4567 40.2047 -5.7854
# 6 31.5500 22.2427 11.2690 -2.9351 -5.7854 45.4316
#
#
#
# Elastic Compliance Matrix: (Units=1/GPa)
#
#
# Indices 1 2 3 4 5 6 
#
# 1 0.009387 0.000074 -0.002924 0.000368 0.000775 -0.005707
# 2 0.000074 0.015559 -0.000953 -0.000138 0.004950 -0.006811
# 3 -0.002924 -0.000953 0.013582 -0.004625 0.003529 -0.000722
# 4 0.000368 -0.000138 -0.004625 0.034102 -0.013056 0.001500
# 5 0.000775 0.004950 0.003529 -0.013056 0.032416 -0.000552
# 6 -0.005707 -0.006811 -0.000722 0.001500 -0.000552 0.029515
#
#
# Mechanical properties :
#
#
# Convention : Reuss Voigt Hill
#
# Bulk Modulus (GPa) = 32.33776 48.49253 40.41514
# Shear Modulus (GPa) = 32.79296 40.22215 36.50755
#
# Velocity S-wave (km/s) = 3.70309 4.10116 3.90719
# Velocity P-wave (km/s) = 5.63971 6.53482 6.10369
#
# Compressibility (1/GPa) = 0.03092360
#
# Stress axis : x y z
#
# Youngs Moduli (GPa) = 106.53546 64.27135 73.62765
#
# Poissons Ratio (x) = -0.00478 0.21526
# Poissons Ratio (y) = -0.00792 0.07014
# Poissons Ratio (z) = 0.31146 0.06123
#
# Static dielectric constant tensor:
#      x y z
#    x 1.984130 -0.057540 0.015970 
#    y -0.057540 1.901610 0.016860 
#    z 0.015970 0.016860 1.997810 
# 
# From -- ./inp_files/402491.got.cif
#   From: 2010.05.17/outbox.cif.g08.bks.cpg/sg2_202_cif.got.tgz:402491.got - 2010.06.03 11:33:40.
