data_PCOD9091107
_publ_section_title
;
Structure prediction by ZEFSAII (Michael W. Deem and Ramdas Pophale) SiO2 
 PCOD9091107
Probable space group: P -1
;
_chemical_formula_sum "Si O2"
_cell_formula_units_Z 10
_cell_length_a 9.787181
_cell_length_b 9.361710
_cell_length_c 9.868867
_cell_angle_alpha 43.626215
_cell_angle_beta 39.947137
_cell_angle_gamma 62.968882
_cell_volume 390.142707
_symmetry_space_group_name_H-M "P -1"
_symmetry_group_IT_number 2
_symmetry_cell_setting 'triclinic'
loop_
_space_group_symop_operation_xyz
x,y,z
-x,-y,-z
loop_
_atom_site_type_symbol
_atom_site_label
_atom_site_fract_x
_atom_site_fract_y
_atom_site_fract_z
Si Si1 0.116889 0.340803 0.244813
Si Si2 0.895227 0.202364 0.071064
Si Si3 0.156238 0.258947 0.574548
Si Si4 0.614910 0.690882 0.375180
Si Si5 0.343987 0.966290 0.271130
O O1 0.115372 0.359085 0.396713
O O2 0.878165 0.213220 0.464345
O O3 0.276668 0.187131 0.197095
O O4 0.172885 0.582765 0.983651
O O5 0.776215 0.963327 0.357081
O O6 0.941932 0.205094 0.870917
O O7 0.140360 0.224038 0.929107
O O8 0.334262 0.378853 0.463974
O O9 0.500000 0.500000 0.500000
O O10 0.480151 0.871969 0.345126
O O11 0.500000 0.000000 0.000000
#
# Coordination Sequence:
#
# PCOD9091107 Si02
#       5
#     2   2   2   2   2
#     4  11  22  42  67  93 127 177 214 259 330 383
#     4   9  19  38  66  94 126 172 210 260 322 384
#     4   9  20  38  67  91 131 168 215 259 322 386
#     4  10  19  39  63  91 129 167 207 268 321 368
#     4  11  24  41  63  96 132 163 219 277 314 381
#
# _framework density 25.631647000000001
#
# number of rings (size 3 to 8) (size 9 to 14) (size 15 to 20)
#    1.200    0.800    2.000    1.800    0.000    0.800 
#    3.600    4.000    0.000    0.000    0.000    0.000 
#    0.000    0.000    0.000    0.000    0.000    0.000 
#
# Total GULP energy -55927.774021 kJ/mol
# GULP energy per Si atom -5592.777402 kJ/mol
# Density = 2.557331 g / cm^3
# Si number density = 25.631647 Si / 1000 Ang^3
#
#
#
# Elastic Constant Matrix: (Units=GPa)
#
#
# Indices 1 2 3 4 5 6 
#
# 1 99.9924 3.3763 8.2627 -10.8983 -15.3840 -12.1501
# 2 3.3763 149.8405 10.9860 -22.1923 -1.8892 -21.2267
# 3 8.2627 10.9860 43.9336 -9.4720 3.7226 5.2648
# 4 -10.8983 -22.1923 -9.4720 47.2730 3.6005 -3.9332
# 5 -15.3840 -1.8892 3.7226 3.6005 34.9390 -9.7106
# 6 -12.1501 -21.2267 5.2648 -3.9332 -9.7106 40.2528
#
#
#
# Elastic Compliance Matrix: (Units=1/GPa)
#
#
# Indices 1 2 3 4 5 6 
#
# 1 0.012647 0.001544 -0.003664 0.002920 0.007762 0.007268
# 2 0.001544 0.008345 -0.002472 0.004091 0.002708 0.006243
# 3 -0.003664 -0.002472 0.026194 0.003168 -0.006860 -0.007181
# 4 0.002920 0.004091 0.003168 0.024801 0.000018 0.005052
# 5 0.007762 0.002708 -0.006860 0.000018 0.036671 0.013516
# 6 0.007268 0.006243 -0.007181 0.005052 0.013516 0.035022
#
#
# Mechanical properties :
#
#
# Convention : Reuss Voigt Hill
#
# Bulk Modulus (GPa) = 26.31567 37.66850 31.99208
# Shear Modulus (GPa) = 30.20571 42.56905 36.38738
#
# Velocity S-wave (km/s) = 3.43659 4.07971 3.77188
# Velocity P-wave (km/s) = 5.10255 6.07619 5.61053
#
# Compressibility (1/GPa) = 0.03800017
#
# Stress axis : x y z
#
# Youngs Moduli (GPa) = 79.07073 119.83710 38.17707
#
# Poissons Ratio (x) = -0.18498 0.13987
# Poissons Ratio (y) = -0.12205 0.09439
# Poissons Ratio (z) = 0.28969 0.29629
#
# Static dielectric constant tensor:
#      x y z
#    x 2.061420 0.028110 0.043270 
#    y 0.028110 2.043800 0.041830 
#    z 0.043270 0.041830 2.064290 
# 
# From -- ./inp_files/155958.got.cif
#   From: 2010.05.17/outbox.cif.g08.bks.cpg/sg2_78_cif.got.tgz:155958.got - 2010.06.03 11:33:40.
