data_PCOD9091260
_publ_section_title
;
Structure prediction by ZEFSAII (Michael W. Deem and Ramdas Pophale) SiO2 
 PCOD9091260
Probable space group: P -1
;
_chemical_formula_sum "Si O2"
_cell_formula_units_Z 14
_cell_length_a 10.615604
_cell_length_b 17.179386
_cell_length_c 12.047792
_cell_angle_alpha 30.980931
_cell_angle_beta 126.943237
_cell_angle_gamma 144.151717
_cell_volume 629.395329
_symmetry_space_group_name_H-M "P -1"
_symmetry_group_IT_number 2
_symmetry_cell_setting 'triclinic'
loop_
_space_group_symop_operation_xyz
x,y,z
-x,-y,-z
loop_
_atom_site_type_symbol
_atom_site_label
_atom_site_fract_x
_atom_site_fract_y
_atom_site_fract_z
Si Si1 0.105830 0.525984 0.671411
Si Si2 0.293674 0.967476 0.900638
Si Si3 0.466075 0.800524 0.700558
Si Si4 0.600811 0.810190 0.526996
Si Si5 0.508419 0.566006 0.180979
Si Si6 0.970111 0.768334 0.262899
Si Si7 0.690770 0.784667 0.217548
O O1 0.215341 0.608239 0.751270
O O2 0.333762 0.668048 0.546188
O O3 0.990188 0.604906 0.486735
O O4 0.931199 0.269298 0.885768
O O5 0.271568 0.988822 0.732818
O O6 0.348176 0.164279 0.748777
O O7 0.500000 0.000000 0.000000
O O8 0.629263 0.855575 0.618187
O O9 0.500000 0.000000 0.500000
O O10 0.491716 0.708454 0.930164
O O11 0.628287 0.658125 0.682832
O O12 0.768401 0.685926 0.176603
O O13 0.481192 0.579781 0.282523
O O14 0.886062 0.792355 0.302131
O O15 0.201674 0.002080 0.058260
#
# Coordination Sequence:
#
# PCOD9091260 Si02
#       7
#     2   2   2   2   2   2   2
#     4  10  23  42  66  98 130 173 214 269 328 376
#     4  12  24  40  65 103 133 166 218 275 323 384
#     4  10  23  41  70  91 131 173 221 265 327 389
#     4  10  24  40  68  92 133 171 219 262 327 384
#     4  10  19  39  64  94 126 177 208 265 325 385
#     4   9  18  36  63  96 125 167 217 259 318 383
#     4   9  21  34  65  94 132 162 223 259 327 379
#
# _framework density 22.243569000000001
#
# number of rings (size 3 to 8) (size 9 to 14) (size 15 to 20)
#    1.714    0.286    0.000    3.857    2.000    2.286 
#    0.000    1.429    0.000    0.000    0.000    0.000 
#    0.000    0.000    0.000    0.000    0.000    0.000 
#
# Total GULP energy -78020.127204 kJ/mol
# GULP energy per Si atom -5572.866229 kJ/mol
# Density = 2.219294 g / cm^3
# Si number density = 22.243569 Si / 1000 Ang^3
#
#
#
# Elastic Constant Matrix: (Units=GPa)
#
#
# Indices 1 2 3 4 5 6 
#
# 1 52.0190 3.7634 15.8328 -10.6483 6.2405 -16.5278
# 2 3.7634 62.3255 6.9079 -3.0413 12.2219 -14.0009
# 3 15.8328 6.9079 89.1532 -8.7149 18.1106 5.2977
# 4 -10.6483 -3.0413 -8.7149 37.3759 -2.3163 7.3556
# 5 6.2405 12.2219 18.1106 -2.3163 38.3261 -6.3588
# 6 -16.5278 -14.0009 5.2977 7.3556 -6.3588 32.7783
#
#
#
# Elastic Compliance Matrix: (Units=1/GPa)
#
#
# Indices 1 2 3 4 5 6 
#
# 1 0.025866 0.002351 -0.005287 0.003554 0.000094 0.014122
# 2 0.002351 0.018851 -0.001549 -0.000131 -0.004227 0.008697
# 3 -0.005287 -0.001549 0.014313 0.002784 -0.006489 -0.007524
# 4 0.003554 -0.000131 0.002784 0.029429 -0.000988 -0.005509
# 5 0.000094 -0.004227 -0.006489 -0.000988 0.031359 0.005596
# 6 0.014122 0.008697 -0.007524 -0.005509 0.005596 0.044882
#
#
# Mechanical properties :
#
#
# Convention : Reuss Voigt Hill
#
# Bulk Modulus (GPa) = 19.97576 28.50066 24.23821
# Shear Modulus (GPa) = 26.26664 33.49563 29.88114
#
# Velocity S-wave (km/s) = 3.44010 3.88475 3.66916
# Velocity P-wave (km/s) = 4.97785 5.74130 5.37315
#
# Compressibility (1/GPa) = 0.05006067
#
# Stress axis : x y z
#
# Youngs Moduli (GPa) = 38.66105 53.04812 69.86721
#
# Poissons Ratio (x) = -0.12473 0.36936
# Poissons Ratio (y) = -0.09090 0.10823
# Poissons Ratio (z) = 0.20439 0.08218
#
# Static dielectric constant tensor:
#      x y z
#    x 1.848540 -0.071070 -0.019800 
#    y -0.071070 1.879280 -0.019910 
#    z -0.019800 -0.019910 1.800200 
# 
# From -- ./inp_files/436432.got.cif
#   From: 2010.05.17/outbox.cif.g08.bks.cpg/sg2_219_cif.got.tgz:436432.got - 2010.06.03 11:33:40.
