data_PCOD9091805
_publ_section_title
;
Structure prediction by ZEFSAII (Michael W. Deem and Ramdas Pophale) SiO2 
 PCOD9091805
Probable space group: P -1
;
_chemical_formula_sum "Si O2"
_cell_formula_units_Z 16
_cell_length_a 5.254181
_cell_length_b 11.758685
_cell_length_c 15.599359
_cell_angle_alpha 120.751392
_cell_angle_beta 68.122622
_cell_angle_gamma 78.751707
_cell_volume 672.796657
_symmetry_space_group_name_H-M "P -1"
_symmetry_group_IT_number 2
_symmetry_cell_setting 'triclinic'
loop_
_space_group_symop_operation_xyz
x,y,z
-x,-y,-z
loop_
_atom_site_type_symbol
_atom_site_label
_atom_site_fract_x
_atom_site_fract_y
_atom_site_fract_z
Si Si1 0.603614 0.795516 0.051725
Si Si2 0.482458 0.585412 0.289653
Si Si3 0.375656 0.177487 0.574071
Si Si4 0.805086 0.419597 0.022611
Si Si5 0.376755 0.886214 0.662787
Si Si6 0.770733 0.865097 0.772982
Si Si7 0.169958 0.398785 0.213861
Si Si8 0.121686 0.784914 0.217613
O O1 0.416295 0.813627 0.172462
O O2 0.425732 0.963254 0.101057
O O3 0.964973 0.727379 0.005719
O O4 0.626261 0.676463 0.928605
O O5 0.411956 0.756564 0.383634
O O6 0.271956 0.503717 0.296817
O O7 0.564326 0.544832 0.164434
O O8 0.810602 0.495109 0.265743
O O9 0.399573 0.198850 0.478326
O O10 0.042568 0.242109 0.689186
O O11 0.500000 0.000000 0.500000
O O12 0.765498 0.354584 0.914150
O O13 0.000000 0.500000 0.000000
O O14 0.582924 0.866050 0.712052
O O15 0.119021 0.833607 0.693433
O O16 0.163767 0.062125 0.729183
O O17 0.786711 0.741424 0.789051
#
# Coordination Sequence:
#
# PCOD9091805 Si02
#       8
#     2   2   2   2   2   2   2   2
#     4  10  22  37  62  98 134 167 211 259 318 400
#     4  11  24  42  63  99 135 161 215 264 319 390
#     4  10  23  45  68  93 129 174 216 261 318 382
#     4  11  20  35  60  94 134 166 200 256 331 383
#     4  10  23  42  65  94 125 167 225 265 302 375
#     4  11  22  43  67  92 128 172 221 265 316 371
#     4  11  24  41  66  97 131 169 209 270 329 371
#     4  10  19  40  60  96 127 166 204 258 320 385
#
# _framework density 23.781331000000002
#
# number of rings (size 3 to 8) (size 9 to 14) (size 15 to 20)
#    0.000    1.500    3.750    1.125    0.000    2.500 
#    2.250   11.875    0.000    0.000    0.000    0.000 
#    0.000    0.000    0.000    0.000    0.000    0.000 
#
# Total GULP energy -89283.260119 kJ/mol
# GULP energy per Si atom -5580.203757 kJ/mol
# Density = 2.372720 g / cm^3
# Si number density = 23.781331 Si / 1000 Ang^3
#
#
#
# Elastic Constant Matrix: (Units=GPa)
#
#
# Indices 1 2 3 4 5 6 
#
# 1 138.2801 26.2944 42.0546 6.5173 5.5081 11.5630
# 2 26.2944 118.6206 33.5148 11.0272 -2.1200 15.2983
# 3 42.0546 33.5148 128.1678 3.2406 -0.1763 3.3520
# 4 6.5173 11.0272 3.2406 35.4229 4.4341 4.1842
# 5 5.5081 -2.1200 -0.1763 4.4341 33.1399 1.0840
# 6 11.5630 15.2983 3.3520 4.1842 1.0840 24.7553
#
#
#
# Elastic Compliance Matrix: (Units=1/GPa)
#
#
# Indices 1 2 3 4 5 6 
#
# 1 0.008461 -0.000756 -0.002487 -0.000578 -0.001293 -0.002994
# 2 -0.000756 0.010142 -0.002205 -0.002350 0.001250 -0.005273
# 3 -0.002487 -0.002205 0.009159 0.000125 0.000263 0.001251
# 4 -0.000578 -0.002350 0.000125 0.029927 -0.003954 -0.003180
# 5 -0.001293 0.001250 0.000263 -0.003954 0.031030 -0.000895
# 6 -0.002994 -0.005273 0.001251 -0.003180 -0.000895 0.045460
#
#
# Mechanical properties :
#
#
# Convention : Reuss Voigt Hill
#
# Bulk Modulus (GPa) = 59.29225 65.42178 62.35701
# Shear Modulus (GPa) = 33.17917 37.54395 35.36156
#
# Velocity S-wave (km/s) = 3.73926 3.97762 3.86028
# Velocity P-wave (km/s) = 6.60524 6.97601 6.79315
#
# Compressibility (1/GPa) = 0.01686561
#
# Stress axis : x y z
#
# Youngs Moduli (GPa) = 118.18894 98.60353 109.17671
#
# Poissons Ratio (x) = 0.07454 0.27157
# Poissons Ratio (y) = 0.08935 0.24072
# Poissons Ratio (z) = 0.29399 0.21741
#
# Static dielectric constant tensor:
#      x y z
#    x 2.121840 0.051310 -0.072050 
#    y 0.051310 2.059560 0.025620 
#    z -0.072050 0.025620 1.923870 
# 
# From -- ./inp_files/109828.got.cif
#   From: 2010.05.17/outbox.cif.g08.bks.cpg/sg2_55_cif.got.tgz:109828.got - 2010.06.03 11:33:40.
