data_PCOD9091403
_publ_section_title
;
Structure prediction by ZEFSAII (Michael W. Deem and Ramdas Pophale) SiO2 
 PCOD9091403
Probable space group: P -1
;
_chemical_formula_sum "Si O2"
_cell_formula_units_Z 14
_cell_length_a 9.565055
_cell_length_b 9.004053
_cell_length_c 11.686710
_cell_angle_alpha 140.527186
_cell_angle_beta 95.557098
_cell_angle_gamma 89.518694
_cell_volume 633.331553
_symmetry_space_group_name_H-M "P -1"
_symmetry_group_IT_number 2
_symmetry_cell_setting 'triclinic'
loop_
_space_group_symop_operation_xyz
x,y,z
-x,-y,-z
loop_
_atom_site_type_symbol
_atom_site_label
_atom_site_fract_x
_atom_site_fract_y
_atom_site_fract_z
Si Si1 0.649035 0.653655 0.728942
Si Si2 0.285759 0.093928 0.456076
Si Si3 0.568280 0.876046 0.294025
Si Si4 0.852201 0.105609 0.032411
Si Si5 0.135597 0.657529 0.060840
Si Si6 0.685448 0.403463 0.353678
Si Si7 0.371752 0.423087 0.063683
O O1 0.687743 0.468920 0.526999
O O2 0.480702 0.668348 0.727334
O O3 0.689519 0.589944 0.822799
O O4 0.735621 0.901745 0.857199
O O5 0.301213 0.052482 0.569196
O O6 0.269414 0.354748 0.568212
O O7 0.442698 0.040324 0.393392
O O8 0.170839 0.904518 0.277421
O O9 0.503432 0.622411 0.189372
O O10 0.594867 0.824047 0.132814
O O11 0.872217 0.293653 0.044490
O O12 0.786243 0.217223 0.205242
O O13 0.000000 0.000000 0.000000
O O14 0.265073 0.515766 0.020348
O O15 0.000000 0.500000 0.000000
#
# Coordination Sequence:
#
# PCOD9091403 Si02
#       7
#     2   2   2   2   2   2   2
#     4  11  24  43  71 109 140 181 231 289 351 420
#     4  10  19  39  65  98 138 174 223 289 342 417
#     4   9  19  34  64 101 135 171 219 283 351 398
#     4  12  27  48  71  98 144 190 235 285 348 421
#     4  11  24  44  68  95 136 184 236 281 342 419
#     4  11  24  44  72 105 142 181 234 289 352 413
#     4  10  20  38  68  96 136 175 223 284 340 410
#
# _framework density 22.105322999999999
#
# number of rings (size 3 to 8) (size 9 to 14) (size 15 to 20)
#    0.000    1.429    2.857    2.143    4.000    2.857 
#    0.000    2.857    0.000    0.000    0.000    0.000 
#    0.000    0.000    0.000    0.000    0.000    0.000 
#
# Total GULP energy -78283.584593 kJ/mol
# GULP energy per Si atom -5591.684614 kJ/mol
# Density = 2.205501 g / cm^3
# Si number density = 22.105323 Si / 1000 Ang^3
#
#
#
# Elastic Constant Matrix: (Units=GPa)
#
#
# Indices 1 2 3 4 5 6 
#
# 1 94.4862 36.2167 58.7943 2.3487 -7.6597 10.7787
# 2 36.2167 92.4606 20.2754 -21.3606 -9.7936 4.6119
# 3 58.7943 20.2754 124.7749 -13.6809 -21.4302 -1.4127
# 4 2.3487 -21.3606 -13.6809 33.5152 6.6382 5.2022
# 5 -7.6597 -9.7936 -21.4302 6.6382 31.3606 9.8243
# 6 10.7787 4.6119 -1.4127 5.2022 9.8243 30.9374
#
#
#
# Elastic Compliance Matrix: (Units=1/GPa)
#
#
# Indices 1 2 3 4 5 6 
#
# 1 0.020141 -0.007840 -0.009394 -0.009435 -0.000535 -0.004521
# 2 -0.007840 0.016534 0.002902 0.011995 0.003553 -0.002746
# 3 -0.009394 0.002902 0.013846 0.006824 0.006552 0.000245
# 4 -0.009435 0.011995 0.006824 0.041928 -0.001254 -0.004841
# 5 -0.000535 0.003553 0.006552 -0.001254 0.041705 -0.013077
# 6 -0.004521 -0.002746 0.000245 -0.004841 -0.013077 0.039286
#
#
# Mechanical properties :
#
#
# Convention : Reuss Voigt Hill
#
# Bulk Modulus (GPa) = 45.75369 60.25496 53.00433
# Shear Modulus (GPa) = 23.87873 32.25832 28.06853
#
# Velocity S-wave (km/s) = 3.29024 3.82422 3.56724
# Velocity P-wave (km/s) = 5.93104 6.84229 6.40290
#
# Compressibility (1/GPa) = 0.02185616
#
# Stress axis : x y z
#
# Youngs Moduli (GPa) = 49.64953 60.47998 72.22416
#
# Poissons Ratio (x) = 0.47418 0.67849
# Poissons Ratio (y) = 0.38926 -0.20958
# Poissons Ratio (z) = 0.46642 -0.17550
#
# Static dielectric constant tensor:
#      x y z
#    x 2.255740 -0.039320 0.113350 
#    y -0.039320 1.844280 -0.040640 
#    z 0.113350 -0.040640 1.931040 
# 
# From -- ./inp_files/383697.got.cif
#   From: 2010.05.17/outbox.cif.g08.bks.cpg/sg2_192_cif.got.tgz:383697.got - 2010.06.03 11:33:40.
