data_PCOD9091173
_publ_section_title
;
Structure prediction by ZEFSAII (Michael W. Deem and Ramdas Pophale) SiO2 
 PCOD9091173
Probable space group: P -1
;
_chemical_formula_sum "Si O2"
_cell_formula_units_Z 16
_cell_length_a 11.649840
_cell_length_b 9.159520
_cell_length_c 11.645785
_cell_angle_alpha 129.788584
_cell_angle_beta 91.147907
_cell_angle_gamma 62.334553
_cell_volume 772.444738
_symmetry_space_group_name_H-M "P -1"
_symmetry_group_IT_number 2
_symmetry_cell_setting 'triclinic'
loop_
_space_group_symop_operation_xyz
x,y,z
-x,-y,-z
loop_
_atom_site_type_symbol
_atom_site_label
_atom_site_fract_x
_atom_site_fract_y
_atom_site_fract_z
Si Si1 0.974358 0.485269 0.627921
Si Si2 0.183927 0.478701 0.006926
Si Si3 0.712981 0.328567 0.307540
Si Si4 0.596894 0.326677 0.547745
Si Si5 0.441692 0.083329 0.697259
Si Si6 0.275480 0.261775 0.550345
Si Si7 0.146398 0.747127 0.368933
Si Si8 0.929664 0.777764 0.990549
O O1 0.871143 0.411651 0.621001
O O2 0.928376 0.702380 0.821546
O O3 0.000000 0.500000 0.500000
O O4 0.132997 0.284374 0.576543
O O5 0.157521 0.649081 0.193835
O O6 0.134538 0.322178 0.977019
O O7 0.348954 0.287279 0.888014
O O8 0.089921 0.632871 0.972239
O O9 0.658993 0.366122 0.455823
O O10 0.559123 0.452810 0.305046
O O11 0.766441 0.489153 0.368681
O O12 0.833330 0.058250 0.144792
O O13 0.718074 0.253752 0.604533
O O14 0.581280 0.122257 0.406396
O O15 0.367830 0.208081 0.638404
O O16 0.609792 0.949159 0.636066
O O17 0.000000 0.000000 0.500000
#
# Coordination Sequence:
#
# PCOD9091173 Si02
#       8
#     2   2   2   2   2   2   2   2
#     4  11  23  40  54  85 125 156 189 233 306 355
#     4  10  20  37  63  90 112 152 205 246 287 336
#     4  10  20  36  60  89 116 153 197 240 290 348
#     4  10  20  37  62  87 119 150 198 243 292 342
#     4  10  19  39  64  85 112 156 199 241 281 351
#     4  10  21  36  61  84 117 156 192 234 293 354
#     4  11  23  38  62  90 116 153 197 251 290 338
#     4  10  20  37  61  85 116 154 201 245 281 352
#
# _framework density 20.713456999999998
#
# number of rings (size 3 to 8) (size 9 to 14) (size 15 to 20)
#    0.000    1.750    2.500    2.250    1.750    0.500 
#    4.500    1.250    0.000    3.000    0.000    0.000 
#    0.000    0.000    0.000    0.000    0.000    0.000 
#
# Total GULP energy -89211.016939 kJ/mol
# GULP energy per Si atom -5575.688559 kJ/mol
# Density = 2.066631 g / cm^3
# Si number density = 20.713457 Si / 1000 Ang^3
#
#
#
# Elastic Constant Matrix: (Units=GPa)
#
#
# Indices 1 2 3 4 5 6 
#
# 1 62.0426 -3.9810 18.9306 14.2795 -12.2695 -17.9224
# 2 -3.9810 66.8744 34.0842 8.2314 5.6065 1.9041
# 3 18.9306 34.0842 131.8027 25.6842 -24.2154 -13.4075
# 4 14.2795 8.2314 25.6842 36.0315 -8.0752 -12.1497
# 5 -12.2695 5.6065 -24.2154 -8.0752 24.1785 1.3833
# 6 -17.9224 1.9041 -13.4075 -12.1497 1.3833 27.9760
#
#
#
# Elastic Compliance Matrix: (Units=1/GPa)
#
#
# Indices 1 2 3 4 5 6 
#
# 1 0.022308 0.000237 0.000394 -0.002591 0.010060 0.012841
# 2 0.000237 0.020707 -0.007614 -0.004502 -0.013456 -0.006196
# 3 0.000394 -0.007614 0.013138 -0.002961 0.013843 0.005097
# 4 -0.002591 -0.004502 -0.002961 0.038447 0.008832 0.013488
# 5 0.010060 -0.013456 0.013843 0.008832 0.065564 0.014589
# 6 0.012841 -0.006196 0.005097 0.013488 0.014589 0.051972
#
#
# Mechanical properties :
#
#
# Convention : Reuss Voigt Hill
#
# Bulk Modulus (GPa) = 23.70354 39.86527 31.78440
# Shear Modulus (GPa) = 20.81899 31.74958 26.28429
#
# Velocity S-wave (km/s) = 3.17376 3.91935 3.56609
# Velocity P-wave (km/s) = 4.98986 6.30631 5.68631
#
# Compressibility (1/GPa) = 0.04218779
#
# Stress axis : x y z
#
# Youngs Moduli (GPa) = 44.82625 48.29313 76.11315
#
# Poissons Ratio (x) = -0.01145 -0.03000
# Poissons Ratio (y) = -0.01063 0.57953
# Poissons Ratio (z) = -0.01767 0.36771
#
# Static dielectric constant tensor:
#      x y z
#    x 1.779210 0.012690 -0.032510 
#    y 0.012690 1.907490 -0.004500 
#    z -0.032510 -0.004500 1.742220 
# 
# From -- ./inp_files/260009.got.cif
#   From: 2010.05.17/outbox.cif.g08.bks.cpg/sg2_131_cif.got.tgz:260009.got - 2010.06.03 11:33:40.
