data_PCOD9091081
_publ_section_title
;
Structure prediction by ZEFSAII (Michael W. Deem and Ramdas Pophale) SiO2 
 PCOD9091081
Probable space group: P -1
;
_chemical_formula_sum "Si O2"
_cell_formula_units_Z 16
_cell_length_a 12.702333
_cell_length_b 9.673865
_cell_length_c 14.741084
_cell_angle_alpha 136.574310
_cell_angle_beta 31.465730
_cell_angle_gamma 140.570138
_cell_volume 587.977907
_symmetry_space_group_name_H-M "P -1"
_symmetry_group_IT_number 2
_symmetry_cell_setting 'triclinic'
loop_
_space_group_symop_operation_xyz
x,y,z
-x,-y,-z
loop_
_atom_site_type_symbol
_atom_site_label
_atom_site_fract_x
_atom_site_fract_y
_atom_site_fract_z
Si Si1 0.380440 0.622777 0.587284
Si Si2 0.240120 0.443072 0.313966
Si Si3 0.831755 0.784357 0.573971
Si Si4 0.198073 0.226050 0.046564
Si Si5 0.916753 0.204035 0.990241
Si Si6 0.707563 0.478985 0.047282
Si Si7 0.613019 0.109415 0.643088
Si Si8 0.540674 0.016326 0.859954
O O1 0.500000 0.500000 0.500000
O O2 0.223059 0.442814 0.546736
O O3 0.228839 0.697274 0.798563
O O4 0.552416 0.861583 0.533710
O O5 0.091329 0.243481 0.395007
O O6 0.474634 0.494988 0.216408
O O7 0.219783 0.676234 0.434192
O O8 0.259777 0.372353 0.162858
O O9 0.609184 0.825831 0.750331
O O10 0.000000 0.000000 0.500000
O O11 0.154187 0.365540 0.066179
O O12 0.392317 0.159503 0.835617
O O13 0.026153 0.985334 0.093612
O O14 0.846247 0.583574 0.086286
O O15 0.727749 0.067373 0.989535
O O16 0.661881 0.231186 0.934995
O O17 0.643373 0.093643 0.721197
#
# Coordination Sequence:
#
# PCOD9091081 Si02
#       8
#     2   2   2   2   2   2   2   2
#     4  10  19  40  66  82 128 176 210 259 311 371
#     4  11  21  39  66  94 134 165 207 274 320 381
#     4  12  26  42  62  90 123 182 227 253 319 381
#     4   9  17  36  62  96 134 157 198 270 327 381
#     4  10  20  33  65  99 121 169 210 252 323 391
#     4  11  18  36  66  99 128 164 203 263 337 387
#     4   9  17  36  70  91 120 172 201 259 336 360
#     4  10  19  39  63  88 131 163 206 266 319 376
#
# _framework density 27.211907
#
# number of rings (size 3 to 8) (size 9 to 14) (size 15 to 20)
#    0.000    2.000    6.250    1.875    0.000    1.000 
#    0.000    2.500    0.000    0.750    0.000    0.000 
#    0.000    0.000    0.000    0.000    0.000    0.000 
#
# Total GULP energy -89417.429563 kJ/mol
# GULP energy per Si atom -5588.589348 kJ/mol
# Density = 2.714997 g / cm^3
# Si number density = 27.211907 Si / 1000 Ang^3
#
#
#
# Elastic Constant Matrix: (Units=GPa)
#
#
# Indices 1 2 3 4 5 6 
#
# 1 107.6905 40.5121 21.7485 4.7412 3.3785 -15.1131
# 2 40.5121 185.6105 45.4874 32.3578 24.7286 -11.9119
# 3 21.7485 45.4874 67.0046 21.3740 4.4478 -6.9000
# 4 4.7412 32.3578 21.3740 53.0310 -2.5180 1.8317
# 5 3.3785 24.7286 4.4478 -2.5180 35.6845 8.0027
# 6 -15.1131 -11.9119 -6.9000 1.8317 8.0027 61.1706
#
#
#
# Elastic Compliance Matrix: (Units=1/GPa)
#
#
# Indices 1 2 3 4 5 6 
#
# 1 0.010676 -0.001835 -0.002370 0.001062 0.000192 0.001956
# 2 -0.001835 0.008082 -0.003124 -0.003834 -0.005673 0.001625
# 3 -0.002370 -0.003124 0.019919 -0.005995 -0.000817 0.001339
# 4 0.001062 -0.003834 -0.005995 0.023872 0.005572 -0.002604
# 5 0.000192 -0.005673 -0.000817 0.005572 0.033715 -0.005727
# 6 0.001956 0.001625 0.001339 -0.002604 -0.005727 0.018126
#
#
# Mechanical properties :
#
#
# Convention : Reuss Voigt Hill
#
# Bulk Modulus (GPa) = 41.63221 63.97795 52.80508
# Shear Modulus (GPa) = 36.48163 46.81440 41.64802
#
# Velocity S-wave (km/s) = 3.66546 4.15223 3.91641
# Velocity P-wave (km/s) = 5.76599 6.82276 6.31651
#
# Compressibility (1/GPa) = 0.02401986
#
# Stress axis : x y z
#
# Youngs Moduli (GPa) = 93.66453 123.72997 50.20296
#
# Poissons Ratio (x) = 0.22700 0.11897
# Poissons Ratio (y) = 0.17184 0.15686
# Poissons Ratio (z) = 0.22197 0.38659
#
# Static dielectric constant tensor:
#      x y z
#    x 2.179230 0.092820 -0.022750 
#    y 0.092820 2.319990 -0.170120 
#    z -0.022750 -0.170120 2.217640 
# 
# From -- ./inp_files/527817.got.cif
#   From: 2010.05.17/outbox.cif.g08.bks.cpg/sg2_264_cif.got.tgz:527817.got - 2010.06.03 11:33:40.
