data_PCOD9091889
_publ_section_title
;
Structure prediction by ZEFSAII (Michael W. Deem and Ramdas Pophale) SiO2 
 PCOD9091889
Probable space group: P -1
;
_chemical_formula_sum "Si O2"
_cell_formula_units_Z 12
_cell_length_a 7.054807
_cell_length_b 7.394232
_cell_length_c 14.709966
_cell_angle_alpha 125.554446
_cell_angle_beta 104.091091
_cell_angle_gamma 89.657243
_cell_volume 596.492307
_symmetry_space_group_name_H-M "P -1"
_symmetry_group_IT_number 2
_symmetry_cell_setting 'triclinic'
loop_
_space_group_symop_operation_xyz
x,y,z
-x,-y,-z
loop_
_atom_site_type_symbol
_atom_site_label
_atom_site_fract_x
_atom_site_fract_y
_atom_site_fract_z
Si Si1 0.620816 0.535708 0.789874
Si Si2 0.802353 0.183775 0.605807
Si Si3 0.278451 0.525176 0.011844
Si Si4 0.243524 0.171102 0.647951
Si Si5 0.159667 0.008307 0.101099
Si Si6 0.973334 0.915434 0.232740
O O1 0.710753 0.402102 0.680788
O O2 0.730547 0.516668 0.893213
O O3 0.402420 0.396136 0.739581
O O4 0.656663 0.795974 0.843221
O O5 0.031615 0.236520 0.614373
O O6 0.834880 0.081950 0.679756
O O7 0.696902 0.000564 0.469230
O O8 0.233050 0.770858 0.054046
O O9 0.500000 0.500000 0.000000
O O10 0.122421 0.332634 0.888033
O O11 0.193160 0.043118 0.701232
O O12 0.044380 0.057605 0.194145
O O13 0.000000 0.000000 0.000000
#
# Coordination Sequence:
#
# PCOD9091889 Si02
#       6
#     2   2   2   2   2   2
#     4  12  22  39  65  95 124 162 214 260 315 373
#     4   9  19  40  68  83 124 170 211 250 316 370
#     4  12  22  41  63  92 128 167 207 262 317 376
#     4   9  20  39  67  88 118 173 211 252 309 378
#     4  12  25  38  63  97 130 167 206 259 321 377
#     4  10  19  40  63  85 128 166 203 254 317 373
#
# _framework density 20.117609000000002
#
# number of rings (size 3 to 8) (size 9 to 14) (size 15 to 20)
#    1.000    0.333    5.000    2.000    0.000    0.667 
#    3.000    1.667    0.000    0.000    0.000    0.000 
#    0.000    0.000    0.000    0.000    0.000    0.000 
#
# Total GULP energy -66858.069501 kJ/mol
# GULP energy per Si atom -5571.505792 kJ/mol
# Density = 2.007182 g / cm^3
# Si number density = 20.117609 Si / 1000 Ang^3
#
#
#
# Elastic Constant Matrix: (Units=GPa)
#
#
# Indices 1 2 3 4 5 6 
#
# 1 70.3344 20.7191 6.1957 -1.6436 -6.8226 10.6948
# 2 20.7191 98.1039 39.8385 -5.1927 -1.1707 13.5242
# 3 6.1957 39.8385 107.9831 -11.9782 -2.6065 17.3696
# 4 -1.6436 -5.1927 -11.9782 15.8177 0.8515 -8.4171
# 5 -6.8226 -1.1707 -2.6065 0.8515 28.0881 -1.0189
# 6 10.6948 13.5242 17.3696 -8.4171 -1.0189 17.9124
#
#
#
# Elastic Compliance Matrix: (Units=1/GPa)
#
#
# Indices 1 2 3 4 5 6 
#
# 1 0.016885 -0.002809 0.001491 -0.004180 0.003845 -0.011151
# 2 -0.002809 0.013028 -0.004034 -0.001753 -0.000646 -0.005108
# 3 0.001491 -0.004034 0.012404 0.003931 0.000937 -0.007972
# 4 -0.004180 -0.001753 0.003931 0.086987 -0.001881 0.040775
# 5 0.003845 -0.000646 0.000937 -0.001881 0.036598 -0.001519
# 6 -0.011151 -0.005108 -0.007972 0.040775 -0.001519 0.093146
#
#
# Mechanical properties :
#
#
# Convention : Reuss Voigt Hill
#
# Bulk Modulus (GPa) = 31.63320 45.54756 38.59038
# Shear Modulus (GPa) = 17.83859 26.34150 22.09005
#
# Velocity S-wave (km/s) = 2.98101 3.62246 3.31727
# Velocity P-wave (km/s) = 5.25422 6.33925 5.82206
#
# Compressibility (1/GPa) = 0.03161236
#
# Stress axis : x y z
#
# Youngs Moduli (GPa) = 59.22443 76.75552 80.61619
#
# Poissons Ratio (x) = 0.21564 -0.12016
# Poissons Ratio (y) = 0.16639 0.32519
# Poissons Ratio (z) = -0.08828 0.30961
#
# Static dielectric constant tensor:
#      x y z
#    x 1.781730 0.017170 -0.016810 
#    y 0.017170 1.672300 -0.014150 
#    z -0.016810 -0.014150 1.749880 
# 
# From -- ./inp_files/59205.got.cif
#   From: 2010.05.17/outbox.cif.g08.bks.cpg/sg2_30_cif.got.tgz:59205.got - 2010.06.03 11:33:40.
