data_PCOD9091954
_publ_section_title
;
Structure prediction by ZEFSAII (Michael W. Deem and Ramdas Pophale) SiO2 
 PCOD9091954
Probable space group: P -1
;
_chemical_formula_sum "Si O2"
_cell_formula_units_Z 16
_cell_length_a 14.605867
_cell_length_b 9.126940
_cell_length_c 9.806482
_cell_angle_alpha 113.864370
_cell_angle_beta 36.910927
_cell_angle_gamma 121.234959
_cell_volume 671.179698
_symmetry_space_group_name_H-M "P -1"
_symmetry_group_IT_number 2
_symmetry_cell_setting 'triclinic'
loop_
_space_group_symop_operation_xyz
x,y,z
-x,-y,-z
loop_
_atom_site_type_symbol
_atom_site_label
_atom_site_fract_x
_atom_site_fract_y
_atom_site_fract_z
Si Si1 0.797667 0.317641 0.361282
Si Si2 0.713220 0.364383 0.008880
Si Si3 0.192702 0.875464 0.995233
Si Si4 0.562750 0.845002 0.334172
Si Si5 0.140488 0.303947 0.580634
Si Si6 0.281498 0.831517 0.316232
Si Si7 0.319573 0.359103 0.677991
Si Si8 0.603477 0.813160 0.836156
O O1 0.847762 0.229419 0.139072
O O2 0.607030 0.302097 0.558925
O O3 0.891724 0.520014 0.336862
O O4 0.798552 0.216062 0.460240
O O5 0.712450 0.224608 0.069963
O O6 0.769711 0.549716 0.078361
O O7 0.527361 0.314003 0.159400
O O8 0.795332 0.320560 0.759442
O O9 0.297900 0.070478 0.910763
O O10 0.030674 0.848900 0.262271
O O11 0.648673 0.795079 0.341295
O O12 0.500000 0.000000 0.500000
O O13 0.223378 0.317491 0.636253
O O14 0.266666 0.272902 0.312890
O O15 0.298000 0.009585 0.292103
O O16 0.472855 0.846644 0.105347
O O17 0.500000 0.500000 0.500000
#
# Coordination Sequence:
#
# PCOD9091954 Si02
#       8
#     2   2   2   2   2   2   2   2
#     4  11  21  39  64  95 122 160 219 254 301 371
#     4  10  19  40  64  87 122 173 207 247 309 376
#     4  11  24  40  62  97 131 163 203 261 323 363
#     4  10  22  36  61  93 122 162 209 257 299 374
#     4  12  24  38  64  98 133 158 200 271 323 361
#     4   9  21  39  66  87 120 171 219 252 300 369
#     4  12  19  37  62  94 121 162 209 260 310 363
#     4   9  20  39  65  87 121 170 211 253 311 371
#
# _framework density 23.838621
#
# number of rings (size 3 to 8) (size 9 to 14) (size 15 to 20)
#    0.750    0.750    3.750    1.875    3.500    1.000 
#    0.000    1.250    0.000    0.000    0.000    0.000 
#    0.000    0.000    0.000    0.000    0.000    0.000 
#
# Total GULP energy -89347.050647 kJ/mol
# GULP energy per Si atom -5584.190665 kJ/mol
# Density = 2.378436 g / cm^3
# Si number density = 23.838621 Si / 1000 Ang^3
#
#
#
# Elastic Constant Matrix: (Units=GPa)
#
#
# Indices 1 2 3 4 5 6 
#
# 1 41.6682 7.7631 -0.2479 -1.0256 13.6358 -2.9908
# 2 7.7631 52.7148 -1.0749 5.3164 3.7130 -7.7181
# 3 -0.2479 -1.0749 56.6647 -1.6394 -3.6644 3.1274
# 4 -1.0256 5.3164 -1.6394 36.8803 4.3437 5.2649
# 5 13.6358 3.7130 -3.6644 4.3437 35.2312 -0.9060
# 6 -2.9908 -7.7181 3.1274 5.2649 -0.9060 32.2091
#
#
#
# Elastic Compliance Matrix: (Units=1/GPa)
#
#
# Indices 1 2 3 4 5 6 
#
# 1 0.028369 -0.003491 -0.000645 0.002386 -0.010943 0.001163
# 2 -0.003491 0.020650 -0.000037 -0.003797 -0.000226 0.005242
# 3 -0.000645 -0.000037 0.017899 0.000821 0.001966 -0.001886
# 4 0.002386 -0.003797 0.000821 0.029060 -0.004166 -0.005635
# 5 -0.010943 -0.000226 0.001966 -0.004166 0.033371 0.000358
# 6 0.001163 0.005242 -0.001886 -0.005635 0.000358 0.033525
#
#
# Mechanical properties :
#
#
# Convention : Reuss Voigt Hill
#
# Bulk Modulus (GPa) = 17.07301 18.21426 17.64364
# Shear Modulus (GPa) = 26.21321 30.50463 28.35892
#
# Velocity S-wave (km/s) = 3.31964 3.58107 3.45283
# Velocity P-wave (km/s) = 4.67662 4.97554 4.82839
#
# Compressibility (1/GPa) = 0.05857197
#
# Stress axis : x y z
#
# Youngs Moduli (GPa) = 35.24978 48.42694 55.86888
#
# Poissons Ratio (x) = 0.16904 0.03603
# Poissons Ratio (y) = 0.12304 0.00209
# Poissons Ratio (z) = 0.02273 0.00181
#
# Static dielectric constant tensor:
#      x y z
#    x 1.942540 0.035890 -0.018080 
#    y 0.035890 1.896990 0.014240 
#    z -0.018080 0.014240 1.991000 
# 
# From -- ./inp_files/462185.got.cif
#   From: 2010.05.17/outbox.cif.g08.bks.cpg/sg2_232_cif.got.tgz:462185.got - 2010.06.03 11:33:40.
