data_PCOD9091466
_publ_section_title
;
Structure prediction by ZEFSAII (Michael W. Deem and Ramdas Pophale) SiO2 
 PCOD9091466
Probable space group: P -1
;
_chemical_formula_sum "Si O2"
_cell_formula_units_Z 14
_cell_length_a 16.070172
_cell_length_b 9.373140
_cell_length_c 14.220743
_cell_angle_alpha 61.860827
_cell_angle_beta 152.094986
_cell_angle_gamma 136.354339
_cell_volume 591.142600
_symmetry_space_group_name_H-M "P -1"
_symmetry_group_IT_number 2
_symmetry_cell_setting 'triclinic'
loop_
_space_group_symop_operation_xyz
x,y,z
-x,-y,-z
loop_
_atom_site_type_symbol
_atom_site_label
_atom_site_fract_x
_atom_site_fract_y
_atom_site_fract_z
Si Si1 0.887833 0.059751 0.693686
Si Si2 0.634567 0.200763 0.652751
Si Si3 0.929339 0.782298 0.542133
Si Si4 0.665046 0.599643 0.520192
Si Si5 0.382361 0.867011 0.025254
Si Si6 0.020021 0.702530 0.462449
Si Si7 0.873165 0.623352 0.986510
O O1 0.069387 0.273064 0.730562
O O2 0.009891 0.169895 0.885104
O O3 0.591891 0.940129 0.449766
O O4 0.852752 0.855533 0.681085
O O5 0.685309 0.421886 0.608949
O O6 0.919051 0.304742 0.905509
O O7 0.500000 0.000000 0.500000
O O8 0.694438 0.644793 0.422878
O O9 0.161799 0.859826 0.814956
O O10 0.886917 0.652342 0.445242
O O11 0.000000 0.000000 0.500000
O O12 0.367192 0.459385 0.283773
O O13 0.223796 0.596874 0.978793
O O14 0.500000 0.000000 0.000000
O O15 0.667275 0.042106 0.304222
O O16 0.000000 0.500000 0.500000
#
# Coordination Sequence:
#
# PCOD9091466 Si02
#       7
#     2   2   2   2   2   2   2
#     4  11  23  43  67 100 133 172 231 273 330 399
#     4  10  25  44  70  97 135 179 224 278 333 394
#     4  11  21  40  65  93 136 172 217 275 334 391
#     4  12  23  45  68  98 136 175 223 280 331 395
#     4  10  19  39  66  91 131 179 214 267 340 381
#     4  11  23  40  67  99 133 172 224 275 328 405
#     4  11  23  45  69  95 135 180 221 275 335 392
#
# _framework density 23.682950000000002
#
# number of rings (size 3 to 8) (size 9 to 14) (size 15 to 20)
#    0.000    1.143    4.286    3.000    2.000    2.857 
#    2.571    4.286    0.000    0.000    0.000    0.000 
#    0.000    0.000    0.000    0.000    0.000    0.000 
#
# Total GULP energy -78062.187648 kJ/mol
# GULP energy per Si atom -5575.870546 kJ/mol
# Density = 2.362905 g / cm^3
# Si number density = 23.682950 Si / 1000 Ang^3
#
#
#
# Elastic Constant Matrix: (Units=GPa)
#
#
# Indices 1 2 3 4 5 6 
#
# 1 122.4592 51.1874 -22.7553 12.3814 -6.0551 -14.6643
# 2 51.1874 113.4652 -2.9666 -2.7997 -8.1329 -21.5470
# 3 -22.7553 -2.9666 49.3771 -7.9661 8.5705 -15.4998
# 4 12.3814 -2.7997 -7.9661 30.7109 -0.9904 4.7733
# 5 -6.0551 -8.1329 8.5705 -0.9904 37.0442 0.8654
# 6 -14.6643 -21.5470 -15.4998 4.7733 0.8654 55.0766
#
#
#
# Elastic Compliance Matrix: (Units=1/GPa)
#
#
# Indices 1 2 3 4 5 6 
#
# 1 0.012041 -0.004803 0.005705 -0.004348 -0.000600 0.003319
# 2 -0.004803 0.011717 -0.000527 0.002477 0.001907 0.002912
# 3 0.005705 -0.000527 0.027067 0.003134 -0.005566 0.008746
# 4 -0.004348 0.002477 0.003134 0.035731 0.000120 -0.002405
# 5 -0.000600 0.001907 -0.005566 0.000120 0.028640 -0.001440
# 6 0.003319 0.002912 0.008746 -0.002405 -0.001440 0.022872
#
#
# Mechanical properties :
#
#
# Convention : Reuss Voigt Hill
#
# Bulk Modulus (GPa) = 19.38905 37.35917 28.37411
# Shear Modulus (GPa) = 32.36055 41.88874 37.12465
#
# Velocity S-wave (km/s) = 3.70050 4.21019 3.96355
# Velocity P-wave (km/s) = 5.14422 6.28038 5.74048
#
# Compressibility (1/GPa) = 0.05157552
#
# Stress axis : x y z
#
# Youngs Moduli (GPa) = 83.04946 85.34511 36.94556
#
# Poissons Ratio (x) = 0.40991 -0.21077
# Poissons Ratio (y) = 0.39888 0.01946
# Poissons Ratio (z) = -0.47380 0.04496
#
# Static dielectric constant tensor:
#      x y z
#    x 1.969190 0.065650 -0.029040 
#    y 0.065650 1.840730 0.007630 
#    z -0.029040 0.007630 1.993600 
# 
# From -- ./inp_files/294308.got.cif
#   From: 2010.05.17/outbox.cif.g08.bks.cpg/sg2_148_cif.got.tgz:294308.got - 2010.06.03 11:33:40.
