data_PCOD9091033
_publ_section_title
;
Structure prediction by ZEFSAII (Michael W. Deem and Ramdas Pophale) SiO2 
 PCOD9091033
Probable space group: P -1
;
_chemical_formula_sum "Si O2"
_cell_formula_units_Z 16
_cell_length_a 11.504349
_cell_length_b 12.252378
_cell_length_c 12.773828
_cell_angle_alpha 116.972826
_cell_angle_beta 146.442405
_cell_angle_gamma 87.478345
_cell_volume 652.084608
_symmetry_space_group_name_H-M "P -1"
_symmetry_group_IT_number 2
_symmetry_cell_setting 'triclinic'
loop_
_space_group_symop_operation_xyz
x,y,z
-x,-y,-z
loop_
_atom_site_type_symbol
_atom_site_label
_atom_site_fract_x
_atom_site_fract_y
_atom_site_fract_z
Si Si1 0.563336 0.809627 0.455245
Si Si2 0.818122 0.665993 0.342229
Si Si3 0.638682 0.081009 0.250492
Si Si4 0.816983 0.956975 0.496966
Si Si5 0.835618 0.704999 0.020962
Si Si6 0.784563 0.629548 0.532435
Si Si7 0.916554 0.582619 0.830318
Si Si8 0.416495 0.793781 0.554616
O O1 0.633915 0.907553 0.444228
O O2 0.751218 0.762059 0.575693
O O3 0.601290 0.886869 0.629740
O O4 0.222339 0.649118 0.124518
O O5 0.822822 0.815679 0.418667
O O6 0.895042 0.645575 0.506231
O O7 0.063094 0.732055 0.471787
O O8 0.500000 0.500000 0.000000
O O9 0.459725 0.095260 0.200979
O O10 0.699722 0.981274 0.318065
O O11 0.500000 0.000000 0.000000
O O12 0.112200 0.137188 0.831168
O O13 0.115596 0.745067 0.290665
O O14 0.541885 0.544817 0.779435
O O15 0.843502 0.668134 0.888730
O O16 0.939044 0.632050 0.748592
O O17 0.674463 0.383194 0.575979
#
# Coordination Sequence:
#
# PCOD9091033 Si02
#       8
#     2   2   2   2   2   2   2   2
#     4  10  21  41  65  99 130 167 218 272 337 393
#     4  11  25  46  67  91 130 184 231 265 320 406
#     4  11  26  44  65  98 135 174 225 275 329 387
#     4  10  24  42  71  91 131 174 212 280 339 385
#     4  10  19  39  62  98 129 168 212 265 343 396
#     4  11  22  39  67  99 128 171 228 267 323 402
#     4  11  21  35  68 100 134 166 212 272 336 395
#     4  10  20  39  66  93 132 175 214 267 331 402
#
# _framework density 24.536691999999999
#
# number of rings (size 3 to 8) (size 9 to 14) (size 15 to 20)
#    0.000    1.500    2.500    3.000    3.500    6.500 
#    0.000    2.500    0.000    0.000    0.000    0.000 
#    0.000    0.000    0.000    0.000    0.000    0.000 
#
# Total GULP energy -89528.041106 kJ/mol
# GULP energy per Si atom -5595.502569 kJ/mol
# Density = 2.448085 g / cm^3
# Si number density = 24.536692 Si / 1000 Ang^3
#
#
#
# Elastic Constant Matrix: (Units=GPa)
#
#
# Indices 1 2 3 4 5 6 
#
# 1 108.0911 26.2744 15.9257 1.7960 -20.3170 39.5397
# 2 26.2744 103.1588 27.1560 -15.5364 -18.8007 23.3328
# 3 15.9257 27.1560 50.5679 12.6497 -14.7258 -11.4150
# 4 1.7960 -15.5364 12.6497 32.6150 0.1761 -0.5441
# 5 -20.3170 -18.8007 -14.7258 0.1761 41.7289 0.6201
# 6 39.5397 23.3328 -11.4150 -0.5441 0.6201 46.2381
#
#
#
# Elastic Compliance Matrix: (Units=1/GPa)
#
#
# Indices 1 2 3 4 5 6 
#
# 1 0.020153 0.007086 -0.015342 0.007763 0.007923 -0.024611
# 2 0.007086 0.023188 -0.022965 0.019141 0.006058 -0.023286
# 3 -0.015342 -0.022965 0.053046 -0.030046 0.000474 0.037444
# 4 0.007763 0.019141 -0.030046 0.050608 0.001931 -0.023145
# 5 0.007923 0.006058 0.000474 0.001931 0.030861 -0.010107
# 6 -0.024611 -0.023286 0.037444 -0.023145 -0.010107 0.063531
#
#
# Mechanical properties :
#
#
# Convention : Reuss Voigt Hill
#
# Bulk Modulus (GPa) = 29.45950 44.50335 36.98143
# Shear Modulus (GPa) = 15.86578 36.94717 26.40647
#
# Velocity S-wave (km/s) = 2.54562 3.88466 3.28411
# Velocity P-wave (km/s) = 4.54671 6.18851 5.43002
#
# Compressibility (1/GPa) = 0.03394490
#
# Stress axis : x y z
#
# Youngs Moduli (GPa) = 49.62143 43.12536 18.85150
#
# Poissons Ratio (x) = -0.30557 0.28922
# Poissons Ratio (y) = -0.35160 0.43292
# Poissons Ratio (z) = 0.76130 0.99035
#
# Static dielectric constant tensor:
#      x y z
#    x 1.988050 -0.005100 -0.030050 
#    y -0.005100 1.969900 -0.000750 
#    z -0.030050 -0.000750 1.983780 
# 
# From -- ./inp_files/428598.got.cif
#   From: 2010.05.17/outbox.cif.g08.bks.cpg/sg2_215_cif.got.tgz:428598.got - 2010.06.03 11:33:40.
