data_PCOD9091732
_publ_section_title
;
Structure prediction by ZEFSAII (Michael W. Deem and Ramdas Pophale) SiO2 
 PCOD9091732
Probable space group: P -1
;
_chemical_formula_sum "Si O2"
_cell_formula_units_Z 12
_cell_length_a 8.534144
_cell_length_b 10.873773
_cell_length_c 9.497016
_cell_angle_alpha 71.551049
_cell_angle_beta 45.341582
_cell_angle_gamma 50.120406
_cell_volume 466.298186
_symmetry_space_group_name_H-M "P -1"
_symmetry_group_IT_number 2
_symmetry_cell_setting 'triclinic'
loop_
_space_group_symop_operation_xyz
x,y,z
-x,-y,-z
loop_
_atom_site_type_symbol
_atom_site_label
_atom_site_fract_x
_atom_site_fract_y
_atom_site_fract_z
Si Si1 0.229980 0.510261 0.212741
Si Si2 0.831090 0.659977 0.945951
Si Si3 0.731682 0.309386 0.438362
Si Si4 0.052636 0.136332 0.814184
Si Si5 0.588991 0.220459 0.294877
Si Si6 0.792362 0.132668 0.700431
O O1 0.196646 0.411383 0.153288
O O2 0.324675 0.395322 0.333423
O O3 0.973610 0.706625 0.282108
O O4 0.500000 0.500000 0.000000
O O5 0.989466 0.734759 0.788273
O O6 0.517955 0.809669 0.137136
O O7 0.000000 0.500000 0.000000
O O8 0.500000 0.500000 0.500000
O O9 0.620051 0.234677 0.436621
O O10 0.758246 0.286012 0.597400
O O11 0.902619 0.106789 0.795930
O O12 0.349208 0.954142 0.714232
O O13 0.855753 0.190932 0.055518
O O14 0.000000 0.000000 0.500000
#
# Coordination Sequence:
#
# PCOD9091732 Si02
#       6
#     2   2   2   2   2   2
#     4  10  19  39  71  96 134 190 227 284 355 425
#     4  12  24  44  75 105 142 193 233 290 373 417
#     4  12  25  43  74 105 138 186 243 292 350 430
#     4  10  20  39  69  97 138 192 226 287 365 411
#     4  10  20  40  70  97 139 189 227 294 360 412
#     4  12  24  45  69 106 146 179 237 303 348 426
#
# _framework density 25.734605999999999
#
# number of rings (size 3 to 8) (size 9 to 14) (size 15 to 20)
#    0.000    1.000    6.667    3.000    0.000    0.667 
#    0.000    5.000    0.000    6.000    0.000    0.000 
#    0.000    0.000    0.000    0.000    0.000    0.000 
#
# Total GULP energy -67052.496730 kJ/mol
# GULP energy per Si atom -5587.708061 kJ/mol
# Density = 2.567603 g / cm^3
# Si number density = 25.734606 Si / 1000 Ang^3
#
#
#
# Elastic Constant Matrix: (Units=GPa)
#
#
# Indices 1 2 3 4 5 6 
#
# 1 84.7627 -0.8501 18.6161 -3.1912 16.4765 -10.5083
# 2 -0.8501 143.8194 4.9702 10.6515 -3.2239 -20.3908
# 3 18.6161 4.9702 84.9765 4.2253 -8.5896 -14.1229
# 4 -3.1912 10.6515 4.2253 60.8165 -7.4167 7.9324
# 5 16.4765 -3.2239 -8.5896 -7.4167 40.5538 -5.5870
# 6 -10.5083 -20.3908 -14.1229 7.9324 -5.5870 38.1426
#
#
#
# Elastic Compliance Matrix: (Units=1/GPa)
#
#
# Indices 1 2 3 4 5 6 
#
# 1 0.013964 0.000338 -0.003377 -0.000085 -0.006116 0.001899
# 2 0.000338 0.007808 0.000486 -0.001921 0.000921 0.004981
# 3 -0.003377 0.000486 0.013952 -0.001353 0.004875 0.005491
# 4 -0.000085 -0.001921 -0.001353 0.017776 0.002167 -0.004931
# 5 -0.006116 0.000921 0.004875 0.002167 0.029258 0.004448
# 6 0.001899 0.004981 0.005491 -0.004931 0.004448 0.033114
#
#
# Mechanical properties :
#
#
# Convention : Reuss Voigt Hill
#
# Bulk Modulus (GPa) = 32.66253 39.89232 36.27743
# Shear Modulus (GPa) = 38.11445 47.29074 42.70260
#
# Velocity S-wave (km/s) = 3.85263 4.29141 4.07793
# Velocity P-wave (km/s) = 5.70175 6.33167 6.02495
#
# Compressibility (1/GPa) = 0.03061612
#
# Stress axis : x y z
#
# Youngs Moduli (GPa) = 71.61395 128.08162 71.67434
#
# Poissons Ratio (x) = -0.04326 0.24206
# Poissons Ratio (y) = -0.02419 -0.03482
# Poissons Ratio (z) = 0.24185 -0.06223
#
# Static dielectric constant tensor:
#      x y z
#    x 1.634090 0.260700 0.139970 
#    y 0.260700 2.023560 -0.153350 
#    z 0.139970 -0.153350 1.893190 
# 
# From -- ./inp_files/169096.got.cif
#   From: 2010.05.17/outbox.cif.g08.bks.cpg/sg2_85_cif.got.tgz:169096.got - 2010.06.03 11:33:40.
