data_PCOD9091234
_publ_section_title
;
Structure prediction by ZEFSAII (Michael W. Deem and Ramdas Pophale) SiO2 
 PCOD9091234
Probable space group: P -1
;
_chemical_formula_sum "Si O2"
_cell_formula_units_Z 13
_cell_length_a 7.459178
_cell_length_b 8.759208
_cell_length_c 13.906650
_cell_angle_alpha 43.205710
_cell_angle_beta 94.988333
_cell_angle_gamma 122.082240
_cell_volume 450.990751
_symmetry_space_group_name_H-M "P -1"
_symmetry_group_IT_number 2
_symmetry_cell_setting 'triclinic'
loop_
_space_group_symop_operation_xyz
x,y,z
-x,-y,-z
loop_
_atom_site_type_symbol
_atom_site_label
_atom_site_fract_x
_atom_site_fract_y
_atom_site_fract_z
Si Si1 0.601111 0.773297 0.741060
Si Si2 0.000000 0.000000 0.500000
Si Si3 0.986377 0.225645 0.085401
Si Si4 0.141182 0.619651 0.726116
Si Si5 0.247560 0.422443 0.640394
Si Si6 0.448832 0.720676 0.312460
Si Si7 0.508127 0.774986 0.952906
O O1 0.033788 0.773342 0.646660
O O2 0.451151 0.407947 0.895757
O O3 0.429113 0.828058 0.672438
O O4 0.625345 0.844052 0.821557
O O5 0.847133 0.948706 0.613458
O O6 0.001698 0.361041 0.921377
O O7 0.216844 0.491969 0.038577
O O8 0.724819 0.021254 0.223434
O O9 0.158053 0.523944 0.665753
O O10 0.279444 0.541780 0.479160
O O11 0.506992 0.489759 0.636216
O O12 0.047209 0.059963 0.809249
O O13 0.408614 0.904445 0.159737
#
# Coordination Sequence:
#
# PCOD9091234 Si02
#       7
#     2   1   2   2   2   2   2
#     4  10  24  39  62  97 126 166 210 273 310 370
#     4  12  24  40  64  98 126 168 220 260 326 372
#     4   9  19  35  65  96 123 172 207 261 318 374
#     4  11  22  41  64  93 130 168 211 268 318 380
#     4   9  20  36  62  95 135 165 207 266 325 375
#     4   9  18  34  61  99 123 173 213 260 315 380
#     4  10  19  39  64  91 130 163 221 258 310 381
#
# _framework density 28.825424000000002
#
# number of rings (size 3 to 8) (size 9 to 14) (size 15 to 20)
#    0.923    1.231    0.000    3.231    0.000    3.692 
#    0.000    3.077    6.769    9.231    0.000    0.000 
#    0.000    0.000    0.000    0.000    0.000    0.000 
#
# Total GULP energy -72450.286093 kJ/mol
# GULP energy per Si atom -5573.098930 kJ/mol
# Density = 2.875982 g / cm^3
# Si number density = 28.825424 Si / 1000 Ang^3
#
#
#
# Elastic Constant Matrix: (Units=GPa)
#
#
# Indices 1 2 3 4 5 6 
#
# 1 138.9044 51.9427 63.1731 5.6223 10.5710 -41.0104
# 2 51.9427 85.4223 57.1340 7.0471 -8.2178 -29.4293
# 3 63.1731 57.1340 232.9722 27.0700 13.3550 -9.9446
# 4 5.6223 7.0471 27.0700 43.2514 -28.4336 3.8951
# 5 10.5710 -8.2178 13.3550 -28.4336 64.9222 4.5468
# 6 -41.0104 -29.4293 -9.9446 3.8951 4.5468 42.3231
#
#
#
# Elastic Compliance Matrix: (Units=1/GPa)
#
#
# Indices 1 2 3 4 5 6 
#
# 1 0.012769 -0.003223 -0.001420 -0.004422 -0.004883 0.010730
# 2 -0.003223 0.019695 -0.003938 0.001334 0.003774 0.009118
# 3 -0.001420 -0.003938 0.006460 -0.005676 -0.003966 -0.001648
# 4 -0.004422 0.001334 -0.005676 0.041927 0.021177 -0.010825
# 5 -0.004883 0.003774 -0.003966 0.021177 0.027322 -0.007924
# 6 0.010730 0.009118 -0.001648 -0.010825 -0.007924 0.041825
#
#
# Mechanical properties :
#
#
# Convention : Reuss Voigt Hill
#
# Bulk Modulus (GPa) = 45.95446 89.08875 67.52160
# Shear Modulus (GPa) = 28.66758 49.10260 38.88509
#
# Velocity S-wave (km/s) = 3.15703 4.13176 3.67684
# Velocity P-wave (km/s) = 5.40981 7.33044 6.44210
#
# Compressibility (1/GPa) = 0.02176067
#
# Stress axis : x y z
#
# Youngs Moduli (GPa) = 78.31645 50.77559 154.80369
#
# Poissons Ratio (x) = 0.16364 0.21987
# Poissons Ratio (y) = 0.25239 0.60964
# Poissons Ratio (z) = 0.11123 0.19996
#
# Static dielectric constant tensor:
#      x y z
#    x 2.697470 0.216440 -0.059740 
#    y 0.216440 2.594080 -0.137100 
#    z -0.059740 -0.137100 2.231200 
# 
# From -- ./inp_files/588372.got.cif
#   From: 2010.05.17/outbox.cif.g08.bks.cpg/sg2_295_cif.got.tgz:588372.got - 2010.06.03 11:33:40.
