data_PCOD9091109
_publ_section_title
;
Structure prediction by ZEFSAII (Michael W. Deem and Ramdas Pophale) SiO2 
 PCOD9091109
Probable space group: P -1
;
_chemical_formula_sum "Si O2"
_cell_formula_units_Z 16
_cell_length_a 15.117134
_cell_length_b 14.796319
_cell_length_c 23.237454
_cell_angle_alpha 30.398520
_cell_angle_beta 161.455430
_cell_angle_gamma 150.510220
_cell_volume 790.357688
_symmetry_space_group_name_H-M "P -1"
_symmetry_group_IT_number 2
_symmetry_cell_setting 'triclinic'
loop_
_space_group_symop_operation_xyz
x,y,z
-x,-y,-z
loop_
_atom_site_type_symbol
_atom_site_label
_atom_site_fract_x
_atom_site_fract_y
_atom_site_fract_z
Si Si1 0.097891 0.520180 0.138874
Si Si2 0.324916 0.355816 0.520558
Si Si3 0.753704 0.836539 0.062913
Si Si4 0.184985 0.905827 0.933422
Si Si5 0.808046 0.484899 0.099707
Si Si6 0.880069 0.062107 0.250953
Si Si7 0.609282 0.953312 0.348431
Si Si8 0.952051 0.193745 0.846802
O O1 0.453569 0.577181 0.326942
O O2 0.983957 0.569852 0.103422
O O3 0.962799 0.292330 0.179116
O O4 0.045956 0.677236 0.978500
O O5 0.500000 0.500000 0.500000
O O6 0.324408 0.157527 0.604367
O O7 0.003155 0.370786 0.313213
O O8 0.514650 0.647646 0.043135
O O9 0.554823 0.912674 0.854183
O O10 0.995536 0.790335 0.197747
O O11 0.871404 0.988593 0.102402
O O12 0.083978 0.974791 0.773891
O O13 0.541123 0.969183 0.111667
O O14 0.811694 0.641990 0.062192
O O15 0.093323 0.988677 0.462677
O O16 0.363930 0.818802 0.314838
O O17 0.000000 0.000000 0.000000
#
# Coordination Sequence:
#
# PCOD9091109 Si02
#       8
#     2   2   2   2   2   2   2   2
#     4  11  18  34  56  82 114 149 177 226 285 337
#     4  10  16  28  55  81 111 135 174 231 279 325
#     4  11  22  34  57  82 115 151 191 228 273 331
#     4  11  23  37  54  85 115 151 185 228 282 335
#     4  11  19  33  55  88 115 141 182 236 288 325
#     4  11  23  37  55  83 119 145 187 232 281 339
#     4  11  19  36  56  83 112 149 184 233 281 328
#     4  10  20  35  54  82 112 146 190 233 273 330
#
# _framework density 20.243998000000001
#
# number of rings (size 3 to 8) (size 9 to 14) (size 15 to 20)
#    0.000    1.250    7.500    1.500    1.750    1.000 
#    0.000    0.625    0.000    0.000    0.000    5.250 
#    0.000    0.000    0.000    0.000    0.000    0.000 
#
# Total GULP energy -89159.331776 kJ/mol
# GULP energy per Si atom -5572.458236 kJ/mol
# Density = 2.019792 g / cm^3
# Si number density = 20.243998 Si / 1000 Ang^3
#
#
#
# Elastic Constant Matrix: (Units=GPa)
#
#
# Indices 1 2 3 4 5 6 
#
# 1 94.0113 15.4628 12.1153 -4.8023 0.5752 -6.3334
# 2 15.4628 60.0705 4.2186 1.3647 14.3025 -2.1141
# 3 12.1153 4.2186 24.5832 -5.3721 -4.4461 -3.2973
# 4 -4.8023 1.3647 -5.3721 18.4494 -2.9807 3.4266
# 5 0.5752 14.3025 -4.4461 -2.9807 26.9706 -2.6486
# 6 -6.3334 -2.1141 -3.2973 3.4266 -2.6486 24.2858
#
#
#
# Elastic Compliance Matrix: (Units=1/GPa)
#
#
# Indices 1 2 3 4 5 6 
#
# 1 0.011932 -0.002949 -0.004532 0.001771 0.000964 0.002095
# 2 -0.002949 0.020963 -0.005789 -0.006006 -0.012698 -0.000268
# 3 -0.004532 -0.005789 0.050296 0.015258 0.013583 0.004472
# 4 0.001771 -0.006006 0.015258 0.062515 0.012031 -0.005498
# 5 0.000964 -0.012698 0.013583 0.012031 0.047802 0.004506
# 6 0.002095 -0.000268 0.004472 -0.005498 0.004506 0.043574
#
#
# Mechanical properties :
#
#
# Convention : Reuss Voigt Hill
#
# Bulk Modulus (GPa) = 17.65200 26.91759 22.28479
# Shear Modulus (GPa) = 17.69881 23.73239 20.71560
#
# Velocity S-wave (km/s) = 2.96002 3.42763 3.20237
# Velocity P-wave (km/s) = 4.51894 5.38426 4.97047
#
# Compressibility (1/GPa) = 0.05665081
#
# Stress axis : x y z
#
# Youngs Moduli (GPa) = 83.80957 47.70266 19.88241
#
# Poissons Ratio (x) = 0.14068 0.09011
# Poissons Ratio (y) = 0.24716 0.11510
# Poissons Ratio (z) = 0.37982 0.27615
#
# Static dielectric constant tensor:
#      x y z
#    x 1.769020 0.016770 -0.009080 
#    y 0.016770 1.798060 0.011790 
#    z -0.009080 0.011790 1.738640 
# 
# From -- ./inp_files/267633.got.cif
#   From: 2010.05.17/outbox.cif.g08.bks.cpg/sg2_134_cif.got.tgz:267633.got - 2010.06.03 11:33:40.
