data_PCOD9091322
_publ_section_title
;
Structure prediction by ZEFSAII (Michael W. Deem and Ramdas Pophale) SiO2 
 PCOD9091322
Probable space group: P -1
;
_chemical_formula_sum "Si O2"
_cell_formula_units_Z 16
_cell_length_a 10.278586
_cell_length_b 10.587920
_cell_length_c 10.911894
_cell_angle_alpha 56.874997
_cell_angle_beta 111.592779
_cell_angle_gamma 128.671864
_cell_volume 775.828300
_symmetry_space_group_name_H-M "P -1"
_symmetry_group_IT_number 2
_symmetry_cell_setting 'triclinic'
loop_
_space_group_symop_operation_xyz
x,y,z
-x,-y,-z
loop_
_atom_site_type_symbol
_atom_site_label
_atom_site_fract_x
_atom_site_fract_y
_atom_site_fract_z
Si Si1 0.537523 0.860349 0.025827
Si Si2 0.509622 0.678611 0.362306
Si Si3 0.925950 0.857126 0.860368
Si Si4 0.160535 0.450778 0.457578
Si Si5 0.855889 0.914377 0.394992
Si Si6 0.111670 0.501481 0.686989
Si Si7 0.347407 0.522690 0.974076
Si Si8 0.135278 0.900883 0.147926
O O1 0.559150 0.751082 0.201654
O O2 0.404879 0.700466 0.977086
O O3 0.500000 0.000000 0.000000
O O4 0.693734 0.982091 0.927124
O O5 0.500000 0.500000 0.500000
O O6 0.316316 0.608920 0.350822
O O7 0.665510 0.844722 0.401640
O O8 0.860126 0.987055 0.792565
O O9 0.778469 0.653553 0.895613
O O10 0.070008 0.942294 0.765127
O O11 0.001877 0.865175 0.014974
O O12 0.162926 0.270561 0.556025
O O13 0.185256 0.523469 0.566087
O O14 0.976329 0.389871 0.379141
O O15 0.000000 0.000000 0.500000
O O16 0.243799 0.522162 0.821180
O O17 0.942321 0.301489 0.731382
O O18 0.500000 0.500000 0.000000
#
# Coordination Sequence:
#
# PCOD9091322 Si02
#       8
#     2   2   2   2   2   2   2   2
#     4  12  25  43  66  99 136 175 215 283 350 395
#     4  10  24  41  65  93 133 179 225 262 335 412
#     4  10  20  37  63  91 123 161 227 272 312 377
#     4  10  22  42  65  91 133 176 214 267 339 400
#     4  11  23  38  62  93 128 175 219 269 325 399
#     4  10  22  42  67  96 129 169 219 279 334 392
#     4  11  25  39  69 101 128 169 230 282 326 396
#     4  10  19  39  65  88 123 171 216 269 323 391
#
# _framework density 20.623118999999999
#
# number of rings (size 3 to 8) (size 9 to 14) (size 15 to 20)
#    0.000    1.500    3.750    0.750    7.000    1.000 
#    0.000    1.875    0.000    4.500    0.000    0.000 
#    0.000    0.000    0.000    0.000    0.000    0.000 
#
# Total GULP energy -89081.004422 kJ/mol
# GULP energy per Si atom -5567.562776 kJ/mol
# Density = 2.057618 g / cm^3
# Si number density = 20.623119 Si / 1000 Ang^3
#
#
#
# Elastic Constant Matrix: (Units=GPa)
#
#
# Indices 1 2 3 4 5 6 
#
# 1 61.9132 34.8821 2.0720 -2.9408 0.0232 12.6473
# 2 34.8821 127.2500 23.6991 -5.3893 -4.7797 13.1441
# 3 2.0720 23.6991 75.8933 -0.3670 -1.9811 5.7618
# 4 -2.9408 -5.3893 -0.3670 36.9229 12.5062 -0.7567
# 5 0.0232 -4.7797 -1.9811 12.5062 34.0103 -7.7475
# 6 12.6473 13.1441 5.7618 -0.7567 -7.7475 29.6418
#
#
#
# Elastic Compliance Matrix: (Units=1/GPa)
#
#
# Indices 1 2 3 4 5 6 
#
# 1 0.020666 -0.005215 0.001568 0.001771 -0.003028 -0.007556
# 2 -0.005215 0.010030 -0.002857 0.000779 0.000622 -0.001485
# 3 0.001568 -0.002857 0.014189 -0.000197 0.000003 -0.002164
# 4 0.001771 0.000779 -0.000197 0.031412 -0.012242 -0.003461
# 5 -0.003028 0.000622 0.000003 -0.012242 0.036317 0.010195
# 6 -0.007556 -0.001485 -0.002164 -0.003461 0.010195 0.040615
#
#
# Mechanical properties :
#
#
# Convention : Reuss Voigt Hill
#
# Bulk Modulus (GPa) = 31.37157 42.92922 37.15039
# Shear Modulus (GPa) = 28.27026 33.74187 31.00607
#
# Velocity S-wave (km/s) = 3.70645 4.04928 3.88166
# Velocity P-wave (km/s) = 5.79327 6.53632 6.17598
#
# Compressibility (1/GPa) = 0.03187600
#
# Stress axis : x y z
#
# Youngs Moduli (GPa) = 48.38807 99.70135 70.47633
#
# Poissons Ratio (x) = 0.51997 -0.11047
# Poissons Ratio (y) = 0.25236 0.20135
# Poissons Ratio (z) = -0.07585 0.28484
#
# Static dielectric constant tensor:
#      x y z
#    x 1.976140 0.076850 -0.060500 
#    y 0.076850 1.791800 -0.098170 
#    z -0.060500 -0.098170 1.945970 
# 
# From -- ./inp_files/414504.got.cif
#   From: 2010.05.17/outbox.cif.g08.bks.cpg/sg2_208_cif.got.tgz:414504.got - 2010.06.03 11:33:40.
