data_PCOD9091704
_publ_section_title
;
Structure prediction by ZEFSAII (Michael W. Deem and Ramdas Pophale) SiO2 
 PCOD9091704
Probable space group: P -1
;
_chemical_formula_sum "Si O2"
_cell_formula_units_Z 16
_cell_length_a 8.899473
_cell_length_b 11.606421
_cell_length_c 17.577484
_cell_angle_alpha 150.358668
_cell_angle_beta 74.253476
_cell_angle_gamma 115.012556
_cell_volume 794.797036
_symmetry_space_group_name_H-M "P -1"
_symmetry_group_IT_number 2
_symmetry_cell_setting 'triclinic'
loop_
_space_group_symop_operation_xyz
x,y,z
-x,-y,-z
loop_
_atom_site_type_symbol
_atom_site_label
_atom_site_fract_x
_atom_site_fract_y
_atom_site_fract_z
Si Si1 0.768735 0.301245 0.704579
Si Si2 0.219379 0.365294 0.235411
Si Si3 0.050615 0.463134 0.884450
Si Si4 0.473277 0.759016 0.661698
Si Si5 0.662712 0.039185 0.945607
Si Si6 0.921803 0.467162 0.407703
Si Si7 0.879679 0.036730 0.400469
Si Si8 0.565349 0.099437 0.414026
O O1 0.758079 0.543017 0.801965
O O2 0.882719 0.386736 0.812176
O O3 0.849003 0.161410 0.554187
O O4 0.583265 0.092850 0.625857
O O5 0.242080 0.114392 0.111873
O O6 0.358627 0.607779 0.400146
O O7 0.036564 0.357363 0.280795
O O8 0.106502 0.226702 0.742233
O O9 0.000000 0.500000 0.000000
O O10 0.198952 0.690979 0.948786
O O11 0.500000 0.500000 0.500000
O O12 0.582179 0.902285 0.799731
O O13 0.274806 0.696933 0.665035
O O14 0.510729 0.909720 0.664041
O O15 0.500000 0.000000 0.000000
O O16 0.000000 0.500000 0.500000
O O17 0.953929 0.748023 0.534784
O O18 0.725931 0.022186 0.357332
#
# Coordination Sequence:
#
# PCOD9091704 Si02
#       8
#     2   2   2   2   2   2   2   2
#     4  10  23  44  73  94 125 176 232 274 332 388
#     4  10  22  44  68  98 131 170 228 285 325 403
#     4  12  29  46  62 100 144 180 216 275 343 407
#     4  12  23  41  72 100 134 175 229 276 332 398
#     4  12  30  45  65 100 144 181 220 278 344 403
#     4  10  19  39  70 102 124 167 231 281 324 379
#     4  10  23  41  72  95 131 169 227 275 325 404
#     4  10  20  40  73 102 121 168 229 285 325 383
#
# _framework density 20.130924
#
# number of rings (size 3 to 8) (size 9 to 14) (size 15 to 20)
#    0.000    1.500    3.750    2.625   12.250    0.500 
#    2.250    1.250    0.000    0.000    0.000    0.000 
#    0.000    0.000    0.000    0.000    0.000    0.000 
#
# Total GULP energy -89309.689859 kJ/mol
# GULP energy per Si atom -5581.855616 kJ/mol
# Density = 2.008510 g / cm^3
# Si number density = 20.130924 Si / 1000 Ang^3
#
#
#
# Elastic Constant Matrix: (Units=GPa)
#
#
# Indices 1 2 3 4 5 6 
#
# 1 66.6779 33.2485 29.4140 7.0085 -5.6650 -19.4618
# 2 33.2485 126.8543 32.0012 17.5351 -14.7355 -15.4471
# 3 29.4140 32.0012 53.5125 11.7421 -8.6573 -20.3119
# 4 7.0085 17.5351 11.7421 37.8853 -13.0022 6.1034
# 5 -5.6650 -14.7355 -8.6573 -13.0022 27.2222 4.9674
# 6 -19.4618 -15.4471 -20.3119 6.1034 4.9674 45.9624
#
#
#
# Elastic Compliance Matrix: (Units=1/GPa)
#
#
# Indices 1 2 3 4 5 6 
#
# 1 0.021499 -0.002960 -0.008135 -0.001273 -0.001202 0.004812
# 2 -0.002960 0.010203 -0.003226 -0.002416 0.002582 0.000792
# 3 -0.008135 -0.003226 0.030745 -0.007893 0.000739 0.010026
# 4 -0.001273 -0.002416 -0.007893 0.037530 0.015949 -0.011546
# 5 -0.001202 0.002582 0.000739 0.015949 0.046922 -0.006503
# 6 0.004812 0.000792 0.010026 -0.011546 -0.006503 0.030728
#
#
# Mechanical properties :
#
#
# Convention : Reuss Voigt Hill
#
# Bulk Modulus (GPa) = 29.58233 48.48580 39.03407
# Shear Modulus (GPa) = 22.98459 32.37273 27.67866
#
# Velocity S-wave (km/s) = 3.38265 4.01447 3.71203
# Velocity P-wave (km/s) = 5.47570 6.75467 6.14853
#
# Compressibility (1/GPa) = 0.03380397
#
# Stress axis : x y z
#
# Youngs Moduli (GPa) = 46.51479 98.00915 32.52534
#
# Poissons Ratio (x) = 0.29012 0.26461
# Poissons Ratio (y) = 0.13769 0.10493
# Poissons Ratio (z) = 0.37841 0.31618
#
# Static dielectric constant tensor:
#      x y z
#    x 1.688200 -0.003170 0.002160 
#    y -0.003170 1.809360 -0.028370 
#    z 0.002160 -0.028370 1.703610 
# 
# From -- ./inp_files/559392.got.cif
#   From: 2010.05.17/outbox.cif.g08.bks.cpg/sg2_280_cif.got.tgz:559392.got - 2010.06.03 11:33:40.
