data_PCOD9091344
_publ_section_title
;
Structure prediction by ZEFSAII (Michael W. Deem and Ramdas Pophale) SiO2 
 PCOD9091344
Probable space group: P -1
;
_chemical_formula_sum "Si O2"
_cell_formula_units_Z 14
_cell_length_a 8.596140
_cell_length_b 20.795079
_cell_length_c 9.525560
_cell_angle_alpha 149.563907
_cell_angle_beta 117.867415
_cell_angle_gamma 45.866493
_cell_volume 576.217810
_symmetry_space_group_name_H-M "P -1"
_symmetry_group_IT_number 2
_symmetry_cell_setting 'triclinic'
loop_
_space_group_symop_operation_xyz
x,y,z
-x,-y,-z
loop_
_atom_site_type_symbol
_atom_site_label
_atom_site_fract_x
_atom_site_fract_y
_atom_site_fract_z
Si Si1 0.546159 0.841897 0.157209
Si Si2 0.351142 0.578592 0.324468
Si Si3 0.980584 0.658273 0.514994
Si Si4 0.327540 0.328571 0.392505
Si Si5 0.356386 0.290932 0.755839
Si Si6 0.702651 0.033962 0.215295
Si Si7 0.016545 0.063477 0.275775
O O1 0.656954 0.713790 0.092226
O O2 0.500000 0.000000 0.500000
O O3 0.285566 0.931824 0.172438
O O4 0.682276 0.749986 0.899791
O O5 0.562584 0.582093 0.422826
O O6 0.226728 0.604633 0.471607
O O7 0.139454 0.738597 0.444572
O O8 0.413784 0.410879 0.972482
O O9 0.913672 0.581633 0.456636
O O10 0.868062 0.654970 0.318689
O O11 0.823097 0.850531 0.865496
O O12 0.522724 0.173173 0.284888
O O13 0.561429 0.103665 0.430507
O O14 0.902105 0.043912 0.319234
O O15 0.000000 0.000000 0.000000
#
# Coordination Sequence:
#
# PCOD9091344 Si02
#       7
#     2   2   2   2   2   2   2
#     4  12  22  39  62  99 132 164 214 279 324 372
#     4  11  22  42  64  93 132 170 216 264 322 391
#     4  11  20  39  67  91 124 178 223 252 314 405
#     4  10  21  37  62  88 124 174 215 251 323 390
#     4  11  25  36  62 102 132 158 210 286 329 353
#     4  10  19  39  65  91 123 173 224 253 311 404
#     4  11  20  40  68  91 121 182 219 251 317 402
#
# _framework density 24.296368000000001
#
# number of rings (size 3 to 8) (size 9 to 14) (size 15 to 20)
#    0.000    1.143    4.286    4.714    0.000    6.286 
#    0.000    2.143    0.000    3.429    0.000    1.000 
#    0.000    0.000    0.000    0.000    0.000    0.000 
#
# Total GULP energy -78154.130208 kJ/mol
# GULP energy per Si atom -5582.437872 kJ/mol
# Density = 2.424107 g / cm^3
# Si number density = 24.296368 Si / 1000 Ang^3
#
#
#
# Elastic Constant Matrix: (Units=GPa)
#
#
# Indices 1 2 3 4 5 6 
#
# 1 167.4801 18.8512 38.0022 -8.4379 -2.8987 15.1486
# 2 18.8512 64.9208 22.5643 -11.5688 -7.8349 13.2667
# 3 38.0022 22.5643 113.3427 3.0777 5.0139 8.2284
# 4 -8.4379 -11.5688 3.0777 42.9171 13.4579 -8.3612
# 5 -2.8987 -7.8349 5.0139 13.4579 41.5230 8.6334
# 6 15.1486 13.2667 8.2284 -8.3612 8.6334 20.5177
#
#
#
# Elastic Compliance Matrix: (Units=1/GPa)
#
#
# Indices 1 2 3 4 5 6 
#
# 1 0.006919 -0.000079 -0.002017 -0.000048 0.001769 -0.005013
# 2 -0.000079 0.020545 -0.003337 0.000702 0.007078 -0.014580
# 3 -0.002017 -0.003337 0.010316 -0.001751 -0.001313 -0.000651
# 4 -0.000048 0.000702 -0.001751 0.031665 -0.013878 0.019027
# 5 0.001769 0.007078 -0.001313 -0.013878 0.035603 -0.025993
# 6 -0.005013 -0.014580 -0.000651 0.019027 -0.025993 0.080819
#
#
# Mechanical properties :
#
#
# Convention : Reuss Voigt Hill
#
# Bulk Modulus (GPa) = 37.15556 56.06434 46.60995
# Shear Modulus (GPa) = 24.30659 38.74662 31.52661
#
# Velocity S-wave (km/s) = 3.16637 3.99776 3.60611
# Velocity P-wave (km/s) = 5.35665 6.66594 6.04684
#
# Compressibility (1/GPa) = 0.02691387
#
# Stress axis : x y z
#
# Youngs Moduli (GPa) = 144.52843 48.67374 96.93219
#
# Poissons Ratio (x) = 0.00382 0.19554
# Poissons Ratio (y) = 0.01136 0.32351
# Poissons Ratio (z) = 0.29156 0.16245
#
# Static dielectric constant tensor:
#      x y z
#    x 2.028360 0.023300 0.014230 
#    y 0.023300 1.913050 0.068160 
#    z 0.014230 0.068160 1.944040 
# 
# From -- ./inp_files/224395.got.cif
#   From: 2010.05.17/outbox.cif.g08.bks.cpg/sg2_113_cif.got.tgz:224395.got - 2010.06.03 11:33:40.
