data_PCOD9091758
_publ_section_title
;
Structure prediction by ZEFSAII (Michael W. Deem and Ramdas Pophale) SiO2 
 PCOD9091758
Probable space group: P -1
;
_chemical_formula_sum "Si O2"
_cell_formula_units_Z 14
_cell_length_a 12.236225
_cell_length_b 14.939693
_cell_length_c 9.938229
_cell_angle_alpha 121.497888
_cell_angle_beta 142.077493
_cell_angle_gamma 31.623432
_cell_volume 518.888027
_symmetry_space_group_name_H-M "P -1"
_symmetry_group_IT_number 2
_symmetry_cell_setting 'triclinic'
loop_
_space_group_symop_operation_xyz
x,y,z
-x,-y,-z
loop_
_atom_site_type_symbol
_atom_site_label
_atom_site_fract_x
_atom_site_fract_y
_atom_site_fract_z
Si Si1 0.304267 0.497220 0.560571
Si Si2 0.078482 0.507475 0.888964
Si Si3 0.055133 0.743534 0.133437
Si Si4 0.240985 0.982724 0.186848
Si Si5 0.539291 0.647611 0.108274
Si Si6 0.131980 0.110712 0.464058
Si Si7 0.300629 0.930667 0.749148
O O1 0.216265 0.425750 0.367680
O O2 0.561619 0.418934 0.645397
O O3 0.446532 0.420529 0.790874
O O4 0.978758 0.725117 0.449992
O O5 0.037701 0.627423 0.037968
O O6 0.387320 0.284329 0.059550
O O7 0.168461 0.514034 0.836960
O O8 0.850652 0.901935 0.175069
O O9 0.903284 0.870421 0.950532
O O10 0.535108 0.772519 0.241431
O O11 0.295061 0.019124 0.404997
O O12 0.000000 0.000000 0.000000
O O13 0.216449 0.774727 0.811686
O O14 0.343119 0.950484 0.655313
O O15 0.000000 0.000000 0.500000
#
# Coordination Sequence:
#
# PCOD9091758 Si02
#       7
#     2   2   2   2   2   2   2
#     4  12  25  44  76 106 148 184 248 305 361 425
#     4  12  27  47  72 114 145 189 246 301 359 436
#     4  12  24  49  78 105 146 196 240 298 366 426
#     4  10  19  39  77 105 136 190 249 286 356 434
#     4  11  20  44  72 107 145 184 243 306 356 426
#     4  11  22  42  73 105 140 199 235 297 368 426
#     4  12  25  48  77 103 151 195 242 292 364 443
#
# _framework density 26.980775000000001
#
# number of rings (size 3 to 8) (size 9 to 14) (size 15 to 20)
#    0.000    0.571    7.143    2.571    0.000    2.857 
#    2.571    4.286    0.000    0.000    0.000    0.000 
#    0.000    0.000    0.000    0.000    0.000    0.000 
#
# Total GULP energy -78527.830835 kJ/mol
# GULP energy per Si atom -5609.130774 kJ/mol
# Density = 2.691937 g / cm^3
# Si number density = 26.980775 Si / 1000 Ang^3
#
#
#
# Elastic Constant Matrix: (Units=GPa)
#
#
# Indices 1 2 3 4 5 6 
#
# 1 90.2827 20.9860 58.6580 13.6976 13.1135 -6.5608
# 2 20.9860 179.3990 47.2640 40.9030 1.9661 17.0594
# 3 58.6580 47.2640 126.2065 15.6363 -11.9813 5.7229
# 4 13.6976 40.9030 15.6363 40.3296 3.7058 3.5759
# 5 13.1135 1.9661 -11.9813 3.7058 54.0995 2.9090
# 6 -6.5608 17.0594 5.7229 3.5759 2.9090 27.5480
#
#
#
# Elastic Compliance Matrix: (Units=1/GPa)
#
#
# Indices 1 2 3 4 5 6 
#
# 1 0.019408 0.000401 -0.009786 -0.003226 -0.007072 0.007573
# 2 0.000401 0.008065 -0.002182 -0.007142 -0.000196 -0.003498
# 3 -0.009786 -0.002182 0.014050 -0.000045 0.005808 -0.004506
# 4 -0.003226 -0.007142 -0.000045 0.033312 -0.001222 -0.000531
# 5 -0.007072 -0.000196 0.005808 -0.001222 0.021840 -0.004917
# 6 0.007573 -0.003498 -0.004506 -0.000531 -0.004917 0.041794
#
#
# Mechanical properties :
#
#
# Convention : Reuss Voigt Hill
#
# Bulk Modulus (GPa) = 54.37795 72.18934 63.28365
# Shear Modulus (GPa) = 29.80933 42.32743 36.06838
#
# Velocity S-wave (km/s) = 3.32751 3.96510 3.66022
# Velocity P-wave (km/s) = 5.91280 6.91207 6.43187
#
# Compressibility (1/GPa) = 0.01838981
#
# Stress axis : x y z
#
# Youngs Moduli (GPa) = 51.52516 123.98886 71.17421
#
# Poissons Ratio (x) = -0.04967 0.69648
# Poissons Ratio (y) = -0.02064 0.15529
# Poissons Ratio (z) = 0.50420 0.27052
#
# Static dielectric constant tensor:
#      x y z
#    x 2.150020 -0.011610 0.032610 
#    y -0.011610 2.150310 -0.007610 
#    z 0.032610 -0.007610 2.099010 
# 
# From -- ./inp_files/267119.got.cif
#   From: 2010.05.17/outbox.cif.g08.bks.cpg/sg2_134_cif.got.tgz:267119.got - 2010.06.03 11:33:40.
