data_PCOD9091330
_publ_section_title
;
Structure prediction by ZEFSAII (Michael W. Deem and Ramdas Pophale) SiO2 
 PCOD9091330
Probable space group: P -1
;
_chemical_formula_sum "Si O2"
_cell_formula_units_Z 16
_cell_length_a 21.116890
_cell_length_b 9.245709
_cell_length_c 26.853784
_cell_angle_alpha 35.981586
_cell_angle_beta 161.749963
_cell_angle_gamma 151.458001
_cell_volume 773.414367
_symmetry_space_group_name_H-M "P -1"
_symmetry_group_IT_number 2
_symmetry_cell_setting 'triclinic'
loop_
_space_group_symop_operation_xyz
x,y,z
-x,-y,-z
loop_
_atom_site_type_symbol
_atom_site_label
_atom_site_fract_x
_atom_site_fract_y
_atom_site_fract_z
Si Si1 0.057667 0.399526 0.620679
Si Si2 0.962438 0.592868 0.291625
Si Si3 0.568180 0.813099 0.569896
Si Si4 0.935354 0.797537 0.676804
Si Si5 0.732106 0.289091 0.975656
Si Si6 0.051747 0.282409 0.069840
Si Si7 0.370840 0.212811 0.041251
Si Si8 0.690458 0.018974 0.177381
O O1 0.020716 0.521256 0.610380
O O2 0.350643 0.538896 0.801018
O O3 0.000000 0.500000 0.500000
O O4 0.892514 0.032504 0.603140
O O5 0.870371 0.346631 0.248170
O O6 0.747699 0.646954 0.116366
O O7 0.219834 0.922238 0.381614
O O8 0.319884 0.522569 0.440275
O O9 0.707882 0.694894 0.736990
O O10 0.500000 0.000000 0.500000
O O11 0.089624 0.737153 0.846916
O O12 0.111077 0.982205 0.708203
O O13 0.891969 0.607871 0.975774
O O14 0.637834 0.030350 0.934223
O O15 0.496648 0.214387 0.853783
O O16 0.000000 0.500000 0.000000
O O17 0.809141 0.951519 0.998884
O O18 0.500000 0.000000 0.000000
#
# Coordination Sequence:
#
# PCOD9091330 Si02
#       8
#     2   2   2   2   2   2   2   2
#     4  12  26  40  63 101 131 166 221 282 329 389
#     4  11  21  42  67  91 126 181 213 264 334 391
#     4  11  24  44  66  95 138 172 220 275 337 396
#     4  11  24  41  64  95 133 169 221 276 330 391
#     4  10  19  39  66  95 124 170 219 267 323 393
#     4   9  22  39  67  95 124 177 220 265 322 395
#     4  10  19  39  65  89 128 164 221 262 324 388
#     4  10  20  36  67  94 124 167 222 263 324 393
#
# _framework density 20.687487000000001
#
# number of rings (size 3 to 8) (size 9 to 14) (size 15 to 20)
#    0.000    1.500    3.750    1.875    3.500    1.500 
#    2.250    1.875    0.000    0.000    0.000    0.000 
#    0.000    0.000    0.000    0.000    0.000    0.000 
#
# Total GULP energy -89248.615012 kJ/mol
# GULP energy per Si atom -5578.038438 kJ/mol
# Density = 2.064040 g / cm^3
# Si number density = 20.687487 Si / 1000 Ang^3
#
#
#
# Elastic Constant Matrix: (Units=GPa)
#
#
# Indices 1 2 3 4 5 6 
#
# 1 130.1936 34.6886 43.7606 4.0782 -10.8993 21.2788
# 2 34.6886 66.6368 46.6687 17.1038 -17.9217 4.3045
# 3 43.7606 46.6687 93.4166 15.1077 -7.5695 3.6196
# 4 4.0782 17.1038 15.1077 36.4296 -1.7777 -5.0238
# 5 -10.8993 -17.9217 -7.5695 -1.7777 28.0906 -2.0397
# 6 21.2788 4.3045 3.6196 -5.0238 -2.0397 44.5105
#
#
#
# Elastic Compliance Matrix: (Units=1/GPa)
#
#
# Indices 1 2 3 4 5 6 
#
# 1 0.010282 -0.002642 -0.003398 0.000972 0.001143 -0.004222
# 2 -0.002642 0.030720 -0.011438 -0.008809 0.014855 -0.001091
# 3 -0.003398 -0.011438 0.017950 -0.001756 -0.003825 0.000897
# 4 0.000972 -0.008809 -0.001756 0.032601 -0.003359 0.004056
# 5 0.001143 0.014855 -0.003825 -0.003359 0.044275 -0.000022
# 6 -0.004222 -0.001091 0.000897 0.004056 -0.000022 0.024974
#
#
# Mechanical properties :
#
#
# Convention : Reuss Voigt Hill
#
# Bulk Modulus (GPa) = 41.67527 60.05368 50.86447
# Shear Modulus (GPa) = 24.53904 32.81476 28.67690
#
# Velocity S-wave (km/s) = 3.44783 3.98705 3.72720
# Velocity P-wave (km/s) = 6.00324 7.09136 6.56987
#
# Compressibility (1/GPa) = 0.02399504
#
# Stress axis : x y z
#
# Youngs Moduli (GPa) = 97.25636 32.55237 55.71035
#
# Poissons Ratio (x) = 0.08602 0.18928
# Poissons Ratio (y) = 0.25699 0.63724
# Poissons Ratio (z) = 0.33043 0.37235
#
# Static dielectric constant tensor:
#      x y z
#    x 1.809710 0.027010 -0.007180 
#    y 0.027010 1.730260 0.058040 
#    z -0.007180 0.058040 1.691380 
# 
# From -- ./inp_files/353648.got.cif
#   From: 2010.05.17/outbox.cif.g08.bks.cpg/sg2_177_cif.got.tgz:353648.got - 2010.06.03 11:33:40.
