data_PCOD9091750
_publ_section_title
;
Structure prediction by ZEFSAII (Michael W. Deem and Ramdas Pophale) SiO2 
 PCOD9091750
Probable space group: P -1
;
_chemical_formula_sum "Si O2"
_cell_formula_units_Z 16
_cell_length_a 11.726176
_cell_length_b 12.425336
_cell_length_c 9.397991
_cell_angle_alpha 49.137161
_cell_angle_beta 120.459847
_cell_angle_gamma 131.445150
_cell_volume 769.634398
_symmetry_space_group_name_H-M "P -1"
_symmetry_group_IT_number 2
_symmetry_cell_setting 'triclinic'
loop_
_space_group_symop_operation_xyz
x,y,z
-x,-y,-z
loop_
_atom_site_type_symbol
_atom_site_label
_atom_site_fract_x
_atom_site_fract_y
_atom_site_fract_z
Si Si1 0.880563 0.817099 0.634327
Si Si2 0.343910 0.732034 0.934366
Si Si3 0.204032 0.630351 0.392268
Si Si4 0.349398 0.505191 0.371933
Si Si5 0.708423 0.469068 0.203707
Si Si6 0.071165 0.664750 0.997505
Si Si7 0.392054 0.996985 0.306170
Si Si8 0.657131 0.747784 0.799097
O O1 0.796838 0.678546 0.579113
O O2 0.743256 0.804235 0.654681
O O3 0.974204 0.753245 0.841601
O O4 0.000000 0.000000 0.500000
O O5 0.274916 0.632848 0.828640
O O6 0.235292 0.770030 0.930874
O O7 0.497294 0.896140 0.844964
O O8 0.369734 0.604092 0.153608
O O9 0.319777 0.602466 0.391692
O O10 0.178130 0.513102 0.612330
O O11 0.280544 0.811822 0.349078
O O12 0.085325 0.618799 0.207456
O O13 0.500000 0.500000 0.500000
O O14 0.529024 0.357259 0.238122
O O15 0.713632 0.633619 0.009387
O O16 0.000000 0.500000 0.000000
O O17 0.500000 0.000000 0.500000
O O18 0.308516 0.093162 0.225274
#
# Coordination Sequence:
#
# PCOD9091750 Si02
#       8
#     2   2   2   2   2   2   2   2
#     4  12  26  44  70  97 142 188 220 282 345 411
#     4  10  21  39  70  95 136 176 217 283 344 393
#     4  11  23  40  68 101 131 175 228 277 337 410
#     4  11  24  41  71 102 136 174 240 278 344 409
#     4  10  19  39  73  99 129 176 227 288 333 402
#     4  11  23  46  64  90 139 179 227 262 337 420
#     4  11  23  38  67 106 136 164 229 295 341 389
#     4  10  21  40  67  99 136 173 225 278 351 390
#
# _framework density 20.789092
#
# number of rings (size 3 to 8) (size 9 to 14) (size 15 to 20)
#    0.000    1.250    6.250    0.750    5.250    3.000 
#    0.000    3.125    2.750    0.000    0.000    0.000 
#    0.000    0.000    0.000    0.000    0.000    0.000 
#
# Total GULP energy -89363.940657 kJ/mol
# GULP energy per Si atom -5585.246291 kJ/mol
# Density = 2.074178 g / cm^3
# Si number density = 20.789092 Si / 1000 Ang^3
#
#
#
# Elastic Constant Matrix: (Units=GPa)
#
#
# Indices 1 2 3 4 5 6 
#
# 1 94.4593 9.9975 19.9259 -5.6711 -5.9756 -7.3077
# 2 9.9975 86.5437 38.8274 -6.8162 3.1723 -11.3274
# 3 19.9259 38.8274 110.4398 13.7121 -2.9497 3.2171
# 4 -5.6711 -6.8162 13.7121 41.7994 1.5892 -1.0431
# 5 -5.9756 3.1723 -2.9497 1.5892 35.6745 1.9985
# 6 -7.3077 -11.3274 3.2171 -1.0431 1.9985 21.7616
#
#
#
# Elastic Compliance Matrix: (Units=1/GPa)
#
#
# Indices 1 2 3 4 5 6 
#
# 1 0.011709 0.000678 -0.002787 0.002682 0.001288 0.004707
# 2 0.000678 0.016486 -0.006967 0.005429 -0.002750 0.010351
# 3 -0.002787 -0.006967 0.013008 -0.006026 0.001886 -0.006947
# 4 0.002682 0.005429 -0.006026 0.027382 -0.002095 0.006122
# 5 0.001288 -0.002750 0.001886 -0.002095 0.028967 -0.004039
# 6 0.004707 0.010351 -0.006947 0.006122 -0.004039 0.054613
#
#
# Mechanical properties :
#
#
# Convention : Reuss Voigt Hill
#
# Bulk Modulus (GPa) = 43.38270 47.66048 45.52159
# Shear Modulus (GPa) = 28.08987 34.69325 31.39156
#
# Velocity S-wave (km/s) = 3.67983 4.08955 3.89009
# Velocity P-wave (km/s) = 6.24245 6.72865 6.49010
#
# Compressibility (1/GPa) = 0.02305067
#
# Stress axis : x y z
#
# Youngs Moduli (GPa) = 85.40241 60.65918 76.87654
#
# Poissons Ratio (x) = -0.04110 0.21422
# Poissons Ratio (y) = -0.05787 0.53561
# Poissons Ratio (z) = 0.23798 0.42262
#
# Static dielectric constant tensor:
#      x y z
#    x 1.798600 0.028070 -0.003250 
#    y 0.028070 1.755120 0.004360 
#    z -0.003250 0.004360 1.762030 
# 
# From -- ./inp_files/261753.got.cif
#   From: 2010.05.17/outbox.cif.g08.bks.cpg/sg2_131_cif.got.tgz:261753.got - 2010.06.03 11:33:40.
