data_PCOD9091219
_publ_section_title
;
Structure prediction by ZEFSAII (Michael W. Deem and Ramdas Pophale) SiO2 
 PCOD9091219
Probable space group: P -1
;
_chemical_formula_sum "Si O2"
_cell_formula_units_Z 14
_cell_length_a 24.505752
_cell_length_b 5.373232
_cell_length_c 9.213770
_cell_angle_alpha 99.870752
_cell_angle_beta 28.184834
_cell_angle_gamma 103.225392
_cell_volume 556.621951
_symmetry_space_group_name_H-M "P -1"
_symmetry_group_IT_number 2
_symmetry_cell_setting 'triclinic'
loop_
_space_group_symop_operation_xyz
x,y,z
-x,-y,-z
loop_
_atom_site_type_symbol
_atom_site_label
_atom_site_fract_x
_atom_site_fract_y
_atom_site_fract_z
Si Si1 0.235592 0.941413 0.724714
Si Si2 0.971665 0.742212 0.788873
Si Si3 0.843933 0.328429 0.851653
Si Si4 0.841255 0.549019 0.335383
Si Si5 0.400758 0.991760 0.851324
Si Si6 0.253640 0.422906 0.145696
Si Si7 0.598884 0.737087 0.829770
O O1 0.356896 0.096297 0.397507
O O2 0.189418 0.734587 0.686731
O O3 0.129155 0.100098 0.003941
O O4 0.251754 0.825058 0.833401
O O5 0.934571 0.462894 0.773463
O O6 0.093680 0.830312 0.429040
O O7 0.951316 0.702554 0.004488
O O8 0.795371 0.545030 0.895653
O O9 0.846781 0.576444 0.497146
O O10 0.722366 0.655399 0.581457
O O11 0.500000 0.000000 0.500000
O O12 0.317579 0.184495 0.002382
O O13 0.438729 0.106810 0.931071
O O14 0.338549 0.698615 0.992718
O O15 0.500000 0.500000 0.000000
#
# Coordination Sequence:
#
# PCOD9091219 Si02
#       7
#     2   2   2   2   2   2   2
#     4  10  19  39  64  90 131 172 220 277 333 398
#     4   9  20  39  63  95 132 172 225 275 332 392
#     4  10  22  38  63  98 133 172 221 278 335 408
#     4   9  20  40  62  90 131 172 216 278 327 402
#     4  11  25  47  70  96 139 177 230 288 345 404
#     4  11  24  45  67  98 137 180 220 280 348 403
#     4  10  22  42  68  95 129 178 231 281 340 408
#
# _framework density 25.151720000000001
#
# number of rings (size 3 to 8) (size 9 to 14) (size 15 to 20)
#    0.000    2.000    1.429    0.857    2.000    4.571 
#    5.143    0.714    0.000    0.000    0.000    0.000 
#    0.000    0.000    0.000    0.000    0.000    0.000 
#
# Total GULP energy -78303.840908 kJ/mol
# GULP energy per Si atom -5593.131493 kJ/mol
# Density = 2.509447 g / cm^3
# Si number density = 25.151720 Si / 1000 Ang^3
#
#
#
# Elastic Constant Matrix: (Units=GPa)
#
#
# Indices 1 2 3 4 5 6 
#
# 1 76.0304 42.3358 61.6998 -20.2425 8.8156 -7.6352
# 2 42.3358 87.7640 60.9650 0.5866 14.2007 5.3170
# 3 61.6998 60.9650 185.8031 -2.4289 35.6126 -14.2143
# 4 -20.2425 0.5866 -2.4289 41.8285 -17.9519 9.1971
# 5 8.8156 14.2007 35.6126 -17.9519 39.6144 -2.0228
# 6 -7.6352 5.3170 -14.2143 9.1971 -2.0228 40.7114
#
#
#
# Elastic Compliance Matrix: (Units=1/GPa)
#
#
# Indices 1 2 3 4 5 6 
#
# 1 0.030290 -0.010840 -0.009022 0.020529 0.014560 0.000032
# 2 -0.010840 0.019246 -0.001878 -0.007536 -0.006409 -0.003818
# 3 -0.009022 -0.001878 0.011438 -0.009630 -0.011754 0.004138
# 4 0.020529 -0.007536 -0.009630 0.046976 0.027682 -0.007765
# 5 0.014560 -0.006409 -0.011754 0.027682 0.047185 -0.004445
# 6 0.000032 -0.003818 0.004138 -0.007765 -0.004445 0.028046
#
#
# Mechanical properties :
#
#
# Convention : Reuss Voigt Hill
#
# Bulk Modulus (GPa) = 57.15611 75.51096 66.33354
# Shear Modulus (GPa) = 21.50626 36.73731 29.12178
#
# Velocity S-wave (km/s) = 2.92732 3.82596 3.40640
# Velocity P-wave (km/s) = 5.84803 7.04306 6.47318
#
# Compressibility (1/GPa) = 0.01749594
#
# Stress axis : x y z
#
# Youngs Moduli (GPa) = 33.01385 51.95878 87.43151
#
# Poissons Ratio (x) = 0.56322 0.78878
# Poissons Ratio (y) = 0.35786 0.16416
# Poissons Ratio (z) = 0.29784 0.09756
#
# Static dielectric constant tensor:
#      x y z
#    x 1.992490 -0.039050 -0.005400 
#    y -0.039050 2.061220 -0.045280 
#    z -0.005400 -0.045280 2.018900 
# 
# From -- ./inp_files/38073.got.cif
#   From: 2010.05.17/outbox.cif.g08.bks.cpg/sg2_20_cif.got.tgz:38073.got - 2010.06.03 11:33:40.
