data_PCOD9091230
_publ_section_title
;
Structure prediction by ZEFSAII (Michael W. Deem and Ramdas Pophale) SiO2 
 PCOD9091230
Probable space group: P -1
;
_chemical_formula_sum "Si O2"
_cell_formula_units_Z 12
_cell_length_a 14.978452
_cell_length_b 10.274237
_cell_length_c 9.045776
_cell_angle_alpha 51.604110
_cell_angle_beta 133.162906
_cell_angle_gamma 152.353978
_cell_volume 470.680963
_symmetry_space_group_name_H-M "P -1"
_symmetry_group_IT_number 2
_symmetry_cell_setting 'triclinic'
loop_
_space_group_symop_operation_xyz
x,y,z
-x,-y,-z
loop_
_atom_site_type_symbol
_atom_site_label
_atom_site_fract_x
_atom_site_fract_y
_atom_site_fract_z
Si Si1 0.058382 0.468867 0.856606
Si Si2 0.327197 0.071624 0.837659
Si Si3 0.400699 0.943091 0.272439
Si Si4 0.945277 0.094177 0.764881
Si Si5 0.949271 0.846566 0.707105
Si Si6 0.498731 0.704580 0.430639
O O1 0.841539 0.307552 0.783085
O O2 0.042062 0.370387 0.743681
O O3 0.225984 0.792289 0.851584
O O4 0.086135 0.335854 0.081436
O O5 0.133661 0.973954 0.731291
O O6 0.466345 0.291702 0.706710
O O7 0.438845 0.145709 0.067251
O O8 0.475195 0.874499 0.304402
O O9 0.500000 0.000000 0.500000
O O10 0.005514 0.082160 0.683432
O O11 0.699840 0.862963 0.635756
O O12 0.000000 0.000000 0.000000
O O13 0.722843 0.602467 0.551158
#
# Coordination Sequence:
#
# PCOD9091230 Si02
#       6
#     2   2   2   2   2   2
#     4  10  19  39  64  91 127 165 201 258 317 364
#     4  11  23  39  68  97 127 156 212 269 305 374
#     4  11  20  38  64  96 127 161 206 258 318 370
#     4  10  23  40  63  91 128 170 210 252 312 377
#     4  10  21  41  65  85 130 171 203 254 314 372
#     4  12  22  39  69  95 121 169 214 254 316 369
#
# _framework density 25.494976000000001
#
# number of rings (size 3 to 8) (size 9 to 14) (size 15 to 20)
#    0.000    1.333    5.000    2.000    0.000    1.333 
#    0.000    0.000    3.667    5.000    0.000    0.000 
#    0.000    0.000    0.000    0.000    0.000    0.000 
#
# Total GULP energy -67061.068512 kJ/mol
# GULP energy per Si atom -5588.422376 kJ/mol
# Density = 2.543695 g / cm^3
# Si number density = 25.494976 Si / 1000 Ang^3
#
#
#
# Elastic Constant Matrix: (Units=GPa)
#
#
# Indices 1 2 3 4 5 6 
#
# 1 178.5807 30.2420 32.3231 18.5907 24.6206 11.1241
# 2 30.2420 58.4722 41.1596 3.6628 7.8007 -0.3752
# 3 32.3231 41.1596 152.2905 23.0411 12.5528 25.4201
# 4 18.5907 3.6628 23.0411 26.5002 3.1634 3.6249
# 5 24.6206 7.8007 12.5528 3.1634 42.6826 7.4254
# 6 11.1241 -0.3752 25.4201 3.6249 7.4254 26.6312
#
#
#
# Elastic Compliance Matrix: (Units=1/GPa)
#
#
# Indices 1 2 3 4 5 6 
#
# 1 0.007073 -0.003535 0.000755 -0.004466 -0.002925 -0.002302
# 2 -0.003535 0.024638 -0.008074 0.005056 -0.002105 0.009429
# 3 0.000755 -0.008074 0.011527 -0.008025 0.000046 -0.010352
# 4 -0.004466 0.005056 -0.008025 0.046705 -0.000013 0.003243
# 5 -0.002925 -0.002105 0.000046 -0.000013 0.026577 -0.006260
# 6 -0.002302 0.009429 -0.010352 0.003243 -0.006260 0.049830
#
#
# Mechanical properties :
#
#
# Convention : Reuss Voigt Hill
#
# Bulk Modulus (GPa) = 46.44521 66.31029 56.37775
# Shear Modulus (GPa) = 25.61022 38.20402 31.90712
#
# Velocity S-wave (km/s) = 3.17285 3.87524 3.54150
# Velocity P-wave (km/s) = 5.62847 6.78888 6.23572
#
# Compressibility (1/GPa) = 0.02153075
#
# Stress axis : x y z
#
# Youngs Moduli (GPa) = 141.38025 40.58714 86.75480
#
# Poissons Ratio (x) = 0.14346 -0.06550
# Poissons Ratio (y) = 0.49971 0.70047
# Poissons Ratio (z) = -0.10674 0.32771
#
# Static dielectric constant tensor:
#      x y z
#    x 1.994980 -0.054870 -0.050630 
#    y -0.054870 1.996310 -0.001380 
#    z -0.050630 -0.001380 2.139020 
# 
# From -- ./inp_files/166451.got.cif
#   From: 2010.05.17/outbox.cif.g08.bks.cpg/sg2_84_cif.got.tgz:166451.got - 2010.06.03 11:33:40.
