data_PCOD9091257
_publ_section_title
;
Structure prediction by ZEFSAII (Michael W. Deem and Ramdas Pophale) SiO2 
 PCOD9091257
Probable space group: P -1
;
_chemical_formula_sum "Si O2"
_cell_formula_units_Z 16
_cell_length_a 15.545912
_cell_length_b 15.429487
_cell_length_c 9.073362
_cell_angle_alpha 129.190274
_cell_angle_beta 103.774624
_cell_angle_gamma 33.233796
_cell_volume 674.591810
_symmetry_space_group_name_H-M "P -1"
_symmetry_group_IT_number 2
_symmetry_cell_setting 'triclinic'
loop_
_space_group_symop_operation_xyz
x,y,z
-x,-y,-z
loop_
_atom_site_type_symbol
_atom_site_label
_atom_site_fract_x
_atom_site_fract_y
_atom_site_fract_z
Si Si1 0.240334 0.574230 0.642701
Si Si2 0.290562 0.003694 0.203526
Si Si3 0.735502 0.269778 0.807799
Si Si4 0.972803 0.209333 0.777079
Si Si5 0.973166 0.572606 0.235090
Si Si6 0.771024 0.172403 0.028385
Si Si7 0.286452 0.387930 0.161078
Si Si8 0.938796 0.398896 0.230277
O O1 0.342334 0.580142 0.709952
O O2 0.277998 0.479587 0.396149
O O3 0.262413 0.443972 0.623434
O O4 0.987033 0.897135 0.910911
O O5 0.199474 0.133847 0.469379
O O6 0.094429 0.242928 0.264382
O O7 0.359472 0.793580 0.990057
O O8 0.480849 0.866016 0.087282
O O9 0.776803 0.352926 0.896539
O O10 0.500000 0.500000 0.000000
O O11 0.861586 0.087776 0.810014
O O12 0.836061 0.090391 0.519180
O O13 0.880973 0.385092 0.792005
O O14 0.044520 0.202149 0.933588
O O15 0.204290 0.360036 0.143835
O O16 0.899674 0.557245 0.295778
O O17 0.000000 0.500000 0.000000
#
# Coordination Sequence:
#
# PCOD9091257 Si02
#       8
#     2   2   2   2   2   2   2   2
#     4  10  21  39  70  92 129 178 211 264 337 388
#     4  11  26  43  70 103 128 172 232 269 328 408
#     4  11  22  36  62  96 133 175 218 268 326 400
#     4  11  23  41  63  94 135 174 219 271 335 388
#     4  12  25  47  71  93 136 178 216 283 339 378
#     4  10  19  39  64  93 134 169 210 266 328 393
#     4  12  24  45  69  98 131 178 223 276 333 392
#     4  11  23  45  66  96 132 174 222 276 327 398
#
# _framework density 23.718045
#
# number of rings (size 3 to 8) (size 9 to 14) (size 15 to 20)
#    0.000    1.000    6.250    1.125    0.000    2.500 
#    0.000    0.000    0.000    0.000    0.000    0.000 
#    0.000    0.000    0.000    0.000    0.000    0.000 
#
# Total GULP energy -89286.448648 kJ/mol
# GULP energy per Si atom -5580.403041 kJ/mol
# Density = 2.366406 g / cm^3
# Si number density = 23.718045 Si / 1000 Ang^3
#
#
#
# Elastic Constant Matrix: (Units=GPa)
#
#
# Indices 1 2 3 4 5 6 
#
# 1 136.3966 14.1261 52.5023 -1.0751 0.1578 0.9953
# 2 14.1261 39.0474 26.5546 -18.5903 2.2001 6.8820
# 3 52.5023 26.5546 124.3698 -33.3424 5.0605 -24.2770
# 4 -1.0751 -18.5903 -33.3424 28.3440 -7.5143 -3.5362
# 5 0.1578 2.2001 5.0605 -7.5143 36.3162 -5.5503
# 6 0.9953 6.8820 -24.2770 -3.5362 -5.5503 40.4310
#
#
#
# Elastic Compliance Matrix: (Units=1/GPa)
#
#
# Indices 1 2 3 4 5 6 
#
# 1 0.010930 -0.003102 -0.008657 -0.013234 -0.002373 -0.006422
# 2 -0.003102 0.040349 -0.002212 0.023512 0.001854 -0.005809
# 3 -0.008657 -0.002212 0.023330 0.029432 0.005756 0.017962
# 4 -0.013234 0.023512 0.029432 0.092491 0.017410 0.024476
# 5 -0.002373 0.001854 0.005756 0.017410 0.031619 0.009062
# 6 -0.006422 -0.005809 0.017962 0.024476 0.009062 0.040051
#
#
# Mechanical properties :
#
#
# Convention : Reuss Voigt Hill
#
# Bulk Modulus (GPa) = 21.42769 54.01995 37.72382
# Shear Modulus (GPa) = 17.71371 34.79361 26.25366
#
# Velocity S-wave (km/s) = 2.73581 3.83426 3.33063
# Velocity P-wave (km/s) = 4.36274 6.51363 5.54350
#
# Compressibility (1/GPa) = 0.04666860
#
# Stress axis : x y z
#
# Youngs Moduli (GPa) = 91.48846 24.78355 42.86398
#
# Poissons Ratio (x) = 0.07688 0.37107
# Poissons Ratio (y) = 0.28380 0.09480
# Poissons Ratio (z) = 0.79200 0.05481
#
# Static dielectric constant tensor:
#      x y z
#    x 2.022790 0.042280 0.070810 
#    y 0.042280 1.974530 0.007620 
#    z 0.070810 0.007620 1.889100 
# 
# From -- ./inp_files/315936.got.cif
#   From: 2010.05.17/outbox.cif.g08.bks.cpg/sg2_158_cif.got.tgz:315936.got - 2010.06.03 11:33:40.
