data_PCOD9091555
_publ_section_title
;
Structure prediction by ZEFSAII (Michael W. Deem and Ramdas Pophale) SiO2 
 PCOD9091555
Probable space group: P -1
;
_chemical_formula_sum "Si O2"
_cell_formula_units_Z 16
_cell_length_a 11.653772
_cell_length_b 7.908097
_cell_length_c 16.659060
_cell_angle_alpha 75.133065
_cell_angle_beta 26.127414
_cell_angle_gamma 73.483333
_cell_volume 648.190852
_symmetry_space_group_name_H-M "P -1"
_symmetry_group_IT_number 2
_symmetry_cell_setting 'triclinic'
loop_
_space_group_symop_operation_xyz
x,y,z
-x,-y,-z
loop_
_atom_site_type_symbol
_atom_site_label
_atom_site_fract_x
_atom_site_fract_y
_atom_site_fract_z
Si Si1 0.599821 0.838636 0.898203
Si Si2 0.242123 0.278245 0.672215
Si Si3 0.782610 0.714185 0.058595
Si Si4 0.619612 0.341342 0.811752
Si Si5 0.956682 0.978908 0.435298
Si Si6 0.643569 0.285341 0.085965
Si Si7 0.635388 0.001856 0.247505
Si Si8 0.351244 0.561651 0.697677
O O1 0.469802 0.843174 0.891883
O O2 0.904450 0.856199 0.703205
O O3 0.514466 0.671740 0.016327
O O4 0.500000 0.000000 0.000000
O O5 0.292859 0.078363 0.699984
O O6 0.364535 0.397636 0.647503
O O7 0.402204 0.329441 0.486494
O O8 0.925754 0.326780 0.869710
O O9 0.561340 0.750394 0.126023
O O10 0.776306 0.864085 0.110880
O O11 0.699672 0.538950 0.175381
O O12 0.071705 0.679112 0.843722
O O13 0.893893 0.215435 0.656369
O O14 0.579473 0.546332 0.790294
O O15 0.000000 0.000000 0.500000
O O16 0.671229 0.997833 0.576364
O O17 0.688051 0.189490 0.155604
#
# Coordination Sequence:
#
# PCOD9091555 Si02
#       8
#     2   2   2   2   2   2   2   2
#     4  10  23  43  69  91 127 174 222 272 330 397
#     4  10  22  40  66  99 130 172 220 273 325 386
#     4  10  19  39  67  93 128 173 218 262 327 390
#     4  11  23  39  67  97 129 172 216 278 323 382
#     4  11  21  43  65  98 123 177 231 259 322 389
#     4  12  23  43  64  99 138 169 218 275 340 379
#     4  11  23  40  66  90 138 179 215 267 322 398
#     4   9  20  39  66  99 126 172 222 265 322 394
#
# _framework density 24.684090999999999
#
# number of rings (size 3 to 8) (size 9 to 14) (size 15 to 20)
#    0.000    1.500    3.750    1.500    1.750    1.500 
#    0.000    3.125    0.000    0.000    0.000    0.000 
#    0.000    0.000    0.000    0.000    0.000    0.000 
#
# Total GULP energy -89356.620710 kJ/mol
# GULP energy per Si atom -5584.788794 kJ/mol
# Density = 2.462791 g / cm^3
# Si number density = 24.684091 Si / 1000 Ang^3
#
#
#
# Elastic Constant Matrix: (Units=GPa)
#
#
# Indices 1 2 3 4 5 6 
#
# 1 48.7217 8.6488 -1.3504 -1.7058 -7.5651 -4.1217
# 2 8.6488 130.3997 17.3730 -3.1992 8.2363 0.7520
# 3 -1.3504 17.3730 123.9320 -10.7733 -7.1401 -14.1490
# 4 -1.7058 -3.1992 -10.7733 31.6063 -9.8924 -5.1620
# 5 -7.5651 8.2363 -7.1401 -9.8924 32.9229 1.6073
# 6 -4.1217 0.7520 -14.1490 -5.1620 1.6073 35.4096
#
#
#
# Elastic Compliance Matrix: (Units=1/GPa)
#
#
# Indices 1 2 3 4 5 6 
#
# 1 0.022543 -0.002101 0.001770 0.004483 0.007256 0.003700
# 2 -0.002101 0.008193 -0.001552 -0.000954 -0.003105 -0.001037
# 3 0.001770 -0.001552 0.009534 0.005264 0.004219 0.004625
# 4 0.004483 -0.000954 0.005264 0.039160 0.013800 0.007728
# 5 0.007256 -0.003105 0.004219 0.013800 0.037738 0.002895
# 6 0.003700 -0.001037 0.004625 0.007728 0.002895 0.031537
#
#
# Mechanical properties :
#
#
# Convention : Reuss Voigt Hill
#
# Bulk Modulus (GPa) = 27.39199 39.15513 33.27356
# Shear Modulus (GPa) = 30.36943 38.54656 34.45800
#
# Velocity S-wave (km/s) = 3.51140 3.95599 3.74031
# Velocity P-wave (km/s) = 5.24986 6.06328 5.67118
#
# Compressibility (1/GPa) = 0.03650702
#
# Stress axis : x y z
#
# Youngs Moduli (GPa) = 44.35906 122.04840 104.88361
#
# Poissons Ratio (x) = 0.25639 -0.18567
# Poissons Ratio (y) = 0.09318 0.16274
# Poissons Ratio (z) = -0.07853 0.18938
#
# Static dielectric constant tensor:
#      x y z
#    x 1.952640 -0.005470 0.056490 
#    y -0.005470 2.050020 -0.070140 
#    z 0.056490 -0.070140 2.058870 
# 
# From -- ./inp_files/597137.got.cif
#   From: 2010.05.17/outbox.cif.g08.bks.cpg/sg2_299_cif.got.tgz:597137.got - 2010.06.03 11:33:40.
