data_PCOD9091062
_publ_section_title
;
Structure prediction by ZEFSAII (Michael W. Deem and Ramdas Pophale) SiO2 
 PCOD9091062
Probable space group: P -1
;
_chemical_formula_sum "Si O2"
_cell_formula_units_Z 10
_cell_length_a 10.757157
_cell_length_b 14.757402
_cell_length_c 7.023984
_cell_angle_alpha 134.891253
_cell_angle_beta 44.073215
_cell_angle_gamma 143.789669
_cell_volume 436.084851
_symmetry_space_group_name_H-M "P -1"
_symmetry_group_IT_number 2
_symmetry_cell_setting 'triclinic'
loop_
_space_group_symop_operation_xyz
x,y,z
-x,-y,-z
loop_
_atom_site_type_symbol
_atom_site_label
_atom_site_fract_x
_atom_site_fract_y
_atom_site_fract_z
Si Si1 0.835234 0.570774 0.912365
Si Si2 0.551495 0.262070 0.030985
Si Si3 0.902036 0.838039 0.484741
Si Si4 0.675931 0.333097 0.441848
Si Si5 0.619616 0.018329 0.692205
O O1 0.726314 0.493445 0.713390
O O2 0.099867 0.652503 0.740409
O O3 0.715529 0.413437 0.943221
O O4 0.807954 0.695555 0.224016
O O5 0.297580 0.203081 0.221053
O O6 0.634230 0.319939 0.243860
O O7 0.558507 0.112787 0.770715
O O8 0.112967 0.869059 0.407844
O O9 0.000000 0.000000 0.500000
O O10 0.474279 0.164771 0.511875
O O11 0.500000 0.000000 0.000000
#
# Coordination Sequence:
#
# PCOD9091062 Si02
#       5
#     2   2   2   2   2
#     4  11  23  38  63  95 116 156 208 240 298 356
#     4  11  22  40  66  86 124 157 196 253 292 351
#     4  12  21  39  65  88 119 164 200 239 303 361
#     4  10  21  40  63  89 121 159 196 246 300 351
#     4  10  19  39  63  87 118 163 198 235 307 353
#
# _framework density 22.931317
#
# number of rings (size 3 to 8) (size 9 to 14) (size 15 to 20)
#    0.000    1.200    8.000    1.200    0.000    1.600 
#    0.000    1.000    0.000    0.000    0.000    0.000 
#    0.000    0.000    0.000    0.000    0.000    0.000 
#
# Total GULP energy -55931.924212 kJ/mol
# GULP energy per Si atom -5593.192421 kJ/mol
# Density = 2.287912 g / cm^3
# Si number density = 22.931317 Si / 1000 Ang^3
#
#
#
# Elastic Constant Matrix: (Units=GPa)
#
#
# Indices 1 2 3 4 5 6 
#
# 1 52.0720 7.4027 33.2935 0.7794 -18.7890 19.9560
# 2 7.4027 109.6354 29.4864 15.4114 2.4701 5.9104
# 3 33.2935 29.4864 51.6364 12.4317 -7.8955 9.0274
# 4 0.7794 15.4114 12.4317 36.7015 -4.7269 -0.3287
# 5 -18.7890 2.4701 -7.8955 -4.7269 36.0220 -4.6680
# 6 19.9560 5.9104 9.0274 -0.3287 -4.6680 39.7069
#
#
#
# Elastic Compliance Matrix: (Units=1/GPa)
#
#
# Indices 1 2 3 4 5 6 
#
# 1 0.053765 0.004440 -0.033734 0.010770 0.019473 -0.017634
# 2 0.004440 0.011613 -0.008756 -0.002146 -0.000953 -0.002099
# 3 -0.033734 -0.008756 0.046786 -0.012361 -0.007502 0.006636
# 4 0.010770 -0.002146 -0.012361 0.033028 0.007240 -0.001159
# 5 0.019473 -0.000953 -0.007502 0.007240 0.036829 -0.003550
# 6 -0.017634 -0.002099 0.006636 -0.001159 -0.003550 0.032424
#
#
# Mechanical properties :
#
#
# Convention : Reuss Voigt Hill
#
# Bulk Modulus (GPa) = 27.72906 39.30101 33.51504
# Shear Modulus (GPa) = 16.52531 32.03017 24.27774
#
# Velocity S-wave (km/s) = 2.68739 3.74142 3.25732
# Velocity P-wave (km/s) = 4.66347 5.98666 5.36600
#
# Compressibility (1/GPa) = 0.03606325
#
# Stress axis : x y z
#
# Youngs Moduli (GPa) = 18.59942 86.11290 21.37403
#
# Poissons Ratio (x) = -0.38238 0.72104
# Poissons Ratio (y) = -0.08259 0.18716
# Poissons Ratio (z) = 0.62744 0.75404
#
# Static dielectric constant tensor:
#      x y z
#    x 1.882100 0.021320 0.024950 
#    y 0.021320 1.859910 0.079950 
#    z 0.024950 0.079950 1.906440 
# 
# From -- ./inp_files/78533.got.cif
#   From: 2010.05.17/outbox.cif.g08.bks.cpg/sg2_40_cif.got.tgz:78533.got - 2010.06.03 11:33:40.
