data_PCOD9091928
_publ_section_title
;
Structure prediction by ZEFSAII (Michael W. Deem and Ramdas Pophale) SiO2 
 PCOD9091928
Probable space group: P -1
;
_chemical_formula_sum "Si O2"
_cell_formula_units_Z 16
_cell_length_a 13.872062
_cell_length_b 18.858379
_cell_length_c 11.810120
_cell_angle_alpha 53.461189
_cell_angle_beta 158.326908
_cell_angle_gamma 122.687621
_cell_volume 915.842133
_symmetry_space_group_name_H-M "P -1"
_symmetry_group_IT_number 2
_symmetry_cell_setting 'triclinic'
loop_
_space_group_symop_operation_xyz
x,y,z
-x,-y,-z
loop_
_atom_site_type_symbol
_atom_site_label
_atom_site_fract_x
_atom_site_fract_y
_atom_site_fract_z
Si Si1 0.488271 0.929229 0.454027
Si Si2 0.958324 0.280821 0.512345
Si Si3 0.914507 0.959327 0.703463
Si Si4 0.096222 0.855789 0.611959
Si Si5 0.629571 0.900212 0.236689
Si Si6 0.581945 0.437265 0.257026
Si Si7 0.083913 0.512544 0.712247
Si Si8 0.541761 0.252150 0.272914
O O1 0.740642 0.942373 0.639583
O O2 0.479734 0.833214 0.591991
O O3 0.500000 0.000000 0.500000
O O4 0.221046 0.944030 0.077119
O O5 0.881502 0.384986 0.324589
O O6 0.761608 0.239881 0.427609
O O7 0.940644 0.229202 0.424801
O O8 0.256754 0.272482 0.888548
O O9 0.797975 0.897153 0.538273
O O10 0.875913 0.060107 0.521284
O O11 0.842583 0.880093 0.389617
O O12 0.369408 0.845466 0.989082
O O13 0.500000 0.000000 0.000000
O O14 0.612245 0.338213 0.339795
O O15 0.846091 0.474374 0.556604
O O16 0.500000 0.500000 0.000000
O O17 0.345233 0.453386 0.068635
O O18 0.000000 0.500000 0.500000
#
# Coordination Sequence:
#
# PCOD9091928 Si02
#       8
#     2   2   2   2   2   2   2   2
#     4  12  24  36  49  75 107 144 183 199 238 305
#     4  12  20  31  50  76 112 138 162 213 266 305
#     4  11  21  39  54  68 104 141 173 217 255 291
#     4  11  21  34  55  83  99 129 179 219 274 312
#     4  10  20  37  58  76  95 130 178 228 269 311
#     4  10  16  30  46  68  95 138 172 205 247 298
#     4  10  16  29  46  69  99 142 159 196 260 314
#     4  12  21  32  49  71 108 150 174 203 242 306
#
# _framework density 17.47026
#
# number of rings (size 3 to 8) (size 9 to 14) (size 15 to 20)
#    0.000    1.000    5.000    7.125    0.000    0.000 
#    0.000    0.000    0.000    0.000    0.000    0.000 
#    0.000   20.000    0.000    0.000    0.000    0.000 
#
# Total GULP energy -89240.865484 kJ/mol
# GULP energy per Si atom -5577.554093 kJ/mol
# Density = 1.743050 g / cm^3
# Si number density = 17.470260 Si / 1000 Ang^3
#
#
#
# Elastic Constant Matrix: (Units=GPa)
#
#
# Indices 1 2 3 4 5 6 
#
# 1 81.6036 27.3011 3.9676 3.2385 24.4972 -11.6425
# 2 27.3011 79.4293 -4.5332 -6.2282 -4.1878 -18.8657
# 3 3.9676 -4.5332 52.7979 13.9287 16.6251 -2.1684
# 4 3.2385 -6.2282 13.9287 14.8153 6.8856 1.6840
# 5 24.4972 -4.1878 16.6251 6.8856 33.1560 8.7142
# 6 -11.6425 -18.8657 -2.1684 1.6840 8.7142 24.5322
#
#
#
# Elastic Compliance Matrix: (Units=1/GPa)
#
#
# Indices 1 2 3 4 5 6 
#
# 1 0.024318 -0.005463 0.008021 -0.004939 -0.026315 0.017735
# 2 -0.005463 0.017318 -0.000213 0.006432 0.002533 0.009365
# 3 0.008021 -0.000213 0.031874 -0.023777 -0.021094 0.015585
# 4 -0.004939 0.006432 -0.023777 0.095161 -0.001978 -0.005329
# 5 -0.026315 0.002533 -0.021094 -0.001978 0.070739 -0.037397
# 6 0.017735 0.009365 0.015585 -0.005329 -0.037397 0.071409
#
#
# Mechanical properties :
#
#
# Convention : Reuss Voigt Hill
#
# Bulk Modulus (GPa) = 12.78772 29.70020 21.24396
# Shear Modulus (GPa) = 15.05144 26.97371 21.01258
#
# Velocity S-wave (km/s) = 2.93840 3.93361 3.47185
# Velocity P-wave (km/s) = 4.34141 6.13746 5.31584
#
# Compressibility (1/GPa) = 0.07820004
#
# Stress axis : x y z
#
# Youngs Moduli (GPa) = 41.12194 57.74463 31.37358
#
# Poissons Ratio (x) = 0.31546 -0.25164
# Poissons Ratio (y) = 0.22465 0.00667
# Poissons Ratio (z) = -0.32983 0.01228
#
# Static dielectric constant tensor:
#      x y z
#    x 1.610980 0.007800 0.092120 
#    y 0.007800 1.594390 0.051400 
#    z 0.092120 0.051400 1.839680 
# 
# From -- ./inp_files/369388.got.cif
#   From: 2010.05.17/outbox.cif.g08.bks.cpg/sg2_185_cif.got.tgz:369388.got - 2010.06.03 11:33:40.
