data_PCOD9091282
_publ_section_title
;
Structure prediction by ZEFSAII (Michael W. Deem and Ramdas Pophale) SiO2 
 PCOD9091282
Probable space group: P -1
;
_chemical_formula_sum "Si O2"
_cell_formula_units_Z 16
_cell_length_a 11.741954
_cell_length_b 11.318484
_cell_length_c 17.416790
_cell_angle_alpha 51.655918
_cell_angle_beta 32.367873
_cell_angle_gamma 74.118370
_cell_volume 780.252689
_symmetry_space_group_name_H-M "P -1"
_symmetry_group_IT_number 2
_symmetry_cell_setting 'triclinic'
loop_
_space_group_symop_operation_xyz
x,y,z
-x,-y,-z
loop_
_atom_site_type_symbol
_atom_site_label
_atom_site_fract_x
_atom_site_fract_y
_atom_site_fract_z
Si Si1 0.076640 0.962206 0.055423
Si Si2 0.764138 0.789068 0.689909
Si Si3 0.242643 0.293636 0.929581
Si Si4 0.002814 0.367462 0.278996
Si Si5 0.682632 0.524177 0.456563
Si Si6 0.493401 0.959513 0.739750
Si Si7 0.557188 0.430261 0.177869
Si Si8 0.686154 0.184710 0.267866
O O1 0.877465 0.743833 0.274093
O O2 0.100336 0.082682 0.065370
O O3 0.361770 0.012762 0.854229
O O4 0.000000 0.000000 0.000000
O O5 0.704592 0.708215 0.668934
O O6 0.806821 0.653416 0.766617
O O7 0.528233 0.812297 0.819885
O O8 0.000000 0.000000 0.500000
O O9 0.473103 0.411580 0.688583
O O10 0.393937 0.386464 0.885943
O O11 0.992777 0.302296 0.068866
O O12 0.858938 0.452387 0.362977
O O13 0.767541 0.151219 0.479919
O O14 0.182470 0.483738 0.057659
O O15 0.500000 0.500000 0.500000
O O16 0.330226 0.873573 0.788835
O O17 0.569091 0.303921 0.285606
O O18 0.500000 0.000000 0.500000
#
# Coordination Sequence:
#
# PCOD9091282 Si02
#       8
#     2   2   2   2   2   2   2   2
#     4  12  22  39  61  89 133 174 215 256 321 393
#     4   9  21  41  70  91 121 167 224 274 317 378
#     4  12  25  40  60  95 134 168 207 267 324 388
#     4  11  21  41  68  93 124 167 222 276 313 381
#     4  12  23  39  67  93 129 176 216 259 322 393
#     4  10  19  39  64  97 123 170 223 264 312 390
#     4  11  24  40  61  97 128 164 221 270 329 375
#     4  11  23  38  61  92 135 173 208 265 328 383
#
# _framework density 20.506177000000001
#
# number of rings (size 3 to 8) (size 9 to 14) (size 15 to 20)
#    0.000    1.000    3.750    3.750    1.750    0.000 
#    0.000    0.625    0.000    1.500    0.000    0.000 
#    0.000    0.000    0.000    0.000    0.000    0.000 
#
# Total GULP energy -89137.342288 kJ/mol
# GULP energy per Si atom -5571.083893 kJ/mol
# Density = 2.045950 g / cm^3
# Si number density = 20.506177 Si / 1000 Ang^3
#
#
#
# Elastic Constant Matrix: (Units=GPa)
#
#
# Indices 1 2 3 4 5 6 
#
# 1 82.5019 54.0775 21.5492 -3.5697 -14.7229 -0.7709
# 2 54.0775 123.7871 22.6651 -16.4425 -2.8879 8.9538
# 3 21.5492 22.6651 99.1922 -11.2267 4.2759 -0.0869
# 4 -3.5697 -16.4425 -11.2267 39.5167 4.2410 -6.1106
# 5 -14.7229 -2.8879 4.2759 4.2410 23.9119 -14.4660
# 6 -0.7709 8.9538 -0.0869 -6.1106 -14.4660 44.4396
#
#
#
# Elastic Compliance Matrix: (Units=1/GPa)
#
#
# Indices 1 2 3 4 5 6 
#
# 1 0.023112 -0.010038 -0.004015 -0.004047 0.019399 0.008174
# 2 -0.010038 0.013247 0.000051 0.004761 -0.008415 -0.004928
# 3 -0.004015 0.000051 0.011583 0.003359 -0.006086 -0.001577
# 4 -0.004047 0.004761 0.003359 0.028743 -0.007276 0.000561
# 5 0.019399 -0.008415 -0.006086 -0.007276 0.069413 0.023615
# 6 0.008174 -0.004928 -0.001577 0.000561 0.023615 0.031398
#
#
# Mechanical properties :
#
#
# Convention : Reuss Voigt Hill
#
# Bulk Modulus (GPa) = 50.15257 55.78496 52.96876
# Shear Modulus (GPa) = 23.56875 35.38627 29.47751
#
# Velocity S-wave (km/s) = 3.39388 4.15859 3.79554
# Velocity P-wave (km/s) = 6.31414 7.09377 6.71527
#
# Compressibility (1/GPa) = 0.01993916
#
# Stress axis : x y z
#
# Youngs Moduli (GPa) = 43.26719 75.49061 86.33315
#
# Poissons Ratio (x) = 0.75777 0.34659
# Poissons Ratio (y) = 0.43432 -0.00442
# Poissons Ratio (z) = 0.17370 -0.00386
#
# Static dielectric constant tensor:
#      x y z
#    x 1.737870 -0.024120 -0.029720 
#    y -0.024120 1.772940 -0.053840 
#    z -0.029720 -0.053840 1.747020 
# 
# From -- ./inp_files/568653.got.cif
#   From: 2010.05.17/outbox.cif.g08.bks.cpg/sg2_285_cif.got.tgz:568653.got - 2010.06.03 11:33:40.
