data_PCOD9091561
_publ_section_title
;
Structure prediction by ZEFSAII (Michael W. Deem and Ramdas Pophale) SiO2 
 PCOD9091561
Probable space group: P -1
;
_chemical_formula_sum "Si O2"
_cell_formula_units_Z 12
_cell_length_a 12.094535
_cell_length_b 21.466537
_cell_length_c 8.961783
_cell_angle_alpha 146.960766
_cell_angle_beta 142.863428
_cell_angle_gamma 27.408691
_cell_volume 570.792176
_symmetry_space_group_name_H-M "P -1"
_symmetry_group_IT_number 2
_symmetry_cell_setting 'triclinic'
loop_
_space_group_symop_operation_xyz
x,y,z
-x,-y,-z
loop_
_atom_site_type_symbol
_atom_site_label
_atom_site_fract_x
_atom_site_fract_y
_atom_site_fract_z
Si Si1 0.771961 0.058696 0.591446
Si Si2 0.503709 0.553762 0.272420
Si Si3 0.695282 0.109159 0.263629
Si Si4 0.853746 0.402798 0.592334
Si Si5 0.511936 0.635863 0.916225
Si Si6 0.327605 0.120671 0.686245
O O1 0.699727 0.068866 0.360866
O O2 0.784426 0.936651 0.452199
O O3 0.579133 0.219815 0.796178
O O4 0.035437 0.012552 0.766550
O O5 0.370334 0.729465 0.482569
O O6 0.777130 0.453114 0.438014
O O7 0.379147 0.508295 0.149059
O O8 0.500000 0.500000 0.000000
O O9 0.494410 0.125899 0.986524
O O10 0.703958 0.561429 0.840178
O O11 0.725168 0.331848 0.339777
O O12 0.120548 0.277251 0.691095
O O13 0.500000 0.000000 0.500000
#
# Coordination Sequence:
#
# PCOD9091561 Si02
#       6
#     2   2   2   2   2   2
#     4  11  24  44  69  96 136 172 225 269 328 398
#     4  10  19  39  67  94 124 168 224 262 328 385
#     4  11  24  44  70  96 133 179 215 275 332 389
#     4   9  21  39  61  95 131 166 223 269 319 390
#     4   9  19  39  65  95 125 175 216 270 325 385
#     4  12  27  42  66 101 135 176 218 273 332 392
#
# _framework density 21.023413000000001
#
# number of rings (size 3 to 8) (size 9 to 14) (size 15 to 20)
#    1.000    0.667    1.667    2.500    2.333    2.000 
#    0.000    2.500    0.000    0.000    0.000    0.000 
#    0.000    0.000    0.000    0.000    0.000    0.000 
#
# Total GULP energy -66924.858202 kJ/mol
# GULP energy per Si atom -5577.071517 kJ/mol
# Density = 2.097556 g / cm^3
# Si number density = 21.023413 Si / 1000 Ang^3
#
#
#
# Elastic Constant Matrix: (Units=GPa)
#
#
# Indices 1 2 3 4 5 6 
#
# 1 85.0764 37.4654 58.5652 -9.9705 -16.9399 11.9772
# 2 37.4654 86.8501 38.0536 -21.6264 -15.5750 2.6624
# 3 58.5652 38.0536 81.0064 1.4398 -30.2604 -2.9115
# 4 -9.9705 -21.6264 1.4398 35.7551 9.1305 -1.5495
# 5 -16.9399 -15.5750 -30.2604 9.1305 31.3639 3.9413
# 6 11.9772 2.6624 -2.9115 -1.5495 3.9413 33.7121
#
#
#
# Elastic Compliance Matrix: (Units=1/GPa)
#
#
# Indices 1 2 3 4 5 6 
#
# 1 0.031977 -0.000083 -0.028318 0.012635 -0.012290 -0.011782
# 2 -0.000083 0.018640 -0.010735 0.012838 -0.004729 -0.001227
# 3 -0.028318 -0.010735 0.051945 -0.025119 0.035536 0.010086
# 4 0.012635 0.012838 -0.025119 0.046325 -0.024181 -0.002716
# 5 -0.012290 -0.004729 0.035536 -0.024181 0.064327 -0.000823
# 6 -0.011782 -0.001227 0.010086 -0.002716 -0.000823 0.034788
#
#
# Mechanical properties :
#
#
# Convention : Reuss Voigt Hill
#
# Bulk Modulus (GPa) = 41.17141 57.90013 49.53577
# Shear Modulus (GPa) = 14.95351 28.08946 21.52148
#
# Velocity S-wave (km/s) = 2.66987 3.65924 3.20299
# Velocity P-wave (km/s) = 5.39726 6.74196 6.10673
#
# Compressibility (1/GPa) = 0.02428870
#
# Stress axis : x y z
#
# Youngs Moduli (GPa) = 31.27250 53.64888 19.25129
#
# Poissons Ratio (x) = 0.00446 0.54516
# Poissons Ratio (y) = 0.00260 0.20666
# Poissons Ratio (z) = 0.88558 0.57591
#
# Static dielectric constant tensor:
#      x y z
#    x 1.845890 0.026040 0.010500 
#    y 0.026040 1.783320 -0.026370 
#    z 0.010500 -0.026370 1.756340 
# 
# From -- ./inp_files/282469.got.cif
#   From: 2010.05.17/outbox.cif.g08.bks.cpg/sg2_142_cif.got.tgz:282469.got - 2010.06.03 11:33:40.
