data_PCOD9091189
_publ_section_title
;
Structure prediction by ZEFSAII (Michael W. Deem and Ramdas Pophale) SiO2 
 PCOD9091189
Probable space group: P -1
;
_chemical_formula_sum "Si O2"
_cell_formula_units_Z 16
_cell_length_a 21.110800
_cell_length_b 7.797463
_cell_length_c 7.394200
_cell_angle_alpha 123.774122
_cell_angle_beta 102.529869
_cell_angle_gamma 47.249269
_cell_volume 716.826188
_symmetry_space_group_name_H-M "P -1"
_symmetry_group_IT_number 2
_symmetry_cell_setting 'triclinic'
loop_
_space_group_symop_operation_xyz
x,y,z
-x,-y,-z
loop_
_atom_site_type_symbol
_atom_site_label
_atom_site_fract_x
_atom_site_fract_y
_atom_site_fract_z
Si Si1 0.262442 0.255532 0.949397
Si Si2 0.963371 0.228743 0.271170
Si Si3 0.599164 0.279924 0.514576
Si Si4 0.051106 0.298711 0.640237
Si Si5 0.208439 0.624246 0.770995
Si Si6 0.397883 0.285127 0.068223
Si Si7 0.600257 0.843598 0.417736
Si Si8 0.860768 0.800947 0.000388
O O1 0.219348 0.467630 0.873083
O O2 0.194831 0.283697 0.050743
O O3 0.329140 0.938728 0.719933
O O4 0.327801 0.275078 0.097084
O O5 0.933518 0.519868 0.350571
O O6 0.876452 0.299344 0.331576
O O7 0.039758 0.125613 0.402294
O O8 0.000000 0.000000 0.000000
O O9 0.500000 0.500000 0.500000
O O10 0.619742 0.451500 0.715571
O O11 0.599983 0.090817 0.545142
O O12 0.120409 0.144822 0.756606
O O13 0.954006 0.540340 0.813547
O O14 0.301652 0.421232 0.598241
O O15 0.184819 0.913185 0.968393
O O16 0.388683 0.283580 0.847268
O O17 0.500000 0.000000 0.000000
O O18 0.500000 0.000000 0.500000
#
# Coordination Sequence:
#
# PCOD9091189 Si02
#       8
#     2   2   2   2   2   2   2   2
#     4  10  23  41  62  94 135 164 219 272 316 392
#     4  11  21  46  69  92 138 172 211 273 333 393
#     4  10  19  39  64  86 124 172 210 261 324 375
#     4  10  24  42  70  96 129 176 209 273 336 390
#     4  10  22  42  64  95 134 172 214 270 328 392
#     4  10  19  39  64  89 119 174 217 257 329 380
#     4  10  24  41  61  93 136 164 217 275 319 380
#     4  11  22  45  67  99 131 165 229 266 328 400
#
# _framework density 22.320615
#
# number of rings (size 3 to 8) (size 9 to 14) (size 15 to 20)
#    0.000    2.000    5.000    0.000    1.750    1.000 
#   18.000    0.000    0.000    0.000    0.000    0.000 
#    0.000    0.000    0.000    0.000    0.000    0.000 
#
# Total GULP energy -89308.298760 kJ/mol
# GULP energy per Si atom -5581.768673 kJ/mol
# Density = 2.226981 g / cm^3
# Si number density = 22.320615 Si / 1000 Ang^3
#
#
#
# Elastic Constant Matrix: (Units=GPa)
#
#
# Indices 1 2 3 4 5 6 
#
# 1 174.3936 10.0123 38.7213 11.9131 21.9299 -11.7833
# 2 10.0123 43.8373 16.1690 11.1290 9.1802 -5.7221
# 3 38.7213 16.1690 114.7590 5.8531 38.5392 2.3690
# 4 11.9131 11.1290 5.8531 28.9063 1.2454 4.4663
# 5 21.9299 9.1802 38.5392 1.2454 41.7871 3.0666
# 6 -11.7833 -5.7221 2.3690 4.4663 3.0666 29.0203
#
#
#
# Elastic Compliance Matrix: (Units=1/GPa)
#
#
# Indices 1 2 3 4 5 6 
#
# 1 0.006824 0.000876 -0.001458 -0.003337 -0.002612 0.003852
# 2 0.000876 0.028651 -0.002225 -0.012051 -0.004972 0.008567
# 3 -0.001458 -0.002225 0.013212 -0.000616 -0.010849 -0.000868
# 4 -0.003337 -0.012051 -0.000616 0.042186 0.004491 -0.010648
# 5 -0.002612 -0.004972 -0.010849 0.004491 0.036686 -0.005723
# 6 0.003852 0.008567 -0.000868 -0.010648 -0.005723 0.040026
#
#
# Mechanical properties :
#
#
# Convention : Reuss Voigt Hill
#
# Bulk Modulus (GPa) = 23.21599 51.42167 37.31883
# Shear Modulus (GPa) = 26.65851 37.81524 32.23687
#
# Velocity S-wave (km/s) = 3.45968 4.12051 3.80447
# Velocity P-wave (km/s) = 5.13643 6.76209 6.00453
#
# Compressibility (1/GPa) = 0.04307376
#
# Stress axis : x y z
#
# Youngs Moduli (GPa) = 146.53349 34.90304 75.68774
#
# Poissons Ratio (x) = -0.03059 0.11036
# Poissons Ratio (y) = -0.12841 0.16841
# Poissons Ratio (z) = 0.21366 0.07766
#
# Static dielectric constant tensor:
#      x y z
#    x 1.867310 -0.091340 0.026680 
#    y -0.091340 1.456760 0.199850 
#    z 0.026680 0.199850 1.694600 
# 
# From -- ./inp_files/342255.got.cif
#   From: 2010.05.17/outbox.cif.g08.bks.cpg/sg2_172_cif.got.tgz:342255.got - 2010.06.03 11:33:40.
