data_PCOD9091835
_publ_section_title
;
Structure prediction by ZEFSAII (Michael W. Deem and Ramdas Pophale) SiO2 
 PCOD9091835
Probable space group: P -1
;
_chemical_formula_sum "Si O2"
_cell_formula_units_Z 16
_cell_length_a 9.393033
_cell_length_b 11.247403
_cell_length_c 10.414604
_cell_angle_alpha 66.046957
_cell_angle_beta 101.238719
_cell_angle_gamma 54.704804
_cell_volume 670.998004
_symmetry_space_group_name_H-M "P -1"
_symmetry_group_IT_number 2
_symmetry_cell_setting 'triclinic'
loop_
_space_group_symop_operation_xyz
x,y,z
-x,-y,-z
loop_
_atom_site_type_symbol
_atom_site_label
_atom_site_fract_x
_atom_site_fract_y
_atom_site_fract_z
Si Si1 0.877903 0.481977 0.582520
Si Si2 0.471911 0.113109 0.232302
Si Si3 0.703915 0.523887 0.098511
Si Si4 0.261946 0.684928 0.322042
Si Si5 0.625027 0.112869 0.684098
Si Si6 0.089474 0.407435 0.199831
Si Si7 0.578045 0.482104 0.837169
Si Si8 0.217237 0.940928 0.544522
O O1 0.890361 0.318093 0.630529
O O2 0.624712 0.681549 0.451957
O O3 0.947350 0.467654 0.747382
O O4 0.000000 0.500000 0.500000
O O5 0.393839 0.274054 0.048772
O O6 0.334519 0.222391 0.292182
O O7 0.711057 0.995458 0.367936
O O8 0.400751 0.018002 0.213484
O O9 0.689625 0.438011 0.010903
O O10 0.559097 0.558647 0.165910
O O11 0.949330 0.379281 0.235829
O O12 0.500000 0.500000 0.500000
O O13 0.245003 0.851920 0.245882
O O14 0.261894 0.635623 0.198244
O O15 0.741821 0.032113 0.602320
O O16 0.000000 0.500000 0.000000
O O17 0.405348 0.708761 0.691753
O O18 0.000000 0.000000 0.500000
#
# Coordination Sequence:
#
# PCOD9091835 Si02
#       8
#     2   2   2   2   2   2   2   2
#     4  11  23  38  65  96 126 162 214 268 319 384
#     4  10  21  41  55  92 130 158 209 268 317 368
#     4   9  21  35  66  92 114 163 218 264 305 374
#     4  10  20  38  58  82 126 164 196 243 323 375
#     4  11  23  39  58  88 133 167 194 267 323 380
#     4  10  20  37  66  89 123 164 213 267 314 371
#     4  10  19  40  61  91 125 158 211 265 306 375
#     4  11  22  35  62  92 125 163 203 265 327 371
#
# _framework density 23.845078000000001
#
# number of rings (size 3 to 8) (size 9 to 14) (size 15 to 20)
#    0.000    1.750    3.750    1.875    5.250    1.000 
#    0.000    0.625    0.000    3.750    0.000    0.000 
#    0.000    0.000    0.000    0.000    0.000    0.000 
#
# Total GULP energy -89209.546903 kJ/mol
# GULP energy per Si atom -5575.596681 kJ/mol
# Density = 2.379081 g / cm^3
# Si number density = 23.845078 Si / 1000 Ang^3
#
#
#
# Elastic Constant Matrix: (Units=GPa)
#
#
# Indices 1 2 3 4 5 6 
#
# 1 234.2184 49.8016 26.7249 -1.1141 -10.8028 19.7532
# 2 49.8016 60.8336 18.5783 5.7848 -2.5425 12.2733
# 3 26.7249 18.5783 35.3829 7.0389 -1.4801 3.8266
# 4 -1.1141 5.7848 7.0389 20.9120 0.9660 -0.2585
# 5 -10.8028 -2.5425 -1.4801 0.9660 37.3729 -3.6970
# 6 19.7532 12.2733 3.8266 -0.2585 -3.6970 38.1750
#
#
#
# Elastic Compliance Matrix: (Units=1/GPa)
#
#
# Indices 1 2 3 4 5 6 
#
# 1 0.005492 -0.003630 -0.002466 0.002062 0.001060 -0.001311
# 2 -0.003630 0.023243 -0.008167 -0.003926 -0.000167 -0.004818
# 3 -0.002466 -0.008167 0.036427 -0.010152 0.000459 0.000226
# 4 0.002062 -0.003926 -0.010152 0.052510 -0.001288 0.001444
# 5 0.001060 -0.000167 0.000459 -0.001288 0.027311 0.002095
# 6 -0.001311 -0.004818 0.000226 0.001444 0.002095 0.028613
#
#
# Mechanical properties :
#
#
# Convention : Reuss Voigt Hill
#
# Bulk Modulus (GPa) = 27.29584 57.84938 42.57261
# Shear Modulus (GPa) = 23.32809 34.98067 29.15438
#
# Velocity S-wave (km/s) = 3.13120 3.83430 3.50045
# Velocity P-wave (km/s) = 4.95425 6.62689 5.85065
#
# Compressibility (1/GPa) = 0.03663562
#
# Stress axis : x y z
#
# Youngs Moduli (GPa) = 182.08167 43.02410 27.45189
#
# Poissons Ratio (x) = 0.15619 0.06770
# Poissons Ratio (y) = 0.66100 0.22420
# Poissons Ratio (z) = 0.44903 0.35138
#
# Static dielectric constant tensor:
#      x y z
#    x 2.031320 0.021880 -0.003210 
#    y 0.021880 2.210270 0.144810 
#    z -0.003210 0.144810 2.062870 
# 
# From -- ./inp_files/387113.got.cif
#   From: 2010.05.17/outbox.cif.g08.bks.cpg/sg2_194_cif.got.tgz:387113.got - 2010.06.03 11:33:40.
