data_PCOD9091461
_publ_section_title
;
Structure prediction by ZEFSAII (Michael W. Deem and Ramdas Pophale) SiO2 
 PCOD9091461
Probable space group: P -1
;
_chemical_formula_sum "Si O2"
_cell_formula_units_Z 12
_cell_length_a 9.914643
_cell_length_b 15.417718
_cell_length_c 7.083616
_cell_angle_alpha 48.767202
_cell_angle_beta 64.904233
_cell_angle_gamma 36.442879
_cell_volume 469.879511
_symmetry_space_group_name_H-M "P -1"
_symmetry_group_IT_number 2
_symmetry_cell_setting 'triclinic'
loop_
_space_group_symop_operation_xyz
x,y,z
-x,-y,-z
loop_
_atom_site_type_symbol
_atom_site_label
_atom_site_fract_x
_atom_site_fract_y
_atom_site_fract_z
Si Si1 0.022359 0.658653 0.538899
Si Si2 0.833206 0.907444 0.941431
Si Si3 0.501896 0.695017 0.370218
Si Si4 0.328758 0.014356 0.478075
Si Si5 0.742840 0.345500 0.192387
Si Si6 0.707659 0.624119 0.753947
O O1 0.916057 0.818275 0.514514
O O2 0.889856 0.616133 0.703361
O O3 0.298694 0.470958 0.647119
O O4 0.938576 0.755380 0.244780
O O5 0.689009 0.945624 0.791572
O O6 0.054530 0.829610 0.808793
O O7 0.666798 0.097647 0.873185
O O8 0.333582 0.692414 0.539788
O O9 0.655651 0.644576 0.532454
O O10 0.500000 0.000000 0.500000
O O11 0.453831 0.816342 0.705457
O O12 0.500000 0.500000 0.000000
O O13 0.798729 0.448468 0.024488
#
# Coordination Sequence:
#
# PCOD9091461 Si02
#       6
#     2   2   2   2   2   2
#     4  11  21  42  64  97 127 159 217 268 300 379
#     4  11  22  40  70  89 126 177 200 259 332 360
#     4  10  21  37  65  94 125 164 221 252 307 387
#     4   9  22  41  60  97 133 159 210 261 314 384
#     4  10  19  39  66  91 125 173 207 256 318 377
#     4   9  19  38  63  88 131 163 199 268 313 358
#
# _framework density 25.538461999999999
#
# number of rings (size 3 to 8) (size 9 to 14) (size 15 to 20)
#    0.000    2.000    3.333    1.000    0.000    6.000 
#    3.000    3.333    0.000    0.000    0.000    0.000 
#    0.000    0.000    0.000    0.000    0.000    0.000 
#
# Total GULP energy -67118.413318 kJ/mol
# GULP energy per Si atom -5593.201110 kJ/mol
# Density = 2.548034 g / cm^3
# Si number density = 25.538462 Si / 1000 Ang^3
#
#
#
# Elastic Constant Matrix: (Units=GPa)
#
#
# Indices 1 2 3 4 5 6 
#
# 1 25.4257 2.1308 32.1404 1.2574 -4.1544 -7.7212
# 2 2.1308 203.9510 60.9492 -28.5950 -1.5950 -4.0838
# 3 32.1404 60.9492 100.1314 -23.4783 -2.6706 -8.2028
# 4 1.2574 -28.5950 -23.4783 46.1271 -1.1832 6.1848
# 5 -4.1544 -1.5950 -2.6706 -1.1832 39.1812 7.4800
# 6 -7.7212 -4.0838 -8.2028 6.1848 7.4800 38.6442
#
#
#
# Elastic Compliance Matrix: (Units=1/GPa)
#
#
# Indices 1 2 3 4 5 6 
#
# 1 0.091306 0.007909 -0.037181 -0.018174 0.004392 0.013245
# 2 0.007909 0.006872 -0.006494 0.000658 0.000559 0.000714
# 3 -0.037181 -0.006494 0.028318 0.011877 -0.001198 -0.003773
# 4 -0.018174 0.000658 0.011877 0.029447 0.000931 -0.005934
# 5 0.004392 0.000559 -0.001198 0.000931 0.026848 -0.004663
# 6 0.013245 0.000714 -0.003773 -0.005934 -0.004663 0.029651
#
#
# Mechanical properties :
#
#
# Convention : Reuss Voigt Hill
#
# Bulk Modulus (GPa) = 18.19373 57.77211 37.98292
# Shear Modulus (GPa) = 16.54016 40.40966 28.47491
#
# Velocity S-wave (km/s) = 2.54767 3.98214 3.34276
# Velocity P-wave (km/s) = 3.97413 6.61921 5.45929
#
# Compressibility (1/GPa) = 0.05496400
#
# Stress axis : x y z
#
# Youngs Moduli (GPa) = 10.95216 145.51702 35.31352
#
# Poissons Ratio (x) = -1.15086 1.31299
# Poissons Ratio (y) = -0.08662 0.22932
# Poissons Ratio (z) = 0.40721 0.94497
#
# Static dielectric constant tensor:
#      x y z
#    x 2.168120 0.029760 0.062310 
#    y 0.029760 2.081260 0.015810 
#    z 0.062310 0.015810 1.956210 
# 
# From -- ./inp_files/274997.got.cif
#   From: 2010.05.17/outbox.cif.g08.bks.cpg/sg2_138_cif.got.tgz:274997.got - 2010.06.03 11:33:40.
