data_PCOD9091551
_publ_section_title
;
Structure prediction by ZEFSAII (Michael W. Deem and Ramdas Pophale) SiO2 
 PCOD9091551
Probable space group: P -1
;
_chemical_formula_sum "Si O2"
_cell_formula_units_Z 15
_cell_length_a 13.015812
_cell_length_b 7.350542
_cell_length_c 7.692035
_cell_angle_alpha 87.892877
_cell_angle_beta 130.372843
_cell_angle_gamma 88.668271
_cell_volume 559.208539
_symmetry_space_group_name_H-M "P -1"
_symmetry_group_IT_number 2
_symmetry_cell_setting 'triclinic'
loop_
_space_group_symop_operation_xyz
x,y,z
-x,-y,-z
loop_
_atom_site_type_symbol
_atom_site_label
_atom_site_fract_x
_atom_site_fract_y
_atom_site_fract_z
Si Si1 0.670272 0.928621 0.659098
Si Si2 0.508267 0.132832 0.220850
Si Si3 0.948228 0.845563 0.070117
Si Si4 0.000000 0.000000 0.500000
Si Si5 0.690067 0.331508 0.816787
Si Si6 0.737619 0.793750 0.261013
Si Si7 0.592022 0.514575 0.347395
Si Si8 0.088367 0.468187 0.772064
O O1 0.620732 0.979595 0.409634
O O2 0.697224 0.120594 0.775122
O O3 0.561377 0.838157 0.664114
O O4 0.806925 0.809947 0.825966
O O5 0.567739 0.323417 0.229717
O O6 0.389458 0.086070 0.963713
O O7 0.002060 0.639573 0.186870
O O8 0.949595 0.936677 0.257783
O O9 0.000000 0.000000 0.000000
O O10 0.135777 0.091250 0.557542
O O11 0.662474 0.449800 0.607689
O O12 0.555692 0.384204 0.781486
O O13 0.831797 0.369229 0.065034
O O14 0.685376 0.644130 0.340388
O O15 0.788057 0.665713 0.156759
O O16 0.000000 0.500000 0.500000
#
# Coordination Sequence:
#
# PCOD9091551 Si02
#       8
#     2   2   2   1   2   2   2   2
#     4  10  21  40  67  95 134 173 219 283 343 404
#     4  10  19  39  67  92 129 172 215 275 349 398
#     4  11  25  47  71  96 138 193 232 283 345 418
#     4  10  24  44  64 100 134 178 228 280 336 406
#     4  10  22  39  66 100 134 169 226 283 343 411
#     4  11  22  42  69  92 136 174 223 285 344 408
#     4  10  21  40  68  96 129 175 220 284 345 413
#     4  11  25  42  66  95 138 184 232 284 344 415
#
# _framework density 26.823623999999999
#
# number of rings (size 3 to 8) (size 9 to 14) (size 15 to 20)
#    0.000    1.600    4.000    0.400    5.600    2.133 
#    0.000    2.000    0.000    0.000    0.000    0.000 
#    0.000    0.000    0.000    0.000    0.000    0.000 
#
# Total GULP energy -83674.635796 kJ/mol
# GULP energy per Si atom -5578.309053 kJ/mol
# Density = 2.676257 g / cm^3
# Si number density = 26.823624 Si / 1000 Ang^3
#
#
#
# Elastic Constant Matrix: (Units=GPa)
#
#
# Indices 1 2 3 4 5 6 
#
# 1 68.2043 35.4409 15.6510 -3.2666 -8.7453 45.6882
# 2 35.4409 153.5586 55.0337 17.0642 1.1827 45.5717
# 3 15.6510 55.0337 172.8175 24.8336 -5.2604 21.4895
# 4 -3.2666 17.0642 24.8336 43.9793 6.4193 1.2352
# 5 -8.7453 1.1827 -5.2604 6.4193 38.0695 -2.8241
# 6 45.6882 45.5717 21.4895 1.2352 -2.8241 60.3692
#
#
#
# Elastic Compliance Matrix: (Units=1/GPa)
#
#
# Indices 1 2 3 4 5 6 
#
# 1 0.031062 -0.000741 0.000056 0.002464 0.005061 -0.022783
# 2 -0.000741 0.009347 -0.001871 -0.002352 -0.000754 -0.005816
# 3 0.000056 -0.001871 0.007043 -0.003445 0.001551 -0.000994
# 4 0.002464 -0.002352 -0.003445 0.026389 -0.004257 0.000398
# 5 0.005061 -0.000754 0.001551 -0.004257 0.028207 -0.002406
# 6 -0.022783 -0.005816 -0.000994 0.000398 -0.002406 0.038431
#
#
# Mechanical properties :
#
#
# Convention : Reuss Voigt Hill
#
# Bulk Modulus (GPa) = 23.61818 67.42572 45.52195
# Shear Modulus (GPa) = 31.30755 47.71393 39.51074
#
# Velocity S-wave (km/s) = 3.42008 4.22216 3.84211
# Velocity P-wave (km/s) = 4.94167 6.99715 6.05723
#
# Compressibility (1/GPa) = 0.04234026
#
# Stress axis : x y z
#
# Youngs Moduli (GPa) = 32.19325 106.98582 141.98125
#
# Poissons Ratio (x) = 0.07923 -0.00790
# Poissons Ratio (y) = 0.02384 0.26568
# Poissons Ratio (z) = -0.00179 0.20020
#
# Static dielectric constant tensor:
#      x y z
#    x 2.244050 0.008000 0.035790 
#    y 0.008000 2.255870 -0.041800 
#    z 0.035790 -0.041800 2.081320 
# 
# From -- ./inp_files/298054.got.cif
#   From: 2010.05.17/outbox.cif.g08.bks.cpg/sg2_150_cif.got.tgz:298054.got - 2010.06.03 11:33:40.
