data_PCOD9091856
_publ_section_title
;
Structure prediction by ZEFSAII (Michael W. Deem and Ramdas Pophale) SiO2 
 PCOD9091856
Probable space group: P -1
;
_chemical_formula_sum "Si O2"
_cell_formula_units_Z 16
_cell_length_a 9.870950
_cell_length_b 25.391364
_cell_length_c 6.337709
_cell_angle_alpha 99.305549
_cell_angle_beta 48.388795
_cell_angle_gamma 135.187763
_cell_volume 677.548706
_symmetry_space_group_name_H-M "P -1"
_symmetry_group_IT_number 2
_symmetry_cell_setting 'triclinic'
loop_
_space_group_symop_operation_xyz
x,y,z
-x,-y,-z
loop_
_atom_site_type_symbol
_atom_site_label
_atom_site_fract_x
_atom_site_fract_y
_atom_site_fract_z
Si Si1 0.958110 0.182561 0.917599
Si Si2 0.720287 0.289767 0.174639
Si Si3 0.411348 0.420910 0.621588
Si Si4 0.892309 0.881042 0.072391
Si Si5 0.571241 0.353291 0.163243
Si Si6 0.916016 0.967037 0.802280
Si Si7 0.308094 0.329642 0.031163
Si Si8 0.299504 0.807051 0.155705
O O1 0.879024 0.105975 0.044108
O O2 0.244796 0.246078 0.496959
O O3 0.714373 0.156382 0.008887
O O4 0.123212 0.252293 0.990914
O O5 0.458507 0.224860 0.586975
O O6 0.803339 0.368593 0.051268
O O7 0.596074 0.224681 0.065199
O O8 0.031796 0.333173 0.946137
O O9 0.500000 0.500000 0.500000
O O10 0.553844 0.407580 0.322548
O O11 0.472358 0.417800 0.796860
O O12 0.978161 0.920668 0.775074
O O13 0.912945 0.944576 0.194032
O O14 0.561094 0.357806 0.925804
O O15 0.538274 0.882990 0.138128
O O16 0.000000 0.000000 0.500000
O O17 0.041150 0.281642 0.443824
#
# Coordination Sequence:
#
# PCOD9091856 Si02
#       8
#     2   2   2   2   2   2   2   2
#     4   9  20  37  59  87 118 154 206 247 293 357
#     4  11  20  42  64  87 122 157 203 245 295 363
#     4  11  23  42  64  91 125 156 195 250 300 358
#     4  10  23  39  59  88 120 160 201 251 300 354
#     4   9  21  38  60  93 118 154 205 245 293 363
#     4  11  23  36  57  88 122 155 205 253 299 351
#     4  10  19  40  62  87 120 158 200 246 297 359
#     4  11  21  37  63  87 116 160 202 245 299 356
#
# _framework density 23.614539000000001
#
# number of rings (size 3 to 8) (size 9 to 14) (size 15 to 20)
#    0.000    1.750    5.000    0.750    1.750    2.500 
#    2.250    1.875    0.000    0.000    0.000    0.000 
#    0.000    0.000    0.000    0.000    0.000    0.000 
#
# Total GULP energy -89165.723463 kJ/mol
# GULP energy per Si atom -5572.857716 kJ/mol
# Density = 2.356079 g / cm^3
# Si number density = 23.614539 Si / 1000 Ang^3
#
#
#
# Elastic Constant Matrix: (Units=GPa)
#
#
# Indices 1 2 3 4 5 6 
#
# 1 166.1539 49.4982 23.9440 2.0412 41.8615 -39.6603
# 2 49.4982 52.8478 12.8334 -8.3584 11.9195 -27.1281
# 3 23.9440 12.8334 45.6387 -2.3300 26.2185 -12.2823
# 4 2.0412 -8.3584 -2.3300 23.6380 -10.6462 3.2524
# 5 41.8615 11.9195 26.2185 -10.6462 47.1453 -10.5763
# 6 -39.6603 -27.1281 -12.2823 3.2524 -10.5763 34.9647
#
#
#
# Elastic Compliance Matrix: (Units=1/GPa)
#
#
# Indices 1 2 3 4 5 6 
#
# 1 0.012667 -0.008285 0.003895 -0.009994 -0.012100 0.006578
# 2 -0.008285 0.038621 -0.005160 0.014855 0.008275 0.019876
# 3 0.003895 -0.005160 0.035727 -0.009813 -0.022663 0.007023
# 4 -0.009994 0.014855 -0.009813 0.058193 0.023356 -0.001606
# 5 -0.012100 0.008275 -0.022663 0.023356 0.047019 -0.003216
# 6 0.006578 0.019876 0.007023 -0.001606 -0.003216 0.053126
#
#
# Mechanical properties :
#
#
# Convention : Reuss Voigt Hill
#
# Bulk Modulus (GPa) = 14.72406 48.57686 31.65046
# Shear Modulus (GPa) = 17.41611 33.04059 25.22835
#
# Velocity S-wave (km/s) = 2.71867 3.74460 3.27209
# Velocity P-wave (km/s) = 4.01293 6.26988 5.26379
#
# Compressibility (1/GPa) = 0.06791605
#
# Stress axis : x y z
#
# Youngs Moduli (GPa) = 78.94769 25.89268 27.99002
#
# Poissons Ratio (x) = 0.21452 -0.10903
# Poissons Ratio (y) = 0.65407 0.14442
# Poissons Ratio (z) = -0.30753 0.13360
#
# Static dielectric constant tensor:
#      x y z
#    x 2.164580 0.108870 0.052870 
#    y 0.108870 1.981440 -0.014340 
#    z 0.052870 -0.014340 1.996080 
# 
# From -- ./inp_files/55498.got.cif
#   From: 2010.05.17/outbox.cif.g08.bks.cpg/sg2_28_cif.got.tgz:55498.got - 2010.06.03 11:33:40.
