data_PCOD9091741
_publ_section_title
;
Structure prediction by ZEFSAII (Michael W. Deem and Ramdas Pophale) SiO2 
 PCOD9091741
Probable space group: P -1
;
_chemical_formula_sum "Si O2"
_cell_formula_units_Z 14
_cell_length_a 8.493787
_cell_length_b 8.236193
_cell_length_c 11.975207
_cell_angle_alpha 50.715178
_cell_angle_beta 50.966292
_cell_angle_gamma 68.964279
_cell_volume 502.571405
_symmetry_space_group_name_H-M "P -1"
_symmetry_group_IT_number 2
_symmetry_cell_setting 'triclinic'
loop_
_space_group_symop_operation_xyz
x,y,z
-x,-y,-z
loop_
_atom_site_type_symbol
_atom_site_label
_atom_site_fract_x
_atom_site_fract_y
_atom_site_fract_z
Si Si1 0.592104 0.858990 0.821151
Si Si2 0.018574 0.827392 0.163057
Si Si3 0.620904 0.747954 0.626546
Si Si4 0.062170 0.367226 0.326497
Si Si5 0.191767 0.203606 0.039995
Si Si6 0.618758 0.709225 0.314643
Si Si7 0.770893 0.239470 0.333943
O O1 0.507889 0.726353 0.809958
O O2 0.612572 0.777772 0.973383
O O3 0.826377 0.823300 0.699647
O O4 0.503745 0.085084 0.750018
O O5 0.781378 0.767829 0.315798
O O6 0.110206 0.614915 0.172614
O O7 0.143635 0.953120 0.147569
O O8 0.000000 0.000000 0.000000
O O9 0.834132 0.639302 0.594622
O O10 0.699482 0.991908 0.474917
O O11 0.843396 0.314988 0.392585
O O12 0.974572 0.274555 0.151608
O O13 0.250289 0.309176 0.849801
O O14 0.500000 0.500000 0.500000
O O15 0.436711 0.680892 0.658151
#
# Coordination Sequence:
#
# PCOD9091741 Si02
#       7
#     2   2   2   2   2   2   2
#     4   9  21  43  73 105 145 187 251 300 359 450
#     4  10  23  45  68 100 147 185 241 302 379 434
#     4   9  20  37  73 108 152 184 252 301 370 430
#     4   9  21  40  71 103 141 195 246 304 363 442
#     4  10  22  43  72 103 147 196 244 299 377 436
#     4  11  24  43  71 104 148 191 242 307 374 435
#     4  10  19  39  72 109 147 196 244 306 366 444
#
# _framework density 27.856736000000001
#
# number of rings (size 3 to 8) (size 9 to 14) (size 15 to 20)
#    0.857    1.429    0.000    1.714    2.000    0.000 
#    2.571   15.714    0.000    0.000    0.000    0.000 
#    0.000    0.000    0.000    0.000    0.000    0.000 
#
# Total GULP energy -77953.742123 kJ/mol
# GULP energy per Si atom -5568.124437 kJ/mol
# Density = 2.779333 g / cm^3
# Si number density = 27.856736 Si / 1000 Ang^3
#
#
#
# Elastic Constant Matrix: (Units=GPa)
#
#
# Indices 1 2 3 4 5 6 
#
# 1 219.6252 68.0674 56.2011 -11.2639 16.3964 -4.2047
# 2 68.0674 99.0843 44.7168 -7.7763 -10.9962 -1.0948
# 3 56.2011 44.7168 90.8277 -2.5186 -1.6069 -14.9246
# 4 -11.2639 -7.7763 -2.5186 46.5794 -3.5191 -12.4272
# 5 16.3964 -10.9962 -1.6069 -3.5191 43.4550 -1.6458
# 6 -4.2047 -1.0948 -14.9246 -12.4272 -1.6458 52.5550
#
#
#
# Elastic Compliance Matrix: (Units=1/GPa)
#
#
# Indices 1 2 3 4 5 6 
#
# 1 0.006622 -0.003880 -0.002265 0.000516 -0.003529 -0.000183
# 2 -0.003880 0.015935 -0.005469 0.001569 0.005384 -0.000992
# 3 -0.002265 -0.005469 0.015839 0.000576 0.000268 0.004347
# 4 0.000516 0.001569 0.000576 0.023639 0.002362 0.005901
# 5 -0.003529 0.005384 0.000268 0.002362 0.025956 0.001277
# 6 -0.000183 -0.000992 0.004347 0.005901 0.001277 0.021662
#
#
# Mechanical properties :
#
#
# Convention : Reuss Voigt Hill
#
# Bulk Modulus (GPa) = 65.92829 83.05640 74.49235
# Shear Modulus (GPa) = 36.24811 44.55467 40.40139
#
# Velocity S-wave (km/s) = 3.61117 4.00362 3.81245
# Velocity P-wave (km/s) = 6.41137 7.15906 6.79551
#
# Compressibility (1/GPa) = 0.01516800
#
# Stress axis : x y z
#
# Youngs Moduli (GPa) = 151.01671 62.75318 63.13443
#
# Poissons Ratio (x) = 0.24347 0.14303
# Poissons Ratio (y) = 0.58591 0.34528
# Poissons Ratio (z) = 0.34212 0.34320
#
# Static dielectric constant tensor:
#      x y z
#    x 2.258120 0.002330 0.048750 
#    y 0.002330 2.218940 0.055610 
#    z 0.048750 0.055610 2.313870 
# 
# From -- ./inp_files/418814.got.cif
#   From: 2010.05.17/outbox.cif.g08.bks.cpg/sg2_210_cif.got.tgz:418814.got - 2010.06.03 11:33:40.
