data_PCOD9091733
_publ_section_title
;
Structure prediction by ZEFSAII (Michael W. Deem and Ramdas Pophale) SiO2 
 PCOD9091733
Probable space group: P -1
;
_chemical_formula_sum "Si O2"
_cell_formula_units_Z 14
_cell_length_a 20.158719
_cell_length_b 12.879082
_cell_length_c 10.086167
_cell_angle_alpha 50.524095
_cell_angle_beta 41.560754
_cell_angle_gamma 23.861641
_cell_volume 691.170972
_symmetry_space_group_name_H-M "P -1"
_symmetry_group_IT_number 2
_symmetry_cell_setting 'triclinic'
loop_
_space_group_symop_operation_xyz
x,y,z
-x,-y,-z
loop_
_atom_site_type_symbol
_atom_site_label
_atom_site_fract_x
_atom_site_fract_y
_atom_site_fract_z
Si Si1 0.457980 0.347026 0.412086
Si Si2 0.676920 0.039411 0.064648
Si Si3 0.375203 0.291432 0.097734
Si Si4 0.723637 0.708074 0.363769
Si Si5 0.154948 0.923372 0.389712
Si Si6 0.993679 0.307516 0.524539
Si Si7 0.606317 0.044162 0.694278
O O1 0.596903 0.181250 0.210593
O O2 0.299348 0.409342 0.577606
O O3 0.350605 0.612360 0.366891
O O4 0.571810 0.177174 0.511877
O O5 0.493280 0.227159 0.090398
O O6 0.778667 0.777085 0.143293
O O7 0.808920 0.996114 0.830946
O O8 0.148100 0.564377 0.246290
O O9 0.423762 0.076224 0.203605
O O10 0.456556 0.248303 0.871057
O O11 0.857483 0.536121 0.432065
O O12 0.500000 0.000000 0.500000
O O13 0.079380 0.076784 0.513222
O O14 0.000000 0.000000 0.500000
O O15 0.175606 0.188402 0.389878
#
# Coordination Sequence:
#
# PCOD9091733 Si02
#       7
#     2   2   2   2   2   2   2
#     4  11  22  44  70  96 140 173 228 278 330 403
#     4  11  21  43  72  98 130 182 223 281 340 387
#     4  11  21  43  69  99 137 177 218 283 343 392
#     4  10  19  39  71  97 127 169 224 278 329 387
#     4  12  25  43  66 101 136 181 231 275 329 409
#     4  12  23  43  67  99 145 174 220 279 340 402
#     4  11  25  42  68 104 138 174 223 280 343 396
#
# _framework density 20.255479999999999
#
# number of rings (size 3 to 8) (size 9 to 14) (size 15 to 20)
#    0.000    0.857    7.143    1.714    0.000    1.143 
#    7.714    0.714    0.000    0.000    0.000    0.000 
#    0.000    0.000    0.000    0.000    0.000    0.000 
#
# Total GULP energy -78255.015513 kJ/mol
# GULP energy per Si atom -5589.643965 kJ/mol
# Density = 2.020938 g / cm^3
# Si number density = 20.255480 Si / 1000 Ang^3
#
#
#
# Elastic Constant Matrix: (Units=GPa)
#
#
# Indices 1 2 3 4 5 6 
#
# 1 61.1965 22.3121 43.3860 -2.9921 1.5929 -13.0702
# 2 22.3121 66.2677 36.7013 10.7409 6.7421 2.0023
# 3 43.3860 36.7013 122.3814 18.4520 3.0494 8.9796
# 4 -2.9921 10.7409 18.4520 28.3220 6.3463 6.5224
# 5 1.5929 6.7421 3.0494 6.3463 41.4993 6.8164
# 6 -13.0702 2.0023 8.9796 6.5224 6.8164 30.6939
#
#
#
# Elastic Compliance Matrix: (Units=1/GPa)
#
#
# Indices 1 2 3 4 5 6 
#
# 1 0.030601 -0.005552 -0.011773 0.010239 -0.003510 0.015441
# 2 -0.005552 0.019711 -0.002988 -0.005442 -0.001735 -0.001234
# 3 -0.011773 -0.002988 0.015066 -0.008649 0.002456 -0.007933
# 4 0.010239 -0.005442 -0.008649 0.045631 -0.005655 -0.001195
# 5 -0.003510 -0.001735 0.002456 -0.005655 0.026305 -0.006740
# 6 0.015441 -0.001234 -0.007933 -0.001195 -0.006740 0.043307
#
#
# Mechanical properties :
#
#
# Convention : Reuss Voigt Hill
#
# Bulk Modulus (GPa) = 40.40256 50.51606 45.45931
# Shear Modulus (GPa) = 21.78661 29.93279 25.85970
#
# Velocity S-wave (km/s) = 3.28318 3.84834 3.57694
# Velocity P-wave (km/s) = 5.86192 6.68879 6.28896
#
# Compressibility (1/GPa) = 0.02475091
#
# Stress axis : x y z
#
# Youngs Moduli (GPa) = 32.67816 50.73408 66.37422
#
# Poissons Ratio (x) = 0.28169 0.78142
# Poissons Ratio (y) = 0.18144 0.19836
# Poissons Ratio (z) = 0.38472 0.15162
#
# Static dielectric constant tensor:
#      x y z
#    x 1.715960 0.013850 -0.009460 
#    y 0.013850 1.724980 0.014020 
#    z -0.009460 0.014020 1.746050 
# 
# From -- ./inp_files/333009.got.cif
#   From: 2010.05.17/outbox.cif.g08.bks.cpg/sg2_167_cif.got.tgz:333009.got - 2010.06.03 11:33:40.
