data_PCOD9091004
_publ_section_title
;
Structure prediction by ZEFSAII (Michael W. Deem and Ramdas Pophale) SiO2 
 PCOD9091004
Probable space group: P -1
;
_chemical_formula_sum "Si O2"
_cell_formula_units_Z 14
_cell_length_a 7.290650
_cell_length_b 7.259565
_cell_length_c 11.574595
_cell_angle_alpha 62.947283
_cell_angle_beta 61.298020
_cell_angle_gamma 79.920313
_cell_volume 477.806375
_symmetry_space_group_name_H-M "P -1"
_symmetry_group_IT_number 2
_symmetry_cell_setting 'triclinic'
loop_
_space_group_symop_operation_xyz
x,y,z
-x,-y,-z
loop_
_atom_site_type_symbol
_atom_site_label
_atom_site_fract_x
_atom_site_fract_y
_atom_site_fract_z
Si Si1 0.746414 0.176310 0.513715
Si Si2 0.798712 0.216447 0.098987
Si Si3 0.694716 0.302420 0.860215
Si Si4 0.195215 0.219927 0.255596
Si Si5 0.000000 0.500000 0.500000
Si Si6 0.165567 0.205145 0.672843
Si Si7 0.500000 0.500000 0.500000
Si Si8 0.253196 0.320564 0.940740
O O1 0.547492 0.273554 0.488734
O O2 0.949599 0.179457 0.372196
O O3 0.800025 0.366043 0.535390
O O4 0.703047 0.967293 0.656346
O O5 0.039086 0.234072 0.973670
O O6 0.780316 0.019539 0.241820
O O7 0.666490 0.211230 0.022939
O O8 0.758307 0.431621 0.113264
O O9 0.728494 0.551149 0.791036
O O10 0.916476 0.242106 0.761442
O O11 0.486976 0.258257 0.861653
O O12 0.219621 0.231788 0.107731
O O13 0.141031 0.292425 0.524360
O O14 0.301598 0.372743 0.660852
#
# Coordination Sequence:
#
# PCOD9091004 Si02
#       8
#     2   2   2   2   1   2   1   2
#     4  10  21  37  66  84 125 168 212 261 325 366
#     4  10  22  42  63  95 132 165 215 269 317 391
#     4  11  22  42  63  98 131 169 210 273 317 401
#     4  10  19  39  62  91 121 170 210 262 317 397
#     4  10  20  42  56  90 120 166 208 272 300 396
#     4  11  23  42  62  92 130 167 218 268 329 377
#     4  10  22  38  58  90 118 168 204 268 310 378
#     4  10  23  40  66  97 128 171 215 264 328 385
#
# _framework density 29.300568999999999
#
# number of rings (size 3 to 8) (size 9 to 14) (size 15 to 20)
#    0.000    1.714    2.857    3.000    4.000    0.571 
#    5.143    0.000    0.000    8.571    0.000    0.000 
#    0.000    0.000    0.000    0.000    0.000    0.000 
#
# Total GULP energy -78009.943895 kJ/mol
# GULP energy per Si atom -5572.138850 kJ/mol
# Density = 2.923388 g / cm^3
# Si number density = 29.300569 Si / 1000 Ang^3
#
#
#
# Elastic Constant Matrix: (Units=GPa)
#
#
# Indices 1 2 3 4 5 6 
#
# 1 145.0968 -45.2566 -55.1386 47.1277 -44.6988 25.4687
# 2 -45.2566 259.0600 204.4684 -156.5241 82.1447 -79.7693
# 3 -55.1386 204.4684 314.4425 -161.9851 97.7115 -90.3042
# 4 47.1277 -156.5241 -161.9851 157.4941 -79.6860 55.0809
# 5 -44.6988 82.1447 97.7115 -79.6860 94.8486 -44.8385
# 6 25.4687 -79.7693 -90.3042 55.0809 -44.8385 84.2596
#
#
#
# Elastic Compliance Matrix: (Units=1/GPa)
#
#
# Indices 1 2 3 4 5 6 
#
# 1 0.008146 -0.000339 0.000046 -0.001061 0.002979 -0.000455
# 2 -0.000339 0.011619 -0.002783 0.008162 0.001093 0.003365
# 3 0.000046 -0.002783 0.008392 0.004150 -0.001349 0.002915
# 4 -0.001061 0.008162 0.004150 0.022299 0.007892 0.002118
# 5 0.002979 0.001093 -0.001349 0.007892 0.021326 0.004879
# 6 -0.000455 0.003365 0.002915 0.002118 0.004879 0.019527
#
#
# Mechanical properties :
#
#
# Convention : Reuss Voigt Hill
#
# Bulk Modulus (GPa) = 45.44388 102.97174 74.20781
# Shear Modulus (GPa) = 47.71189 108.28887 78.00038
#
# Velocity S-wave (km/s) = 4.03967 6.08590 5.16513
# Velocity P-wave (km/s) = 6.10752 9.19803 7.80723
#
# Compressibility (1/GPa) = 0.02200516
#
# Stress axis : x y z
#
# Youngs Moduli (GPa) = 122.76368 86.06763 119.16138
#
# Poissons Ratio (x) = 0.02915 -0.00548
# Poissons Ratio (y) = 0.04158 0.33162
# Poissons Ratio (z) = -0.00564 0.23952
#
# Static dielectric constant tensor:
#      x y z
#    x 1.576930 0.279890 -0.271870 
#    y 0.279890 2.101680 0.154930 
#    z -0.271870 0.154930 2.607360 
# 
# From -- ./inp_files/491936.got.cif
#   From: 2010.05.17/outbox.cif.g08.bks.cpg/sg2_246_cif.got.tgz:491936.got - 2010.06.03 11:33:40.
