data_PCOD9091427
_publ_section_title
;
Structure prediction by ZEFSAII (Michael W. Deem and Ramdas Pophale) SiO2 
 PCOD9091427
Probable space group: P -1
;
_chemical_formula_sum "Si O2"
_cell_formula_units_Z 16
_cell_length_a 7.992750
_cell_length_b 11.642779
_cell_length_c 13.344351
_cell_angle_alpha 51.543096
_cell_angle_beta 58.958871
_cell_angle_gamma 84.973815
_cell_volume 781.274097
_symmetry_space_group_name_H-M "P -1"
_symmetry_group_IT_number 2
_symmetry_cell_setting 'triclinic'
loop_
_space_group_symop_operation_xyz
x,y,z
-x,-y,-z
loop_
_atom_site_type_symbol
_atom_site_label
_atom_site_fract_x
_atom_site_fract_y
_atom_site_fract_z
Si Si1 0.808532 0.229448 0.565657
Si Si2 0.294135 0.305389 0.419521
Si Si3 0.389781 0.321218 0.153483
Si Si4 0.565020 0.077440 0.129510
Si Si5 0.794927 0.993299 0.292425
Si Si6 0.953603 0.111969 0.868844
Si Si7 0.715156 0.539498 0.470996
Si Si8 0.067122 0.868042 0.612193
O O1 0.794310 0.396409 0.504055
O O2 0.791641 0.187026 0.476344
O O3 0.044402 0.242919 0.511405
O O4 0.623106 0.084196 0.748309
O O5 0.399140 0.306899 0.279296
O O6 0.330997 0.452995 0.399927
O O7 0.345909 0.182998 0.541250
O O8 0.476840 0.210465 0.120623
O O9 0.147551 0.271217 0.229667
O O10 0.500000 0.500000 0.000000
O O11 0.689593 0.054981 0.202568
O O12 0.731204 0.119566 0.964768
O O13 0.831698 0.077258 0.341939
O O14 0.009905 0.978446 0.191674
O O15 0.118945 0.290704 0.708411
O O16 0.000000 0.000000 0.000000
O O17 0.500000 0.500000 0.500000
O O18 0.000000 0.000000 0.500000
#
# Coordination Sequence:
#
# PCOD9091427 Si02
#       8
#     2   2   2   2   2   2   2   2
#     4  11  21  38  65  89 122 158 207 245 308 363
#     4  10  21  41  63  89 124 162 205 250 299 368
#     4  11  24  42  60  89 129 159 203 254 311 361
#     4  11  22  39  65  94 123 162 200 258 310 359
#     4  10  19  39  66  88 118 161 210 248 296 363
#     4   9  21  39  59  89 130 154 194 257 309 357
#     4  11  23  40  65  90 121 163 209 256 294 362
#     4  11  20  42  63  87 120 163 205 252 294 371
#
# _framework density 20.479368000000001
#
# number of rings (size 3 to 8) (size 9 to 14) (size 15 to 20)
#    0.000    1.500    3.750    2.625    3.500    3.000 
#    6.750    3.750    0.000    0.000    0.000    0.000 
#    0.000    0.000    0.000    0.000    0.000    0.000 
#
# Total GULP energy -89196.281411 kJ/mol
# GULP energy per Si atom -5574.767588 kJ/mol
# Density = 2.043276 g / cm^3
# Si number density = 20.479368 Si / 1000 Ang^3
#
#
#
# Elastic Constant Matrix: (Units=GPa)
#
#
# Indices 1 2 3 4 5 6 
#
# 1 45.6806 -1.3849 -0.0734 1.2121 -9.8076 7.0399
# 2 -1.3849 110.0824 12.1529 -0.4254 -5.6198 7.6387
# 3 -0.0734 12.1529 72.6888 -12.7252 -21.6679 -7.6918
# 4 1.2121 -0.4254 -12.7252 40.3602 2.4415 4.0207
# 5 -9.8076 -5.6198 -21.6679 2.4415 32.7136 3.9463
# 6 7.0399 7.6387 -7.6918 4.0207 3.9463 29.8773
#
#
#
# Elastic Compliance Matrix: (Units=1/GPa)
#
#
# Indices 1 2 3 4 5 6 
#
# 1 0.025135 0.001079 0.002068 0.000003 0.009932 -0.006978
# 2 0.001079 0.009565 -0.001580 -0.000185 0.001327 -0.003257
# 3 0.002068 -0.001580 0.018743 0.004851 0.012101 0.002491
# 4 0.000003 -0.000185 0.004851 0.026459 0.001504 -0.002464
# 5 0.009932 0.001327 0.012101 0.001504 0.042323 -0.005357
# 6 -0.006978 -0.003257 0.002491 -0.002464 -0.005357 0.037628
#
#
# Mechanical properties :
#
#
# Convention : Reuss Voigt Hill
#
# Bulk Modulus (GPa) = 17.67468 27.76010 22.71739
# Shear Modulus (GPa) = 28.47749 35.10736 31.79242
#
# Velocity S-wave (km/s) = 3.73305 4.14488 3.94434
# Velocity P-wave (km/s) = 5.21824 6.04080 5.64453
#
# Compressibility (1/GPa) = 0.05657812
#
# Stress axis : x y z
#
# Youngs Moduli (GPa) = 39.78523 104.54682 53.35214
#
# Poissons Ratio (x) = -0.11283 -0.11032
# Poissons Ratio (y) = -0.04294 0.08427
# Poissons Ratio (z) = -0.08226 0.16514
#
# Static dielectric constant tensor:
#      x y z
#    x 1.744870 -0.034110 0.030160 
#    y -0.034110 1.701370 0.076150 
#    z 0.030160 0.076150 1.726920 
# 
# From -- ./inp_files/436615.got.cif
#   From: 2010.05.17/outbox.cif.g08.bks.cpg/sg2_219_cif.got.tgz:436615.got - 2010.06.03 11:33:40.
