data_PCOD9091455
_publ_section_title
;
Structure prediction by ZEFSAII (Michael W. Deem and Ramdas Pophale) SiO2 
 PCOD9091455
Probable space group: P -1
;
_chemical_formula_sum "Si O2"
_cell_formula_units_Z 16
_cell_length_a 10.928361
_cell_length_b 10.050380
_cell_length_c 12.784567
_cell_angle_alpha 105.459345
_cell_angle_beta 46.417604
_cell_angle_gamma 72.064869
_cell_volume 695.995988
_symmetry_space_group_name_H-M "P -1"
_symmetry_group_IT_number 2
_symmetry_cell_setting 'triclinic'
loop_
_space_group_symop_operation_xyz
x,y,z
-x,-y,-z
loop_
_atom_site_type_symbol
_atom_site_label
_atom_site_fract_x
_atom_site_fract_y
_atom_site_fract_z
Si Si1 0.353196 0.812972 0.482356
Si Si2 0.834298 0.006023 0.831729
Si Si3 0.924058 0.888690 0.986892
Si Si4 0.117594 0.226262 0.422823
Si Si5 0.853809 0.443212 0.053405
Si Si6 0.168708 0.196253 0.628346
Si Si7 0.521829 0.737862 0.584935
Si Si8 0.368868 0.380953 0.283668
O O1 0.573015 0.630852 0.248923
O O2 0.401768 0.736828 0.556575
O O3 0.082699 0.934262 0.639157
O O4 0.359043 0.975950 0.511434
O O5 0.768836 0.946087 0.761376
O O6 0.899153 0.888473 0.877163
O O7 0.612165 0.229329 0.043283
O O8 0.086072 0.689528 0.911601
O O9 0.000000 0.000000 0.000000
O O10 0.656491 0.039977 0.221577
O O11 0.123650 0.183747 0.531709
O O12 0.255141 0.292258 0.339949
O O13 0.841412 0.405679 0.592149
O O14 0.000000 0.500000 0.000000
O O15 0.955336 0.316128 0.861857
O O16 0.252348 0.307216 0.597220
O O17 0.573459 0.614988 0.629084
#
# Coordination Sequence:
#
# PCOD9091455 Si02
#       8
#     2   2   2   2   2   2   2   2
#     4  12  24  39  64 100 132 170 213 268 340 391
#     4  11  24  40  64  96 129 166 211 269 329 391
#     4  11  22  40  64  95 136 168 204 273 340 383
#     4  10  23  42  67  91 121 175 217 260 318 392
#     4  12  25  39  67  98 127 176 224 263 322 400
#     4  11  23  44  63  90 137 171 217 273 320 385
#     4  10  19  39  66  90 129 170 204 271 332 382
#     4   9  22  41  66  91 125 163 217 269 322 379
#
# _framework density 22.988638000000002
#
# number of rings (size 3 to 8) (size 9 to 14) (size 15 to 20)
#    0.000    1.250    3.750    1.500    1.750    6.000 
#    0.000    1.250    0.000    0.000    0.000    0.000 
#    0.000    0.000    0.000    0.000    0.000    0.000 
#
# Total GULP energy -89462.259097 kJ/mol
# GULP energy per Si atom -5591.391194 kJ/mol
# Density = 2.293631 g / cm^3
# Si number density = 22.988638 Si / 1000 Ang^3
#
#
#
# Elastic Constant Matrix: (Units=GPa)
#
#
# Indices 1 2 3 4 5 6 
#
# 1 66.7460 19.2793 5.3557 -5.8689 11.8612 -7.8407
# 2 19.2793 68.4718 30.9669 4.2411 3.3395 -1.3694
# 3 5.3557 30.9669 140.3830 13.7133 2.9815 -8.1808
# 4 -5.8689 4.2411 13.7133 24.4681 -8.4337 -2.0404
# 5 11.8612 3.3395 2.9815 -8.4337 44.5705 -4.9816
# 6 -7.8407 -1.3694 -8.1808 -2.0404 -4.9816 29.0334
#
#
#
# Elastic Compliance Matrix: (Units=1/GPa)
#
#
# Indices 1 2 3 4 5 6 
#
# 1 0.017918 -0.005243 0.000379 0.004303 -0.003087 0.004471
# 2 -0.005243 0.017845 -0.003577 -0.002640 -0.000407 -0.001838
# 3 0.000379 -0.003577 0.008437 -0.004204 -0.000986 0.001846
# 4 0.004303 -0.002640 -0.004204 0.048214 0.008992 0.004784
# 5 -0.003087 -0.000407 -0.000986 0.008992 0.025489 0.003875
# 6 0.004471 -0.001838 0.001846 0.004784 0.003875 0.037085
#
#
# Mechanical properties :
#
#
# Convention : Reuss Voigt Hill
#
# Bulk Modulus (GPa) = 36.60582 42.97827 39.79204
# Shear Modulus (GPa) = 27.62783 34.28099 30.95441
#
# Velocity S-wave (km/s) = 3.47047 3.86581 3.67346
# Velocity P-wave (km/s) = 5.65834 6.21788 5.94470
#
# Compressibility (1/GPa) = 0.02731806
#
# Stress axis : x y z
#
# Youngs Moduli (GPa) = 55.80852 56.03764 118.52337
#
# Poissons Ratio (x) = 0.29381 -0.04489
# Poissons Ratio (y) = 0.29261 0.42396
# Poissons Ratio (z) = -0.02114 0.20045
#
# Static dielectric constant tensor:
#      x y z
#    x 1.922010 0.018020 -0.026500 
#    y 0.018020 1.825130 -0.023420 
#    z -0.026500 -0.023420 1.903110 
# 
# From -- ./inp_files/333330.got.cif
#   From: 2010.05.17/outbox.cif.g08.bks.cpg/sg2_167_cif.got.tgz:333330.got - 2010.06.03 11:33:40.
