data_PCOD9091881
_publ_section_title
;
Structure prediction by ZEFSAII (Michael W. Deem and Ramdas Pophale) SiO2 
 PCOD9091881
Probable space group: P -1
;
_chemical_formula_sum "Si O2"
_cell_formula_units_Z 12
_cell_length_a 11.577564
_cell_length_b 15.172708
_cell_length_c 7.702865
_cell_angle_alpha 142.177179
_cell_angle_beta 55.507959
_cell_angle_gamma 136.875021
_cell_volume 567.045084
_symmetry_space_group_name_H-M "P -1"
_symmetry_group_IT_number 2
_symmetry_cell_setting 'triclinic'
loop_
_space_group_symop_operation_xyz
x,y,z
-x,-y,-z
loop_
_atom_site_type_symbol
_atom_site_label
_atom_site_fract_x
_atom_site_fract_y
_atom_site_fract_z
Si Si1 0.098401 0.948880 0.958126
Si Si2 0.636620 0.857863 0.693462
Si Si3 0.122742 0.199673 0.763448
Si Si4 0.932474 0.527257 0.915382
Si Si5 0.691981 0.159344 0.602783
Si Si6 0.279186 0.769731 0.903746
O O1 0.184874 0.882054 0.657951
O O2 0.957730 0.807864 0.993665
O O3 0.253566 0.116124 0.188602
O O4 0.000000 0.000000 0.000000
O O5 0.698731 0.780865 0.375060
O O6 0.692381 0.058448 0.939990
O O7 0.435438 0.754088 0.712735
O O8 0.104316 0.324379 0.844608
O O9 0.000000 0.000000 0.500000
O O10 0.755946 0.344567 0.750760
O O11 0.000000 0.500000 0.000000
O O12 0.094702 0.598094 0.762557
O O13 0.716347 0.185959 0.828538
O O14 0.500000 0.000000 0.500000
#
# Coordination Sequence:
#
# PCOD9091881 Si02
#       6
#     2   2   2   2   2   2
#     4  11  22  36  62  94 125 171 204 256 322 367
#     4  10  20  36  68  88 123 166 213 251 310 378
#     4  10  20  40  61  93 124 166 212 251 311 378
#     4  10  22  38  66  95 121 171 213 255 311 379
#     4  11  23  40  60  93 131 160 206 264 316 367
#     4  10  19  40  62  97 117 166 213 251 309 380
#
# _framework density 21.162337000000001
#
# number of rings (size 3 to 8) (size 9 to 14) (size 15 to 20)
#    0.000    1.667    5.000    1.000    7.000    0.667 
#    0.000    5.000    0.000    3.000    0.000    0.000 
#    0.000    0.000    0.000    0.000    0.000    0.000 
#
# Total GULP energy -66823.855203 kJ/mol
# GULP energy per Si atom -5568.654600 kJ/mol
# Density = 2.111417 g / cm^3
# Si number density = 21.162337 Si / 1000 Ang^3
#
#
#
# Elastic Constant Matrix: (Units=GPa)
#
#
# Indices 1 2 3 4 5 6 
#
# 1 97.1135 57.2789 39.9724 -1.7749 -27.5677 4.1123
# 2 57.2789 124.7209 61.6290 0.6119 -20.4454 16.2743
# 3 39.9724 61.6290 87.8580 -21.5582 -39.4464 12.8181
# 4 -1.7749 0.6119 -21.5582 53.9008 8.7610 -9.0218
# 5 -27.5677 -20.4454 -39.4464 8.7610 34.1352 0.7574
# 6 4.1123 16.2743 12.8181 -9.0218 0.7574 31.4816
#
#
#
# Elastic Compliance Matrix: (Units=1/GPa)
#
#
# Indices 1 2 3 4 5 6 
#
# 1 0.016957 -0.007185 0.003198 -0.000251 0.013155 -0.000191
# 2 -0.007185 0.017036 -0.014220 -0.004920 -0.010696 -0.003231
# 3 0.003198 -0.014220 0.040849 0.008883 0.039170 -0.008096
# 4 -0.000251 -0.004920 0.008883 0.022890 0.001119 0.005492
# 5 0.013155 -0.010696 0.039170 0.001119 0.078795 -0.013713
# 6 -0.000191 -0.003231 -0.008096 0.005492 -0.013713 0.038660
#
#
# Mechanical properties :
#
#
# Convention : Reuss Voigt Hill
#
# Bulk Modulus (GPa) = 26.02236 69.71700 47.86968
# Shear Modulus (GPa) = 18.91001 33.95766 26.43383
#
# Velocity S-wave (km/s) = 2.99251 4.01013 3.53809
# Velocity P-wave (km/s) = 4.92578 7.37949 6.27376
#
# Compressibility (1/GPa) = 0.03842849
#
# Stress axis : x y z
#
# Youngs Moduli (GPa) = 58.97429 58.69800 24.48029
#
# Poissons Ratio (x) = 0.42174 -0.07828
# Poissons Ratio (y) = 0.42372 0.34810
# Poissons Ratio (z) = -0.18858 0.83467
#
# Static dielectric constant tensor:
#      x y z
#    x 1.955180 0.060890 0.030900 
#    y 0.060890 1.863990 -0.012890 
#    z 0.030900 -0.012890 1.826960 
# 
# From -- ./inp_files/269166.got.cif
#   From: 2010.05.17/outbox.cif.g08.bks.cpg/sg2_135_cif.got.tgz:269166.got - 2010.06.03 11:33:40.
