data_PCOD9091119
_publ_section_title
;
Structure prediction by ZEFSAII (Michael W. Deem and Ramdas Pophale) SiO2 
 PCOD9091119
Probable space group: P -1
;
_chemical_formula_sum "Si O2"
_cell_formula_units_Z 14
_cell_length_a 11.699381
_cell_length_b 14.341602
_cell_length_c 10.663990
_cell_angle_alpha 59.901506
_cell_angle_beta 78.857865
_cell_angle_gamma 28.961838
_cell_volume 607.364176
_symmetry_space_group_name_H-M "P -1"
_symmetry_group_IT_number 2
_symmetry_cell_setting 'triclinic'
loop_
_space_group_symop_operation_xyz
x,y,z
-x,-y,-z
loop_
_atom_site_type_symbol
_atom_site_label
_atom_site_fract_x
_atom_site_fract_y
_atom_site_fract_z
Si Si1 0.882165 0.914087 0.588008
Si Si2 0.172578 0.222887 0.502415
Si Si3 0.429106 0.532887 0.647981
Si Si4 0.726309 0.470711 0.008027
Si Si5 0.218068 0.781658 0.990484
Si Si6 0.391197 0.412244 0.542695
Si Si7 0.199952 0.350416 0.182111
O O1 0.766207 0.927204 0.505159
O O2 0.078097 0.833142 0.523005
O O3 0.112028 0.660665 0.803498
O O4 0.631907 0.168059 0.560334
O O5 0.103013 0.379415 0.315688
O O6 0.889165 0.425148 0.502788
O O7 0.471591 0.977965 0.682546
O O8 0.508445 0.491512 0.801329
O O9 0.490878 0.359441 0.698835
O O10 0.642200 0.434883 0.597247
O O11 0.378900 0.743485 0.912126
O O12 0.857516 0.254505 0.056149
O O13 0.781378 0.536531 0.885083
O O14 0.000000 0.000000 0.000000
O O15 0.000000 0.500000 0.000000
#
# Coordination Sequence:
#
# PCOD9091119 Si02
#       7
#     2   2   2   2   2   2   2
#     4  10  19  39  63  92 130 166 211 262 321 394
#     4  10  24  42  68  94 122 173 220 270 318 374
#     4   9  20  34  57  94 128 174 203 255 331 376
#     4  10  22  39  65  93 127 175 208 262 334 376
#     4  10  21  37  60  96 132 160 213 265 318 398
#     4  10  20  37  60  94 130 164 217 263 317 386
#     4  11  23  47  70  89 131 173 220 273 324 375
#
# _framework density 23.050422000000001
#
# number of rings (size 3 to 8) (size 9 to 14) (size 15 to 20)
#    0.000    2.000    1.429    1.286    4.000    0.000 
#    5.143    5.000    0.000    0.000    0.000    0.000 
#    0.000    0.000    0.000    0.000    0.000    0.000 
#
# Total GULP energy -77955.633515 kJ/mol
# GULP energy per Si atom -5568.259537 kJ/mol
# Density = 2.299796 g / cm^3
# Si number density = 23.050422 Si / 1000 Ang^3
#
#
#
# Elastic Constant Matrix: (Units=GPa)
#
#
# Indices 1 2 3 4 5 6 
#
# 1 104.2470 52.0829 35.9058 1.9162 -6.8002 -31.8516
# 2 52.0829 180.0493 19.7686 -8.5247 -5.2952 -21.8533
# 3 35.9058 19.7686 101.8716 2.5126 19.0208 -19.4867
# 4 1.9162 -8.5247 2.5126 21.0691 -0.2416 1.2263
# 5 -6.8002 -5.2952 19.0208 -0.2416 29.4394 10.0949
# 6 -31.8516 -21.8533 -19.4867 1.2263 10.0949 48.0593
#
#
#
# Elastic Compliance Matrix: (Units=1/GPa)
#
#
# Indices 1 2 3 4 5 6 
#
# 1 0.014591 -0.003072 -0.003940 -0.002415 0.003269 0.006051
# 2 -0.003072 0.006713 -0.000222 0.002982 0.000404 0.000766
# 3 -0.003940 -0.000222 0.014787 -0.001987 -0.012568 0.005974
# 4 -0.002415 0.002982 -0.001987 0.049323 0.002650 -0.002865
# 5 0.003269 0.000404 -0.012568 0.002650 0.047310 -0.012752
# 6 0.006051 0.000766 0.005974 -0.002865 -0.012752 0.030340
#
#
# Mechanical properties :
#
#
# Convention : Reuss Voigt Hill
#
# Bulk Modulus (GPa) = 46.24932 66.85362 56.55147
# Shear Modulus (GPa) = 27.06516 38.27427 32.66972
#
# Velocity S-wave (km/s) = 3.43034 4.07929 3.76881
# Velocity P-wave (km/s) = 5.98311 7.15917 6.59740
#
# Compressibility (1/GPa) = 0.02162194
#
# Stress axis : x y z
#
# Youngs Moduli (GPa) = 68.53681 148.96377 67.62911
#
# Poissons Ratio (x) = 0.45760 0.26645
# Poissons Ratio (y) = 0.21054 0.01504
# Poissons Ratio (z) = 0.27003 0.03314
#
# Static dielectric constant tensor:
#      x y z
#    x 1.912930 -0.058960 -0.032030 
#    y -0.058960 1.979180 0.071640 
#    z -0.032030 0.071640 2.086250 
# 
# From -- ./inp_files/433804.got.cif
#   From: 2010.05.17/outbox.cif.g08.bks.cpg/sg2_217_cif.got.tgz:433804.got - 2010.06.03 11:33:40.
