data_PCOD9091958
_publ_section_title
;
Structure prediction by ZEFSAII (Michael W. Deem and Ramdas Pophale) SiO2 
 PCOD9091958
Probable space group: P -1
;
_chemical_formula_sum "Si O2"
_cell_formula_units_Z 15
_cell_length_a 7.288204
_cell_length_b 7.738879
_cell_length_c 17.777031
_cell_angle_alpha 121.730298
_cell_angle_beta 129.339741
_cell_angle_gamma 41.484870
_cell_volume 511.130433
_symmetry_space_group_name_H-M "P -1"
_symmetry_group_IT_number 2
_symmetry_cell_setting 'triclinic'
loop_
_space_group_symop_operation_xyz
x,y,z
-x,-y,-z
loop_
_atom_site_type_symbol
_atom_site_label
_atom_site_fract_x
_atom_site_fract_y
_atom_site_fract_z
Si Si1 0.530151 0.646797 0.417573
Si Si2 0.033393 0.812179 0.733187
Si Si3 0.664201 0.920237 0.413142
Si Si4 0.332162 0.451356 0.859366
Si Si5 0.276184 0.859674 0.654397
Si Si6 0.000000 0.000000 0.000000
Si Si7 0.822663 0.487998 0.800007
Si Si8 0.978148 0.200594 0.915896
O O1 0.369200 0.882720 0.488819
O O2 0.293770 0.660386 0.302330
O O3 0.332238 0.622777 0.565687
O O4 0.737469 0.679989 0.425754
O O5 0.684861 0.932574 0.670582
O O6 0.229864 0.539113 0.766648
O O7 0.127187 0.818406 0.675665
O O8 0.094828 0.984622 0.834846
O O9 0.825283 0.912671 0.377547
O O10 0.703575 0.227720 0.899196
O O11 0.200803 0.716095 0.931311
O O12 0.160733 0.358238 0.831294
O O13 0.590642 0.757939 0.755270
O O14 0.174785 0.099272 0.018261
O O15 0.832309 0.454428 0.885390
#
# Coordination Sequence:
#
# PCOD9091958 Si02
#       8
#     2   2   2   2   2   1   2   2
#     4   9  21  41  59  96 137 163 226 269 303 383
#     4  12  21  39  67  91 127 173 211 262 319 396
#     4  11  21  39  64  93 133 176 218 264 317 369
#     4  10  21  41  66  89 128 163 210 268 325 377
#     4  10  21  37  60  97 125 173 223 256 320 378
#     4   8  22  44  64  94 122 164 208 276 322 390
#     4  10  19  40  64  88 130 169 202 273 320 374
#     4  10  22  42  61  96 125 160 221 260 326 394
#
# _framework density 29.346713999999999
#
# number of rings (size 3 to 8) (size 9 to 14) (size 15 to 20)
#    1.600    0.267    4.000    0.400    0.000    2.667 
#    0.000    4.000    0.000    2.400    0.000    0.000 
#    0.000    0.000    0.000    0.000    0.000    0.000 
#
# Total GULP energy -83618.584629 kJ/mol
# GULP energy per Si atom -5574.572309 kJ/mol
# Density = 2.927992 g / cm^3
# Si number density = 29.346714 Si / 1000 Ang^3
#
#
#
# Elastic Constant Matrix: (Units=GPa)
#
#
# Indices 1 2 3 4 5 6 
#
# 1 198.8160 52.0421 52.6921 -11.8036 -24.3215 40.5516
# 2 52.0421 133.8353 49.9183 -12.7460 -6.3488 25.8876
# 3 52.6921 49.9183 91.8052 -16.1775 -30.6936 25.4432
# 4 -11.8036 -12.7460 -16.1775 55.8140 7.3498 -9.4678
# 5 -24.3215 -6.3488 -30.6936 7.3498 66.5629 -13.4949
# 6 40.5516 25.8876 25.4432 -9.4678 -13.4949 51.1343
#
#
#
# Elastic Compliance Matrix: (Units=1/GPa)
#
#
# Indices 1 2 3 4 5 6 
#
# 1 0.006661 -0.001131 -0.002016 -0.000127 0.000691 -0.003548
# 2 -0.001131 0.010115 -0.004857 0.000567 -0.002215 -0.002286
# 3 -0.002016 -0.004857 0.017978 0.002377 0.006261 -0.002795
# 4 -0.000127 0.000567 0.002377 0.019129 -0.000600 0.002015
# 5 0.000691 -0.002215 0.006261 -0.000600 0.018468 0.002221
# 6 -0.003548 -0.002286 -0.002795 0.002015 0.002221 0.025877
#
#
# Mechanical properties :
#
#
# Convention : Reuss Voigt Hill
#
# Bulk Modulus (GPa) = 53.35170 81.52907 67.44038
# Shear Modulus (GPa) = 41.49932 52.68919 47.09425
#
# Velocity S-wave (km/s) = 3.76454 4.24182 4.01028
# Velocity P-wave (km/s) = 6.09220 7.19947 6.66885
#
# Compressibility (1/GPa) = 0.01874355
#
# Stress axis : x y z
#
# Youngs Moduli (GPa) = 150.13273 98.86704 55.62508
#
# Poissons Ratio (x) = 0.11184 0.11214
# Poissons Ratio (y) = 0.16983 0.27019
# Poissons Ratio (z) = 0.30267 0.48024
#
# Static dielectric constant tensor:
#      x y z
#    x 2.284970 -0.119480 0.069300 
#    y -0.119480 2.645350 -0.076820 
#    z 0.069300 -0.076820 2.412350 
# 
# From -- ./inp_files/547420.got.cif
#   From: 2010.05.17/outbox.cif.g08.bks.cpg/sg2_274_cif.got.tgz:547420.got - 2010.06.03 11:33:40.
