data_PCOD9091153
_publ_section_title
;
Structure prediction by ZEFSAII (Michael W. Deem and Ramdas Pophale) SiO2 
 PCOD9091153
Probable space group: P -1
;
_chemical_formula_sum "Si O2"
_cell_formula_units_Z 14
_cell_length_a 21.765693
_cell_length_b 6.734144
_cell_length_c 12.319958
_cell_angle_alpha 126.594734
_cell_angle_beta 27.922420
_cell_angle_gamma 112.709337
_cell_volume 629.581353
_symmetry_space_group_name_H-M "P -1"
_symmetry_group_IT_number 2
_symmetry_cell_setting 'triclinic'
loop_
_space_group_symop_operation_xyz
x,y,z
-x,-y,-z
loop_
_atom_site_type_symbol
_atom_site_label
_atom_site_fract_x
_atom_site_fract_y
_atom_site_fract_z
Si Si1 0.221276 0.789560 0.641315
Si Si2 0.146586 0.352860 0.319499
Si Si3 0.341192 0.188986 0.552006
Si Si4 0.167107 0.533651 0.122323
Si Si5 0.643366 0.116938 0.025526
Si Si6 0.058984 0.965141 0.725448
Si Si7 0.270551 0.199148 0.412727
O O1 0.135322 0.917554 0.708115
O O2 0.265860 0.475945 0.462769
O O3 0.346531 0.899432 0.488432
O O4 0.107758 0.897697 0.950466
O O5 0.191327 0.321123 0.113381
O O6 0.106375 0.668418 0.507012
O O7 0.001621 0.306114 0.554621
O O8 0.267848 0.158606 0.141809
O O9 0.486613 0.231420 0.356061
O O10 0.311372 0.202782 0.475149
O O11 0.214443 0.394362 0.887021
O O12 0.265137 0.700655 0.045948
O O13 0.632451 0.042748 0.892306
O O14 0.120582 0.158489 0.629403
#
# Coordination Sequence:
#
# PCOD9091153 Si02
#       7
#     2   2   2   2   2   2   2
#     4  10  21  38  65  95 130 164 214 262 325 376
#     4  11  23  43  70  92 129 170 218 267 321 374
#     4  11  26  43  65  97 136 169 213 264 322 388
#     4  11  25  46  65  94 132 169 220 269 313 385
#     4  12  25  43  68  97 129 175 215 262 324 384
#     4  10  19  39  63  97 127 164 213 270 315 374
#     4  11  23  40  67  99 128 170 213 269 320 381
#
# _framework density 22.236996999999999
#
# number of rings (size 3 to 8) (size 9 to 14) (size 15 to 20)
#    0.000    1.143    4.286    1.714    0.000    4.571 
#    0.000    0.000    0.000    0.000    0.000    0.000 
#    0.000    0.000    0.000    0.000    0.000    0.000 
#
# Total GULP energy -78210.266508 kJ/mol
# GULP energy per Si atom -5586.447608 kJ/mol
# Density = 2.218638 g / cm^3
# Si number density = 22.236997 Si / 1000 Ang^3
#
#
#
# Elastic Constant Matrix: (Units=GPa)
#
#
# Indices 1 2 3 4 5 6 
#
# 1 66.6949 1.5011 21.3226 -4.1512 10.7568 2.9066
# 2 1.5011 84.0568 3.3821 -12.5480 -10.5193 17.0890
# 3 21.3226 3.3821 59.3062 -22.5685 2.3459 -3.3090
# 4 -4.1512 -12.5480 -22.5685 26.1346 9.5701 1.2663
# 5 10.7568 -10.5193 2.3459 9.5701 31.3920 -7.7427
# 6 2.9066 17.0890 -3.3090 1.2663 -7.7427 25.3781
#
#
#
# Elastic Compliance Matrix: (Units=1/GPa)
#
#
# Indices 1 2 3 4 5 6 
#
# 1 0.018494 0.000136 -0.006601 0.000176 -0.007149 -0.005261
# 2 0.000136 0.015455 0.002472 0.010445 -0.000926 -0.010904
# 3 -0.006601 0.002472 0.030743 0.029870 -0.008560 -0.001002
# 4 0.000176 0.010445 0.029870 0.079681 -0.026865 -0.015331
# 5 -0.007149 -0.000926 -0.008560 -0.026865 0.046754 0.015931
# 6 -0.005261 -0.010904 -0.001002 -0.015331 0.015931 0.052844
#
#
# Mechanical properties :
#
#
# Convention : Reuss Voigt Hill
#
# Bulk Modulus (GPa) = 17.63410 29.16328 23.39869
# Shear Modulus (GPa) = 18.45988 28.83776 23.64882
#
# Velocity S-wave (km/s) = 2.88435 3.60507 3.26466
# Velocity P-wave (km/s) = 4.36347 5.52014 4.97553
#
# Compressibility (1/GPa) = 0.05670831
#
# Stress axis : x y z
#
# Youngs Moduli (GPa) = 54.07095 64.70459 32.52721
#
# Poissons Ratio (x) = -0.00882 0.21471
# Poissons Ratio (y) = -0.00737 -0.08042
# Poissons Ratio (z) = 0.35692 -0.15998
#
# Static dielectric constant tensor:
#      x y z
#    x 1.857660 0.014400 0.029090 
#    y 0.014400 1.817010 -0.029790 
#    z 0.029090 -0.029790 1.815260 
# 
# From -- ./inp_files/69462.got.cif
#   From: 2010.05.17/outbox.cif.g08.bks.cpg/sg2_35_cif.got.tgz:69462.got - 2010.06.03 11:33:40.
