data_PCOD9091061
_publ_section_title
;
Structure prediction by ZEFSAII (Michael W. Deem and Ramdas Pophale) SiO2 
 PCOD9091061
Probable space group: P -1
;
_chemical_formula_sum "Si O2"
_cell_formula_units_Z 16
_cell_length_a 8.213471
_cell_length_b 12.561058
_cell_length_c 8.111008
_cell_angle_alpha 73.875764
_cell_angle_beta 90.544295
_cell_angle_gamma 119.807910
_cell_volume 689.190310
_symmetry_space_group_name_H-M "P -1"
_symmetry_group_IT_number 2
_symmetry_cell_setting 'triclinic'
loop_
_space_group_symop_operation_xyz
x,y,z
-x,-y,-z
loop_
_atom_site_type_symbol
_atom_site_label
_atom_site_fract_x
_atom_site_fract_y
_atom_site_fract_z
Si Si1 0.760100 0.751809 0.735764
Si Si2 0.004157 0.835669 0.397096
Si Si3 0.478939 0.772203 0.937523
Si Si4 0.860992 0.848619 0.047358
Si Si5 0.200233 0.474576 0.090720
Si Si6 0.102143 0.502395 0.746717
Si Si7 0.427390 0.984008 0.318813
Si Si8 0.210939 0.699612 0.410975
O O1 0.870411 0.831736 0.541753
O O2 0.571916 0.753572 0.778589
O O3 0.719195 0.606108 0.787021
O O4 0.885936 0.806703 0.881909
O O5 0.903636 0.795747 0.236129
O O6 0.075738 0.612985 0.300189
O O7 0.071541 0.736339 0.489327
O O8 0.443687 0.888378 0.843686
O O9 0.646089 0.817086 0.052487
O O10 0.322906 0.628726 0.047295
O O11 0.000000 0.000000 0.000000
O O12 0.991225 0.431992 0.172507
O O13 0.194111 0.454659 0.901813
O O14 0.240510 0.604936 0.568860
O O15 0.384039 0.843940 0.312679
O O16 0.500000 0.000000 0.500000
O O17 0.213561 0.963559 0.324496
#
# Coordination Sequence:
#
# PCOD9091061 Si02
#       8
#     2   2   2   2   2   2   2   2
#     4  10  22  38  62  89 117 166 202 247 308 358
#     4  10  19  39  63  87 117 158 208 240 306 364
#     4  10  23  36  60  88 123 160 198 252 306 358
#     4  10  20  38  59  87 122 156 201 250 294 363
#     4  11  20  38  57  89 121 159 205 248 305 366
#     4  10  20  35  64  84 117 163 202 248 309 362
#     4  10  20  37  61  88 122 155 200 258 303 360
#     4   9  19  37  57  88 115 154 203 253 292 364
#
# _framework density 23.215646
#
# number of rings (size 3 to 8) (size 9 to 14) (size 15 to 20)
#    1.500    0.500    2.500    1.875    0.000    2.000 
#    0.000    6.250    0.000    0.000    0.000    0.000 
#    0.000    0.000    0.000    0.000    0.000    0.000 
#
# Total GULP energy -89074.803878 kJ/mol
# GULP energy per Si atom -5567.175242 kJ/mol
# Density = 2.316281 g / cm^3
# Si number density = 23.215646 Si / 1000 Ang^3
#
#
#
# Elastic Constant Matrix: (Units=GPa)
#
#
# Indices 1 2 3 4 5 6 
#
# 1 17.2591 -4.2228 4.2265 9.9026 -1.5323 8.4183
# 2 -4.2228 112.5531 26.3047 -14.1226 11.0458 15.3634
# 3 4.2265 26.3047 66.0353 -12.3784 8.6787 13.6912
# 4 9.9026 -14.1226 -12.3784 22.0709 -0.2487 7.9342
# 5 -1.5323 11.0458 8.6787 -0.2487 42.9328 11.0205
# 6 8.4183 15.3634 13.6912 7.9342 11.0205 27.3739
#
#
#
# Elastic Compliance Matrix: (Units=1/GPa)
#
#
# Indices 1 2 3 4 5 6 
#
# 1 0.094307 0.002433 -0.013010 -0.042496 0.009019 -0.015174
# 2 0.002433 0.011667 -0.001161 0.009038 -0.000258 -0.009231
# 3 -0.013010 -0.001161 0.023750 0.023214 -0.001394 -0.013393
# 4 -0.042496 0.009038 0.023214 0.094295 -0.000050 -0.030925
# 5 0.009019 -0.000258 -0.001394 -0.000050 0.027273 -0.012897
# 6 -0.015174 -0.009231 -0.013393 -0.030925 -0.012897 0.067233
#
#
# Mechanical properties :
#
#
# Convention : Reuss Voigt Hill
#
# Bulk Modulus (GPa) = 9.41211 27.60715 18.50963
# Shear Modulus (GPa) = 13.24799 29.77811 21.51305
#
# Velocity S-wave (km/s) = 2.39142 3.58533 3.04741
# Velocity P-wave (km/s) = 3.41880 5.39044 4.51359
#
# Compressibility (1/GPa) = 0.10624609
#
# Stress axis : x y z
#
# Youngs Moduli (GPa) = 10.60372 85.71369 42.10517
#
# Poissons Ratio (x) = -0.20852 0.54780
# Poissons Ratio (y) = -0.02580 0.04889
# Poissons Ratio (z) = 0.13796 0.09952
#
# Static dielectric constant tensor:
#      x y z
#    x 1.854140 -0.010110 0.000990 
#    y -0.010110 1.948500 -0.012810 
#    z 0.000990 -0.012810 1.885920 
# 
# From -- ./inp_files/177849.got.cif
#   From: 2010.05.17/outbox.cif.g08.bks.cpg/sg2_89_cif.got.tgz:177849.got - 2010.06.03 11:33:40.
