data_PCOD9091883
_publ_section_title
;
Structure prediction by ZEFSAII (Michael W. Deem and Ramdas Pophale) SiO2 
 PCOD9091883
Probable space group: P -1
;
_chemical_formula_sum "Si O2"
_cell_formula_units_Z 16
_cell_length_a 21.305750
_cell_length_b 8.256227
_cell_length_c 11.783900
_cell_angle_alpha 131.249771
_cell_angle_beta 31.195912
_cell_angle_gamma 120.814977
_cell_volume 800.071768
_symmetry_space_group_name_H-M "P -1"
_symmetry_group_IT_number 2
_symmetry_cell_setting 'triclinic'
loop_
_space_group_symop_operation_xyz
x,y,z
-x,-y,-z
loop_
_atom_site_type_symbol
_atom_site_label
_atom_site_fract_x
_atom_site_fract_y
_atom_site_fract_z
Si Si1 0.793383 0.418499 0.556533
Si Si2 0.508160 0.639531 0.811701
Si Si3 0.944123 0.036806 0.230353
Si Si4 0.325416 0.110007 0.049793
Si Si5 0.698990 0.977438 0.697503
Si Si6 0.662264 0.257389 0.322539
Si Si7 0.895935 0.353645 0.117428
Si Si8 0.420701 0.746699 0.311113
O O1 0.893829 0.292737 0.426306
O O2 0.850489 0.427736 0.347250
O O3 0.685801 0.273938 0.622889
O O4 0.737360 0.657164 0.791146
O O5 0.547961 0.447446 0.570983
O O6 0.604354 0.811652 0.734193
O O7 0.376299 0.779132 0.073216
O O8 0.532401 0.496836 0.824475
O O9 0.819257 0.944646 0.418668
O O10 0.000000 0.000000 0.000000
O O11 0.047036 0.900961 0.084801
O O12 0.469608 0.133787 0.847299
O O13 0.315465 0.914606 0.889917
O O14 0.271316 0.071836 0.239058
O O15 0.781349 0.372635 0.219531
O O16 0.633658 0.146952 0.437096
O O17 0.000000 0.500000 0.000000
#
# Coordination Sequence:
#
# PCOD9091883 Si02
#       8
#     2   2   2   2   2   2   2   2
#     4  10  20  34  57  86 108 150 198 235 284 343
#     4   9  20  36  56  84 126 147 193 236 286 353
#     4  10  22  37  60  84 114 146 198 250 284 329
#     4  12  20  33  59  86 122 153 187 235 295 348
#     4  11  21  34  58  91 112 152 198 241 284 339
#     4   9  21  37  55  85 119 157 188 229 298 351
#     4  10  19  40  63  79 111 149 201 244 282 337
#     4   9  19  36  53  82 117 157 184 224 285 354
#
# _framework density 19.998204999999999
#
# number of rings (size 3 to 8) (size 9 to 14) (size 15 to 20)
#    0.750    1.250    1.250    3.000    3.500    0.500 
#    0.000    3.125    0.000    0.000    0.000    0.000 
#    0.000    0.000    0.000    0.000    0.000    0.000 
#
# Total GULP energy -89097.252010 kJ/mol
# GULP energy per Si atom -5568.578251 kJ/mol
# Density = 1.995269 g / cm^3
# Si number density = 19.998205 Si / 1000 Ang^3
#
#
#
# Elastic Constant Matrix: (Units=GPa)
#
#
# Indices 1 2 3 4 5 6 
#
# 1 23.0198 20.9509 21.3972 8.5738 -4.7314 -7.9262
# 2 20.9509 59.5362 39.0865 -2.2595 4.6114 -1.5013
# 3 21.3972 39.0865 113.2686 -2.5053 -6.0286 1.7967
# 4 8.5738 -2.2595 -2.5053 55.0578 -5.1706 -8.4289
# 5 -4.7314 4.6114 -6.0286 -5.1706 29.1427 8.6421
# 6 -7.9262 -1.5013 1.7967 -8.4289 8.6421 22.5755
#
#
#
# Elastic Compliance Matrix: (Units=1/GPa)
#
#
# Indices 1 2 3 4 5 6 
#
# 1 0.088260 -0.026501 -0.007687 -0.010946 0.008296 0.022574
# 2 -0.026501 0.030903 -0.006032 0.003987 -0.009213 -0.001754
# 3 -0.007687 -0.006032 0.012688 0.001105 0.004088 -0.005262
# 4 -0.010946 0.003987 0.001105 0.020716 0.000327 0.003943
# 5 0.008296 -0.009213 0.004088 0.000327 0.042190 -0.014054
# 6 0.022574 -0.001754 -0.005262 0.003943 -0.014054 0.059376
#
#
# Mechanical properties :
#
#
# Convention : Reuss Voigt Hill
#
# Bulk Modulus (GPa) = 19.45112 39.85486 29.65299
# Shear Modulus (GPa) = 14.21633 28.98121 21.59877
#
# Velocity S-wave (km/s) = 2.66913 3.81095 3.28995
# Velocity P-wave (km/s) = 4.38709 6.27192 5.41219
#
# Compressibility (1/GPa) = 0.05141093
#
# Stress axis : x y z
#
# Youngs Moduli (GPa) = 11.33019 32.35917 78.81710
#
# Poissons Ratio (x) = 0.85756 0.60583
# Poissons Ratio (y) = 0.30026 0.47543
# Poissons Ratio (z) = 0.08709 0.19519
#
# Static dielectric constant tensor:
#      x y z
#    x 1.703980 -0.053010 -0.001580 
#    y -0.053010 1.760880 -0.021640 
#    z -0.001580 -0.021640 1.793130 
# 
# From -- ./inp_files/474291.got.cif
#   From: 2010.05.17/outbox.cif.g08.bks.cpg/sg2_238_cif.got.tgz:474291.got - 2010.06.03 11:33:40.
