data_PCOD9091991
_publ_section_title
;
Structure prediction by ZEFSAII (Michael W. Deem and Ramdas Pophale) SiO2 
 PCOD9091991
Probable space group: P -1
;
_chemical_formula_sum "Si O2"
_cell_formula_units_Z 14
_cell_length_a 14.261673
_cell_length_b 19.405502
_cell_length_c 11.508113
_cell_angle_alpha 33.155984
_cell_angle_beta 135.985942
_cell_angle_gamma 159.015297
_cell_volume 591.205688
_symmetry_space_group_name_H-M "P -1"
_symmetry_group_IT_number 2
_symmetry_cell_setting 'triclinic'
loop_
_space_group_symop_operation_xyz
x,y,z
-x,-y,-z
loop_
_atom_site_type_symbol
_atom_site_label
_atom_site_fract_x
_atom_site_fract_y
_atom_site_fract_z
Si Si1 0.802129 0.201437 0.015752
Si Si2 0.174935 0.968882 0.112916
Si Si3 0.306545 0.234080 0.091913
Si Si4 0.125914 0.235000 0.246008
Si Si5 0.650369 0.494975 0.684656
Si Si6 0.765836 0.060656 0.433408
Si Si7 0.262425 0.762562 0.534991
O O1 0.036007 0.489719 0.777213
O O2 0.799621 0.171152 0.193027
O O3 0.889503 0.137690 0.130203
O O4 0.500000 0.000000 0.000000
O O5 0.259016 0.095747 0.136115
O O6 0.130563 0.783851 0.340327
O O7 0.426256 0.205136 0.916524
O O8 0.913957 0.836365 0.025684
O O9 0.252482 0.106328 0.338148
O O10 0.612335 0.538093 0.924672
O O11 0.241754 0.381234 0.265749
O O12 0.000000 0.000000 0.500000
O O13 0.500000 0.500000 0.500000
O O14 0.924390 0.672369 0.609382
O O15 0.459181 0.848359 0.501264
O O16 0.500000 0.000000 0.500000
#
# Coordination Sequence:
#
# PCOD9091991 Si02
#       7
#     2   2   2   2   2   2   2
#     4  11  27  47  64  94 137 179 221 276 333 399
#     4  10  21  36  63  99 132 165 212 270 333 392
#     4  10  19  40  64  93 130 169 211 275 326 386
#     4  10  22  42  66  91 132 177 220 270 330 396
#     4  10  20  39  65  99 132 163 221 279 332 384
#     4  11  22  43  67  92 136 175 211 275 338 384
#     4  12  23  43  68 101 134 172 222 271 335 406
#
# _framework density 23.680420999999999
#
# number of rings (size 3 to 8) (size 9 to 14) (size 15 to 20)
#    0.000    1.429    4.286    1.714    2.000    2.857 
#    2.571    2.857    0.000    0.000    0.000    0.000 
#    0.000    0.000    0.000    0.000    0.000    0.000 
#
# Total GULP energy -78180.280645 kJ/mol
# GULP energy per Si atom -5584.305760 kJ/mol
# Density = 2.362652 g / cm^3
# Si number density = 23.680421 Si / 1000 Ang^3
#
#
#
# Elastic Constant Matrix: (Units=GPa)
#
#
# Indices 1 2 3 4 5 6 
#
# 1 45.6881 50.3634 58.1560 -3.5799 1.5749 29.5438
# 2 50.3634 133.8107 89.3802 -4.4588 4.6715 53.7375
# 3 58.1560 89.3802 255.1310 -16.5555 7.1071 50.3119
# 4 -3.5799 -4.4588 -16.5555 48.2215 18.8496 -3.4681
# 5 1.5749 4.6715 7.1071 18.8496 39.8668 0.6225
# 6 29.5438 53.7375 50.3119 -3.4681 0.6225 43.4961
#
#
#
# Elastic Compliance Matrix: (Units=1/GPa)
#
#
# Indices 1 2 3 4 5 6 
#
# 1 0.047728 -0.007916 -0.004734 -0.000134 0.000218 -0.017177
# 2 -0.007916 0.017079 -0.001358 -0.000015 -0.001219 -0.014136
# 3 -0.004734 -0.001358 0.006033 0.002124 -0.001704 -0.001891
# 4 -0.000134 -0.000015 0.002124 0.026494 -0.012897 -0.000050
# 5 0.000218 -0.001219 -0.001704 -0.012897 0.031591 0.001848
# 6 -0.017177 -0.014136 -0.001891 -0.000050 0.001848 0.054279
#
#
# Mechanical properties :
#
#
# Convention : Reuss Voigt Hill
#
# Bulk Modulus (GPa) = 23.35129 92.26989 57.81059
# Shear Modulus (GPa) = 22.17361 42.09890 32.13626
#
# Velocity S-wave (km/s) = 3.06333 4.22096 3.68786
# Velocity P-wave (km/s) = 4.73228 7.92494 6.52683
#
# Compressibility (1/GPa) = 0.04282419
#
# Stress axis : x y z
#
# Youngs Moduli (GPa) = 20.95198 58.55177 165.76567
#
# Poissons Ratio (x) = 0.46348 0.78469
# Poissons Ratio (y) = 0.16585 0.22515
# Poissons Ratio (z) = 0.09918 0.07953
#
# Static dielectric constant tensor:
#      x y z
#    x 1.994820 0.124530 0.108640 
#    y 0.124530 1.838170 -0.107740 
#    z 0.108640 -0.107740 1.660790 
# 
# From -- ./inp_files/457643.got.cif
#   From: 2010.05.17/outbox.cif.g08.bks.cpg/sg2_229_cif.got.tgz:457643.got - 2010.06.03 11:33:40.
