data_PCOD9091660
_publ_section_title
;
Structure prediction by ZEFSAII (Michael W. Deem and Ramdas Pophale) SiO2 
 PCOD9091660
Probable space group: P -1
;
_chemical_formula_sum "Si O2"
_cell_formula_units_Z 14
_cell_length_a 26.962047
_cell_length_b 8.797560
_cell_length_c 10.422755
_cell_angle_alpha 62.003056
_cell_angle_beta 32.542328
_cell_angle_gamma 37.265278
_cell_volume 632.742192
_symmetry_space_group_name_H-M "P -1"
_symmetry_group_IT_number 2
_symmetry_cell_setting 'triclinic'
loop_
_space_group_symop_operation_xyz
x,y,z
-x,-y,-z
loop_
_atom_site_type_symbol
_atom_site_label
_atom_site_fract_x
_atom_site_fract_y
_atom_site_fract_z
Si Si1 0.916497 0.316706 0.569829
Si Si2 0.154833 0.224068 0.179297
Si Si3 0.420709 0.582271 0.001579
Si Si4 0.638944 0.287131 0.399866
Si Si5 0.383018 0.285585 0.747558
Si Si6 0.268937 0.202716 0.691472
Si Si7 0.690406 0.632198 0.693163
O O1 0.807430 0.510381 0.602967
O O2 0.079685 0.180814 0.282720
O O3 0.780271 0.544134 0.895021
O O4 0.000000 0.000000 0.500000
O O5 0.000000 0.500000 0.500000
O O6 0.309664 0.913898 0.052626
O O7 0.194127 0.310654 0.955834
O O8 0.321056 0.556745 0.225981
O O9 0.500000 0.500000 0.000000
O O10 0.563964 0.342176 0.676153
O O11 0.500000 0.500000 0.500000
O O12 0.680026 0.424509 0.272284
O O13 0.767569 0.930367 0.229923
O O14 0.500000 0.000000 0.500000
O O15 0.526101 0.096768 0.618848
O O16 0.229827 0.410762 0.592826
O O17 0.500000 0.000000 0.000000
#
# Coordination Sequence:
#
# PCOD9091660 Si02
#       7
#     2   2   2   2   2   2   2
#     4  12  25  45  71 105 149 190 237 306 370 430
#     4  12  27  47  70 105 150 190 235 302 382 420
#     4  12  26  44  71 108 146 182 239 306 358 431
#     4  10  19  39  69 100 132 181 244 282 342 425
#     4  11  22  38  71 104 132 192 249 289 349 442
#     4  11  23  43  74  99 138 189 250 287 344 449
#     4  12  24  44  74 108 137 187 253 297 350 444
#
# _framework density 22.125914000000002
#
# number of rings (size 3 to 8) (size 9 to 14) (size 15 to 20)
#    0.000    0.571    7.143    2.571    4.000    0.571 
#    0.000    2.143    0.000    0.000    0.000    0.000 
#    0.000    0.000    0.000    0.000    0.000    0.000 
#
# Total GULP energy -78069.519163 kJ/mol
# GULP energy per Si atom -5576.394226 kJ/mol
# Density = 2.207555 g / cm^3
# Si number density = 22.125914 Si / 1000 Ang^3
#
#
#
# Elastic Constant Matrix: (Units=GPa)
#
#
# Indices 1 2 3 4 5 6 
#
# 1 93.6173 22.4186 21.4456 -19.9776 16.2188 -20.0258
# 2 22.4186 71.7803 28.1999 -31.9443 19.4126 -12.5529
# 3 21.4456 28.1999 115.6395 -32.8791 32.1537 -13.8447
# 4 -19.9776 -31.9443 -32.8791 49.8310 -3.8108 2.2808
# 5 16.2188 19.4126 32.1537 -3.8108 45.6178 -3.1645
# 6 -20.0258 -12.5529 -13.8447 2.2808 -3.1645 41.2654
#
#
#
# Elastic Compliance Matrix: (Units=1/GPa)
#
#
# Indices 1 2 3 4 5 6 
#
# 1 0.013831 0.000278 0.001167 0.005820 -0.004922 0.006489
# 2 0.000278 0.023852 0.002179 0.015777 -0.010017 0.006481
# 3 0.001167 0.002179 0.014195 0.010241 -0.010170 0.004646
# 4 0.005820 0.015777 0.010241 0.037966 -0.012273 0.008020
# 5 -0.004922 -0.010017 -0.010170 -0.012273 0.033690 -0.005586
# 6 0.006489 0.006481 0.004646 0.008020 -0.005586 0.030041
#
#
# Mechanical properties :
#
#
# Convention : Reuss Voigt Hill
#
# Bulk Modulus (GPa) = 16.91299 47.24058 32.07679
# Shear Modulus (GPa) = 30.11393 41.27440 35.69416
#
# Velocity S-wave (km/s) = 3.69321 4.32375 4.02086
# Velocity P-wave (km/s) = 5.08399 6.80614 6.00710
#
# Compressibility (1/GPa) = 0.05912615
#
# Stress axis : x y z
#
# Youngs Moduli (GPa) = 72.30395 41.92446 70.44502
#
# Poissons Ratio (x) = -0.01163 -0.08224
# Poissons Ratio (y) = -0.02007 -0.15349
# Poissons Ratio (z) = -0.08441 -0.09135
#
# Static dielectric constant tensor:
#      x y z
#    x 1.859410 0.094890 0.041580 
#    y 0.094890 1.856480 -0.036430 
#    z 0.041580 -0.036430 1.776920 
# 
# From -- ./inp_files/184482.got.cif
#   From: 2010.05.17/outbox.cif.g08.bks.cpg/sg2_93_cif.got.tgz:184482.got - 2010.06.03 11:33:40.
