data_PCOD9091338
_publ_section_title
;
Structure prediction by ZEFSAII (Michael W. Deem and Ramdas Pophale) SiO2 
 PCOD9091338
Probable space group: P -1
;
_chemical_formula_sum "Si O2"
_cell_formula_units_Z 16
_cell_length_a 11.474521
_cell_length_b 20.711007
_cell_length_c 14.563626
_cell_angle_alpha 156.887966
_cell_angle_beta 148.955256
_cell_angle_gamma 44.549391
_cell_volume 650.268063
_symmetry_space_group_name_H-M "P -1"
_symmetry_group_IT_number 2
_symmetry_cell_setting 'triclinic'
loop_
_space_group_symop_operation_xyz
x,y,z
-x,-y,-z
loop_
_atom_site_type_symbol
_atom_site_label
_atom_site_fract_x
_atom_site_fract_y
_atom_site_fract_z
Si Si1 0.575912 0.367041 0.632837
Si Si2 0.261074 0.548997 0.896264
Si Si3 0.739726 0.997766 0.715181
Si Si4 0.482968 0.078315 0.344205
Si Si5 0.948081 0.712815 0.821347
Si Si6 0.925219 0.987871 0.540653
Si Si7 0.729696 0.166266 0.337125
Si Si8 0.942927 0.700579 0.422915
O O1 0.483630 0.175458 0.374200
O O2 0.670300 0.329669 0.549896
O O3 0.333784 0.410086 0.528213
O O4 0.792193 0.527344 0.034648
O O5 0.130219 0.608060 0.803948
O O6 0.049356 0.388892 0.592592
O O7 0.500000 0.500000 0.000000
O O8 0.350255 0.733994 0.251358
O O9 0.718761 0.995481 0.808609
O O10 0.786044 0.822718 0.487074
O O11 0.500000 0.000000 0.500000
O O12 0.971317 0.157876 0.042130
O O13 0.642247 0.955935 0.299407
O O14 0.972680 0.843166 0.098456
O O15 0.030934 0.850069 0.475977
O O16 0.000000 0.000000 0.500000
O O17 0.801281 0.189672 0.308968
O O18 0.500000 0.000000 0.000000
#
# Coordination Sequence:
#
# PCOD9091338 Si02
#       8
#     2   2   2   2   2   2   2   2
#     4  11  24  41  61  96 138 173 216 278 338 391
#     4  10  19  39  65  90 129 170 211 262 335 389
#     4  12  19  39  70  95 122 174 232 265 322 394
#     4  10  21  35  64  93 128 170 219 267 325 393
#     4  11  23  41  67  97 132 171 222 276 328 397
#     4  11  20  37  66  94 121 171 221 264 327 385
#     4  12  22  42  68  95 130 174 225 275 326 393
#     4  11  23  40  68  94 129 179 217 268 343 397
#
# _framework density 24.605236000000001
#
# number of rings (size 3 to 8) (size 9 to 14) (size 15 to 20)
#    0.000    1.000    7.500    0.375    0.000    0.500 
#    0.000    7.500    2.750    0.000    0.000    0.000 
#    0.000    0.000    0.000    0.000    0.000    0.000 
#
# Total GULP energy -89210.800874 kJ/mol
# GULP energy per Si atom -5575.675055 kJ/mol
# Density = 2.454923 g / cm^3
# Si number density = 24.605236 Si / 1000 Ang^3
#
#
#
# Elastic Constant Matrix: (Units=GPa)
#
#
# Indices 1 2 3 4 5 6 
#
# 1 138.4602 16.3067 2.7027 6.3225 13.2909 -9.3027
# 2 16.3067 105.9373 -5.1276 4.5043 13.4376 -20.4012
# 3 2.7027 -5.1276 65.2073 7.8823 19.1702 -5.3434
# 4 6.3225 4.5043 7.8823 33.7178 4.3358 5.6523
# 5 13.2909 13.4376 19.1702 4.3358 38.4262 -0.2465
# 6 -9.3027 -20.4012 -5.3434 5.6523 -0.2465 45.4029
#
#
#
# Elastic Compliance Matrix: (Units=1/GPa)
#
#
# Indices 1 2 3 4 5 6 
#
# 1 0.007697 -0.000423 0.000761 -0.001492 -0.002715 0.001648
# 2 -0.000423 0.011533 0.003221 -0.002515 -0.005173 0.005760
# 3 0.000761 0.003221 0.019590 -0.004527 -0.010624 0.004415
# 4 -0.001492 -0.002515 -0.004527 0.032341 -0.000034 -0.005995
# 5 -0.002715 -0.005173 -0.010624 -0.000034 0.034051 -0.003942
# 6 0.001648 0.005760 0.004415 -0.005995 -0.003942 0.026195
#
#
# Mechanical properties :
#
#
# Convention : Reuss Voigt Hill
#
# Bulk Modulus (GPa) = 21.76820 37.48537 29.62678
# Shear Modulus (GPa) = 35.81683 43.22422 39.52053
#
# Velocity S-wave (km/s) = 3.81945 4.19586 4.01207
# Velocity P-wave (km/s) = 5.32138 6.22426 5.79045
#
# Compressibility (1/GPa) = 0.04593858
#
# Stress axis : x y z
#
# Youngs Moduli (GPa) = 129.92623 86.70922 51.04753
#
# Poissons Ratio (x) = 0.03666 -0.03886
# Poissons Ratio (y) = 0.05493 -0.16443
# Poissons Ratio (z) = -0.09892 -0.27931
#
# Static dielectric constant tensor:
#      x y z
#    x 2.089230 0.107040 -0.085780 
#    y 0.107040 1.881920 0.118000 
#    z -0.085780 0.118000 1.785000 
# 
# From -- ./inp_files/571000.got.cif
#   From: 2010.05.17/outbox.cif.g08.bks.cpg/sg2_286_cif.got.tgz:571000.got - 2010.06.03 11:33:40.
