data_PCOD9091525
_publ_section_title
;
Structure prediction by ZEFSAII (Michael W. Deem and Ramdas Pophale) SiO2 
 PCOD9091525
Probable space group: P -1
;
_chemical_formula_sum "Si O2"
_cell_formula_units_Z 16
_cell_length_a 7.570801
_cell_length_b 19.295530
_cell_length_c 8.340810
_cell_angle_alpha 147.157269
_cell_angle_beta 90.557360
_cell_angle_gamma 84.921260
_cell_volume 653.481996
_symmetry_space_group_name_H-M "P -1"
_symmetry_group_IT_number 2
_symmetry_cell_setting 'triclinic'
loop_
_space_group_symop_operation_xyz
x,y,z
-x,-y,-z
loop_
_atom_site_type_symbol
_atom_site_label
_atom_site_fract_x
_atom_site_fract_y
_atom_site_fract_z
Si Si1 0.018497 0.911492 0.986793
Si Si2 0.617721 0.748698 0.992253
Si Si3 0.798745 0.345613 0.596689
Si Si4 0.275788 0.685578 0.985861
Si Si5 0.845297 0.736702 0.451862
Si Si6 0.162872 0.503664 0.391156
Si Si7 0.104276 0.135037 0.620533
Si Si8 0.393973 0.420272 0.662291
O O1 0.040874 0.999230 0.309473
O O2 0.188310 0.799558 0.757400
O O3 0.000000 0.000000 0.000000
O O4 0.859882 0.827707 0.786524
O O5 0.721434 0.633469 0.879187
O O6 0.613258 0.676779 0.680106
O O7 0.425007 0.777004 0.130858
O O8 0.748694 0.855853 0.222460
O O9 0.897936 0.436392 0.659849
O O10 0.593601 0.402857 0.701430
O O11 0.945096 0.319582 0.686626
O O12 0.078261 0.766227 0.155789
O O13 0.333152 0.567633 0.884282
O O14 0.278518 0.602983 0.662281
O O15 0.800357 0.823612 0.463390
O O16 0.727983 0.630560 0.299398
O O17 0.000000 0.500000 0.500000
#
# Coordination Sequence:
#
# PCOD9091525 Si02
#       8
#     2   2   2   2   2   2   2   2
#     4   8  20  44  61  78 118 169 212 246 295 362
#     4  11  22  37  62  91 129 156 199 243 313 373
#     4  10  19  39  67  82 120 156 214 247 287 369
#     4  11  22  36  62  90 132 156 192 250 314 366
#     4   9  23  40  64  84 115 165 208 248 302 361
#     4  11  18  36  63  91 120 166 192 243 306 370
#     4  11  23  42  57  89 123 164 202 255 305 355
#     4  11  21  39  64  95 115 163 202 247 310 373
#
# _framework density 24.484221999999999
#
# number of rings (size 3 to 8) (size 9 to 14) (size 15 to 20)
#    0.750    1.000    3.750    2.250    0.000    1.500 
#    2.250    5.625    0.000    0.000    0.000    0.000 
#    0.000    0.000    0.000    0.000    0.000    0.000 
#
# Total GULP energy -89211.655854 kJ/mol
# GULP energy per Si atom -5575.728491 kJ/mol
# Density = 2.442849 g / cm^3
# Si number density = 24.484222 Si / 1000 Ang^3
#
#
#
# Elastic Constant Matrix: (Units=GPa)
#
#
# Indices 1 2 3 4 5 6 
#
# 1 118.7684 12.5776 44.4529 9.3515 20.1604 26.1556
# 2 12.5776 55.0463 8.7827 0.0705 3.7408 10.6337
# 3 44.4529 8.7827 131.3983 0.4931 15.6985 10.2464
# 4 9.3515 0.0705 0.4931 28.1892 -3.4906 0.5422
# 5 20.1604 3.7408 15.6985 -3.4906 30.1179 0.2109
# 6 26.1556 10.6337 10.2464 0.5422 0.2109 30.0255
#
#
#
# Elastic Compliance Matrix: (Units=1/GPa)
#
#
# Indices 1 2 3 4 5 6 
#
# 1 0.013646 -0.000028 -0.002772 -0.005290 -0.008224 -0.010778
# 2 -0.000028 0.019707 -0.000526 -0.000164 -0.002126 -0.006757
# 3 -0.002772 -0.000526 0.008936 0.000441 -0.002683 -0.000438
# 4 -0.005290 -0.000164 0.000441 0.038106 0.007721 0.003773
# 5 -0.008224 -0.002126 -0.002683 0.007721 0.041206 0.008404
# 6 -0.010778 -0.006757 -0.000438 0.003773 0.008404 0.045110
#
#
# Mechanical properties :
#
#
# Convention : Reuss Voigt Hill
#
# Bulk Modulus (GPa) = 28.06026 48.53771 38.29899
# Shear Modulus (GPa) = 26.99165 33.62651 30.30908
#
# Velocity S-wave (km/s) = 3.32386 3.70995 3.52220
# Velocity P-wave (km/s) = 5.12017 6.18214 5.67604
#
# Compressibility (1/GPa) = 0.03563758
#
# Stress axis : x y z
#
# Youngs Moduli (GPa) = 73.28021 50.74341 111.90202
#
# Poissons Ratio (x) = 0.00142 0.31018
# Poissons Ratio (y) = 0.00205 0.05887
# Poissons Ratio (z) = 0.20312 0.02670
#
# Static dielectric constant tensor:
#      x y z
#    x 2.010840 0.044870 0.056110 
#    y 0.044870 1.951790 -0.046660 
#    z 0.056110 -0.046660 2.068150 
# 
# From -- ./inp_files/225125.got.cif
#   From: 2010.05.17/outbox.cif.g08.bks.cpg/sg2_113_cif.got.tgz:225125.got - 2010.06.03 11:33:40.
