data_PCOD9091243
_publ_section_title
;
Structure prediction by ZEFSAII (Michael W. Deem and Ramdas Pophale) SiO2 
 PCOD9091243
Probable space group: P -1
;
_chemical_formula_sum "Si O2"
_cell_formula_units_Z 12
_cell_length_a 14.722866
_cell_length_b 24.930632
_cell_length_c 7.110502
_cell_angle_alpha 141.333310
_cell_angle_beta 141.494077
_cell_angle_gamma 20.353374
_cell_volume 551.626750
_symmetry_space_group_name_H-M "P -1"
_symmetry_group_IT_number 2
_symmetry_cell_setting 'triclinic'
loop_
_space_group_symop_operation_xyz
x,y,z
-x,-y,-z
loop_
_atom_site_type_symbol
_atom_site_label
_atom_site_fract_x
_atom_site_fract_y
_atom_site_fract_z
Si Si1 0.018490 0.958179 0.204987
Si Si2 0.062042 0.190411 0.312553
Si Si3 0.699043 0.480476 0.741142
Si Si4 0.447513 0.792363 0.145633
Si Si5 0.133718 0.340792 0.301726
Si Si6 0.506804 0.961195 0.114871
O O1 0.227109 0.905863 0.267884
O O2 0.098996 0.818264 0.948437
O O3 0.000000 0.000000 0.500000
O O4 0.723469 0.108183 0.044974
O O5 0.293551 0.082031 0.550377
O O6 0.880498 0.361909 0.532671
O O7 0.217803 0.106822 0.140417
O O8 0.500000 0.500000 0.500000
O O9 0.562316 0.639021 0.914527
O O10 0.891228 0.396539 0.007428
O O11 0.693081 0.735235 0.434685
O O12 0.000000 0.500000 0.500000
O O13 0.356708 0.200407 0.125626
O O14 0.500000 0.000000 0.000000
#
# Coordination Sequence:
#
# PCOD9091243 Si02
#       6
#     2   2   2   2   2   2
#     4  11  22  37  61  89 126 165 212 257 304 373
#     4  10  21  37  59  87 122 160 204 257 304 368
#     4  10  19  39  64  92 129 166 206 259 312 373
#     4  10  21  39  62  90 126 169 206 252 315 367
#     4   9  19  36  63  90 120 163 203 251 313 367
#     4  10  20  37  61  89 119 157 205 254 314 367
#
# _framework density 21.753838999999999
#
# number of rings (size 3 to 8) (size 9 to 14) (size 15 to 20)
#    0.000    2.000    1.667    2.000    0.000    1.333 
#    0.000    7.500    0.000   19.000    0.000    0.000 
#    0.000    0.000    0.000    0.000    0.000    0.000 
#
# Total GULP energy -66928.902901 kJ/mol
# GULP energy per Si atom -5577.408575 kJ/mol
# Density = 2.170433 g / cm^3
# Si number density = 21.753839 Si / 1000 Ang^3
#
#
#
# Elastic Constant Matrix: (Units=GPa)
#
#
# Indices 1 2 3 4 5 6 
#
# 1 48.1663 19.3291 39.5597 -0.0689 -12.5814 -7.0452
# 2 19.3291 110.4427 62.9617 10.2359 -6.7783 4.3572
# 3 39.5597 62.9617 154.9662 -11.6320 1.9150 3.3106
# 4 -0.0689 10.2359 -11.6320 45.2802 -5.2491 3.0693
# 5 -12.5814 -6.7783 1.9150 -5.2491 42.4402 -1.7924
# 6 -7.0452 4.3572 3.3106 3.0693 -1.7924 25.0370
#
#
#
# Elastic Compliance Matrix: (Units=1/GPa)
#
#
# Indices 1 2 3 4 5 6 
#
# 1 0.032235 -0.000445 -0.008535 -0.001627 0.010142 0.011202
# 2 -0.000445 0.012682 -0.005336 -0.003984 0.001599 -0.001024
# 3 -0.008535 -0.005336 0.011216 0.003912 -0.003561 -0.003691
# 4 -0.001627 -0.003984 0.003912 0.024386 0.001588 -0.003158
# 5 0.010142 0.001599 -0.003561 0.001588 0.027385 0.004812
# 6 0.011202 -0.001024 -0.003691 -0.003158 0.004812 0.044491
#
#
# Mechanical properties :
#
#
# Convention : Reuss Voigt Hill
#
# Bulk Modulus (GPa) = 36.36083 61.91958 49.14021
# Shear Modulus (GPa) = 26.28895 35.33311 30.81103
#
# Velocity S-wave (km/s) = 3.48008 4.03454 3.76752
# Velocity P-wave (km/s) = 5.73576 7.08723 6.44701
#
# Compressibility (1/GPa) = 0.02750212
#
# Stress axis : x y z
#
# Youngs Moduli (GPa) = 31.02189 78.85218 89.15568
#
# Poissons Ratio (x) = 0.03506 0.76096
# Poissons Ratio (y) = 0.01379 0.47573
# Poissons Ratio (z) = 0.26478 0.42075
#
# Static dielectric constant tensor:
#      x y z
#    x 1.825600 -0.004960 0.023060 
#    y -0.004960 1.847330 -0.001800 
#    z 0.023060 -0.001800 1.793200 
# 
# From -- ./inp_files/67699.got.cif
#   From: 2010.05.17/outbox.cif.g08.bks.cpg/sg2_34_cif.got.tgz:67699.got - 2010.06.03 11:33:40.
