data_PCOD9091692
_publ_section_title
;
Structure prediction by ZEFSAII (Michael W. Deem and Ramdas Pophale) SiO2 
 PCOD9091692
Probable space group: P -1
;
_chemical_formula_sum "Si O2"
_cell_formula_units_Z 16
_cell_length_a 9.692127
_cell_length_b 7.963713
_cell_length_c 15.072937
_cell_angle_alpha 108.555842
_cell_angle_beta 54.540554
_cell_angle_gamma 68.858395
_cell_volume 636.085517
_symmetry_space_group_name_H-M "P -1"
_symmetry_group_IT_number 2
_symmetry_cell_setting 'triclinic'
loop_
_space_group_symop_operation_xyz
x,y,z
-x,-y,-z
loop_
_atom_site_type_symbol
_atom_site_label
_atom_site_fract_x
_atom_site_fract_y
_atom_site_fract_z
Si Si1 0.943684 0.228565 0.468218
Si Si2 0.722178 0.326144 0.752029
Si Si3 0.901948 0.730493 0.321196
Si Si4 0.465487 0.448138 0.629395
Si Si5 0.552371 0.887192 0.324383
Si Si6 0.944191 0.341505 0.309515
Si Si7 0.252299 0.983607 0.850082
Si Si8 0.198332 0.851545 0.034349
O O1 0.817074 0.350566 0.629857
O O2 0.751060 0.242217 0.491134
O O3 0.962870 0.365620 0.411109
O O4 0.190427 0.940070 0.339638
O O5 0.449486 0.572471 0.910478
O O6 0.886178 0.287235 0.760550
O O7 0.730518 0.855115 0.321570
O O8 0.026532 0.449158 0.241431
O O9 0.714387 0.886767 0.499838
O O10 0.395808 0.358782 0.717506
O O11 0.387587 0.704946 0.721294
O O12 0.324698 0.490373 0.601468
O O13 0.612785 0.939791 0.219251
O O14 0.094840 0.055304 0.183141
O O15 0.225086 0.970820 0.962229
O O16 0.994613 0.149029 0.927689
#
# Coordination Sequence:
#
# PCOD9091692 Si02
#       8
#     2   2   2   2   2   2   2   2
#     4  11  22  40  64  96 123 170 209 265 328 369
#     4  11  24  40  64  90 137 164 206 267 319 392
#     4  10  22  39  62  99 129 156 217 272 309 386
#     4  10  19  39  69  98 125 154 225 277 299 379
#     4  10  21  39  67 101 124 164 216 272 320 363
#     4  10  23  39  65  91 126 172 212 261 319 374
#     4  10  21  42  69  90 128 175 212 261 323 371
#     4  10  23  42  62  93 131 171 214 253 316 400
#
# _framework density 25.153851
#
# number of rings (size 3 to 8) (size 9 to 14) (size 15 to 20)
#    0.000    1.750    2.500    1.125    3.500    1.500 
#    0.000   10.000    0.000    0.000    0.000    0.000 
#    0.000    0.000    0.000    0.000    0.000    0.000 
#
# Total GULP energy -89482.381481 kJ/mol
# GULP energy per Si atom -5592.648843 kJ/mol
# Density = 2.509660 g / cm^3
# Si number density = 25.153851 Si / 1000 Ang^3
#
#
#
# Elastic Constant Matrix: (Units=GPa)
#
#
# Indices 1 2 3 4 5 6 
#
# 1 47.3845 12.8023 25.8293 16.1729 -11.8206 -4.8663
# 2 12.8023 107.9713 42.2086 -6.9949 -10.9458 4.8611
# 3 25.8293 42.2086 122.1420 22.8754 -19.3171 2.0968
# 4 16.1729 -6.9949 22.8754 54.5921 -12.0576 -3.1124
# 5 -11.8206 -10.9458 -19.3171 -12.0576 36.1321 -0.0978
# 6 -4.8663 4.8611 2.0968 -3.1124 -0.0978 28.9940
#
#
#
# Elastic Compliance Matrix: (Units=1/GPa)
#
#
# Indices 1 2 3 4 5 6 
#
# 1 0.026968 -0.002000 -0.003317 -0.005584 0.004592 0.004518
# 2 -0.002000 0.011615 -0.004007 0.004135 0.002098 -0.001542
# 3 -0.003317 -0.004007 0.011406 -0.003816 0.002522 -0.001111
# 4 -0.005584 0.004135 -0.003816 0.023309 0.005167 0.001165
# 5 0.004592 0.002098 0.002522 0.005167 0.032889 0.000902
# 6 0.004518 -0.001542 -0.001111 0.001165 0.000902 0.035715
#
#
# Mechanical properties :
#
#
# Convention : Reuss Voigt Hill
#
# Bulk Modulus (GPa) = 31.90818 48.79757 40.35288
# Shear Modulus (GPa) = 29.24002 37.05416 33.14709
#
# Velocity S-wave (km/s) = 3.41317 3.84226 3.63405
# Velocity P-wave (km/s) = 5.31467 6.25506 5.80394
#
# Compressibility (1/GPa) = 0.03133993
#
# Stress axis : x y z
#
# Youngs Moduli (GPa) = 37.08116 86.09227 87.67194
#
# Poissons Ratio (x) = 0.17223 0.29082
# Poissons Ratio (y) = 0.07418 0.35131
# Poissons Ratio (z) = 0.12300 0.34499
#
# Static dielectric constant tensor:
#      x y z
#    x 2.042880 -0.010300 0.012090 
#    y -0.010300 2.025270 -0.033430 
#    z 0.012090 -0.033430 1.980270 
# 
# From -- ./inp_files/566015.got.cif
#   From: 2010.05.17/outbox.cif.g08.bks.cpg/sg2_284_cif.got.tgz:566015.got - 2010.06.03 11:33:40.
