data_PCOD9091160
_publ_section_title
;
Structure prediction by ZEFSAII (Michael W. Deem and Ramdas Pophale) SiO2 
 PCOD9091160
Probable space group: P -1
;
_chemical_formula_sum "Si O2"
_cell_formula_units_Z 16
_cell_length_a 10.064652
_cell_length_b 9.035315
_cell_length_c 12.676895
_cell_angle_alpha 110.524067
_cell_angle_beta 142.785464
_cell_angle_gamma 79.493362
_cell_volume 643.342244
_symmetry_space_group_name_H-M "P -1"
_symmetry_group_IT_number 2
_symmetry_cell_setting 'triclinic'
loop_
_space_group_symop_operation_xyz
x,y,z
-x,-y,-z
loop_
_atom_site_type_symbol
_atom_site_label
_atom_site_fract_x
_atom_site_fract_y
_atom_site_fract_z
Si Si1 0.575435 0.034323 0.877963
Si Si2 0.852096 0.609378 0.992859
Si Si3 0.128082 0.838757 0.512070
Si Si4 0.762154 0.394746 0.086567
Si Si5 0.242432 0.294972 0.417453
Si Si6 0.202988 0.414912 0.642814
Si Si7 0.474317 0.272043 0.348091
Si Si8 0.003109 0.040262 0.757843
O O1 0.326390 0.949399 0.728535
O O2 0.612350 0.920881 0.772712
O O3 0.756795 0.004677 0.071707
O O4 0.608768 0.222774 0.923927
O O5 0.655144 0.644225 0.800646
O O6 0.774419 0.521939 0.031724
O O7 0.994482 0.785290 0.147568
O O8 0.000000 0.500000 0.000000
O O9 0.266338 0.709769 0.513780
O O10 0.922145 0.746093 0.421649
O O11 0.049230 0.936867 0.391255
O O12 0.687692 0.467812 0.167081
O O13 0.011712 0.352726 0.250616
O O14 0.316484 0.371855 0.596564
O O15 0.417457 0.323795 0.440884
O O16 0.174422 0.104399 0.345261
O O17 0.000000 0.500000 0.500000
#
# Coordination Sequence:
#
# PCOD9091160 Si02
#       8
#     2   2   2   2   2   2   2   2
#     4   8  21  39  70 101 131 171 227 287 332 398
#     4  11  20  34  65 101 132 173 220 280 343 391
#     4  10  21  43  68 102 129 178 234 277 329 408
#     4  10  19  39  63  99 131 177 222 276 338 398
#     4  10  21  39  65  98 134 180 224 271 340 413
#     4  10  22  41  67  96 137 183 223 272 343 406
#     4   9  21  39  66 103 132 169 231 283 331 403
#     4  10  21  39  68  98 131 186 221 278 338 409
#
# _framework density 24.870124000000001
#
# number of rings (size 3 to 8) (size 9 to 14) (size 15 to 20)
#    0.750    1.500    2.500    0.000    1.750    2.500 
#    0.000   15.000    0.000    7.500    3.250    0.000 
#    0.000    0.000    0.000    0.000    0.000    0.000 
#
# Total GULP energy -89548.045068 kJ/mol
# GULP energy per Si atom -5596.752817 kJ/mol
# Density = 2.481352 g / cm^3
# Si number density = 24.870124 Si / 1000 Ang^3
#
#
#
# Elastic Constant Matrix: (Units=GPa)
#
#
# Indices 1 2 3 4 5 6 
#
# 1 117.4363 44.5588 43.7118 17.8357 -36.2059 -7.9095
# 2 44.5588 147.5058 54.6646 24.3523 -14.6737 12.2241
# 3 43.7118 54.6646 94.3051 20.3171 -22.8443 0.3653
# 4 17.8357 24.3523 20.3171 56.3839 1.0706 6.4077
# 5 -36.2059 -14.6737 -22.8443 1.0706 43.7959 -2.5136
# 6 -7.9095 12.2241 0.3653 6.4077 -2.5136 40.2205
#
#
#
# Elastic Compliance Matrix: (Units=1/GPa)
#
#
# Indices 1 2 3 4 5 6 
#
# 1 0.014137 -0.002330 -0.001996 -0.003474 0.010220 0.004699
# 2 -0.002330 0.009485 -0.004392 -0.001396 -0.001186 -0.003153
# 3 -0.001996 -0.004392 0.016177 -0.003600 0.005502 0.001713
# 4 -0.003474 -0.001396 -0.003600 0.021302 -0.005968 -0.003993
# 5 0.010220 -0.001186 0.005502 -0.005968 0.034211 0.005409
# 6 0.004699 -0.003153 0.001713 -0.003993 0.005409 0.027704
#
#
# Mechanical properties :
#
#
# Convention : Reuss Voigt Hill
#
# Bulk Modulus (GPa) = 44.71879 71.67974 58.19927
# Shear Modulus (GPa) = 33.80510 42.50086 38.15298
#
# Velocity S-wave (km/s) = 3.69082 4.13838 3.92099
# Velocity P-wave (km/s) = 6.01522 7.19160 6.62956
#
# Compressibility (1/GPa) = 0.02236196
#
# Stress axis : x y z
#
# Youngs Moduli (GPa) = 70.73462 105.43282 61.81604
#
# Poissons Ratio (x) = 0.24565 0.12340
# Poissons Ratio (y) = 0.16481 0.27152
# Poissons Ratio (z) = 0.14121 0.46310
#
# Static dielectric constant tensor:
#      x y z
#    x 2.297540 0.799610 0.339720 
#    y 0.799610 4.079640 0.858050 
#    z 0.339720 0.858050 2.298230 
# 
# From -- ./inp_files/419826.got.cif
#   From: 2010.05.17/outbox.cif.g08.bks.cpg/sg2_210_cif.got.tgz:419826.got - 2010.06.03 11:33:40.
