data_PCOD9091443
_publ_section_title
;
Structure prediction by ZEFSAII (Michael W. Deem and Ramdas Pophale) SiO2 
 PCOD9091443
Probable space group: P -1
;
_chemical_formula_sum "Si O2"
_cell_formula_units_Z 16
_cell_length_a 11.181893
_cell_length_b 7.595976
_cell_length_c 9.099187
_cell_angle_alpha 126.524395
_cell_angle_beta 80.803452
_cell_angle_gamma 90.839515
_cell_volume 609.928203
_symmetry_space_group_name_H-M "P -1"
_symmetry_group_IT_number 2
_symmetry_cell_setting 'triclinic'
loop_
_space_group_symop_operation_xyz
x,y,z
-x,-y,-z
loop_
_atom_site_type_symbol
_atom_site_label
_atom_site_fract_x
_atom_site_fract_y
_atom_site_fract_z
Si Si1 0.246630 0.808249 0.036297
Si Si2 0.589200 0.859938 0.711208
Si Si3 0.386779 0.924316 0.569811
Si Si4 0.008286 0.169731 0.748605
Si Si5 0.762635 0.678780 0.317736
Si Si6 0.114592 0.196171 0.062492
Si Si7 0.711913 0.488226 0.677382
Si Si8 0.929949 0.288981 0.390204
O O1 0.136494 0.808596 0.180212
O O2 0.363704 0.911204 0.132170
O O3 0.199498 0.986642 0.007741
O O4 0.264990 0.561570 0.847803
O O5 0.687682 0.764231 0.519659
O O6 0.612297 0.681136 0.746137
O O7 0.451937 0.861072 0.679981
O O8 0.286728 0.131653 0.696157
O O9 0.500000 0.000000 0.500000
O O10 0.348227 0.727858 0.377926
O O11 0.091543 0.305967 0.694390
O O12 0.048532 0.907075 0.592729
O O13 0.065000 0.224974 0.923456
O O14 0.190614 0.403437 0.189015
O O15 0.993344 0.195740 0.185082
O O16 0.790124 0.379189 0.468544
O O17 0.000000 0.500000 0.500000
#
# Coordination Sequence:
#
# PCOD9091443 Si02
#       8
#     2   2   2   2   2   2   2   2
#     4  10  22  41  58  94 126 161 207 249 307 373
#     4  10  24  41  65  87 122 167 209 263 297 360
#     4  10  22  42  63  90 122 161 212 257 309 360
#     4  11  21  38  58  94 130 157 200 254 309 372
#     4  11  24  39  62  89 127 170 201 252 316 369
#     4   9  21  36  62  93 125 158 200 256 301 369
#     4  10  19  39  66  90 117 160 213 251 309 362
#     4   9  17  32  57  87 116 156 196 239 297 366
#
# _framework density 26.232593999999999
#
# number of rings (size 3 to 8) (size 9 to 14) (size 15 to 20)
#    0.000    2.000    1.250    3.000    3.500    3.000 
#    0.000    1.250    0.000    8.250    0.000    0.000 
#    0.000    0.000    0.000    0.000    0.000    0.000 
#
# Total GULP energy -89437.831733 kJ/mol
# GULP energy per Si atom -5589.864483 kJ/mol
# Density = 2.617289 g / cm^3
# Si number density = 26.232594 Si / 1000 Ang^3
#
#
#
# Elastic Constant Matrix: (Units=GPa)
#
#
# Indices 1 2 3 4 5 6 
#
# 1 76.8787 20.7505 19.7285 13.8231 20.0974 0.1863
# 2 20.7505 73.7697 22.9516 37.4098 4.5903 0.7945
# 3 19.7285 22.9516 119.3911 45.6883 21.7360 11.0402
# 4 13.8231 37.4098 45.6883 49.0100 16.0582 5.6014
# 5 20.0974 4.5903 21.7360 16.0582 37.5635 -0.8187
# 6 0.1863 0.7945 11.0402 5.6014 -0.8187 45.6816
#
#
#
# Elastic Compliance Matrix: (Units=1/GPa)
#
#
# Indices 1 2 3 4 5 6 
#
# 1 0.016565 -0.005696 -0.001544 0.004105 -0.009034 -0.000260
# 2 -0.005696 0.025913 0.003661 -0.024510 0.008280 0.001841
# 3 -0.001544 0.003661 0.013980 -0.014727 -0.001451 -0.001656
# 4 0.004105 -0.024510 -0.014727 0.057016 -0.015125 -0.003294
# 5 -0.009034 0.008280 -0.001451 -0.015125 0.037809 0.002776
# 6 -0.000260 0.001841 -0.001656 -0.003294 0.002776 0.022714
#
#
# Mechanical properties :
#
#
# Convention : Reuss Voigt Hill
#
# Bulk Modulus (GPa) = 20.28378 44.10006 32.19192
# Shear Modulus (GPa) = 25.30510 40.22496 32.76503
#
# Velocity S-wave (km/s) = 3.10924 3.92011 3.53798
# Velocity P-wave (km/s) = 4.54301 6.11043 5.38406
#
# Compressibility (1/GPa) = 0.04930047
#
# Stress axis : x y z
#
# Youngs Moduli (GPa) = 60.36711 38.59072 71.52943
#
# Poissons Ratio (x) = 0.21981 0.11048
# Poissons Ratio (y) = 0.34384 -0.26189
# Poissons Ratio (z) = 0.09324 -0.14129
#
# Static dielectric constant tensor:
#      x y z
#    x 2.230630 0.339470 -0.005860 
#    y 0.339470 3.218150 -0.175130 
#    z -0.005860 -0.175130 2.180470 
# 
# From -- ./inp_files/284874.got.cif
#   From: 2010.05.17/outbox.cif.g08.bks.cpg/sg2_143_cif.got.tgz:284874.got - 2010.06.03 11:33:40.
