data_PCOD9091262
_publ_section_title
;
Structure prediction by ZEFSAII (Michael W. Deem and Ramdas Pophale) SiO2 
 PCOD9091262
Probable space group: P -1
;
_chemical_formula_sum "Si O2"
_cell_formula_units_Z 16
_cell_length_a 20.812341
_cell_length_b 8.246024
_cell_length_c 15.190618
_cell_angle_alpha 81.078747
_cell_angle_beta 18.296003
_cell_angle_gamma 70.957339
_cell_volume 660.174570
_symmetry_space_group_name_H-M "P -1"
_symmetry_group_IT_number 2
_symmetry_cell_setting 'triclinic'
loop_
_space_group_symop_operation_xyz
x,y,z
-x,-y,-z
loop_
_atom_site_type_symbol
_atom_site_label
_atom_site_fract_x
_atom_site_fract_y
_atom_site_fract_z
Si Si1 0.470950 0.123528 0.644058
Si Si2 0.134702 0.325985 0.768102
Si Si3 0.269845 0.766421 0.237041
Si Si4 0.306457 0.376347 0.011595
Si Si5 0.270911 0.368669 0.255047
Si Si6 0.107178 0.870824 0.960962
Si Si7 0.927675 0.947257 0.839492
Si Si8 0.587788 0.303885 0.128905
O O1 0.604327 0.201997 0.406600
O O2 0.675845 0.885470 0.410057
O O3 0.415910 0.219096 0.804496
O O4 0.215608 0.155471 0.942397
O O5 0.314819 0.351371 0.470415
O O6 0.000000 0.500000 0.000000
O O7 0.944584 0.297535 0.964699
O O8 0.292156 0.558265 0.211241
O O9 0.109326 0.843851 0.528982
O O10 0.506607 0.771183 0.956028
O O11 0.236486 0.826073 0.172100
O O12 0.312362 0.290591 0.107552
O O13 0.011706 0.546085 0.360422
O O14 0.436434 0.491626 0.843030
O O15 0.966934 0.017959 0.213407
O O16 0.000000 0.000000 0.000000
O O17 0.719944 0.168698 0.053621
#
# Coordination Sequence:
#
# PCOD9091262 Si02
#       8
#     2   2   2   2   2   2   2   2
#     4  10  21  40  67  91 122 166 211 261 315 371
#     4  10  22  43  63  93 124 162 208 270 319 369
#     4  10  20  39  60  96 129 169 208 254 314 371
#     4  10  19  39  64  94 127 168 210 250 312 372
#     4   9  20  35  61  95 128 165 210 260 294 370
#     4  10  23  41  64  95 117 162 219 263 313 369
#     4  11  22  41  64  93 130 166 209 261 318 376
#     4  10  23  40  62  92 135 170 204 255 321 374
#
# _framework density 24.236015999999999
#
# number of rings (size 3 to 8) (size 9 to 14) (size 15 to 20)
#    0.000    2.000    1.250    1.500    3.500    1.000 
#    6.750   10.625    0.000    0.000    0.000    0.000 
#    0.000    0.000    0.000    0.000    0.000    0.000 
#
# Total GULP energy -89344.647272 kJ/mol
# GULP energy per Si atom -5584.040455 kJ/mol
# Density = 2.418085 g / cm^3
# Si number density = 24.236016 Si / 1000 Ang^3
#
#
#
# Elastic Constant Matrix: (Units=GPa)
#
#
# Indices 1 2 3 4 5 6 
#
# 1 109.3421 30.6657 30.8335 1.5906 28.6140 35.6689
# 2 30.6657 72.1269 50.0857 -12.4508 6.2417 40.0341
# 3 30.8335 50.0857 109.7778 -14.0048 22.3277 29.1562
# 4 1.5906 -12.4508 -14.0048 38.5721 20.9319 1.2810
# 5 28.6140 6.2417 22.3277 20.9319 40.9733 8.3711
# 6 35.6689 40.0341 29.1562 1.2810 8.3711 37.8534
#
#
#
# Elastic Compliance Matrix: (Units=1/GPa)
#
#
# Indices 1 2 3 4 5 6 
#
# 1 0.018336 0.006680 0.003125 0.012653 -0.017214 -0.023371
# 2 0.006680 0.046974 -0.006003 0.018601 -0.007784 -0.050259
# 3 0.003125 -0.006003 0.018043 0.013757 -0.016641 -0.007278
# 4 0.012653 0.018601 0.013757 0.061029 -0.043256 -0.034690
# 5 -0.017214 -0.007784 -0.016641 -0.043256 0.063746 0.024637
# 6 -0.023371 -0.050259 -0.007278 -0.034690 0.024637 0.102925
#
#
# Mechanical properties :
#
#
# Convention : Reuss Voigt Hill
#
# Bulk Modulus (GPa) = 10.99435 57.15738 34.07586
# Shear Modulus (GPa) = 14.98044 35.45721 25.21882
#
# Velocity S-wave (km/s) = 2.48887 3.82906 3.22926
# Velocity P-wave (km/s) = 3.57848 6.57144 5.29100
#
# Compressibility (1/GPa) = 0.09095585
#
# Stress axis : x y z
#
# Youngs Moduli (GPa) = 54.53884 21.28849 55.42214
#
# Poissons Ratio (x) = -0.14222 -0.17317
# Poissons Ratio (y) = -0.36434 0.33272
# Poissons Ratio (z) = -0.17041 0.12780
#
# Static dielectric constant tensor:
#      x y z
#    x 1.952100 -0.020670 -0.081520 
#    y -0.020670 1.928560 -0.008680 
#    z -0.081520 -0.008680 2.018970 
# 
# From -- ./inp_files/237661.got.cif
#   From: 2010.05.17/outbox.cif.g08.bks.cpg/sg2_119_cif.got.tgz:237661.got - 2010.06.03 11:33:40.
