data_PCOD9091244
_publ_section_title
;
Structure prediction by ZEFSAII (Michael W. Deem and Ramdas Pophale) SiO2 
 PCOD9091244
Probable space group: P -1
;
_chemical_formula_sum "Si O2"
_cell_formula_units_Z 12
_cell_length_a 7.815371
_cell_length_b 11.681977
_cell_length_c 14.320203
_cell_angle_alpha 149.708317
_cell_angle_beta 127.251188
_cell_angle_gamma 68.530517
_cell_volume 483.318827
_symmetry_space_group_name_H-M "P -1"
_symmetry_group_IT_number 2
_symmetry_cell_setting 'triclinic'
loop_
_space_group_symop_operation_xyz
x,y,z
-x,-y,-z
loop_
_atom_site_type_symbol
_atom_site_label
_atom_site_fract_x
_atom_site_fract_y
_atom_site_fract_z
Si Si1 0.543420 0.032006 0.386526
Si Si2 0.653270 0.596913 0.378161
Si Si3 0.932706 0.361173 0.978694
Si Si4 0.749734 0.683327 0.255309
Si Si5 0.472926 0.969281 0.099588
Si Si6 0.122538 0.973026 0.845000
O O1 0.332349 0.850641 0.254463
O O2 0.757166 0.949790 0.416510
O O3 0.548522 0.302099 0.597285
O O4 0.473030 0.974564 0.214313
O O5 0.739041 0.673631 0.355337
O O6 0.583783 0.307823 0.151370
O O7 0.873519 0.752392 0.624513
O O8 0.074947 0.199981 0.945231
O O9 0.925422 0.565432 0.193456
O O10 0.000000 0.500000 0.000000
O O11 0.500000 0.500000 0.000000
O O12 0.279617 0.045975 0.041101
O O13 0.728640 0.111825 0.240850
#
# Coordination Sequence:
#
# PCOD9091244 Si02
#       6
#     2   2   2   2   2   2
#     4  10  22  40  68  99 125 177 215 260 333 384
#     4  11  22  42  68  98 127 175 217 261 328 388
#     4  10  20  37  64  93 130 166 211 266 320 376
#     4  10  19  39  64  92 132 169 209 267 326 370
#     4  11  22  48  67  90 143 165 210 283 313 381
#     4  10  25  42  66 103 125 173 223 258 326 390
#
# _framework density 24.828334000000002
#
# number of rings (size 3 to 8) (size 9 to 14) (size 15 to 20)
#    0.000    1.667    3.333    2.000    2.333    2.667 
#    6.000    5.833    0.000    0.000    0.000    0.000 
#    0.000    0.000    0.000    0.000    0.000    0.000 
#
# Total GULP energy -67153.653229 kJ/mol
# GULP energy per Si atom -5596.137769 kJ/mol
# Density = 2.477182 g / cm^3
# Si number density = 24.828334 Si / 1000 Ang^3
#
#
#
# Elastic Constant Matrix: (Units=GPa)
#
#
# Indices 1 2 3 4 5 6 
#
# 1 91.5183 36.7675 17.0950 -9.4191 -23.7202 -12.7778
# 2 36.7675 137.5133 11.7734 -3.5734 -15.9680 -14.4113
# 3 17.0950 11.7734 59.4190 26.9873 -5.6357 -4.8260
# 4 -9.4191 -3.5734 26.9873 36.8094 -5.3419 -1.4245
# 5 -23.7202 -15.9680 -5.6357 -5.3419 44.1686 2.9033
# 6 -12.7778 -14.4113 -4.8260 -1.4245 2.9033 46.2097
#
#
#
# Elastic Compliance Matrix: (Units=1/GPa)
#
#
# Indices 1 2 3 4 5 6 
#
# 1 0.017470 -0.002247 -0.009099 0.012302 0.008699 0.003013
# 2 -0.002247 0.008429 -0.001454 0.001631 0.001734 0.001797
# 3 -0.009099 -0.001454 0.031049 -0.025905 -0.004568 -0.000238
# 4 0.012302 0.001631 -0.025905 0.050989 0.009916 0.002154
# 5 0.008699 0.001734 -0.004568 0.009916 0.028491 0.000985
# 6 0.003013 0.001797 -0.000238 0.002154 0.000985 0.023014
#
#
# Mechanical properties :
#
#
# Convention : Reuss Voigt Hill
#
# Bulk Modulus (GPa) = 31.89857 46.63582 39.26719
# Shear Modulus (GPa) = 25.57670 40.29187 32.93428
#
# Velocity S-wave (km/s) = 3.21306 4.03279 3.64604
# Velocity P-wave (km/s) = 5.16145 6.36464 5.79436
#
# Compressibility (1/GPa) = 0.03134937
#
# Stress axis : x y z
#
# Youngs Moduli (GPa) = 57.23979 118.63381 32.20735
#
# Poissons Ratio (x) = 0.26652 0.29305
# Poissons Ratio (y) = 0.12859 0.04683
# Poissons Ratio (z) = 0.52082 0.17250
#
# Static dielectric constant tensor:
#      x y z
#    x 1.990810 -0.041290 0.073790 
#    y -0.041290 1.940320 0.016840 
#    z 0.073790 0.016840 2.077480 
# 
# From -- ./inp_files/170946.got.cif
#   From: 2010.05.17/outbox.cif.g08.bks.cpg/sg2_86_cif.got.tgz:170946.got - 2010.06.03 11:33:40.
