data_PCOD9091210
_publ_section_title
;
Structure prediction by ZEFSAII (Michael W. Deem and Ramdas Pophale) SiO2 
 PCOD9091210
Probable space group: P -1
;
_chemical_formula_sum "Si O2"
_cell_formula_units_Z 16
_cell_length_a 9.403344
_cell_length_b 10.645642
_cell_length_c 13.695629
_cell_angle_alpha 66.951220
_cell_angle_beta 49.053976
_cell_angle_gamma 40.243292
_cell_volume 652.186157
_symmetry_space_group_name_H-M "P -1"
_symmetry_group_IT_number 2
_symmetry_cell_setting 'triclinic'
loop_
_space_group_symop_operation_xyz
x,y,z
-x,-y,-z
loop_
_atom_site_type_symbol
_atom_site_label
_atom_site_fract_x
_atom_site_fract_y
_atom_site_fract_z
Si Si1 0.544553 0.827463 0.073684
Si Si2 0.291515 0.607727 0.752859
Si Si3 0.565531 0.165171 0.444151
Si Si4 0.155152 0.810958 0.303400
Si Si5 0.231686 0.538886 0.602533
Si Si6 0.787084 0.680766 0.618657
Si Si7 0.038420 0.606600 0.053094
Si Si8 0.259628 0.558795 0.155960
O O1 0.257941 0.908530 0.203845
O O2 0.744295 0.719564 0.110315
O O3 0.718992 0.635361 0.983000
O O4 0.500000 0.000000 0.000000
O O5 0.338186 0.741881 0.675959
O O6 0.599059 0.381017 0.685457
O O7 0.134491 0.613459 0.734428
O O8 0.150341 0.651903 0.906445
O O9 0.357088 0.329203 0.571150
O O10 0.442820 0.150997 0.408962
O O11 0.843738 0.966905 0.428935
O O12 0.170629 0.714069 0.228501
O O13 0.500000 0.500000 0.500000
O O14 0.966490 0.687401 0.604618
O O15 0.684700 0.612674 0.758421
O O16 0.000000 0.500000 0.500000
O O17 0.021963 0.666699 0.150775
O O18 0.500000 0.500000 0.000000
#
# Coordination Sequence:
#
# PCOD9091210 Si02
#       8
#     2   2   2   2   2   2   2   2
#     4  10  21  38  58  90 132 169 214 273 338 389
#     4  10  19  39  64  89 129 169 211 276 335 394
#     4  10  20  42  61  94 126 167 220 274 324 398
#     4  11  23  38  65  93 132 171 221 276 335 389
#     4   9  21  38  69  92 123 176 220 264 341 395
#     4  10  22  42  69  92 131 177 225 272 333 402
#     4  10  22  38  61  91 129 171 217 273 331 397
#     4  12  22  43  66  98 134 183 220 276 339 395
#
# _framework density 24.532874
#
# number of rings (size 3 to 8) (size 9 to 14) (size 15 to 20)
#    0.000    1.750    3.750    0.750    5.250    0.500 
#    2.250    4.375    0.000    0.000    0.000    0.000 
#    0.000    0.000    0.000    0.000    0.000    0.000 
#
# Total GULP energy -89306.863736 kJ/mol
# GULP energy per Si atom -5581.678984 kJ/mol
# Density = 2.447704 g / cm^3
# Si number density = 24.532874 Si / 1000 Ang^3
#
#
#
# Elastic Constant Matrix: (Units=GPa)
#
#
# Indices 1 2 3 4 5 6 
#
# 1 173.2148 38.7722 34.0018 -10.6123 9.4382 -32.3750
# 2 38.7722 82.0659 22.2448 -8.3962 -7.8861 -18.4998
# 3 34.0018 22.2448 87.2029 -27.6560 -17.2733 -2.0612
# 4 -10.6123 -8.3962 -27.6560 35.2146 -2.7129 -6.6091
# 5 9.4382 -7.8861 -17.2733 -2.7129 54.9872 -8.1886
# 6 -32.3750 -18.4998 -2.0612 -6.6091 -8.1886 33.0228
#
#
#
# Elastic Compliance Matrix: (Units=1/GPa)
#
#
# Indices 1 2 3 4 5 6 
#
# 1 0.008016 -0.001604 -0.002391 0.001324 -0.001285 0.006757
# 2 -0.001604 0.016166 -0.001059 0.004583 0.003872 0.009295
# 3 -0.002391 -0.001059 0.019012 0.015117 0.007441 0.003120
# 4 0.001324 0.004583 0.015117 0.045596 0.009868 0.016382
# 5 -0.001285 0.003872 0.007441 0.009868 0.023139 0.009086
# 6 0.006757 0.009295 0.003120 0.016382 0.009086 0.047840
#
#
# Mechanical properties :
#
#
# Convention : Reuss Voigt Hill
#
# Bulk Modulus (GPa) = 30.22344 59.16904 44.69624
# Shear Modulus (GPa) = 27.63874 41.14258 34.39066
#
# Velocity S-wave (km/s) = 3.36013 4.09961 3.74815
# Velocity P-wave (km/s) = 5.23453 6.82493 6.08194
#
# Compressibility (1/GPa) = 0.03308691
#
# Stress axis : x y z
#
# Youngs Moduli (GPa) = 124.75593 61.85724 52.59856
#
# Poissons Ratio (x) = 0.09920 0.12577
# Poissons Ratio (y) = 0.20006 0.05568
# Poissons Ratio (z) = 0.29832 0.06548
#
# Static dielectric constant tensor:
#      x y z
#    x 2.041200 -0.025000 -0.020930 
#    y -0.025000 2.049170 -0.082080 
#    z -0.020930 -0.082080 2.057730 
# 
# From -- ./inp_files/499102.got.cif
#   From: 2010.05.17/outbox.cif.g08.bks.cpg/sg2_250_cif.got.tgz:499102.got - 2010.06.03 11:33:40.
