data_PCOD9091046
_publ_section_title
;
Structure prediction by ZEFSAII (Michael W. Deem and Ramdas Pophale) SiO2 
 PCOD9091046
Probable space group: P -1
;
_chemical_formula_sum "Si O2"
_cell_formula_units_Z 16
_cell_length_a 11.936717
_cell_length_b 9.100771
_cell_length_c 9.984643
_cell_angle_alpha 139.043155
_cell_angle_beta 74.133367
_cell_angle_gamma 110.731055
_cell_volume 664.920086
_symmetry_space_group_name_H-M "P -1"
_symmetry_group_IT_number 2
_symmetry_cell_setting 'triclinic'
loop_
_space_group_symop_operation_xyz
x,y,z
-x,-y,-z
loop_
_atom_site_type_symbol
_atom_site_label
_atom_site_fract_x
_atom_site_fract_y
_atom_site_fract_z
Si Si1 0.951988 0.579068 0.381721
Si Si2 0.069621 0.379208 0.998090
Si Si3 0.311162 0.925215 0.546734
Si Si4 0.924592 0.919766 0.836714
Si Si5 0.197711 0.224269 0.635010
Si Si6 0.520160 0.390555 0.778443
Si Si7 0.575517 0.422630 0.305446
Si Si8 0.737162 0.120612 0.152192
O O1 0.949612 0.694246 0.605534
O O2 0.911512 0.753448 0.408859
O O3 0.846038 0.347225 0.256438
O O4 0.064342 0.497892 0.224953
O O5 0.190020 0.362871 0.872514
O O6 0.000000 0.500000 0.000000
O O7 0.986906 0.123083 0.857131
O O8 0.358881 0.698171 0.343016
O O9 0.279827 0.927412 0.716527
O O10 0.211181 0.978124 0.514322
O O11 0.417822 0.151860 0.638967
O O12 0.788591 0.927599 0.922948
O O13 0.000000 0.000000 0.000000
O O14 0.309936 0.366181 0.612851
O O15 0.501751 0.575921 0.801831
O O16 0.500000 0.500000 0.000000
O O17 0.500000 0.500000 0.500000
O O18 0.624563 0.199888 0.177723
#
# Coordination Sequence:
#
# PCOD9091046 Si02
#       8
#     2   2   2   2   2   2   2   2
#     4   9  21  39  60  86 123 160 199 248 307 367
#     4   9  19  38  58  85 118 154 198 244 300 359
#     4  10  20  38  59  84 122 154 199 261 296 348
#     4  11  23  39  59  90 125 158 201 250 306 367
#     4   9  19  36  62  88 117 159 203 249 302 361
#     4  10  22  38  59  87 119 160 206 250 307 355
#     4  10  19  39  63  84 124 163 197 252 302 353
#     4  10  21  38  62  89 120 165 203 249 304 363
#
# _framework density 24.063041999999999
#
# number of rings (size 3 to 8) (size 9 to 14) (size 15 to 20)
#    0.000    2.250    1.250    1.500    0.000    6.000 
#    0.000    6.875    0.000    0.000    0.000    0.000 
#    0.000    0.000    0.000    0.000    0.000    0.000 
#
# Total GULP energy -89349.631299 kJ/mol
# GULP energy per Si atom -5584.351956 kJ/mol
# Density = 2.400827 g / cm^3
# Si number density = 24.063042 Si / 1000 Ang^3
#
#
#
# Elastic Constant Matrix: (Units=GPa)
#
#
# Indices 1 2 3 4 5 6 
#
# 1 85.9128 30.6501 41.2652 -7.1507 -35.9386 -16.7470
# 2 30.6501 109.6434 17.5551 -18.8966 -19.5611 -20.6003
# 3 41.2652 17.5551 163.6694 -27.6499 -36.1992 0.3901
# 4 -7.1507 -18.8966 -27.6499 47.3366 4.5356 -6.2169
# 5 -35.9386 -19.5611 -36.1992 4.5356 38.9030 -5.6228
# 6 -16.7470 -20.6003 0.3901 -6.2169 -5.6228 45.3577
#
#
#
# Elastic Compliance Matrix: (Units=1/GPa)
#
#
# Indices 1 2 3 4 5 6 
#
# 1 0.024311 0.000342 -0.000474 0.002903 0.023653 0.012466
# 2 0.000342 0.012879 0.001466 0.006264 0.008565 0.007883
# 3 -0.000474 0.001466 0.008730 0.005113 0.008133 0.002125
# 4 0.002903 0.006264 0.005113 0.027363 0.008655 0.008696
# 5 0.023653 0.008565 0.008133 0.008655 0.061509 0.021365
# 6 0.012466 0.007883 0.002125 0.008696 0.021365 0.034052
#
#
# Mechanical properties :
#
#
# Convention : Reuss Voigt Hill
#
# Bulk Modulus (GPa) = 20.58102 59.79625 40.18864
# Shear Modulus (GPa) = 27.41641 44.30314 35.85977
#
# Velocity S-wave (km/s) = 3.37910 4.29549 3.86455
# Velocity P-wave (km/s) = 4.87811 7.03601 6.05398
#
# Compressibility (1/GPa) = 0.04858845
#
# Stress axis : x y z
#
# Youngs Moduli (GPa) = 41.13298 77.64633 114.55250
#
# Poissons Ratio (x) = -0.02657 0.05431
# Poissons Ratio (y) = -0.01407 -0.16795
# Poissons Ratio (z) = 0.01950 -0.11384
#
# Static dielectric constant tensor:
#      x y z
#    x 2.040430 0.035370 -0.031750 
#    y 0.035370 2.101870 -0.034010 
#    z -0.031750 -0.034010 1.950050 
# 
# From -- ./inp_files/203394.got.cif
#   From: 2010.05.17/outbox.cif.g08.bks.cpg/sg2_102_cif.got.tgz:203394.got - 2010.06.03 11:33:40.
