data_PCOD9091797
_publ_section_title
;
Structure prediction by ZEFSAII (Michael W. Deem and Ramdas Pophale) SiO2 
 PCOD9091797
Probable space group: P -1
;
_chemical_formula_sum "Si O2"
_cell_formula_units_Z 14
_cell_length_a 8.648211
_cell_length_b 8.866117
_cell_length_c 9.018015
_cell_angle_alpha 109.287984
_cell_angle_beta 83.706411
_cell_angle_gamma 114.855605
_cell_volume 591.853852
_symmetry_space_group_name_H-M "P -1"
_symmetry_group_IT_number 2
_symmetry_cell_setting 'triclinic'
loop_
_space_group_symop_operation_xyz
x,y,z
-x,-y,-z
loop_
_atom_site_type_symbol
_atom_site_label
_atom_site_fract_x
_atom_site_fract_y
_atom_site_fract_z
Si Si1 0.005414 0.764385 0.799224
Si Si2 0.528939 0.735244 0.134690
Si Si3 0.969284 0.587537 0.322119
Si Si4 0.681783 0.992445 0.982511
Si Si5 0.850933 0.844807 0.555471
Si Si6 0.695199 0.088072 0.687026
Si Si7 0.212398 0.402886 0.947347
O O1 0.020376 0.589382 0.682017
O O2 0.192175 0.904080 0.866826
O O3 0.914176 0.841696 0.716975
O O4 0.906789 0.715080 0.949367
O O5 0.474299 0.875208 0.269882
O O6 0.350119 0.573552 0.069651
O O7 0.613493 0.793209 0.980327
O O8 0.672347 0.684122 0.174220
O O9 0.844692 0.661006 0.438886
O O10 0.156539 0.748331 0.354831
O O11 0.897656 0.553111 0.150248
O O12 0.756200 0.079955 0.847330
O O13 0.500000 0.000000 0.000000
O O14 0.693382 0.902152 0.574416
O O15 0.000000 0.000000 0.500000
#
# Coordination Sequence:
#
# PCOD9091797 Si02
#       7
#     2   2   2   2   2   2   2
#     4  12  22  40  71  97 125 173 213 265 324 375
#     4  10  22  37  60  99 133 161 208 271 322 368
#     4  11  21  40  65  95 130 166 217 262 313 388
#     4  10  21  35  64  98 130 159 210 268 323 374
#     4  10  25  39  62  96 130 169 221 261 311 384
#     4  10  19  40  60  90 133 165 203 266 312 374
#     4  11  22  38  69  99 125 167 215 266 323 379
#
# _framework density 23.654491
#
# number of rings (size 3 to 8) (size 9 to 14) (size 15 to 20)
#    0.000    1.429    2.857    3.429    4.000    1.143 
#    0.000    0.714    3.143   11.143    0.000    0.000 
#    0.000    0.000    0.000    0.000    0.000    0.000 
#
# Total GULP energy -78046.273803 kJ/mol
# GULP energy per Si atom -5574.733843 kJ/mol
# Density = 2.360065 g / cm^3
# Si number density = 23.654491 Si / 1000 Ang^3
#
#
#
# Elastic Constant Matrix: (Units=GPa)
#
#
# Indices 1 2 3 4 5 6 
#
# 1 103.3309 38.1369 25.7915 20.9884 -16.5147 -30.5878
# 2 38.1369 81.2793 6.0271 -6.4262 -3.3246 -10.1095
# 3 25.7915 6.0271 48.8366 0.2719 -5.8540 -10.3820
# 4 20.9884 -6.4262 0.2719 29.8800 -22.6227 -9.2184
# 5 -16.5147 -3.3246 -5.8540 -22.6227 38.1058 10.0591
# 6 -30.5878 -10.1095 -10.3820 -9.2184 10.0591 53.1669
#
#
#
# Elastic Compliance Matrix: (Units=1/GPa)
#
#
# Indices 1 2 3 4 5 6 
#
# 1 0.020140 -0.009855 -0.008843 -0.019290 -0.006491 0.005870
# 2 -0.009855 0.018290 0.003791 0.016772 0.007873 -0.000033
# 3 -0.008843 0.003791 0.025875 0.013279 0.007966 0.001481
# 4 -0.019290 0.016772 0.013279 0.085227 0.045517 0.000850
# 5 -0.006491 0.007873 0.007966 0.045517 0.053112 -0.002839
# 6 0.005870 -0.000033 0.001481 0.000850 -0.002839 0.023153
#
#
# Mechanical properties :
#
#
# Convention : Reuss Voigt Hill
#
# Bulk Modulus (GPa) = 28.99356 41.48419 35.23888
# Shear Modulus (GPa) = 18.71903 35.12996 26.92449
#
# Velocity S-wave (km/s) = 2.81615 3.85792 3.37744
# Velocity P-wave (km/s) = 4.78100 6.11722 5.48991
#
# Compressibility (1/GPa) = 0.03449041
#
# Stress axis : x y z
#
# Youngs Moduli (GPa) = 49.65171 54.67450 38.64795
#
# Poissons Ratio (x) = 0.53880 0.34177
# Poissons Ratio (y) = 0.48931 -0.14650
# Poissons Ratio (z) = 0.43907 -0.20724
#
# Static dielectric constant tensor:
#      x y z
#    x 1.286430 -0.258150 -0.358650 
#    y -0.258150 1.875200 -0.085580 
#    z -0.358650 -0.085580 1.884990 
# 
# From -- ./inp_files/159792.got.cif
#   From: 2010.05.17/outbox.cif.g08.bks.cpg/sg2_80_cif.got.tgz:159792.got - 2010.06.03 11:33:40.
