data_PCOD9091867
_publ_section_title
;
Structure prediction by ZEFSAII (Michael W. Deem and Ramdas Pophale) SiO2 
 PCOD9091867
Probable space group: P -1
;
_chemical_formula_sum "Si O2"
_cell_formula_units_Z 14
_cell_length_a 10.455012
_cell_length_b 14.280210
_cell_length_c 14.029492
_cell_angle_alpha 149.631777
_cell_angle_beta 59.919328
_cell_angle_gamma 138.225852
_cell_volume 639.465035
_symmetry_space_group_name_H-M "P -1"
_symmetry_group_IT_number 2
_symmetry_cell_setting 'triclinic'
loop_
_space_group_symop_operation_xyz
x,y,z
-x,-y,-z
loop_
_atom_site_type_symbol
_atom_site_label
_atom_site_fract_x
_atom_site_fract_y
_atom_site_fract_z
Si Si1 0.936765 0.251725 0.591873
Si Si2 0.907445 0.768613 0.905447
Si Si3 0.534987 0.207998 0.446358
Si Si4 0.964971 0.247455 0.778122
Si Si5 0.414802 0.803050 0.272446
Si Si6 0.780891 0.737922 0.139844
Si Si7 0.874150 0.402050 0.358981
O O1 0.060664 0.295501 0.678474
O O2 0.826489 0.341278 0.748662
O O3 0.042703 0.390903 0.574029
O O4 0.771495 0.939250 0.356414
O O5 0.688357 0.479827 0.690857
O O6 0.083444 0.764519 0.842925
O O7 0.866370 0.809018 0.061881
O O8 0.000000 0.000000 0.000000
O O9 0.646504 0.274402 0.362283
O O10 0.285947 0.028703 0.376590
O O11 0.530696 0.000716 0.314367
O O12 0.068083 0.223874 0.803493
O O13 0.000000 0.500000 0.000000
O O14 0.500000 0.000000 0.500000
O O15 0.411301 0.581475 0.069231
O O16 0.000000 0.500000 0.500000
#
# Coordination Sequence:
#
# PCOD9091867 Si02
#       7
#     2   2   2   2   2   2   2
#     4  11  23  40  65  93 127 170 212 259 325 375
#     4  11  22  41  65  96 130 166 211 266 323 376
#     4  10  21  39  65  93 129 166 210 264 317 376
#     4  11  22  44  65  91 133 170 210 265 318 375
#     4  11  20  40  63  96 130 160 215 271 314 372
#     4  12  22  40  69  90 128 174 209 259 322 377
#     4  10  19  40  62  90 129 163 207 265 315 374
#
# _framework density 21.8933
#
# number of rings (size 3 to 8) (size 9 to 14) (size 15 to 20)
#    0.000    1.143    5.714    3.000    0.000    0.571 
#    5.143    5.714    0.000    0.000    0.000    0.000 
#    0.000    0.000    0.000    0.000    0.000    0.000 
#
# Total GULP energy -77966.060510 kJ/mol
# GULP energy per Si atom -5569.004322 kJ/mol
# Density = 2.184347 g / cm^3
# Si number density = 21.893300 Si / 1000 Ang^3
#
#
#
# Elastic Constant Matrix: (Units=GPa)
#
#
# Indices 1 2 3 4 5 6 
#
# 1 72.9775 40.9560 40.2400 3.9193 -1.2461 -20.1377
# 2 40.9560 137.6381 41.9398 8.7331 7.6533 -31.6241
# 3 40.2400 41.9398 128.0241 0.3299 -21.5940 -21.6223
# 4 3.9193 8.7331 0.3299 41.0267 -6.7907 -7.4935
# 5 -1.2461 7.6533 -21.5940 -6.7907 40.1664 -6.3770
# 6 -20.1377 -31.6241 -21.6223 -7.4935 -6.3770 31.6441
#
#
#
# Elastic Compliance Matrix: (Units=1/GPa)
#
#
# Indices 1 2 3 4 5 6 
#
# 1 0.019438 -0.003060 -0.003966 0.000059 0.000118 0.006639
# 2 -0.003060 0.010391 -0.001675 -0.001044 -0.002101 0.006621
# 3 -0.003966 -0.001675 0.012086 0.003190 0.008262 0.006480
# 4 0.000059 -0.001044 0.003190 0.027605 0.008065 0.009335
# 5 0.000118 -0.002101 0.008262 0.008065 0.033041 0.012189
# 6 0.006639 0.006621 0.006480 0.009335 0.012189 0.051539
#
#
# Mechanical properties :
#
#
# Convention : Reuss Voigt Hill
#
# Bulk Modulus (GPa) = 40.79690 64.99014 52.89352
# Shear Modulus (GPa) = 27.82797 36.93437 32.38117
#
# Velocity S-wave (km/s) = 3.56908 4.11179 3.85001
# Velocity P-wave (km/s) = 5.97154 7.23131 6.63141
#
# Compressibility (1/GPa) = 0.02451167
#
# Stress axis : x y z
#
# Youngs Moduli (GPa) = 51.44498 96.23650 82.73776
#
# Poissons Ratio (x) = 0.29452 0.32815
# Poissons Ratio (y) = 0.15744 0.13863
# Poissons Ratio (z) = 0.20404 0.16124
#
# Static dielectric constant tensor:
#      x y z
#    x 1.829850 -0.114330 0.025450 
#    y -0.114330 1.716110 -0.040120 
#    z 0.025450 -0.040120 1.814390 
# 
# From -- ./inp_files/522606.got.cif
#   From: 2010.05.17/outbox.cif.g08.bks.cpg/sg2_262_cif.got.tgz:522606.got - 2010.06.03 11:33:40.
