data_PCOD9091388
_publ_section_title
;
Structure prediction by ZEFSAII (Michael W. Deem and Ramdas Pophale) SiO2 
 PCOD9091388
Probable space group: P -1
;
_chemical_formula_sum "Si O2"
_cell_formula_units_Z 16
_cell_length_a 12.467363
_cell_length_b 13.966587
_cell_length_c 14.051958
_cell_angle_alpha 31.013310
_cell_angle_beta 119.572814
_cell_angle_gamma 139.522982
_cell_volume 720.775052
_symmetry_space_group_name_H-M "P -1"
_symmetry_group_IT_number 2
_symmetry_cell_setting 'triclinic'
loop_
_space_group_symop_operation_xyz
x,y,z
-x,-y,-z
loop_
_atom_site_type_symbol
_atom_site_label
_atom_site_fract_x
_atom_site_fract_y
_atom_site_fract_z
Si Si1 0.227309 0.930444 0.271032
Si Si2 0.859943 0.009082 0.026505
Si Si3 0.388368 0.951223 0.081543
Si Si4 0.069667 0.035161 0.394781
Si Si5 0.621260 0.314151 0.057879
Si Si6 0.872585 0.680918 0.432458
Si Si7 0.665595 0.021019 0.451046
Si Si8 0.747363 0.397861 0.338143
O O1 0.189536 0.985900 0.106588
O O2 0.195815 0.670626 0.489352
O O3 0.080679 0.852642 0.345418
O O4 0.453276 0.197545 0.152664
O O5 0.757196 0.050993 0.007173
O O6 0.084378 0.281817 0.893764
O O7 0.804008 0.746514 0.266040
O O8 0.264829 0.646891 0.332659
O O9 0.530783 0.193576 0.016382
O O10 0.500000 0.000000 0.000000
O O11 0.197047 0.994449 0.486532
O O12 0.203403 0.352544 0.148187
O O13 0.000000 0.000000 0.500000
O O14 0.904148 0.816675 0.432175
O O15 0.673344 0.168337 0.239759
O O16 0.716419 0.210601 0.401107
O O17 0.447110 0.720540 0.625777
#
# Coordination Sequence:
#
# PCOD9091388 Si02
#       8
#     2   2   2   2   2   2   2   2
#     4  10  21  40  64  97 135 163 212 269 337 388
#     4  11  23  38  66  99 129 168 215 271 333 392
#     4  11  25  46  66  92 134 177 221 269 319 391
#     4  12  26  44  65  95 133 177 223 266 322 393
#     4  10  25  40  66  98 127 171 219 270 332 385
#     4  12  25  41  69  96 129 177 215 274 329 386
#     4  10  22  39  63  94 131 171 214 271 322 387
#     4  10  19  39  65  96 133 170 213 267 336 384
#
# _framework density 22.198326999999999
#
# number of rings (size 3 to 8) (size 9 to 14) (size 15 to 20)
#    0.000    1.250    2.500    2.250    5.250    4.500 
#    0.000    0.000    0.000    0.000    0.000    0.000 
#    0.000    0.000    0.000    0.000    0.000    0.000 
#
# Total GULP energy -89499.466938 kJ/mol
# GULP energy per Si atom -5593.716684 kJ/mol
# Density = 2.214780 g / cm^3
# Si number density = 22.198327 Si / 1000 Ang^3
#
#
#
# Elastic Constant Matrix: (Units=GPa)
#
#
# Indices 1 2 3 4 5 6 
#
# 1 101.0392 4.8856 29.5853 12.9209 -11.1449 3.0234
# 2 4.8856 50.5337 -10.9983 5.7505 5.1746 -0.4568
# 3 29.5853 -10.9983 49.4652 5.9258 6.5094 19.9179
# 4 12.9209 5.7505 5.9258 30.2212 -4.3944 4.0172
# 5 -11.1449 5.1746 6.5094 -4.3944 30.3572 9.6652
# 6 3.0234 -0.4568 19.9179 4.0172 9.6652 32.0377
#
#
#
# Elastic Compliance Matrix: (Units=1/GPa)
#
#
# Indices 1 2 3 4 5 6 
#
# 1 0.014610 -0.004412 -0.012044 -0.002601 0.006962 0.004272
# 2 -0.004412 0.023996 0.010852 -0.005574 -0.007921 -0.002900
# 3 -0.012044 0.010852 0.039520 -0.003253 -0.008778 -0.020222
# 4 -0.002601 -0.005574 -0.003253 0.037663 0.007690 -0.004854
# 5 0.006962 -0.007921 -0.008778 0.007690 0.042765 -0.009178
# 6 0.004272 -0.002900 -0.020222 -0.004854 -0.009178 0.046719
#
#
# Mechanical properties :
#
#
# Convention : Reuss Voigt Hill
#
# Bulk Modulus (GPa) = 14.94354 27.55369 21.24862
# Shear Modulus (GPa) = 20.93921 30.36092 25.65006
#
# Velocity S-wave (km/s) = 3.07462 3.70227 3.40295
# Velocity P-wave (km/s) = 4.39895 5.54213 5.00330
#
# Compressibility (1/GPa) = 0.06691853
#
# Stress axis : x y z
#
# Youngs Moduli (GPa) = 68.44785 41.67302 25.30355
#
# Poissons Ratio (x) = 0.18386 0.30475
# Poissons Ratio (y) = 0.30199 -0.27459
# Poissons Ratio (z) = 0.82437 -0.45223
#
# Static dielectric constant tensor:
#      x y z
#    x 1.826140 -0.028750 0.008510 
#    y -0.028750 1.883730 0.017200 
#    z 0.008510 0.017200 1.795440 
# 
# From -- ./inp_files/522171.got.cif
#   From: 2010.05.17/outbox.cif.g08.bks.cpg/sg2_262_cif.got.tgz:522171.got - 2010.06.03 11:33:40.
