data_PCOD9091636
_publ_section_title
;
Structure prediction by ZEFSAII (Michael W. Deem and Ramdas Pophale) SiO2 
 PCOD9091636
Probable space group: P -1
;
_chemical_formula_sum "Si O2"
_cell_formula_units_Z 16
_cell_length_a 5.091938
_cell_length_b 14.107739
_cell_length_c 11.095306
_cell_angle_alpha 72.910172
_cell_angle_beta 68.710698
_cell_angle_gamma 61.671243
_cell_volume 646.486316
_symmetry_space_group_name_H-M "P -1"
_symmetry_group_IT_number 2
_symmetry_cell_setting 'triclinic'
loop_
_space_group_symop_operation_xyz
x,y,z
-x,-y,-z
loop_
_atom_site_type_symbol
_atom_site_label
_atom_site_fract_x
_atom_site_fract_y
_atom_site_fract_z
Si Si1 0.074777 0.840065 0.858732
Si Si2 0.607190 0.700323 0.680465
Si Si3 0.134480 0.710635 0.248376
Si Si4 0.669848 0.276811 0.548363
Si Si5 0.545886 0.066950 0.357429
Si Si6 0.044428 0.471858 0.643868
Si Si7 0.428748 0.843376 0.031017
Si Si8 0.483743 0.903336 0.246538
O O1 0.351146 0.724095 0.818122
O O2 0.134653 0.916707 0.717159
O O3 0.187257 0.872390 0.952406
O O4 0.758562 0.827710 0.929700
O O5 0.427009 0.703991 0.582625
O O6 0.688029 0.806150 0.639985
O O7 0.912048 0.589379 0.683640
O O8 0.070786 0.723205 0.399676
O O9 0.406361 0.739998 0.140940
O O10 0.154795 0.593300 0.256200
O O11 0.827939 0.807190 0.211116
O O12 0.393942 0.381133 0.621497
O O13 0.676193 0.158557 0.623206
O O14 0.500000 0.000000 0.500000
O O15 0.512436 0.001644 0.273052
O O16 0.000000 0.500000 0.500000
O O17 0.354452 0.927060 0.123860
#
# Coordination Sequence:
#
# PCOD9091636 Si02
#       8
#     2   2   2   2   2   2   2   2
#     4  10  24  44  66  98 139 177 224 279 328 399
#     4   9  20  41  60  97 139 168 223 274 342 398
#     4  10  21  38  69  96 134 170 231 273 330 391
#     4   9  18  37  65  96 128 170 223 273 336 399
#     4  10  21  43  67  98 138 173 216 276 352 394
#     4   9  19  38  64  98 132 174 222 275 337 396
#     4  11  22  46  67  97 135 181 233 270 321 402
#     4  10  19  39  68  95 129 178 221 274 322 401
#
# _framework density 24.749168000000001
#
# number of rings (size 3 to 8) (size 9 to 14) (size 15 to 20)
#    0.750    1.500    2.500    0.000    0.000    3.000 
#   15.750    2.500    0.000    0.000    0.000    0.000 
#    0.000    0.000    0.000    0.000    0.000    0.000 
#
# Total GULP energy -89274.925420 kJ/mol
# GULP energy per Si atom -5579.682839 kJ/mol
# Density = 2.469284 g / cm^3
# Si number density = 24.749168 Si / 1000 Ang^3
#
#
#
# Elastic Constant Matrix: (Units=GPa)
#
#
# Indices 1 2 3 4 5 6 
#
# 1 86.0287 24.8778 30.1384 -7.5394 6.0154 6.0644
# 2 24.8778 183.4397 37.2621 -2.3696 -4.5755 5.6926
# 3 30.1384 37.2621 106.3364 -10.6045 -1.9495 0.2804
# 4 -7.5394 -2.3696 -10.6045 28.8061 1.8535 -6.1002
# 5 6.0154 -4.5755 -1.9495 1.8535 33.0532 -7.4497
# 6 6.0644 5.6926 0.2804 -6.1002 -7.4497 27.0478
#
#
#
# Elastic Compliance Matrix: (Units=1/GPa)
#
#
# Indices 1 2 3 4 5 6 
#
# 1 0.013806 -0.001146 -0.003393 0.001781 -0.003749 -0.003450
# 2 -0.001146 0.006020 -0.001841 -0.000732 0.000761 -0.000946
# 3 -0.003393 -0.001841 0.011382 0.003529 0.001330 0.002193
# 4 0.001781 -0.000732 0.003529 0.038187 -0.000513 0.008190
# 5 -0.003749 0.000761 0.001330 -0.000513 0.033343 0.009734
# 6 -0.003450 -0.000946 0.002193 0.008190 0.009734 0.042450
#
#
# Mechanical properties :
#
#
# Convention : Reuss Voigt Hill
#
# Bulk Modulus (GPa) = 54.21373 62.26238 58.23806
# Shear Modulus (GPa) = 30.46984 36.68319 33.57651
#
# Velocity S-wave (km/s) = 3.51258 3.85411 3.68730
# Velocity P-wave (km/s) = 6.19708 6.70951 6.45838
#
# Compressibility (1/GPa) = 0.01844551
#
# Stress axis : x y z
#
# Youngs Moduli (GPa) = 72.43400 166.12041 87.86185
#
# Poissons Ratio (x) = 0.19046 0.29813
# Poissons Ratio (y) = 0.08305 0.16176
# Poissons Ratio (z) = 0.24578 0.30583
#
# Static dielectric constant tensor:
#      x y z
#    x 2.139680 -0.048330 -0.049450 
#    y -0.048330 2.000250 0.005830 
#    z -0.049450 0.005830 2.039380 
# 
# From -- ./inp_files/366219.got.cif
#   From: 2010.05.17/outbox.cif.g08.bks.cpg/sg2_184_cif.got.tgz:366219.got - 2010.06.03 11:33:40.
