data_PCOD9091328
_publ_section_title
;
Structure prediction by ZEFSAII (Michael W. Deem and Ramdas Pophale) SiO2 
 PCOD9091328
Probable space group: P -1
;
_chemical_formula_sum "Si O2"
_cell_formula_units_Z 16
_cell_length_a 7.590751
_cell_length_b 12.302674
_cell_length_c 20.145149
_cell_angle_alpha 37.336193
_cell_angle_beta 42.638099
_cell_angle_gamma 66.314333
_cell_volume 691.771263
_symmetry_space_group_name_H-M "P -1"
_symmetry_group_IT_number 2
_symmetry_cell_setting 'triclinic'
loop_
_space_group_symop_operation_xyz
x,y,z
-x,-y,-z
loop_
_atom_site_type_symbol
_atom_site_label
_atom_site_fract_x
_atom_site_fract_y
_atom_site_fract_z
Si Si1 0.390600 0.660549 0.574998
Si Si2 0.222593 0.932360 0.324530
Si Si3 0.646270 0.700560 0.819346
Si Si4 0.417913 0.185643 0.930122
Si Si5 0.340458 0.626228 0.365625
Si Si6 0.235928 0.781315 0.682549
Si Si7 0.189866 0.401099 0.308164
Si Si8 0.930585 0.079720 0.218725
O O1 0.543864 0.530376 0.569711
O O2 0.326539 0.636247 0.684757
O O3 0.091906 0.605596 0.647377
O O4 0.619646 0.890396 0.388836
O O5 0.364055 0.789679 0.333259
O O6 0.935826 0.780497 0.517018
O O7 0.121473 0.009377 0.249524
O O8 0.424133 0.123562 0.220245
O O9 0.984142 0.789259 0.702819
O O10 0.621138 0.646427 0.775814
O O11 0.500000 0.500000 0.000000
O O12 0.463157 0.254735 0.808383
O O13 0.641735 0.381622 0.812720
O O14 0.500000 0.000000 0.000000
O O15 0.110594 0.135754 0.074006
O O16 0.000000 0.500000 0.500000
O O17 0.500000 0.000000 0.500000
O O18 0.116026 0.755210 0.803688
#
# Coordination Sequence:
#
# PCOD9091328 Si02
#       8
#     2   2   2   2   2   2   2   2
#     4  10  21  40  61  93 127 164 209 260 311 367
#     4  11  21  39  64  92 122 168 213 246 303 388
#     4  10  21  38  63  93 125 159 206 266 314 359
#     4  12  23  40  65  94 123 167 214 255 310 375
#     4  12  22  42  64  91 124 172 215 249 304 395
#     4   8  17  34  61  87 120 164 202 247 304 365
#     4  11  23  39  65  95 125 164 211 259 314 364
#     4  10  19  39  65  89 124 167 216 254 304 369
#
# _framework density 23.129034000000001
#
# number of rings (size 3 to 8) (size 9 to 14) (size 15 to 20)
#    0.000    1.500    3.750    1.875    0.000    0.500 
#    0.000    5.000    0.000    0.000    0.000    0.000 
#    0.000    0.000    0.000    0.000    0.000    0.000 
#
# Total GULP energy -89425.765646 kJ/mol
# GULP energy per Si atom -5589.110353 kJ/mol
# Density = 2.307639 g / cm^3
# Si number density = 23.129034 Si / 1000 Ang^3
#
#
#
# Elastic Constant Matrix: (Units=GPa)
#
#
# Indices 1 2 3 4 5 6 
#
# 1 35.9363 23.1620 3.2660 -6.5258 -0.9748 -12.0275
# 2 23.1620 192.1285 57.7891 -7.9906 2.3298 14.6370
# 3 3.2660 57.7891 108.0807 9.8877 8.8333 15.4314
# 4 -6.5258 -7.9906 9.8877 50.7729 8.0389 3.4394
# 5 -0.9748 2.3298 8.8333 8.0389 25.6064 5.2907
# 6 -12.0275 14.6370 15.4314 3.4394 5.2907 32.6978
#
#
#
# Elastic Compliance Matrix: (Units=1/GPa)
#
#
# Indices 1 2 3 4 5 6 
#
# 1 0.037454 -0.005389 -0.000732 0.003352 -0.002304 0.016555
# 2 -0.005389 0.007184 -0.003293 0.001233 0.000693 -0.003886
# 3 -0.000732 -0.003293 0.011985 -0.002316 -0.002345 -0.003829
# 4 0.003352 0.001233 -0.002316 0.021705 -0.006098 0.000478
# 5 -0.002304 0.000693 -0.002345 -0.006098 0.042939 -0.006357
# 6 0.016555 -0.003886 -0.003829 0.000478 -0.006357 0.041198
#
#
# Mechanical properties :
#
#
# Convention : Reuss Voigt Hill
#
# Bulk Modulus (GPa) = 26.45880 56.06441 41.26161
# Shear Modulus (GPa) = 25.78775 38.61064 32.19920
#
# Velocity S-wave (km/s) = 3.34271 4.09021 3.73521
# Velocity P-wave (km/s) = 5.13447 6.82634 6.03994
#
# Compressibility (1/GPa) = 0.03779461
#
# Stress axis : x y z
#
# Youngs Moduli (GPa) = 26.69954 139.20148 83.43581
#
# Poissons Ratio (x) = 0.75013 0.06112
# Poissons Ratio (y) = 0.14388 0.27474
# Poissons Ratio (z) = 0.01956 0.45837
#
# Static dielectric constant tensor:
#      x y z
#    x 1.897900 -0.008640 0.016180 
#    y -0.008640 1.989250 0.022410 
#    z 0.016180 0.022410 1.847560 
# 
# From -- ./inp_files/403135.got.cif
#   From: 2010.05.17/outbox.cif.g08.bks.cpg/sg2_202_cif.got.tgz:403135.got - 2010.06.03 11:33:40.
