data_PCOD9091063
_publ_section_title
;
Structure prediction by ZEFSAII (Michael W. Deem and Ramdas Pophale) SiO2 
 PCOD9091063
Probable space group: P -1
;
_chemical_formula_sum "Si O2"
_cell_formula_units_Z 16
_cell_length_a 22.391125
_cell_length_b 10.804983
_cell_length_c 9.103994
_cell_angle_alpha 109.082494
_cell_angle_beta 32.865544
_cell_angle_gamma 133.168524
_cell_volume 679.910436
_symmetry_space_group_name_H-M "P -1"
_symmetry_group_IT_number 2
_symmetry_cell_setting 'triclinic'
loop_
_space_group_symop_operation_xyz
x,y,z
-x,-y,-z
loop_
_atom_site_type_symbol
_atom_site_label
_atom_site_fract_x
_atom_site_fract_y
_atom_site_fract_z
Si Si1 0.405961 0.932110 0.326517
Si Si2 0.152569 0.947778 0.115606
Si Si3 0.441783 0.152344 0.832238
Si Si4 0.560205 0.352596 0.133533
Si Si5 0.833818 0.666575 0.212713
Si Si6 0.340580 0.261786 0.306601
Si Si7 0.883224 0.543085 0.325784
Si Si8 0.150192 0.227554 0.105380
O O1 0.203141 0.679741 0.622624
O O2 0.451037 0.125640 0.335828
O O3 0.503788 0.937126 0.250957
O O4 0.500000 0.000000 0.000000
O O5 0.046345 0.727681 0.171834
O O6 0.019180 0.884884 0.489484
O O7 0.325938 0.057797 0.887974
O O8 0.175881 0.095265 0.017609
O O9 0.329438 0.120181 0.180863
O O10 0.631362 0.410232 0.523596
O O11 0.412556 0.298540 0.333141
O O12 0.708592 0.448477 0.736117
O O13 0.672502 0.537750 0.094161
O O14 0.825699 0.797255 0.365020
O O15 0.933449 0.662929 0.115880
O O16 0.881383 0.742078 0.977565
O O17 0.500000 0.500000 0.000000
#
# Coordination Sequence:
#
# PCOD9091063 Si02
#       8
#     2   2   2   2   2   2   2   2
#     4   9  16  34  59  83 103 147 203 227 262 330
#     4  10  22  36  55  81 124 148 173 232 297 333
#     4  10  19  34  57  84 110 144 193 238 270 322
#     4  10  17  33  57  83 111 146 189 232 272 326
#     4  10  20  34  59  82 111 148 194 228 270 338
#     4  10  16  28  54  84 111 136 182 229 274 314
#     4   9  18  35  54  77 112 151 182 222 280 334
#     4  10  22  36  54  85 120 147 181 226 291 344
#
# _framework density 23.532511
#
# number of rings (size 3 to 8) (size 9 to 14) (size 15 to 20)
#    0.000    2.250    5.000    1.500    3.500    2.500 
#    0.000    8.125    0.000    0.000    0.000   12.250 
#    0.000    0.000    0.000    0.000    0.000    0.000 
#
# Total GULP energy -89422.052400 kJ/mol
# GULP energy per Si atom -5588.878275 kJ/mol
# Density = 2.347895 g / cm^3
# Si number density = 23.532511 Si / 1000 Ang^3
#
#
#
# Elastic Constant Matrix: (Units=GPa)
#
#
# Indices 1 2 3 4 5 6 
#
# 1 152.0568 39.8241 43.4481 -19.7559 10.1362 1.1200
# 2 39.8241 83.5498 26.3004 -18.2939 1.4810 -11.9168
# 3 43.4481 26.3004 59.8251 -8.5992 19.5121 1.3038
# 4 -19.7559 -18.2939 -8.5992 34.5084 11.8623 1.5132
# 5 10.1362 1.4810 19.5121 11.8623 44.4420 -5.2188
# 6 1.1200 -11.9168 1.3038 1.5132 -5.2188 40.5421
#
#
#
# Elastic Compliance Matrix: (Units=1/GPa)
#
#
# Indices 1 2 3 4 5 6 
#
# 1 0.009000 -0.002213 -0.004841 0.003087 -0.000790 -0.000960
# 2 -0.002213 0.016666 -0.005554 0.005429 0.001541 0.005134
# 3 -0.004841 -0.005554 0.027859 0.005889 -0.013018 -0.004290
# 4 0.003087 0.005429 0.005889 0.040138 -0.014423 -0.002034
# 5 -0.000790 0.001541 -0.013018 -0.014423 0.032860 0.005662
# 6 -0.000960 0.005134 -0.004290 -0.002034 0.005662 0.027144
#
#
# Mechanical properties :
#
#
# Convention : Reuss Voigt Hill
#
# Bulk Modulus (GPa) = 35.32482 57.17520 46.25001
# Shear Modulus (GPa) = 26.55070 36.28912 31.41991
#
# Velocity S-wave (km/s) = 3.36260 3.93120 3.65796
# Velocity P-wave (km/s) = 5.48814 6.70483 6.12677
#
# Compressibility (1/GPa) = 0.02830871
#
# Stress axis : x y z
#
# Youngs Moduli (GPa) = 111.10878 60.00345 35.89563
#
# Poissons Ratio (x) = 0.13280 0.17378
# Poissons Ratio (y) = 0.24590 0.19935
# Poissons Ratio (z) = 0.53789 0.33323
#
# Static dielectric constant tensor:
#      x y z
#    x 1.847980 -0.014730 -0.019850 
#    y -0.014730 1.909910 0.059350 
#    z -0.019850 0.059350 1.987230 
# 
# From -- ./inp_files/281252.got.cif
#   From: 2010.05.17/outbox.cif.g08.bks.cpg/sg2_141_cif.got.tgz:281252.got - 2010.06.03 11:33:40.
