data_PCOD9091184
_publ_section_title
;
Structure prediction by ZEFSAII (Michael W. Deem and Ramdas Pophale) SiO2 
 PCOD9091184
Probable space group: P -1
;
_chemical_formula_sum "Si O2"
_cell_formula_units_Z 16
_cell_length_a 17.852696
_cell_length_b 11.603450
_cell_length_c 8.217636
_cell_angle_alpha 77.686225
_cell_angle_beta 31.493886
_cell_angle_gamma 67.000577
_cell_volume 792.752261
_symmetry_space_group_name_H-M "P -1"
_symmetry_group_IT_number 2
_symmetry_cell_setting 'triclinic'
loop_
_space_group_symop_operation_xyz
x,y,z
-x,-y,-z
loop_
_atom_site_type_symbol
_atom_site_label
_atom_site_fract_x
_atom_site_fract_y
_atom_site_fract_z
Si Si1 0.272937 0.265898 0.465989
Si Si2 0.065710 0.296802 0.290187
Si Si3 0.195696 0.460912 0.802942
Si Si4 0.851035 0.192244 0.590585
Si Si5 0.010800 0.733244 0.192758
Si Si6 0.498356 0.636557 0.910968
Si Si7 0.335495 0.064222 0.694741
Si Si8 0.117557 0.933772 0.070124
O O1 0.159106 0.400102 0.724103
O O2 0.165131 0.223816 0.563699
O O3 0.415445 0.303590 0.138628
O O4 0.338935 0.159707 0.517273
O O5 0.005572 0.310311 0.580288
O O6 0.925798 0.297556 0.433464
O O7 0.132507 0.399606 0.082466
O O8 0.203975 0.154791 0.039936
O O9 0.385399 0.398129 0.451486
O O10 0.126684 0.612558 0.910303
O O11 0.863232 0.133583 0.767386
O O12 0.674316 0.259829 0.838260
O O13 0.967076 0.071146 0.308401
O O14 0.080037 0.840982 0.044581
O O15 0.500000 0.500000 0.000000
O O16 0.500000 0.000000 0.500000
O O17 0.269522 0.966137 0.767448
#
# Coordination Sequence:
#
# PCOD9091184 Si02
#       8
#     2   2   2   2   2   2   2   2
#     4   9  22  36  60  87 115 164 201 246 308 347
#     4   9  20  36  63  89 111 167 199 252 299 349
#     4   9  21  38  60  87 114 169 206 239 304 359
#     4   9  18  38  59  86 120 153 211 242 295 373
#     4  11  20  38  58  94 128 147 209 249 303 365
#     4  10  22  38  62  88 118 161 205 252 301 359
#     4  10  19  39  64  86 119 162 210 241 293 374
#     4   9  20  34  62  89 117 163 193 252 303 346
#
# _framework density 20.182852
#
# number of rings (size 3 to 8) (size 9 to 14) (size 15 to 20)
#    0.750    1.750    0.000    2.250    1.750    2.500 
#    0.000    6.250    0.000    0.000    0.000    0.000 
#    0.000    0.000    0.000    0.000    0.000    0.000 
#
# Total GULP energy -89126.505859 kJ/mol
# GULP energy per Si atom -5570.406616 kJ/mol
# Density = 2.013691 g / cm^3
# Si number density = 20.182852 Si / 1000 Ang^3
#
#
#
# Elastic Constant Matrix: (Units=GPa)
#
#
# Indices 1 2 3 4 5 6 
#
# 1 80.6907 53.5045 30.5535 3.0224 -34.4548 26.1033
# 2 53.5045 110.6477 35.9754 -18.5677 -27.9623 24.1583
# 3 30.5535 35.9754 74.3733 -10.2232 -38.7429 8.3978
# 4 3.0224 -18.5677 -10.2232 30.6918 -2.8313 -5.1135
# 5 -34.4548 -27.9623 -38.7429 -2.8313 41.9023 -5.2444
# 6 26.1033 24.1583 8.3978 -5.1135 -5.2444 23.0707
#
#
#
# Elastic Compliance Matrix: (Units=1/GPa)
#
#
# Indices 1 2 3 4 5 6 
#
# 1 0.037166 -0.007825 0.002692 -0.010690 0.023106 -0.031954
# 2 -0.007825 0.017082 -0.000810 0.010310 0.004225 -0.005493
# 3 0.002692 -0.000810 0.030435 0.011513 0.030106 -0.003881
# 4 -0.010690 0.010310 0.011513 0.046665 0.013197 0.010451
# 5 0.023106 0.004225 0.030106 0.013197 0.071618 -0.022321
# 6 -0.031954 -0.005493 -0.003881 0.010451 -0.022321 0.083907
#
#
# Mechanical properties :
#
#
# Convention : Reuss Voigt Hill
#
# Bulk Modulus (GPa) = 13.73674 56.19763 34.96718
# Shear Modulus (GPa) = 15.47869 28.84485 22.16177
#
# Velocity S-wave (km/s) = 2.77234 3.78455 3.31728
# Velocity P-wave (km/s) = 4.13144 6.85578 5.65997
#
# Compressibility (1/GPa) = 0.07279748
#
# Stress axis : x y z
#
# Youngs Moduli (GPa) = 26.90627 58.54090 32.85680
#
# Poissons Ratio (x) = 0.45809 -0.08845
# Poissons Ratio (y) = 0.21054 0.02660
# Poissons Ratio (z) = -0.07243 0.04740
#
# Static dielectric constant tensor:
#      x y z
#    x 1.743320 0.021630 -0.011440 
#    y 0.021630 1.742170 -0.031720 
#    z -0.011440 -0.031720 1.744100 
# 
# From -- ./inp_files/333189.got.cif
#   From: 2010.05.17/outbox.cif.g08.bks.cpg/sg2_167_cif.got.tgz:333189.got - 2010.06.03 11:33:40.
