data_PCOD9091861
_publ_section_title
;
Structure prediction by ZEFSAII (Michael W. Deem and Ramdas Pophale) SiO2 
 PCOD9091861
Probable space group: P -1
;
_chemical_formula_sum "Si O2"
_cell_formula_units_Z 16
_cell_length_a 9.344138
_cell_length_b 11.753318
_cell_length_c 9.130863
_cell_angle_alpha 114.414781
_cell_angle_beta 131.096118
_cell_angle_gamma 55.461353
_cell_volume 621.177355
_symmetry_space_group_name_H-M "P -1"
_symmetry_group_IT_number 2
_symmetry_cell_setting 'triclinic'
loop_
_space_group_symop_operation_xyz
x,y,z
-x,-y,-z
loop_
_atom_site_type_symbol
_atom_site_label
_atom_site_fract_x
_atom_site_fract_y
_atom_site_fract_z
Si Si1 0.613691 0.396225 0.737759
Si Si2 0.184143 0.842348 0.458665
Si Si3 0.474854 0.297234 0.182669
Si Si4 0.810341 0.880237 0.393982
Si Si5 0.960360 0.721803 0.698487
Si Si6 0.375396 0.998147 0.266408
Si Si7 0.398942 0.716884 0.049041
Si Si8 0.060886 0.373976 0.088432
O O1 0.636253 0.278008 0.576720
O O2 0.534738 0.550872 0.709005
O O3 0.500161 0.388042 0.805559
O O4 0.858981 0.342986 0.919642
O O5 0.301114 0.820009 0.682175
O O6 0.970694 0.825730 0.336926
O O7 0.138379 0.992427 0.447230
O O8 0.291706 0.278027 0.134130
O O9 0.446410 0.302180 0.991698
O O10 0.865235 0.763532 0.494238
O O11 0.559469 0.959343 0.247632
O O12 0.932679 0.606423 0.720160
O O13 0.827427 0.857857 0.782374
O O14 0.200080 0.698864 0.840835
O O15 0.319915 0.868747 0.146855
O O16 0.500000 0.000000 0.500000
O O17 0.000000 0.500000 0.000000
#
# Coordination Sequence:
#
# PCOD9091861 Si02
#       8
#     2   2   2   2   2   2   2   2
#     4  10  22  40  65  87 123 166 203 252 307 361
#     4  11  22  40  62  89 129 160 206 251 309 355
#     4  11  22  41  62  91 122 160 210 252 303 359
#     4  10  22  39  61  92 124 162 203 255 299 367
#     4  10  19  40  62  89 120 164 201 245 308 367
#     4  10  21  36  60  89 124 157 202 245 305 360
#     4  11  22  38  64  92 122 157 209 253 301 367
#     4   9  21  38  61  87 122 158 200 252 303 354
#
# _framework density 25.757539000000001
#
# number of rings (size 3 to 8) (size 9 to 14) (size 15 to 20)
#    0.000    1.750    1.250    3.375    1.750    2.000 
#    0.000    1.250    0.000    2.250    0.000    0.000 
#    0.000    0.000    0.000    0.000    0.000    0.000 
#
# Total GULP energy -89319.554745 kJ/mol
# GULP energy per Si atom -5582.472172 kJ/mol
# Density = 2.569891 g / cm^3
# Si number density = 25.757539 Si / 1000 Ang^3
#
#
#
# Elastic Constant Matrix: (Units=GPa)
#
#
# Indices 1 2 3 4 5 6 
#
# 1 128.0597 7.9311 9.8855 -10.6567 -14.6642 6.4767
# 2 7.9311 85.5636 19.9648 -8.3599 -7.3582 -4.5417
# 3 9.8855 19.9648 41.1000 -5.1090 -11.7644 4.2743
# 4 -10.6567 -8.3599 -5.1090 32.9371 -4.2702 -6.2359
# 5 -14.6642 -7.3582 -11.7644 -4.2702 38.3072 -13.6777
# 6 6.4767 -4.5417 4.2743 -6.2359 -13.6777 39.6054
#
#
#
# Elastic Compliance Matrix: (Units=1/GPa)
#
#
# Indices 1 2 3 4 5 6 
#
# 1 0.008512 0.000009 -0.000681 0.003190 0.003554 0.000412
# 2 0.000009 0.013838 -0.005923 0.003625 0.002560 0.003680
# 3 -0.000681 -0.005923 0.030250 0.003960 0.008198 -0.000378
# 4 0.003190 0.003625 0.003960 0.035890 0.010222 0.008648
# 5 0.003554 0.002560 0.008198 0.010222 0.036239 0.012952
# 6 0.000412 0.003680 -0.000378 0.008648 0.012952 0.031479
#
#
# Mechanical properties :
#
#
# Convention : Reuss Voigt Hill
#
# Bulk Modulus (GPa) = 25.37422 36.69845 31.03634
# Shear Modulus (GPa) = 27.39192 36.63273 32.01232
#
# Velocity S-wave (km/s) = 3.26460 3.77532 3.52921
# Velocity P-wave (km/s) = 4.90741 5.76911 5.35562
#
# Compressibility (1/GPa) = 0.03941008
#
# Stress axis : x y z
#
# Youngs Moduli (GPa) = 117.47549 72.26388 33.05771
#
# Poissons Ratio (x) = -0.00065 0.02251
# Poissons Ratio (y) = -0.00105 0.19581
# Poissons Ratio (z) = 0.07999 0.42805
#
# Static dielectric constant tensor:
#      x y z
#    x 2.088110 0.035080 -0.049050 
#    y 0.035080 2.061310 0.026830 
#    z -0.049050 0.026830 2.117990 
# 
# From -- ./inp_files/189548.got.cif
#   From: 2010.05.17/outbox.cif.g08.bks.cpg/sg2_95_cif.got.tgz:189548.got - 2010.06.03 11:33:40.
