data_PCOD9091301
_publ_section_title
;
Structure prediction by ZEFSAII (Michael W. Deem and Ramdas Pophale) SiO2 
 PCOD9091301
Probable space group: P -1
;
_chemical_formula_sum "Si O2"
_cell_formula_units_Z 13
_cell_length_a 10.253351
_cell_length_b 12.096093
_cell_length_c 9.451055
_cell_angle_alpha 140.225844
_cell_angle_beta 114.313724
_cell_angle_gamma 42.411200
_cell_volume 471.689309
_symmetry_space_group_name_H-M "P -1"
_symmetry_group_IT_number 2
_symmetry_cell_setting 'triclinic'
loop_
_space_group_symop_operation_xyz
x,y,z
-x,-y,-z
loop_
_atom_site_type_symbol
_atom_site_label
_atom_site_fract_x
_atom_site_fract_y
_atom_site_fract_z
Si Si1 0.214842 0.106456 0.233001
Si Si2 0.778910 0.042152 0.453498
Si Si3 0.397615 0.584097 0.720783
Si Si4 0.253493 0.203082 0.049958
Si Si5 0.406820 0.400288 0.804940
Si Si6 0.110378 0.697118 0.478724
Si Si7 0.500000 0.000000 0.500000
O O1 0.147438 0.258666 0.208821
O O2 0.360080 0.096200 0.384145
O O3 0.042719 0.186958 0.342043
O O4 0.341892 0.828720 0.961276
O O5 0.630672 0.326296 0.614220
O O6 0.616600 0.100335 0.557952
O O7 0.975284 0.910804 0.509029
O O8 0.794256 0.901553 0.190200
O O9 0.284697 0.567753 0.778300
O O10 0.312625 0.596160 0.545734
O O11 0.172551 0.457243 0.211994
O O12 0.500000 0.000000 0.000000
O O13 0.329277 0.319381 0.789770
O O14 0.500000 0.500000 0.000000
#
# Coordination Sequence:
#
# PCOD9091301 Si02
#       7
#     2   2   2   2   2   2   1
#     4  12  25  41  76 106 136 190 244 294 360 431
#     4  10  22  44  70 100 140 188 230 289 365 418
#     4  10  22  45  69 103 145 180 235 303 357 417
#     4  12  25  46  66 101 145 188 234 300 362 425
#     4  10  19  39  65 102 137 178 231 290 347 416
#     4  12  23  45  74 100 142 185 241 296 353 431
#     4  12  18  38  68 104 136 180 236 288 350 422
#
# _framework density 27.560514000000001
#
# number of rings (size 3 to 8) (size 9 to 14) (size 15 to 20)
#    0.923    0.000    4.615    3.231    0.000    0.615 
#    0.000    2.308    0.000    0.000    0.000    0.000 
#    0.000    0.000    0.000    0.000    0.000    0.000 
#
# Total GULP energy -72576.252653 kJ/mol
# GULP energy per Si atom -5582.788666 kJ/mol
# Density = 2.749779 g / cm^3
# Si number density = 27.560514 Si / 1000 Ang^3
#
#
#
# Elastic Constant Matrix: (Units=GPa)
#
#
# Indices 1 2 3 4 5 6 
#
# 1 83.2948 43.0046 4.3461 -5.9924 -5.8386 -7.7585
# 2 43.0046 187.8348 48.4542 -24.8886 11.6675 2.7170
# 3 4.3461 48.4542 149.3129 -15.0785 25.5726 4.0773
# 4 -5.9924 -24.8886 -15.0785 59.8135 13.3101 6.5111
# 5 -5.8386 11.6675 25.5726 13.3101 46.2999 -2.0314
# 6 -7.7585 2.7170 4.0773 6.5111 -2.0314 62.3228
#
#
#
# Elastic Compliance Matrix: (Units=1/GPa)
#
#
# Indices 1 2 3 4 5 6 
#
# 1 0.014212 -0.003623 0.000088 -0.000966 0.003027 0.002121
# 2 -0.003623 0.007066 -0.001485 0.002821 -0.002273 -0.001031
# 3 0.000088 -0.001485 0.008339 0.002715 -0.005041 -0.000918
# 4 -0.000966 0.002821 0.002715 0.020659 -0.008396 -0.002853
# 5 0.003027 -0.002273 -0.005041 -0.008396 0.027865 0.002591
# 6 0.002121 -0.001031 -0.000918 -0.002853 0.002591 0.016797
#
#
# Mechanical properties :
#
#
# Convention : Reuss Voigt Hill
#
# Bulk Modulus (GPa) = 51.08051 68.00582 59.54317
# Shear Modulus (GPa) = 44.84093 55.32975 50.08534
#
# Velocity S-wave (km/s) = 4.03798 4.48546 4.26759
# Velocity P-wave (km/s) = 6.34938 7.18014 6.77750
#
# Compressibility (1/GPa) = 0.01957694
#
# Stress axis : x y z
#
# Youngs Moduli (GPa) = 70.36362 141.51369 119.91221
#
# Poissons Ratio (x) = 0.51275 -0.01057
# Poissons Ratio (y) = 0.25495 0.17810
# Poissons Ratio (z) = -0.00620 0.21019
#
# Static dielectric constant tensor:
#      x y z
#    x 2.987100 0.109770 -0.083490 
#    y 0.109770 2.114770 0.063340 
#    z -0.083490 0.063340 2.210960 
# 
# From -- ./inp_files/263763.got.cif
#   From: 2010.05.17/outbox.cif.g08.bks.cpg/sg2_132_cif.got.tgz:263763.got - 2010.06.03 11:33:40.
