data_PCOD9091354
_publ_section_title
;
Structure prediction by ZEFSAII (Michael W. Deem and Ramdas Pophale) SiO2 
 PCOD9091354
Probable space group: P -1
;
_chemical_formula_sum "Si O2"
_cell_formula_units_Z 16
_cell_length_a 5.330172
_cell_length_b 13.911072
_cell_length_c 11.147511
_cell_angle_alpha 108.656738
_cell_angle_beta 63.036328
_cell_angle_gamma 82.202231
_cell_volume 658.306315
_symmetry_space_group_name_H-M "P -1"
_symmetry_group_IT_number 2
_symmetry_cell_setting 'triclinic'
loop_
_space_group_symop_operation_xyz
x,y,z
-x,-y,-z
loop_
_atom_site_type_symbol
_atom_site_label
_atom_site_fract_x
_atom_site_fract_y
_atom_site_fract_z
Si Si1 0.053000 0.174177 0.376308
Si Si2 0.807351 0.538895 0.356994
Si Si3 0.390870 0.355218 0.146140
Si Si4 0.552576 0.233225 0.841317
Si Si5 0.339994 0.469976 0.870737
Si Si6 0.051632 0.269245 0.659936
Si Si7 0.614843 0.096281 0.547882
Si Si8 0.576475 0.263987 0.314159
O O1 0.937319 0.253169 0.546573
O O2 0.948565 0.077966 0.416510
O O3 0.873715 0.212209 0.307389
O O4 0.384795 0.181798 0.302894
O O5 0.617058 0.522117 0.280079
O O6 0.616038 0.622484 0.530896
O O7 0.059792 0.427403 0.293132
O O8 0.985352 0.607829 0.278475
O O9 0.529816 0.436432 0.080164
O O10 0.602691 0.299327 0.186970
O O11 0.381741 0.265202 0.015276
O O12 0.458699 0.344930 0.831202
O O13 0.901321 0.220637 0.776064
O O14 0.557048 0.136782 0.714066
O O15 0.000000 0.500000 0.000000
O O16 0.399024 0.199106 0.562708
O O17 0.500000 0.000000 0.500000
#
# Coordination Sequence:
#
# PCOD9091354 Si02
#       8
#     2   2   2   2   2   2   2   2
#     4  10  21  43  66  91 129 167 208 272 327 360
#     4  11  20  37  58  89 127 179 217 257 303 374
#     4  12  26  36  57  93 132 185 221 247 304 388
#     4  11  22  38  58  92 135 164 211 272 327 376
#     4  12  22  35  60  88 132 175 219 259 322 371
#     4  10  19  39  65  92 127 164 203 275 333 374
#     4  11  23  42  74 101 119 155 212 279 345 396
#     4  11  25  41  61  92 136 181 221 258 298 375
#
# _framework density 24.304794000000001
#
# number of rings (size 3 to 8) (size 9 to 14) (size 15 to 20)
#    0.000    1.000    6.250    2.250    3.500    2.500 
#    0.000    0.000    0.000    1.500    0.000    0.000 
#    0.000    0.000    0.000    0.000    0.000    0.000 
#
# Total GULP energy -89162.009637 kJ/mol
# GULP energy per Si atom -5572.625602 kJ/mol
# Density = 2.424948 g / cm^3
# Si number density = 24.304794 Si / 1000 Ang^3
#
#
#
# Elastic Constant Matrix: (Units=GPa)
#
#
# Indices 1 2 3 4 5 6 
#
# 1 89.6400 22.9204 23.8550 12.1259 19.7946 -1.7492
# 2 22.9204 70.8403 36.0990 14.9369 15.8655 21.3991
# 3 23.8550 36.0990 88.3573 2.9203 31.2310 -2.0212
# 4 12.1259 14.9369 2.9203 25.4181 3.7798 5.1031
# 5 19.7946 15.8655 31.2310 3.7798 41.2051 -4.7317
# 6 -1.7492 21.3991 -2.0212 5.1031 -4.7317 41.4662
#
#
#
# Elastic Compliance Matrix: (Units=1/GPa)
#
#
# Indices 1 2 3 4 5 6 
#
# 1 0.013669 -0.002624 -0.000938 -0.004645 -0.004192 0.001978
# 2 -0.002624 0.026281 -0.009095 -0.010126 -0.002548 -0.013161
# 3 -0.000938 -0.009095 0.018875 0.004382 -0.010313 0.003858
# 4 -0.004645 -0.010126 0.004382 0.047403 -0.001629 -0.000776
# 5 -0.004192 -0.002548 -0.010313 -0.001629 0.035795 0.004920
# 6 0.001978 -0.013161 0.003858 -0.000776 0.004920 0.031837
#
#
# Mechanical properties :
#
#
# Convention : Reuss Voigt Hill
#
# Bulk Modulus (GPa) = 29.83991 46.06515 37.95253
# Shear Modulus (GPa) = 23.77060 32.68209 28.22634
#
# Velocity S-wave (km/s) = 3.13073 3.67096 3.41155
# Velocity P-wave (km/s) = 5.03712 6.07965 5.58278
#
# Compressibility (1/GPa) = 0.03351217
#
# Stress axis : x y z
#
# Youngs Moduli (GPa) = 73.15882 38.04987 52.97938
#
# Poissons Ratio (x) = 0.09985 0.04968
# Poissons Ratio (y) = 0.19197 0.48184
# Poissons Ratio (z) = 0.06861 0.34606
#
# Static dielectric constant tensor:
#      x y z
#    x 2.319950 0.081420 -0.105660 
#    y 0.081420 1.998460 -0.066930 
#    z -0.105660 -0.066930 2.018650 
# 
# From -- ./inp_files/97232.got.cif
#   From: 2010.05.17/outbox.cif.g08.bks.cpg/sg2_49_cif.got.tgz:97232.got - 2010.06.03 11:33:40.
