data_PCOD9091286
_publ_section_title
;
Structure prediction by ZEFSAII (Michael W. Deem and Ramdas Pophale) SiO2 
 PCOD9091286
Probable space group: P -1
;
_chemical_formula_sum "Si O2"
_cell_formula_units_Z 16
_cell_length_a 8.280527
_cell_length_b 17.905833
_cell_length_c 11.331516
_cell_angle_alpha 58.132087
_cell_angle_beta 93.848352
_cell_angle_gamma 47.120562
_cell_volume 761.641734
_symmetry_space_group_name_H-M "P -1"
_symmetry_group_IT_number 2
_symmetry_cell_setting 'triclinic'
loop_
_space_group_symop_operation_xyz
x,y,z
-x,-y,-z
loop_
_atom_site_type_symbol
_atom_site_label
_atom_site_fract_x
_atom_site_fract_y
_atom_site_fract_z
Si Si1 0.553919 0.019317 0.860048
Si Si2 0.876474 0.591564 0.793086
Si Si3 0.772680 0.137298 0.551862
Si Si4 0.664406 0.167402 0.785297
Si Si5 0.070226 0.811646 0.880522
Si Si6 0.357513 0.955251 0.757902
Si Si7 0.212457 0.191064 0.291498
Si Si8 0.407112 0.321772 0.876852
O O1 0.350730 0.054699 0.731795
O O2 0.885840 0.861377 0.945385
O O3 0.514295 0.141493 0.771593
O O4 0.500000 0.000000 0.000000
O O5 0.532828 0.717792 0.656175
O O6 0.881047 0.695819 0.710961
O O7 0.077806 0.470158 0.793106
O O8 0.000000 0.500000 0.000000
O O9 0.709629 0.190677 0.641112
O O10 0.889711 0.982629 0.689038
O O11 0.050220 0.070190 0.581414
O O12 0.456094 0.312556 0.748245
O O13 0.000000 0.000000 0.000000
O O14 0.041609 0.753292 0.825295
O O15 0.398540 0.694289 0.030736
O O16 0.640208 0.820294 0.797531
O O17 0.426197 0.848165 0.946539
O O18 0.500000 0.000000 0.500000
#
# Coordination Sequence:
#
# PCOD9091286 Si02
#       8
#     2   2   2   2   2   2   2   2
#     4  10  16  28  58  94 116 148 198 253 294 353
#     4  12  26  41  61  90 129 168 208 261 322 363
#     4  10  21  39  62  93 121 162 214 253 306 380
#     4  11  18  35  65  94 123 160 209 257 301 378
#     4   9  20  35  61  91 116 155 210 254 295 375
#     4  10  20  35  62  92 116 160 213 256 300 371
#     4  11  22  40  63  88 120 162 216 264 303 365
#     4  11  21  38  60  93 128 162 203 253 323 371
#
# _framework density 21.007252999999999
#
# number of rings (size 3 to 8) (size 9 to 14) (size 15 to 20)
#    0.000    1.500    7.500    0.000    0.000    2.500 
#    0.000    0.000    0.000    0.750    0.000    0.000 
#    0.000    0.000    0.000    0.000    0.000    0.000 
#
# Total GULP energy -89288.725892 kJ/mol
# GULP energy per Si atom -5580.545368 kJ/mol
# Density = 2.095944 g / cm^3
# Si number density = 21.007253 Si / 1000 Ang^3
#
#
#
# Elastic Constant Matrix: (Units=GPa)
#
#
# Indices 1 2 3 4 5 6 
#
# 1 102.6070 11.5328 11.4983 -5.0603 25.8181 15.0556
# 2 11.5328 76.0581 8.4311 -5.0019 7.7857 16.9304
# 3 11.4983 8.4311 44.4778 1.0622 11.5384 10.0864
# 4 -5.0603 -5.0019 1.0622 20.4883 -3.3173 0.8347
# 5 25.8181 7.7857 11.5384 -3.3173 30.7785 11.3402
# 6 15.0556 16.9304 10.0864 0.8347 11.3402 30.5117
#
#
#
# Elastic Compliance Matrix: (Units=1/GPa)
#
#
# Indices 1 2 3 4 5 6 
#
# 1 0.012599 -0.000245 -0.000256 0.001669 -0.009274 -0.002595
# 2 -0.000245 0.015394 -0.001142 0.004128 0.000220 -0.008238
# 3 -0.000256 -0.001142 0.025939 -0.002739 -0.007721 -0.004870
# 4 0.001669 0.004128 -0.002739 0.051643 0.006353 -0.005983
# 5 -0.009274 0.000220 -0.007721 0.006353 0.047825 -0.010942
# 6 -0.002595 -0.008238 -0.004870 -0.005983 -0.010942 0.044466
#
#
# Mechanical properties :
#
#
# Convention : Reuss Voigt Hill
#
# Bulk Modulus (GPa) = 19.74528 31.78526 25.76527
# Shear Modulus (GPa) = 22.93213 29.13441 26.03327
#
# Velocity S-wave (km/s) = 3.30757 3.72812 3.52412
# Velocity P-wave (km/s) = 4.89963 5.80476 5.37129
#
# Compressibility (1/GPa) = 0.05064502
#
# Stress axis : x y z
#
# Youngs Moduli (GPa) = 79.37223 64.95856 38.55248
#
# Poissons Ratio (x) = 0.01593 0.00987
# Poissons Ratio (y) = 0.01947 0.04403
# Poissons Ratio (z) = 0.02032 0.07419
#
# Static dielectric constant tensor:
#      x y z
#    x 1.791910 -0.008850 -0.036430 
#    y -0.008850 1.798600 0.039750 
#    z -0.036430 0.039750 1.793670 
# 
# From -- ./inp_files/203287.got.cif
#   From: 2010.05.17/outbox.cif.g08.bks.cpg/sg2_102_cif.got.tgz:203287.got - 2010.06.03 11:33:40.
