data_PCOD9091027
_publ_section_title
;
Structure prediction by ZEFSAII (Michael W. Deem and Ramdas Pophale) SiO2 
 PCOD9091027
Probable space group: P -1
;
_chemical_formula_sum "Si O2"
_cell_formula_units_Z 16
_cell_length_a 10.412648
_cell_length_b 8.217383
_cell_length_c 10.484444
_cell_angle_alpha 85.411536
_cell_angle_beta 104.137573
_cell_angle_gamma 111.806885
_cell_volume 807.618829
_symmetry_space_group_name_H-M "P -1"
_symmetry_group_IT_number 2
_symmetry_cell_setting 'triclinic'
loop_
_space_group_symop_operation_xyz
x,y,z
-x,-y,-z
loop_
_atom_site_type_symbol
_atom_site_label
_atom_site_fract_x
_atom_site_fract_y
_atom_site_fract_z
Si Si1 0.874016 0.431192 0.582179
Si Si2 0.137117 0.147566 0.966507
Si Si3 0.178257 0.221211 0.443607
Si Si4 0.684759 0.169874 0.137513
Si Si5 0.371397 0.049478 0.127151
Si Si6 0.339237 0.961456 0.413871
Si Si7 0.941609 0.522292 0.121983
Si Si8 0.863516 0.993430 0.303354
O O1 0.791929 0.570445 0.561231
O O2 0.770324 0.227874 0.550402
O O3 0.000000 0.500000 0.500000
O O4 0.947656 0.436483 0.737482
O O5 0.112878 0.323079 0.927250
O O6 0.155069 0.084835 0.835260
O O7 0.269602 0.159169 0.084357
O O8 0.000000 0.000000 0.000000
O O9 0.155194 0.152867 0.587259
O O10 0.280075 0.120134 0.420791
O O11 0.022319 0.135699 0.346053
O O12 0.534815 0.171532 0.145007
O O13 0.810269 0.352100 0.139737
O O14 0.739738 0.072271 0.267619
O O15 0.662713 0.077206 0.997810
O O16 0.343317 0.951207 0.261068
O O17 0.500000 0.000000 0.500000
O O18 0.000000 0.500000 0.000000
#
# Coordination Sequence:
#
# PCOD9091027 Si02
#       8
#     2   2   2   2   2   2   2   2
#     4  12  26  44  70 105 134 174 237 286 332 415
#     4  11  22  38  62  91 132 168 216 274 333 395
#     4  11  22  39  69  95 131 180 223 272 338 408
#     4  10  21  41  68  94 131 173 216 277 337 406
#     4  10  23  42  64  93 132 177 219 265 347 408
#     4  12  27  45  67  97 141 182 222 280 345 404
#     4  12  24  39  68 101 128 165 226 285 328 394
#     4  10  19  39  62  95 128 168 217 272 336 391
#
# _framework density 19.811326999999999
#
# number of rings (size 3 to 8) (size 9 to 14) (size 15 to 20)
#    0.000    1.000    1.250    7.500    3.500    1.000 
#    0.000    0.000    0.000    0.000    0.000    0.000 
#    0.000    0.000    0.000    0.000    0.000    0.000 
#
# Total GULP energy -89292.363331 kJ/mol
# GULP energy per Si atom -5580.772708 kJ/mol
# Density = 1.976624 g / cm^3
# Si number density = 19.811327 Si / 1000 Ang^3
#
#
#
# Elastic Constant Matrix: (Units=GPa)
#
#
# Indices 1 2 3 4 5 6 
#
# 1 118.0292 40.4804 49.7472 -4.3498 20.0684 -1.4722
# 2 40.4804 91.9795 36.9176 -12.5731 13.2924 1.0912
# 3 49.7472 36.9176 112.1445 -2.2221 15.8614 -5.9261
# 4 -4.3498 -12.5731 -2.2221 23.1339 -3.7381 7.4902
# 5 20.0684 13.2924 15.8614 -3.7381 39.0582 -4.0801
# 6 -1.4722 1.0912 -5.9261 7.4902 -4.0801 26.6095
#
#
#
# Elastic Compliance Matrix: (Units=1/GPa)
#
#
# Indices 1 2 3 4 5 6 
#
# 1 0.011697 -0.003203 -0.003670 -0.000302 -0.003510 -0.000492
# 2 -0.003203 0.015066 -0.003344 0.008325 -0.001760 -0.004153
# 3 -0.003670 -0.003344 0.012009 -0.002639 -0.001784 0.003078
# 4 -0.000302 0.008325 -0.002639 0.052759 0.001822 -0.015517
# 5 -0.003510 -0.001760 -0.001784 0.001822 0.029265 0.003455
# 6 -0.000492 -0.004153 0.003078 -0.015517 0.003455 0.043307
#
#
# Mechanical properties :
#
#
# Convention : Reuss Voigt Hill
#
# Bulk Modulus (GPa) = 54.53474 64.04926 59.29200
# Shear Modulus (GPa) = 26.22608 30.76085 28.49347
#
# Velocity S-wave (km/s) = 3.64234 3.94469 3.79653
# Velocity P-wave (km/s) = 6.72872 7.29022 7.01509
#
# Compressibility (1/GPa) = 0.01833694
#
# Stress axis : x y z
#
# Youngs Moduli (GPa) = 85.48842 66.37654 83.27354
#
# Poissons Ratio (x) = 0.21262 0.30562
# Poissons Ratio (y) = 0.27384 0.27847
# Poissons Ratio (z) = 0.31375 0.22197
#
# Static dielectric constant tensor:
#      x y z
#    x 1.277780 0.399140 -0.064020 
#    y 0.399140 1.102900 0.041770 
#    z -0.064020 0.041770 1.681130 
# 
# From -- ./inp_files/382066.got.cif
#   From: 2010.05.17/outbox.cif.g08.bks.cpg/sg2_192_cif.got.tgz:382066.got - 2010.06.03 11:33:40.
