data_PCOD9091271
_publ_section_title
;
Structure prediction by ZEFSAII (Michael W. Deem and Ramdas Pophale) SiO2 
 PCOD9091271
Probable space group: P -1
;
_chemical_formula_sum "Si O2"
_cell_formula_units_Z 16
_cell_length_a 16.212561
_cell_length_b 15.669560
_cell_length_c 13.087598
_cell_angle_alpha 30.674931
_cell_angle_beta 148.350848
_cell_angle_gamma 153.746342
_cell_volume 701.681730
_symmetry_space_group_name_H-M "P -1"
_symmetry_group_IT_number 2
_symmetry_cell_setting 'triclinic'
loop_
_space_group_symop_operation_xyz
x,y,z
-x,-y,-z
loop_
_atom_site_type_symbol
_atom_site_label
_atom_site_fract_x
_atom_site_fract_y
_atom_site_fract_z
Si Si1 0.208772 0.677184 0.485243
Si Si2 0.099801 0.990654 0.013269
Si Si3 0.097606 0.524304 0.308974
Si Si4 0.210461 0.827281 0.798041
Si Si5 0.134204 0.254184 0.364306
Si Si6 0.403313 0.691142 0.278708
Si Si7 0.512746 0.379383 0.043580
Si Si8 0.180094 0.333308 0.101759
O O1 0.190823 0.864821 0.259269
O O2 0.204760 0.574743 0.479176
O O3 0.382477 0.717316 0.698104
O O4 0.000000 0.500000 0.500000
O O5 0.287353 0.213933 0.943411
O O6 0.940223 0.881317 0.868365
O O7 0.000000 0.000000 0.000000
O O8 0.271874 0.660199 0.269649
O O9 0.929853 0.286603 0.332488
O O10 0.965972 0.603614 0.107067
O O11 0.043794 0.734250 0.807187
O O12 0.374746 0.083781 0.704543
O O13 0.330271 0.738828 0.048670
O O14 0.322905 0.446291 0.431427
O O15 0.214087 0.304922 0.281957
O O16 0.000000 0.000000 0.500000
O O17 0.500000 0.500000 0.000000
O O18 0.637619 0.508178 0.943087
#
# Coordination Sequence:
#
# PCOD9091271 Si02
#       8
#     2   2   2   2   2   2   2   2
#     4  11  22  42  68  99 136 177 228 283 337 420
#     4  11  23  44  68  99 138 180 223 284 345 406
#     4  10  19  39  64  95 132 166 224 271 342 404
#     4  10  20  39  69  92 130 169 219 282 331 405
#     4  11  23  43  62  95 137 174 217 278 337 407
#     4  10  20  39  67  96 128 170 223 274 333 414
#     4  12  24  46  67  95 135 182 229 291 340 405
#     4  11  22  42  68  93 130 179 224 273 350 406
#
# _framework density 22.802361000000001
#
# number of rings (size 3 to 8) (size 9 to 14) (size 15 to 20)
#    0.000    1.250    6.250    1.125    0.000    3.500 
#   13.500    0.000    0.000    0.000    0.000    0.000 
#    0.000    0.000    0.000    0.000    0.000    0.000 
#
# Total GULP energy -89191.311121 kJ/mol
# GULP energy per Si atom -5574.456945 kJ/mol
# Density = 2.275046 g / cm^3
# Si number density = 22.802361 Si / 1000 Ang^3
#
#
#
# Elastic Constant Matrix: (Units=GPa)
#
#
# Indices 1 2 3 4 5 6 
#
# 1 165.1635 71.6428 25.8002 4.7442 -28.0851 11.4161
# 2 71.6428 182.7208 20.8285 7.2922 -20.2047 12.8462
# 3 25.8002 20.8285 38.5076 -9.8663 2.4552 -3.0763
# 4 4.7442 7.2922 -9.8663 25.3185 -0.4986 3.1638
# 5 -28.0851 -20.2047 2.4552 -0.4986 34.2776 -0.2626
# 6 11.4161 12.8462 -3.0763 3.1638 -0.2626 41.6941
#
#
#
# Elastic Compliance Matrix: (Units=1/GPa)
#
#
# Indices 1 2 3 4 5 6 
#
# 1 0.009347 -0.001826 -0.006782 -0.003457 0.007001 -0.002191
# 2 -0.001826 0.007179 -0.003731 -0.002903 0.002947 -0.001748
# 3 -0.006782 -0.003731 0.037710 0.016279 -0.010186 0.004489
# 4 -0.003457 -0.002903 0.016279 0.047298 -0.005026 -0.000579
# 5 0.007001 0.002947 -0.010186 -0.005026 0.037281 -0.002960
# 6 -0.002191 -0.001748 0.004489 -0.000579 -0.002960 0.025479
#
#
# Mechanical properties :
#
#
# Convention : Reuss Voigt Hill
#
# Bulk Modulus (GPa) = 33.83172 69.21501 51.52336
# Shear Modulus (GPa) = 25.14776 38.13271 31.64023
#
# Velocity S-wave (km/s) = 3.32453 4.09383 3.72907
# Velocity P-wave (km/s) = 5.44112 7.26403 6.41763
#
# Compressibility (1/GPa) = 0.02955806
#
# Stress axis : x y z
#
# Youngs Moduli (GPa) = 106.98352 139.30264 26.51798
#
# Poissons Ratio (x) = 0.25432 0.17985
# Poissons Ratio (y) = 0.19532 0.09894
# Poissons Ratio (z) = 0.72560 0.51974
#
# Static dielectric constant tensor:
#      x y z
#    x 1.846850 -0.079600 0.021830 
#    y -0.079600 1.908100 -0.004470 
#    z 0.021830 -0.004470 1.975240 
# 
# From -- ./inp_files/454544.got.cif
#   From: 2010.05.17/outbox.cif.g08.bks.cpg/sg2_228_cif.got.tgz:454544.got - 2010.06.03 11:33:40.
