data_PCOD9091216
_publ_section_title
;
Structure prediction by ZEFSAII (Michael W. Deem and Ramdas Pophale) SiO2 
 PCOD9091216
Probable space group: P -1
;
_chemical_formula_sum "Si O2"
_cell_formula_units_Z 14
_cell_length_a 7.603373
_cell_length_b 12.887318
_cell_length_c 10.800220
_cell_angle_alpha 100.625977
_cell_angle_beta 44.559794
_cell_angle_gamma 79.888389
_cell_volume 653.533122
_symmetry_space_group_name_H-M "P -1"
_symmetry_group_IT_number 2
_symmetry_cell_setting 'triclinic'
loop_
_space_group_symop_operation_xyz
x,y,z
-x,-y,-z
loop_
_atom_site_type_symbol
_atom_site_label
_atom_site_fract_x
_atom_site_fract_y
_atom_site_fract_z
Si Si1 0.037754 0.717549 0.515786
Si Si2 0.502725 0.761496 0.896381
Si Si3 0.177780 0.594488 0.685047
Si Si4 0.968832 0.003780 0.867488
Si Si5 0.747812 0.508874 0.805419
Si Si6 0.242386 0.911693 0.452094
Si Si7 0.750165 0.829236 0.016023
O O1 0.127446 0.655404 0.589725
O O2 0.098468 0.614167 0.367337
O O3 0.204485 0.793021 0.430199
O O4 0.702951 0.791397 0.711210
O O5 0.602382 0.621864 0.811119
O O6 0.193702 0.857711 0.048629
O O7 0.573911 0.784597 0.005332
O O8 0.500000 0.500000 0.500000
O O9 0.974487 0.530762 0.777410
O O10 0.041701 0.710761 0.867323
O O11 0.187709 0.950998 0.632475
O O12 0.801694 0.923593 0.928236
O O13 0.000000 0.000000 0.000000
O O14 0.500000 0.500000 0.000000
O O15 0.548375 0.888981 0.245808
O O16 0.000000 0.000000 0.500000
#
# Coordination Sequence:
#
# PCOD9091216 Si02
#       7
#     2   2   2   2   2   2   2
#     4  10  20  39  65  91 125 171 230 272 325 411
#     4  10  19  39  64  90 126 177 215 270 334 408
#     4  10  21  40  66  92 136 181 215 277 351 398
#     4  12  25  41  63  97 137 167 217 287 345 396
#     4  10  21  38  62 100 127 164 236 283 318 404
#     4  12  22  40  73  96 127 176 230 274 335 404
#     4  10  21  41  66  93 128 175 232 263 334 416
#
# _framework density 21.422018999999999
#
# number of rings (size 3 to 8) (size 9 to 14) (size 15 to 20)
#    0.000    1.714    4.286    4.714    0.000    2.857 
#    0.000    4.286    0.000    0.000    0.000    0.000 
#    0.000    0.000    0.000    0.000    0.000    0.000 
#
# Total GULP energy -77988.367940 kJ/mol
# GULP energy per Si atom -5570.597710 kJ/mol
# Density = 2.137326 g / cm^3
# Si number density = 21.422019 Si / 1000 Ang^3
#
#
#
# Elastic Constant Matrix: (Units=GPa)
#
#
# Indices 1 2 3 4 5 6 
#
# 1 34.7066 13.4208 26.3545 10.4000 3.7668 -3.3205
# 2 13.4208 54.4388 24.3127 1.7214 -9.3775 8.2626
# 3 26.3545 24.3127 177.0924 -1.6341 0.4405 -3.7139
# 4 10.4000 1.7214 -1.6341 44.0549 2.7215 -1.2522
# 5 3.7668 -9.3775 0.4405 2.7215 38.0292 3.1875
# 6 -3.3205 8.2626 -3.7139 -1.2522 3.1875 23.5339
#
#
#
# Elastic Compliance Matrix: (Units=1/GPa)
#
#
# Indices 1 2 3 4 5 6 
#
# 1 0.040297 -0.010159 -0.004477 -0.008620 -0.006580 0.008978
# 2 -0.010159 0.024997 -0.002179 0.000508 0.008134 -0.011628
# 3 -0.004477 -0.002179 0.006654 0.001450 -0.000385 0.001313
# 4 -0.008620 0.000508 0.001450 0.024827 -0.000837 0.000269
# 5 -0.006580 0.008134 -0.000385 -0.000837 0.029680 -0.007909
# 6 0.008978 -0.011628 0.001313 0.000269 -0.007909 0.049134
#
#
# Mechanical properties :
#
#
# Convention : Reuss Voigt Hill
#
# Bulk Modulus (GPa) = 26.09741 43.82375 34.96058
# Shear Modulus (GPa) = 22.52329 34.60027 28.56178
#
# Velocity S-wave (km/s) = 3.24606 4.02328 3.65539
# Velocity P-wave (km/s) = 5.12427 6.48723 5.84561
#
# Compressibility (1/GPa) = 0.03831797
#
# Stress axis : x y z
#
# Youngs Moduli (GPa) = 24.81562 40.00500 150.28260
#
# Poissons Ratio (x) = 0.40639 0.67284
# Poissons Ratio (y) = 0.25209 0.32753
# Poissons Ratio (z) = 0.11110 0.08719
#
# Static dielectric constant tensor:
#      x y z
#    x 1.862740 0.046530 0.015940 
#    y 0.046530 1.822580 0.100110 
#    z 0.015940 0.100110 1.740110 
# 
# From -- ./inp_files/389636.got.cif
#   From: 2010.05.17/outbox.cif.g08.bks.cpg/sg2_195_cif.got.tgz:389636.got - 2010.06.03 11:33:40.
