data_PCOD9091028
_publ_section_title
;
Structure prediction by ZEFSAII (Michael W. Deem and Ramdas Pophale) SiO2 
 PCOD9091028
Probable space group: P -1
;
_chemical_formula_sum "Si O2"
_cell_formula_units_Z 14
_cell_length_a 17.233618
_cell_length_b 21.109689
_cell_length_c 11.885379
_cell_angle_alpha 25.515364
_cell_angle_beta 23.238053
_cell_angle_gamma 24.960395
_cell_volume 654.353463
_symmetry_space_group_name_H-M "P -1"
_symmetry_group_IT_number 2
_symmetry_cell_setting 'triclinic'
loop_
_space_group_symop_operation_xyz
x,y,z
-x,-y,-z
loop_
_atom_site_type_symbol
_atom_site_label
_atom_site_fract_x
_atom_site_fract_y
_atom_site_fract_z
Si Si1 0.359034 0.341457 0.093640
Si Si2 0.132273 0.398043 0.747044
Si Si3 0.557070 0.740708 0.134805
Si Si4 0.255414 0.579870 0.476635
Si Si5 0.163039 0.138489 0.311522
Si Si6 0.155979 0.307166 0.627972
Si Si7 0.128750 0.874873 0.629463
O O1 0.305834 0.242977 0.420548
O O2 0.123213 0.487384 0.132064
O O3 0.474519 0.248549 0.973470
O O4 0.520828 0.405062 0.831838
O O5 0.218312 0.511510 0.517155
O O6 0.263589 0.315476 0.590263
O O7 0.150830 0.253174 0.037311
O O8 0.739683 0.556281 0.221148
O O9 0.352753 0.758557 0.453294
O O10 0.634467 0.871755 0.867221
O O11 0.054806 0.754938 0.495880
O O12 0.176477 0.972231 0.510208
O O13 0.000000 0.500000 0.500000
O O14 0.010234 0.213872 0.996993
O O15 0.000000 0.000000 0.500000
#
# Coordination Sequence:
#
# PCOD9091028 Si02
#       7
#     2   2   2   2   2   2   2
#     4  11  21  37  64  94 129 165 215 260 321 372
#     4  10  19  39  62  95 130 163 218 267 308 379
#     4  11  21  39  65  98 129 171 219 266 313 391
#     4  11  21  36  69 100 125 170 223 265 311 382
#     4  11  21  39  65  98 131 161 222 275 314 373
#     4  10  23  41  64  94 133 169 212 268 320 388
#     4  12  24  41  67  95 130 172 216 265 327 381
#
# _framework density 21.395166
#
# number of rings (size 3 to 8) (size 9 to 14) (size 15 to 20)
#    0.000    1.143    4.286    4.286    0.000    0.571 
#    0.000    5.000    0.000    0.000    0.000    0.000 
#    0.000    0.000    0.000    0.000    0.000    0.000 
#
# Total GULP energy -78200.296066 kJ/mol
# GULP energy per Si atom -5585.735433 kJ/mol
# Density = 2.134647 g / cm^3
# Si number density = 21.395166 Si / 1000 Ang^3
#
#
#
# Elastic Constant Matrix: (Units=GPa)
#
#
# Indices 1 2 3 4 5 6 
#
# 1 122.3146 26.0952 89.5289 1.0342 -7.7722 40.3156
# 2 26.0952 50.0632 45.3790 1.0250 11.9850 24.9318
# 3 89.5289 45.3790 151.4975 -10.7021 -4.3220 32.6737
# 4 1.0342 1.0250 -10.7021 23.9776 2.1075 0.3950
# 5 -7.7722 11.9850 -4.3220 2.1075 29.5329 7.5414
# 6 40.3156 24.9318 32.6737 0.3950 7.5414 37.6279
#
#
#
# Elastic Compliance Matrix: (Units=1/GPa)
#
#
# Indices 1 2 3 4 5 6 
#
# 1 0.021553 0.006789 -0.010823 -0.006324 0.006759 -0.019481
# 2 0.006789 0.041139 -0.012454 -0.006307 -0.010793 -0.021489
# 3 -0.010823 -0.012454 0.016266 0.007937 0.002719 0.005095
# 4 -0.006324 -0.006307 0.007937 0.045922 -0.002250 0.004032
# 5 0.006759 -0.010793 0.002719 -0.002250 0.043420 -0.011130
# 6 -0.019481 -0.021489 0.005095 0.004032 -0.011130 0.059451
#
#
# Mechanical properties :
#
#
# Convention : Reuss Voigt Hill
#
# Bulk Modulus (GPa) = 21.74696 71.76462 46.75579
# Shear Modulus (GPa) = 18.11232 29.08582 23.59907
#
# Velocity S-wave (km/s) = 2.91273 3.69108 3.32476
# Velocity P-wave (km/s) = 4.63665 7.19588 6.05307
#
# Compressibility (1/GPa) = 0.04598345
#
# Stress axis : x y z
#
# Youngs Moduli (GPa) = 46.39648 24.30790 61.47616
#
# Poissons Ratio (x) = -0.16502 0.66536
# Poissons Ratio (y) = -0.31498 0.76560
# Poissons Ratio (z) = 0.50215 0.30272
#
# Static dielectric constant tensor:
#      x y z
#    x 1.889200 -0.253280 0.033510 
#    y -0.253280 2.649870 -0.038310 
#    z 0.033510 -0.038310 1.833920 
# 
# From -- ./inp_files/209434.got.cif
#   From: 2010.05.17/outbox.cif.g08.bks.cpg/sg2_105_cif.got.tgz:209434.got - 2010.06.03 11:33:40.
