data_PCOD9091105
_publ_section_title
;
Structure prediction by ZEFSAII (Michael W. Deem and Ramdas Pophale) SiO2 
 PCOD9091105
Probable space group: P -1
;
_chemical_formula_sum "Si O2"
_cell_formula_units_Z 14
_cell_length_a 13.479732
_cell_length_b 11.016032
_cell_length_c 7.712038
_cell_angle_alpha 138.711128
_cell_angle_beta 122.600630
_cell_angle_gamma 56.016529
_cell_volume 611.645237
_symmetry_space_group_name_H-M "P -1"
_symmetry_group_IT_number 2
_symmetry_cell_setting 'triclinic'
loop_
_space_group_symop_operation_xyz
x,y,z
-x,-y,-z
loop_
_atom_site_type_symbol
_atom_site_label
_atom_site_fract_x
_atom_site_fract_y
_atom_site_fract_z
Si Si1 0.966068 0.753118 0.063846
Si Si2 0.723368 0.715877 0.959999
Si Si3 0.123209 0.377405 0.643642
Si Si4 0.333498 0.611898 0.660037
Si Si5 0.371421 0.287703 0.598649
Si Si6 0.507897 0.107240 0.887837
Si Si7 0.945039 0.180806 0.403255
O O1 0.033847 0.728295 0.290724
O O2 0.971394 0.956774 0.218098
O O3 0.826128 0.757639 0.977392
O O4 0.030315 0.585790 0.812066
O O5 0.676170 0.541321 0.658836
O O6 0.795475 0.656416 0.142253
O O7 0.604450 0.885078 0.080753
O O8 0.225503 0.340990 0.553942
O O9 0.042123 0.229519 0.417836
O O10 0.391202 0.477394 0.732916
O O11 0.193378 0.729786 0.691676
O O12 0.407197 0.759896 0.832770
O O13 0.444434 0.212111 0.762689
O O14 0.416236 0.106653 0.318939
#
# Coordination Sequence:
#
# PCOD9091105 Si02
#       7
#     2   2   2   2   2   2   2
#     4  10  19  39  63  91 124 156 194 244 305 360
#     4  10  20  40  66  89 120 155 200 254 297 343
#     4  10  19  42  63  86 125 161 194 240 301 367
#     4  12  22  39  63  96 119 151 206 255 294 348
#     4  10  25  43  62  83 123 169 196 241 304 355
#     4  10  24  45  60  86 122 162 204 243 297 363
#     4  10  21  35  63  97 120 153 198 248 303 352
#
# _framework density 22.889085000000001
#
# number of rings (size 3 to 8) (size 9 to 14) (size 15 to 20)
#    0.000    1.714    2.857    1.714    2.000    2.286 
#    2.571    5.714    0.000    0.000    0.000    0.000 
#    0.000    0.000    0.000    0.000    0.000    0.000 
#
# Total GULP energy -78334.594231 kJ/mol
# GULP energy per Si atom -5595.328159 kJ/mol
# Density = 2.283699 g / cm^3
# Si number density = 22.889085 Si / 1000 Ang^3
#
#
#
# Elastic Constant Matrix: (Units=GPa)
#
#
# Indices 1 2 3 4 5 6 
#
# 1 149.5512 34.5661 64.9390 30.5277 -0.2741 -27.2350
# 2 34.5661 94.9207 14.4201 5.3525 4.1959 -11.3173
# 3 64.9390 14.4201 78.0113 12.6492 16.3412 -8.5414
# 4 30.5277 5.3525 12.6492 45.6156 2.2497 -5.0301
# 5 -0.2741 4.1959 16.3412 2.2497 29.5064 2.1483
# 6 -27.2350 -11.3173 -8.5414 -5.0301 2.1483 40.4316
#
#
#
# Elastic Compliance Matrix: (Units=1/GPa)
#
#
# Indices 1 2 3 4 5 6 
#
# 1 0.014565 -0.002879 -0.011485 -0.005966 0.006962 0.005467
# 2 -0.002879 0.011733 0.000797 0.000632 -0.002309 0.001715
# 3 -0.011485 0.000797 0.024800 0.001252 -0.013950 -0.001377
# 4 -0.005966 0.000632 0.001252 0.025603 -0.002773 -0.000245
# 5 0.006962 -0.002309 -0.013950 -0.002773 0.042330 -0.001498
# 6 0.005467 0.001715 -0.001377 -0.000245 -0.001498 0.028654
#
#
# Mechanical properties :
#
#
# Convention : Reuss Voigt Hill
#
# Bulk Modulus (GPa) = 41.72837 61.14818 51.43827
# Shear Modulus (GPa) = 27.35106 37.01460 32.18283
#
# Velocity S-wave (km/s) = 3.46054 4.02572 3.75378
# Velocity P-wave (km/s) = 5.85127 6.95568 6.42724
#
# Compressibility (1/GPa) = 0.02396451
#
# Stress axis : x y z
#
# Youngs Moduli (GPa) = 68.65684 85.22723 40.32237
#
# Poissons Ratio (x) = 0.24535 0.46310
# Poissons Ratio (y) = 0.19765 -0.03212
# Poissons Ratio (z) = 0.78851 -0.06789
#
# Static dielectric constant tensor:
#      x y z
#    x 1.829980 0.004660 -0.043050 
#    y 0.004660 1.869830 -0.060900 
#    z -0.043050 -0.060900 1.834790 
# 
# From -- ./inp_files/88997.got.cif
#   From: 2010.05.17/outbox.cif.g08.bks.cpg/sg2_45_cif.got.tgz:88997.got - 2010.06.03 11:33:40.
