data_PCOD9091918
_publ_section_title
;
Structure prediction by ZEFSAII (Michael W. Deem and Ramdas Pophale) SiO2 
 PCOD9091918
Probable space group: P -1
;
_chemical_formula_sum "Si O2"
_cell_formula_units_Z 16
_cell_length_a 7.562645
_cell_length_b 9.141947
_cell_length_c 15.318437
_cell_angle_alpha 119.651842
_cell_angle_beta 80.474741
_cell_angle_gamma 130.478328
_cell_volume 680.403141
_symmetry_space_group_name_H-M "P -1"
_symmetry_group_IT_number 2
_symmetry_cell_setting 'triclinic'
loop_
_space_group_symop_operation_xyz
x,y,z
-x,-y,-z
loop_
_atom_site_type_symbol
_atom_site_label
_atom_site_fract_x
_atom_site_fract_y
_atom_site_fract_z
Si Si1 0.238889 0.911353 0.574775
Si Si2 0.589834 0.365216 0.952149
Si Si3 0.422421 0.191577 0.486656
Si Si4 0.783482 0.000485 0.740723
Si Si5 0.249365 0.492477 0.831822
Si Si6 0.427297 0.937146 0.885917
Si Si7 0.386091 0.593152 0.229840
Si Si8 0.806601 0.645561 0.660528
O O1 0.366759 0.814354 0.518282
O O2 0.002258 0.732593 0.596403
O O3 0.214357 0.997499 0.511298
O O4 0.423473 0.143786 0.682592
O O5 0.375942 0.095642 0.904459
O O6 0.703641 0.420343 0.863441
O O7 0.500000 0.500000 0.000000
O O8 0.753556 0.452217 0.049858
O O9 0.356568 0.140099 0.376430
O O10 0.542789 0.438031 0.582573
O O11 0.843571 0.863759 0.742785
O O12 0.639772 0.022675 0.827338
O O13 0.015642 0.240277 0.759671
O O14 0.471549 0.498175 0.807083
O O15 0.272272 0.670690 0.822267
O O16 0.500000 0.000000 0.000000
O O17 0.187181 0.454905 0.280018
#
# Coordination Sequence:
#
# PCOD9091918 Si02
#       8
#     2   2   2   2   2   2   2   2
#     4  10  21  42  63  91 130 170 215 271 318 385
#     4   9  20  39  66  90 126 171 211 262 320 378
#     4  10  24  40  62  93 134 170 218 268 322 382
#     4  12  23  40  66  97 130 176 213 267 327 383
#     4  10  21  40  64  92 131 168 215 265 321 382
#     4  10  22  41  64  93 129 166 212 266 320 378
#     4  10  19  40  63  92 128 170 212 270 317 379
#     4  11  22  39  67  94 129 172 222 266 325 384
#
# _framework density 23.515470000000001
#
# number of rings (size 3 to 8) (size 9 to 14) (size 15 to 20)
#    0.000    1.750    2.500    1.500    0.000    3.500 
#    0.000   10.625    0.000    0.000    0.000    0.000 
#    0.000    0.000    0.000    0.000    0.000    0.000 
#
# Total GULP energy -89347.140947 kJ/mol
# GULP energy per Si atom -5584.196309 kJ/mol
# Density = 2.346195 g / cm^3
# Si number density = 23.515470 Si / 1000 Ang^3
#
#
#
# Elastic Constant Matrix: (Units=GPa)
#
#
# Indices 1 2 3 4 5 6 
#
# 1 44.4862 40.8361 13.3582 -1.8406 -2.6758 -17.2725
# 2 40.8361 187.4551 21.7189 -6.6198 -10.7054 -20.2974
# 3 13.3582 21.7189 74.4964 -20.3880 -15.6881 -3.1153
# 4 -1.8406 -6.6198 -20.3880 52.3667 -3.4295 -14.4084
# 5 -2.6758 -10.7054 -15.6881 -3.4295 13.7433 1.3798
# 6 -17.2725 -20.2974 -3.1153 -14.4084 1.3798 31.2553
#
#
#
# Elastic Compliance Matrix: (Units=1/GPa)
#
#
# Indices 1 2 3 4 5 6 
#
# 1 0.035290 -0.005362 -0.003335 0.003986 -0.001886 0.017609
# 2 -0.005362 0.007063 0.000713 0.001997 0.005532 0.002371
# 3 -0.003335 0.000713 0.023756 0.012683 0.029634 0.005526
# 4 0.003986 0.001997 0.012683 0.030863 0.022705 0.017989
# 5 -0.001886 0.005532 0.029634 0.022705 0.115104 0.010889
# 6 0.017609 0.002371 0.005526 0.017989 0.010889 0.051628
#
#
# Mechanical properties :
#
#
# Convention : Reuss Voigt Hill
#
# Bulk Modulus (GPa) = 19.94321 50.91823 35.43072
# Shear Modulus (GPa) = 16.86984 34.84138 25.85561
#
# Velocity S-wave (km/s) = 2.68133 3.85338 3.31949
# Velocity P-wave (km/s) = 4.25268 6.44190 5.45818
#
# Compressibility (1/GPa) = 0.05014237
#
# Stress axis : x y z
#
# Youngs Moduli (GPa) = 28.33638 141.57846 42.09375
#
# Poissons Ratio (x) = 0.75911 0.14037
# Poissons Ratio (y) = 0.15193 -0.03000
# Poissons Ratio (z) = 0.09450 -0.10090
#
# Static dielectric constant tensor:
#      x y z
#    x 1.945740 -0.013460 -0.004060 
#    y -0.013460 1.901390 -0.004510 
#    z -0.004060 -0.004510 1.920200 
# 
# From -- ./inp_files/208179.got.cif
#   From: 2010.05.17/outbox.cif.g08.bks.cpg/sg2_105_cif.got.tgz:208179.got - 2010.06.03 11:33:40.
