data_PCOD9091665
_publ_section_title
;
Structure prediction by ZEFSAII (Michael W. Deem and Ramdas Pophale) SiO2 
 PCOD9091665
Probable space group: P -1
;
_chemical_formula_sum "Si O2"
_cell_formula_units_Z 14
_cell_length_a 18.012004
_cell_length_b 18.019616
_cell_length_c 12.375693
_cell_angle_alpha 19.911901
_cell_angle_beta 141.332888
_cell_angle_gamma 152.020704
_cell_volume 610.187386
_symmetry_space_group_name_H-M "P -1"
_symmetry_group_IT_number 2
_symmetry_cell_setting 'triclinic'
loop_
_space_group_symop_operation_xyz
x,y,z
-x,-y,-z
loop_
_atom_site_type_symbol
_atom_site_label
_atom_site_fract_x
_atom_site_fract_y
_atom_site_fract_z
Si Si1 0.856241 0.815765 0.675024
Si Si2 0.511496 0.545285 0.580469
Si Si3 0.265097 0.857219 0.219130
Si Si4 0.841711 0.955378 0.862858
Si Si5 0.109994 0.524581 0.699281
Si Si6 0.011767 0.719650 0.629441
Si Si7 0.328034 0.625810 0.414319
O O1 0.699841 0.751527 0.548015
O O2 0.939996 0.016646 0.602413
O O3 0.804544 0.505069 0.070441
O O4 0.000000 0.000000 0.500000
O O5 0.500000 0.500000 0.500000
O O6 0.450061 0.686712 0.376842
O O7 0.393962 0.189179 0.965042
O O8 0.197481 0.591625 0.592184
O O9 0.342340 0.842110 0.220962
O O10 0.090381 0.757199 0.131327
O O11 0.862469 0.185192 0.650469
O O12 0.852962 0.084485 0.581577
O O13 0.694218 0.611474 0.205895
O O14 0.000000 0.000000 0.000000
O O15 0.837609 0.526074 0.634437
O O16 0.000000 0.500000 0.000000
#
# Coordination Sequence:
#
# PCOD9091665 Si02
#       7
#     2   2   2   2   2   2   2
#     4  12  27  46  68  99 138 186 236 296 360 422
#     4  12  28  48  68  99 145 186 234 298 361 426
#     4  11  23  42  75 105 137 184 232 284 357 413
#     4  10  19  39  69 106 137 182 234 286 341 421
#     4  11  21  41  76 105 140 182 239 286 342 428
#     4  11  23  41  69 103 141 180 240 288 345 420
#     4  11  23  46  71 104 141 185 240 290 355 426
#
# _framework density 22.943771000000002
#
# number of rings (size 3 to 8) (size 9 to 14) (size 15 to 20)
#    0.000    0.857    4.286    4.286    6.000    1.143 
#    5.143    1.429    0.000    0.000    0.000    0.000 
#    0.000    0.000    0.000    0.000    0.000    0.000 
#
# Total GULP energy -78093.074074 kJ/mol
# GULP energy per Si atom -5578.076720 kJ/mol
# Density = 2.289155 g / cm^3
# Si number density = 22.943771 Si / 1000 Ang^3
#
#
#
# Elastic Constant Matrix: (Units=GPa)
#
#
# Indices 1 2 3 4 5 6 
#
# 1 179.8190 35.6889 39.1643 1.3795 -7.8186 -7.9188
# 2 35.6889 42.0029 16.7137 0.8172 7.2649 -3.0880
# 3 39.1643 16.7137 101.4046 20.2726 -8.6538 1.8473
# 4 1.3795 0.8172 20.2726 35.2528 -12.3473 1.4080
# 5 -7.8186 7.2649 -8.6538 -12.3473 49.0245 -1.6716
# 6 -7.9188 -3.0880 1.8473 1.4080 -1.6716 30.0280
#
#
#
# Elastic Compliance Matrix: (Units=1/GPa)
#
#
# Indices 1 2 3 4 5 6 
#
# 1 0.007278 -0.005649 -0.002070 0.001718 0.002116 0.001503
# 2 -0.005649 0.031160 -0.003351 -0.000833 -0.006265 0.001611
# 3 -0.002070 -0.003351 0.012660 -0.006848 0.000632 -0.001313
# 4 0.001718 -0.000833 -0.006848 0.035078 0.008009 -0.000410
# 5 0.002116 -0.006265 0.000632 0.008009 0.023821 0.000826
# 6 0.001503 0.001611 -0.001313 -0.000410 0.000826 0.034010
#
#
# Mechanical properties :
#
#
# Convention : Reuss Voigt Hill
#
# Bulk Modulus (GPa) = 34.53452 56.26226 45.39839
# Shear Modulus (GPa) = 28.44110 38.30504 33.37307
#
# Velocity S-wave (km/s) = 3.52462 4.09041 3.81801
# Velocity P-wave (km/s) = 5.62569 6.84716 6.26626
#
# Compressibility (1/GPa) = 0.02895654
#
# Stress axis : x y z
#
# Youngs Moduli (GPa) = 137.39491 32.09251 78.98746
#
# Poissons Ratio (x) = 0.18131 0.16351
# Poissons Ratio (y) = 0.77621 0.26472
# Poissons Ratio (z) = 0.28441 0.10756
#
# Static dielectric constant tensor:
#      x y z
#    x 1.939850 -0.025780 -0.058120 
#    y -0.025780 1.826440 -0.010140 
#    z -0.058120 -0.010140 2.016680 
# 
# From -- ./inp_files/466513.got.cif
#   From: 2010.05.17/outbox.cif.g08.bks.cpg/sg2_234_cif.got.tgz:466513.got - 2010.06.03 11:33:40.
