data_PCOD9091377
_publ_section_title
;
Structure prediction by ZEFSAII (Michael W. Deem and Ramdas Pophale) SiO2 
 PCOD9091377
Probable space group: P -1
;
_chemical_formula_sum "Si O2"
_cell_formula_units_Z 14
_cell_length_a 12.043776
_cell_length_b 9.829010
_cell_length_c 10.560887
_cell_angle_alpha 40.407709
_cell_angle_beta 49.427249
_cell_angle_gamma 42.722514
_cell_volume 537.908498
_symmetry_space_group_name_H-M "P -1"
_symmetry_group_IT_number 2
_symmetry_cell_setting 'triclinic'
loop_
_space_group_symop_operation_xyz
x,y,z
-x,-y,-z
loop_
_atom_site_type_symbol
_atom_site_label
_atom_site_fract_x
_atom_site_fract_y
_atom_site_fract_z
Si Si1 0.284699 0.024634 0.977911
Si Si2 0.487093 0.710633 0.536170
Si Si3 0.227170 0.186510 0.651353
Si Si4 0.403912 0.456068 0.986608
Si Si5 0.914681 0.424612 0.223684
Si Si6 0.278719 0.814154 0.390140
Si Si7 0.882298 0.651417 0.641523
O O1 0.472665 0.806466 0.979317
O O2 0.216778 0.973971 0.195261
O O3 0.212133 0.025456 0.889258
O O4 0.236133 0.304863 0.822116
O O5 0.601410 0.805110 0.454943
O O6 0.383125 0.649471 0.759852
O O7 0.387990 0.861162 0.379623
O O8 0.606844 0.445325 0.578135
O O9 0.206869 0.155976 0.539385
O O10 0.067039 0.448352 0.604925
O O11 0.500000 0.500000 0.000000
O O12 0.237466 0.459970 0.157000
O O13 0.839445 0.248736 0.391095
O O14 0.061870 0.283088 0.316592
O O15 0.000000 0.500000 0.000000
#
# Coordination Sequence:
#
# PCOD9091377 Si02
#       7
#     2   2   2   2   2   2   2
#     4  10  24  42  68  98 128 175 230 261 332 396
#     4  10  19  39  65  94 133 175 216 272 331 378
#     4  10  20  41  66  91 134 176 218 273 328 388
#     4  11  22  41  67  99 133 172 218 276 325 394
#     4  11  23  46  69  96 136 177 216 276 330 393
#     4  10  21  40  66  95 133 172 218 276 323 389
#     4  10  21  40  66  94 135 170 216 274 335 379
#
# _framework density 26.026731000000002
#
# number of rings (size 3 to 8) (size 9 to 14) (size 15 to 20)
#    0.000    1.714    4.286    0.857    0.000    1.714 
#    5.143    6.429    0.000    0.000    0.000    0.000 
#    0.000    0.000    0.000    0.000    0.000    0.000 
#
# Total GULP energy -78127.745430 kJ/mol
# GULP energy per Si atom -5580.553245 kJ/mol
# Density = 2.596749 g / cm^3
# Si number density = 26.026731 Si / 1000 Ang^3
#
#
#
# Elastic Constant Matrix: (Units=GPa)
#
#
# Indices 1 2 3 4 5 6 
#
# 1 153.6230 32.3417 86.6856 10.7041 18.2730 -17.7461
# 2 32.3417 93.6398 47.8687 -25.9328 -4.8701 -5.2126
# 3 86.6856 47.8687 210.5427 -0.6118 38.7545 -5.8035
# 4 10.7041 -25.9328 -0.6118 41.2127 -1.5754 10.5986
# 5 18.2730 -4.8701 38.7545 -1.5754 57.3218 -0.4739
# 6 -17.7461 -5.2126 -5.8035 10.5986 -0.4739 30.1066
#
#
#
# Elastic Compliance Matrix: (Units=1/GPa)
#
#
# Indices 1 2 3 4 5 6 
#
# 1 0.010564 -0.003797 -0.002965 -0.007174 -0.001821 0.007495
# 2 -0.003797 0.017486 -0.003488 0.013295 0.005383 -0.004479
# 3 -0.002965 -0.003488 0.007577 -0.001360 -0.004515 -0.000483
# 4 -0.007174 0.013295 -0.001360 0.038722 0.005270 -0.015738
# 5 -0.001821 0.005383 -0.004515 0.005270 0.021660 -0.002526
# 6 0.007495 -0.004479 -0.000483 -0.015738 -0.002526 0.042265
#
#
# Mechanical properties :
#
#
# Convention : Reuss Voigt Hill
#
# Bulk Modulus (GPa) = 66.10604 87.95527 77.03066
# Shear Modulus (GPa) = 30.52155 45.12218 37.82186
#
# Velocity S-wave (km/s) = 3.42819 4.16827 3.81621
# Velocity P-wave (km/s) = 6.41283 7.55206 7.00564
#
# Compressibility (1/GPa) = 0.01512721
#
# Stress axis : x y z
#
# Youngs Moduli (GPa) = 94.65720 57.18749 131.97070
#
# Poissons Ratio (x) = 0.21715 0.39135
# Poissons Ratio (y) = 0.35943 0.46029
# Poissons Ratio (z) = 0.28070 0.19946
#
# Static dielectric constant tensor:
#      x y z
#    x 2.303790 0.029780 -0.048430 
#    y 0.029780 2.287120 0.083240 
#    z -0.048430 0.083240 2.075040 
# 
# From -- ./inp_files/424886.got.cif
#   From: 2010.05.17/outbox.cif.g08.bks.cpg/sg2_213_cif.got.tgz:424886.got - 2010.06.03 11:33:40.
