data_PCOD9091205
_publ_section_title
;
Structure prediction by ZEFSAII (Michael W. Deem and Ramdas Pophale) SiO2 
 PCOD9091205
Probable space group: P -1
;
_chemical_formula_sum "Si O2"
_cell_formula_units_Z 16
_cell_length_a 13.667958
_cell_length_b 7.911976
_cell_length_c 13.075539
_cell_angle_alpha 93.072148
_cell_angle_beta 149.938795
_cell_angle_gamma 88.057772
_cell_volume 707.067154
_symmetry_space_group_name_H-M "P -1"
_symmetry_group_IT_number 2
_symmetry_cell_setting 'triclinic'
loop_
_space_group_symop_operation_xyz
x,y,z
-x,-y,-z
loop_
_atom_site_type_symbol
_atom_site_label
_atom_site_fract_x
_atom_site_fract_y
_atom_site_fract_z
Si Si1 0.623861 0.437821 0.015261
Si Si2 0.403604 0.775778 0.379382
Si Si3 0.290379 0.918321 0.834994
Si Si4 0.041536 0.421705 0.799325
Si Si5 0.732151 0.538139 0.658480
Si Si6 0.415529 0.993132 0.596678
Si Si7 0.906710 0.091780 0.563676
Si Si8 0.554370 0.641422 0.767820
O O1 0.657421 0.240753 0.053084
O O2 0.841924 0.514038 0.193454
O O3 0.500000 0.500000 0.000000
O O4 0.511018 0.519186 0.820741
O O5 0.626421 0.709208 0.597741
O O6 0.255405 0.614061 0.252204
O O7 0.354891 0.907372 0.429534
O O8 0.428616 0.863251 0.294149
O O9 0.186307 0.873908 0.630552
O O10 0.128458 0.032920 0.746572
O O11 0.500000 0.000000 0.000000
O O12 0.918352 0.554087 0.755534
O O13 0.911516 0.262270 0.640654
O O14 0.212123 0.362505 0.026994
O O15 0.568420 0.447579 0.434653
O O16 0.231005 0.040360 0.500873
O O17 0.505733 0.838172 0.736463
#
# Coordination Sequence:
#
# PCOD9091205 Si02
#       8
#     2   2   2   2   2   2   2   2
#     4  10  22  40  62  90 121 160 205 253 301 364
#     4   9  20  35  66  91 119 163 205 256 302 367
#     4  11  26  43  61  95 126 159 206 255 300 372
#     4  10  22  39  65  86 122 165 205 249 303 370
#     4  10  19  41  61  88 126 159 206 252 309 359
#     4  10  19  39  64  89 124 163 202 250 314 355
#     4  11  23  41  65  88 125 167 198 255 309 359
#     4   9  21  38  59  89 122 162 197 251 310 353
#
# _framework density 22.628685999999998
#
# number of rings (size 3 to 8) (size 9 to 14) (size 15 to 20)
#    0.750    1.250    2.500    1.500    3.500    1.500 
#    2.250    6.250    0.000    0.000    0.000    0.000 
#    0.000    0.000    0.000    0.000    0.000    0.000 
#
# Total GULP energy -89114.322612 kJ/mol
# GULP energy per Si atom -5569.645163 kJ/mol
# Density = 2.257718 g / cm^3
# Si number density = 22.628686 Si / 1000 Ang^3
#
#
#
# Elastic Constant Matrix: (Units=GPa)
#
#
# Indices 1 2 3 4 5 6 
#
# 1 131.7437 24.7026 26.8737 -14.1043 19.5496 14.9584
# 2 24.7026 66.0553 15.9170 -20.3621 -10.8062 21.4161
# 3 26.8737 15.9170 69.4563 -10.4526 3.3044 5.4069
# 4 -14.1043 -20.3621 -10.4526 30.9246 -0.3988 -4.1710
# 5 19.5496 -10.8062 3.3044 -0.3988 40.8626 -8.0599
# 6 14.9584 21.4161 5.4069 -4.1710 -8.0599 37.8469
#
#
#
# Elastic Compliance Matrix: (Units=1/GPa)
#
#
# Indices 1 2 3 4 5 6 
#
# 1 0.009985 -0.002590 -0.002516 0.001490 -0.005877 -0.003209
# 2 -0.002590 0.024991 -0.002246 0.013243 0.006182 -0.010021
# 3 -0.002516 -0.002246 0.016346 0.002905 -0.000662 0.000109
# 4 0.001490 0.013243 0.002905 0.042296 0.002308 -0.003345
# 5 -0.005877 0.006182 -0.000662 0.002308 0.030096 0.005583
# 6 -0.003209 -0.010021 0.000109 -0.003345 0.005583 0.034166
#
#
# Mechanical properties :
#
#
# Convention : Reuss Voigt Hill
#
# Bulk Modulus (GPa) = 27.30891 44.69357 36.00124
# Shear Modulus (GPa) = 27.05761 35.24429 31.15095
#
# Velocity S-wave (km/s) = 3.46167 3.95081 3.71430
# Velocity P-wave (km/s) = 5.29830 6.37225 5.85993
#
# Compressibility (1/GPa) = 0.03661809
#
# Stress axis : x y z
#
# Youngs Moduli (GPa) = 100.14706 40.01425 61.17703
#
# Poissons Ratio (x) = 0.10362 0.15395
# Poissons Ratio (y) = 0.25933 0.13742
# Poissons Ratio (z) = 0.25201 0.08988
#
# Static dielectric constant tensor:
#      x y z
#    x 1.975000 0.043940 -0.002660 
#    y 0.043940 1.921460 -0.027900 
#    z -0.002660 -0.027900 1.877670 
# 
# From -- ./inp_files/528509.got.cif
#   From: 2010.05.17/outbox.cif.g08.bks.cpg/sg2_265_cif.got.tgz:528509.got - 2010.06.03 11:33:40.
