data_PCOD9091997
_publ_section_title
;
Structure prediction by ZEFSAII (Michael W. Deem and Ramdas Pophale) SiO2 
 PCOD9091997
Probable space group: P -1
;
_chemical_formula_sum "Si O2"
_cell_formula_units_Z 16
_cell_length_a 12.049908
_cell_length_b 10.178417
_cell_length_c 9.396497
_cell_angle_alpha 78.477447
_cell_angle_beta 129.718917
_cell_angle_gamma 106.680563
_cell_volume 848.956222
_symmetry_space_group_name_H-M "P -1"
_symmetry_group_IT_number 2
_symmetry_cell_setting 'triclinic'
loop_
_space_group_symop_operation_xyz
x,y,z
-x,-y,-z
loop_
_atom_site_type_symbol
_atom_site_label
_atom_site_fract_x
_atom_site_fract_y
_atom_site_fract_z
Si Si1 0.193614 0.881990 0.943195
Si Si2 0.867707 0.826715 0.160211
Si Si3 0.442086 0.356276 0.061017
Si Si4 0.606829 0.132785 0.624757
Si Si5 0.878217 0.820479 0.826887
Si Si6 0.189347 0.904451 0.431605
Si Si7 0.387981 0.874884 0.858858
Si Si8 0.569248 0.637690 0.608414
O O1 0.261664 0.813803 0.883569
O O2 0.035344 0.808986 0.892879
O O3 0.174208 0.033320 0.850390
O O4 0.315676 0.902197 0.162271
O O5 0.026229 0.822056 0.355457
O O6 0.730835 0.703079 0.101010
O O7 0.888752 0.841919 0.001832
O O8 0.528600 0.240021 0.105396
O O9 0.455948 0.371926 0.239882
O O10 0.500000 0.500000 0.000000
O O11 0.737213 0.176724 0.607985
O O12 0.512689 0.246693 0.541714
O O13 0.500000 0.000000 0.500000
O O14 0.744228 0.692543 0.717223
O O15 0.834298 0.954611 0.691152
O O16 0.302641 0.930489 0.648266
O O17 0.500000 0.000000 0.000000
O O18 0.500000 0.500000 0.500000
#
# Coordination Sequence:
#
# PCOD9091997 Si02
#       8
#     2   2   2   2   2   2   2   2
#     4  11  21  37  63  96 126 153 203 261 310 364
#     4  10  19  40  64  94 125 159 205 254 311 362
#     4  11  25  45  61  86 131 169 199 255 312 365
#     4  12  19  37  67  95 117 160 208 258 303 360
#     4  10  20  38  65  95 125 155 203 261 314 354
#     4  11  20  37  65  94 125 159 201 259 313 359
#     4  12  25  40  60  97 129 162 209 251 306 374
#     4  11  25  42  64  93 121 162 215 253 304 370
#
# _framework density 18.846672999999999
#
# number of rings (size 3 to 8) (size 9 to 14) (size 15 to 20)
#    0.000    1.000    6.250    2.250    1.750    2.000 
#    2.250    2.500    0.000    0.000    0.000    0.000 
#    0.000    0.000    0.000    0.000    0.000    0.000 
#
# Total GULP energy -89375.807963 kJ/mol
# GULP energy per Si atom -5585.987998 kJ/mol
# Density = 1.880378 g / cm^3
# Si number density = 18.846673 Si / 1000 Ang^3
#
#
#
# Elastic Constant Matrix: (Units=GPa)
#
#
# Indices 1 2 3 4 5 6 
#
# 1 126.1414 45.7305 32.0485 10.4338 13.2414 8.1493
# 2 45.7305 105.9508 30.6007 18.3637 16.4002 5.2867
# 3 32.0485 30.6007 92.1417 7.4648 21.0682 0.9438
# 4 10.4338 18.3637 7.4648 24.2180 0.1255 -1.9619
# 5 13.2414 16.4002 21.0682 0.1255 28.6025 5.3406
# 6 8.1493 5.2867 0.9438 -1.9619 5.3406 27.2359
#
#
#
# Elastic Compliance Matrix: (Units=1/GPa)
#
#
# Indices 1 2 3 4 5 6 
#
# 1 0.009968 -0.003226 -0.002074 -0.001385 -0.000816 -0.002224
# 2 -0.003226 0.013573 -0.001574 -0.008495 -0.004854 -0.001275
# 3 -0.002074 -0.001574 0.014318 -0.002113 -0.009058 0.002054
# 4 -0.001385 -0.008495 -0.002113 0.049315 0.006010 0.004510
# 5 -0.000816 -0.004854 -0.009058 0.006010 0.046095 -0.007106
# 6 -0.002224 -0.001275 0.002054 0.004510 -0.007106 0.039276
#
#
# Mechanical properties :
#
#
# Convention : Reuss Voigt Hill
#
# Bulk Modulus (GPa) = 41.47669 60.11037 50.79353
# Shear Modulus (GPa) = 25.72921 30.40155 28.06538
#
# Velocity S-wave (km/s) = 3.69885 4.02070 3.86313
# Velocity P-wave (km/s) = 6.34801 7.31562 6.84892
#
# Compressibility (1/GPa) = 0.02410993
#
# Stress axis : x y z
#
# Youngs Moduli (GPa) = 100.32074 73.67685 69.84030
#
# Poissons Ratio (x) = 0.23768 0.14486
# Poissons Ratio (y) = 0.32364 0.10996
# Poissons Ratio (z) = 0.20808 0.11600
#
# Static dielectric constant tensor:
#      x y z
#    x 1.713750 0.020780 -0.006410 
#    y 0.020780 1.624780 0.006170 
#    z -0.006410 0.006170 1.662750 
# 
# From -- ./inp_files/177695.got.cif
#   From: 2010.05.17/outbox.cif.g08.bks.cpg/sg2_89_cif.got.tgz:177695.got - 2010.06.03 11:33:40.
