data_PCOD9091759
_publ_section_title
;
Structure prediction by ZEFSAII (Michael W. Deem and Ramdas Pophale) SiO2 
 PCOD9091759
Probable space group: P -1
;
_chemical_formula_sum "Si O2"
_cell_formula_units_Z 16
_cell_length_a 5.305171
_cell_length_b 14.828458
_cell_length_c 13.197345
_cell_angle_alpha 90.211038
_cell_angle_beta 122.605033
_cell_angle_gamma 99.354638
_cell_volume 857.737693
_symmetry_space_group_name_H-M "P -1"
_symmetry_group_IT_number 2
_symmetry_cell_setting 'triclinic'
loop_
_space_group_symop_operation_xyz
x,y,z
-x,-y,-z
loop_
_atom_site_type_symbol
_atom_site_label
_atom_site_fract_x
_atom_site_fract_y
_atom_site_fract_z
Si Si1 0.147215 0.912733 0.661745
Si Si2 0.696048 0.242740 0.178453
Si Si3 0.171627 0.007661 0.883069
Si Si4 0.849209 0.412756 0.093417
Si Si5 0.881436 0.614707 0.070205
Si Si6 0.895489 0.182215 0.814912
Si Si7 0.564745 0.937870 0.420918
Si Si8 0.007173 0.836537 0.950664
O O1 0.219681 0.814452 0.707552
O O2 0.101491 0.962797 0.757333
O O3 0.866231 0.903338 0.522711
O O4 0.397015 0.988947 0.661590
O O5 0.327020 0.225439 0.099751
O O6 0.822020 0.197181 0.107279
O O7 0.859851 0.348201 0.193706
O O8 0.947996 0.936727 0.907517
O O9 0.131680 0.112209 0.867644
O O10 0.500000 0.000000 0.000000
O O11 0.484222 0.399743 0.999965
O O12 0.999144 0.381913 0.021757
O O13 0.972982 0.521550 0.132528
O O14 0.002155 0.708303 0.157919
O O15 0.679149 0.147021 0.674163
O O16 0.778256 0.161534 0.904942
O O17 0.500000 0.000000 0.500000
#
# Coordination Sequence:
#
# PCOD9091759 Si02
#       8
#     2   2   2   2   2   2   2   2
#     4  10  23  38  56  78 110 162 197 236 288 341
#     4  11  20  37  62  84 119 144 190 237 296 351
#     4  11  22  35  56  86 123 148 189 245 292 353
#     4  10  19  40  55  90 121 147 180 241 305 353
#     4  10  22  34  61  85 121 151 187 231 298 365
#     4  12  20  36  58  81 117 157 197 234 282 354
#     4  11  23  41  52  75 117 160 204 238 275 334
#     4  11  22  34  54  91 112 151 181 233 294 349
#
# _framework density 18.65372
#
# number of rings (size 3 to 8) (size 9 to 14) (size 15 to 20)
#    0.000    1.250    3.750    3.375    1.750    1.000 
#    0.000    0.000    0.000    0.750    0.000    0.875 
#    0.000    0.000    0.000    0.000    0.000    0.000 
#
# Total GULP energy -89098.810015 kJ/mol
# GULP energy per Si atom -5568.675626 kJ/mol
# Density = 1.861126 g / cm^3
# Si number density = 18.653720 Si / 1000 Ang^3
#
#
#
# Elastic Constant Matrix: (Units=GPa)
#
#
# Indices 1 2 3 4 5 6 
#
# 1 77.3033 23.3794 6.2643 6.7856 -1.6959 2.9682
# 2 23.3794 173.3547 46.1674 8.3096 1.4140 6.2919
# 3 6.2643 46.1674 69.1469 6.9367 7.4777 3.3197
# 4 6.7856 8.3096 6.9367 28.8683 0.9550 -3.5051
# 5 -1.6959 1.4140 7.4777 0.9550 24.4327 -7.2941
# 6 2.9682 6.2919 3.3197 -3.5051 -7.2941 28.2102
#
#
#
# Elastic Compliance Matrix: (Units=1/GPa)
#
#
# Indices 1 2 3 4 5 6 
#
# 1 0.013767 -0.001723 0.000181 -0.002961 0.000739 -0.001262
# 2 -0.001723 0.007306 -0.004687 -0.000692 0.000678 -0.000807
# 3 0.000181 -0.004687 0.018749 -0.003382 -0.006285 -0.003225
# 4 -0.002961 -0.000692 -0.003382 0.037009 0.001142 0.005758
# 5 0.000739 0.000678 -0.006285 0.001142 0.046613 0.012705
# 6 -0.001262 -0.000807 -0.003225 0.005758 0.012705 0.040141
#
#
# Mechanical properties :
#
#
# Convention : Reuss Voigt Hill
#
# Bulk Modulus (GPa) = 36.54481 52.38079 44.46280
# Shear Modulus (GPa) = 27.00299 32.56848 29.78574
#
# Velocity S-wave (km/s) = 3.80885 4.18299 4.00030
# Velocity P-wave (km/s) = 6.24314 7.17436 6.72489
#
# Compressibility (1/GPa) = 0.02736366
#
# Stress axis : x y z
#
# Youngs Moduli (GPa) = 72.63665 136.87133 53.33667
#
# Poissons Ratio (x) = 0.23586 -0.00966
# Poissons Ratio (y) = 0.12517 0.25000
# Poissons Ratio (z) = -0.01315 0.64153
#
# Static dielectric constant tensor:
#      x y z
#    x 1.741780 -0.004710 -0.006940 
#    y -0.004710 1.768080 0.008490 
#    z -0.006940 0.008490 1.717240 
# 
# From -- ./inp_files/367827.got.cif
#   From: 2010.05.17/outbox.cif.g08.bks.cpg/sg2_184_cif.got.tgz:367827.got - 2010.06.03 11:33:40.
