data_PCOD9091752
_publ_section_title
;
Structure prediction by ZEFSAII (Michael W. Deem and Ramdas Pophale) SiO2 
 PCOD9091752
Probable space group: P -1
;
_chemical_formula_sum "Si O2"
_cell_formula_units_Z 16
_cell_length_a 11.889528
_cell_length_b 18.978281
_cell_length_c 8.881836
_cell_angle_alpha 48.618885
_cell_angle_beta 48.606514
_cell_angle_gamma 29.025685
_cell_volume 710.318506
_symmetry_space_group_name_H-M "P -1"
_symmetry_group_IT_number 2
_symmetry_cell_setting 'triclinic'
loop_
_space_group_symop_operation_xyz
x,y,z
-x,-y,-z
loop_
_atom_site_type_symbol
_atom_site_label
_atom_site_fract_x
_atom_site_fract_y
_atom_site_fract_z
Si Si1 0.923658 0.617547 0.286899
Si Si2 0.211624 0.725316 0.777199
Si Si3 0.427028 0.805926 0.502740
Si Si4 0.396469 0.340248 0.118918
Si Si5 0.491564 0.089685 0.261627
Si Si6 0.598583 0.422772 0.685578
Si Si7 0.289390 0.079591 0.193833
Si Si8 0.012083 0.225013 0.802568
O O1 0.664027 0.712055 0.327943
O O2 0.000000 0.500000 0.500000
O O3 0.132905 0.513446 0.126674
O O4 0.907378 0.718164 0.264874
O O5 0.250646 0.815503 0.575925
O O6 0.440609 0.560226 0.747155
O O7 0.970584 0.799605 0.817757
O O8 0.177152 0.726797 0.982859
O O9 0.507169 0.720916 0.709732
O O10 0.324883 0.958724 0.402211
O O11 0.409115 0.229187 0.199813
O O12 0.545705 0.339443 0.885868
O O13 0.319434 0.141468 0.207791
O O14 0.500000 0.000000 0.500000
O O15 0.764987 0.953391 0.154699
O O16 0.500000 0.500000 0.500000
O O17 0.873596 0.308386 0.650246
O O18 0.500000 0.000000 0.000000
#
# Coordination Sequence:
#
# PCOD9091752 Si02
#       8
#     2   2   2   2   2   2   2   2
#     4  10  19  39  74 106 131 188 253 283 340 445
#     4  12  25  47  75 102 149 193 243 298 355 438
#     4  11  22  44  75 108 138 192 249 291 358 435
#     4  11  23  44  74 106 144 191 239 295 371 428
#     4  12  25  45  76 107 146 192 237 301 362 429
#     4  12  28  46  70 110 147 188 242 310 364 422
#     4  12  25  46  72 112 145 190 248 294 353 433
#     4  12  23  48  77  97 144 202 240 290 365 437
#
# _framework density 22.525106000000001
#
# number of rings (size 3 to 8) (size 9 to 14) (size 15 to 20)
#    0.000    0.500    6.250    3.000    1.750    1.500 
#    2.250    1.875    0.000    0.000    0.000    0.000 
#    0.000    0.000    0.000    0.000    0.000    0.000 
#
# Total GULP energy -89414.580220 kJ/mol
# GULP energy per Si atom -5588.411264 kJ/mol
# Density = 2.247384 g / cm^3
# Si number density = 22.525106 Si / 1000 Ang^3
#
#
#
# Elastic Constant Matrix: (Units=GPa)
#
#
# Indices 1 2 3 4 5 6 
#
# 1 140.1864 45.1434 31.7831 0.3231 -13.1906 -10.7085
# 2 45.1434 85.0789 9.1327 -8.0516 -2.6398 0.9123
# 3 31.7831 9.1327 89.2642 -14.2725 -9.1550 1.9704
# 4 0.3231 -8.0516 -14.2725 28.1876 4.1175 1.5633
# 5 -13.1906 -2.6398 -9.1550 4.1175 33.0448 -9.7772
# 6 -10.7085 0.9123 1.9704 1.5633 -9.7772 37.9555
#
#
#
# Elastic Compliance Matrix: (Units=1/GPa)
#
#
# Indices 1 2 3 4 5 6 
#
# 1 0.010521 -0.005529 -0.003507 -0.004425 0.004723 0.004682
# 2 -0.005529 0.015039 0.001131 0.005404 -0.002184 -0.002765
# 3 -0.003507 0.001131 0.013635 0.007211 0.001052 -0.001751
# 4 -0.004425 0.005404 0.007211 0.041884 -0.006046 -0.005035
# 5 0.004723 -0.002184 0.001052 -0.006046 0.036248 0.010917
# 6 0.004682 -0.002765 -0.001751 -0.005035 0.010917 0.030844
#
#
# Mechanical properties :
#
#
# Convention : Reuss Voigt Hill
#
# Bulk Modulus (GPa) = 42.76003 54.07200 48.41602
# Shear Modulus (GPa) = 29.10762 35.06893 32.08828
#
# Velocity S-wave (km/s) = 3.59866 3.95002 3.77842
# Velocity P-wave (km/s) = 6.02425 6.69782 6.36995
#
# Compressibility (1/GPa) = 0.02338632
#
# Stress axis : x y z
#
# Youngs Moduli (GPa) = 95.04747 66.49290 73.34021
#
# Poissons Ratio (x) = 0.36761 0.25720
# Poissons Ratio (y) = 0.52547 -0.08294
# Poissons Ratio (z) = 0.33333 -0.07520
#
# Static dielectric constant tensor:
#      x y z
#    x 1.846990 -0.042460 0.008870 
#    y -0.042460 1.859170 0.025140 
#    z 0.008870 0.025140 1.890400 
# 
# From -- ./inp_files/278961.got.cif
#   From: 2010.05.17/outbox.cif.g08.bks.cpg/sg2_140_cif.got.tgz:278961.got - 2010.06.03 11:33:40.
