data_PCOD9091174
_publ_section_title
;
Structure prediction by ZEFSAII (Michael W. Deem and Ramdas Pophale) SiO2 
 PCOD9091174
Probable space group: P -1
;
_chemical_formula_sum "Si O2"
_cell_formula_units_Z 14
_cell_length_a 7.756764
_cell_length_b 11.676025
_cell_length_c 8.113599
_cell_angle_alpha 81.984481
_cell_angle_beta 75.580877
_cell_angle_gamma 59.327737
_cell_volume 612.053223
_symmetry_space_group_name_H-M "P -1"
_symmetry_group_IT_number 2
_symmetry_cell_setting 'triclinic'
loop_
_space_group_symop_operation_xyz
x,y,z
-x,-y,-z
loop_
_atom_site_type_symbol
_atom_site_label
_atom_site_fract_x
_atom_site_fract_y
_atom_site_fract_z
Si Si1 0.839165 0.154519 0.542133
Si Si2 0.422286 0.082807 0.208795
Si Si3 0.744797 0.567755 0.255020
Si Si4 0.559996 0.169683 0.871860
Si Si5 0.409603 0.268676 0.432733
Si Si6 0.979784 0.282449 0.223241
Si Si7 0.437481 0.579597 0.829647
O O1 0.754585 0.173027 0.745601
O O2 0.631890 0.201699 0.478149
O O3 0.927032 0.243536 0.423042
O O4 0.000000 0.000000 0.500000
O O5 0.386370 0.152065 0.379250
O O6 0.203225 0.166073 0.152879
O O7 0.476011 0.932018 0.214050
O O8 0.578389 0.111212 0.060977
O O9 0.641138 0.686128 0.124624
O O10 0.744436 0.637617 0.410169
O O11 0.952431 0.430202 0.203781
O O12 0.583514 0.510980 0.291884
O O13 0.417564 0.364047 0.270682
O O14 0.800094 0.301591 0.136750
O O15 0.500000 0.500000 0.000000
#
# Coordination Sequence:
#
# PCOD9091174 Si02
#       7
#     2   2   2   2   2   2   2
#     4  10  19  39  64  85 113 166 203 246 288 358
#     4  11  22  40  59  90 125 159 193 252 304 360
#     4   9  20  37  61  86 117 157 203 244 291 354
#     4  10  22  37  64  82 124 160 198 241 312 346
#     4  10  21  35  62  85 123 157 200 241 307 356
#     4   9  21  37  65  89 120 154 206 249 290 356
#     4   9  18  36  60  87 115 159 199 247 297 349
#
# _framework density 22.873826000000001
#
# number of rings (size 3 to 8) (size 9 to 14) (size 15 to 20)
#    0.857    1.429    1.429    1.286    2.000    3.429 
#    0.000    0.714   12.571    0.000    0.000    0.000 
#    0.000    0.000    0.000    0.000    0.000    0.000 
#
# Total GULP energy -77972.640056 kJ/mol
# GULP energy per Si atom -5569.474290 kJ/mol
# Density = 2.282176 g / cm^3
# Si number density = 22.873826 Si / 1000 Ang^3
#
#
#
# Elastic Constant Matrix: (Units=GPa)
#
#
# Indices 1 2 3 4 5 6 
#
# 1 31.1592 -0.6690 -1.6450 7.9382 -3.0410 -5.6054
# 2 -0.6690 127.4583 6.3563 -2.2091 -6.5345 0.4234
# 3 -1.6450 6.3563 70.1756 -4.6181 -10.8836 -2.2287
# 4 7.9382 -2.2091 -4.6181 31.8599 10.4520 8.4774
# 5 -3.0410 -6.5345 -10.8836 10.4520 24.1222 11.4604
# 6 -5.6054 0.4234 -2.2287 8.4774 11.4604 36.4797
#
#
#
# Elastic Compliance Matrix: (Units=1/GPa)
#
#
# Indices 1 2 3 4 5 6 
#
# 1 0.037596 0.000294 0.001454 -0.013567 0.008311 0.006404
# 2 0.000294 0.007993 -0.000367 -0.000176 0.002500 -0.000815
# 3 0.001454 -0.000367 0.015463 -0.000387 0.007791 -0.001185
# 4 -0.013567 -0.000176 -0.000387 0.042026 -0.017046 -0.006517
# 5 0.008311 0.002500 0.007791 -0.017046 0.060395 -0.013288
# 6 0.006404 -0.000815 -0.001185 -0.006517 -0.013288 0.034023
#
#
# Mechanical properties :
#
#
# Convention : Reuss Voigt Hill
#
# Bulk Modulus (GPa) = 15.67015 26.31973 20.99494
# Shear Modulus (GPa) = 23.14780 33.47574 28.31177
#
# Velocity S-wave (km/s) = 3.18461 3.82972 3.52196
# Velocity P-wave (km/s) = 4.51530 5.57558 5.07321
#
# Compressibility (1/GPa) = 0.06381560
#
# Stress axis : x y z
#
# Youngs Moduli (GPa) = 26.59867 125.10358 64.67250
#
# Poissons Ratio (x) = -0.03684 -0.09405
# Poissons Ratio (y) = -0.00783 0.02372
# Poissons Ratio (z) = -0.03868 0.04589
#
# Static dielectric constant tensor:
#      x y z
#    x 1.861100 0.020210 -0.012730 
#    y 0.020210 1.886190 0.003900 
#    z -0.012730 0.003900 1.928800 
# 
# From -- ./inp_files/162957.got.cif
#   From: 2010.05.17/outbox.cif.g08.bks.cpg/sg2_82_cif.got.tgz:162957.got - 2010.06.03 11:33:40.
