data_PCOD9091227
_publ_section_title
;
Structure prediction by ZEFSAII (Michael W. Deem and Ramdas Pophale) SiO2 
 PCOD9091227
Probable space group: P -1
;
_chemical_formula_sum "Si O2"
_cell_formula_units_Z 15
_cell_length_a 13.802863
_cell_length_b 8.415956
_cell_length_c 15.736798
_cell_angle_alpha 34.026503
_cell_angle_beta 38.618840
_cell_angle_gamma 55.477507
_cell_volume 621.127095
_symmetry_space_group_name_H-M "P -1"
_symmetry_group_IT_number 2
_symmetry_cell_setting 'triclinic'
loop_
_space_group_symop_operation_xyz
x,y,z
-x,-y,-z
loop_
_atom_site_type_symbol
_atom_site_label
_atom_site_fract_x
_atom_site_fract_y
_atom_site_fract_z
Si Si1 0.865845 0.726712 0.242378
Si Si2 0.306548 0.831391 0.479809
Si Si3 0.383722 0.175161 0.824322
Si Si4 0.328913 0.370739 0.312988
Si Si5 0.327841 0.291891 0.112207
Si Si6 0.867005 0.370255 0.799933
Si Si7 0.500000 0.000000 0.000000
Si Si8 0.553348 0.720351 0.552932
O O1 0.809102 0.479036 0.320114
O O2 0.707415 0.807466 0.350053
O O3 0.948197 0.591982 0.324201
O O4 0.000000 0.000000 0.000000
O O5 0.285772 0.020874 0.491612
O O6 0.280626 0.045492 0.325866
O O7 0.486926 0.810841 0.345161
O O8 0.411719 0.500099 0.698244
O O9 0.443687 0.008040 0.936347
O O10 0.218763 0.970972 0.000075
O O11 0.191428 0.484293 0.308507
O O12 0.384892 0.465293 0.329289
O O13 0.498371 0.479930 0.100341
O O14 0.205448 0.494856 0.128121
O O15 0.340802 0.128000 0.087573
O O16 0.500000 0.000000 0.500000
#
# Coordination Sequence:
#
# PCOD9091227 Si02
#       8
#     2   2   2   2   2   2   1   2
#     4  11  28  46  61  92 140 179 217 267 330 391
#     4   9  19  38  63  94 127 171 221 254 323 401
#     4  10  17  34  62  93 122 169 219 258 317 390
#     4  11  19  38  71 102 127 158 218 285 318 386
#     4  10  18  33  66 104 130 156 214 275 322 382
#     4  11  21  39  68  97 132 169 213 273 333 378
#     4  10  16  28  58 102 128 158 198 268 320 370
#     4  11  26  44  66  96 130 175 224 270 325 394
#
# _framework density 24.149647000000002
#
# number of rings (size 3 to 8) (size 9 to 14) (size 15 to 20)
#    0.000    1.600    5.333    0.800    1.867    3.733 
#    0.000    6.667    0.000    0.000    0.000    0.000 
#    0.000    0.000    0.000    0.000    0.000    0.000 
#
# Total GULP energy -83532.974896 kJ/mol
# GULP energy per Si atom -5568.864993 kJ/mol
# Density = 2.409468 g / cm^3
# Si number density = 24.149647 Si / 1000 Ang^3
#
#
#
# Elastic Constant Matrix: (Units=GPa)
#
#
# Indices 1 2 3 4 5 6 
#
# 1 130.5160 35.0173 17.0484 1.6039 -4.2837 4.1644
# 2 35.0173 138.5091 12.3567 -12.8133 -26.9960 12.9030
# 3 17.0484 12.3567 67.5719 -8.6492 -1.4852 1.0085
# 4 1.6039 -12.8133 -8.6492 26.7092 4.0945 0.9553
# 5 -4.2837 -26.9960 -1.4852 4.0945 36.9076 -8.2279
# 6 4.1644 12.9030 1.0085 0.9553 -8.2279 38.1734
#
#
#
# Elastic Compliance Matrix: (Units=1/GPa)
#
#
# Indices 1 2 3 4 5 6 
#
# 1 0.008551 -0.002272 -0.002029 -0.002170 -0.000550 -0.000175
# 2 -0.002272 0.009488 -0.000535 0.003682 0.005851 -0.001776
# 3 -0.002029 -0.000535 0.016061 0.005171 -0.000618 -0.000285
# 4 -0.002170 0.003682 0.005171 0.041502 -0.002565 -0.002736
# 5 -0.000550 0.005851 -0.000618 -0.002565 0.032733 0.005218
# 6 -0.000175 -0.001776 -0.000285 -0.002736 0.005218 0.028016
#
#
# Mechanical properties :
#
#
# Convention : Reuss Voigt Hill
#
# Bulk Modulus (GPa) = 40.93847 51.71577 46.32712
# Shear Modulus (GPa) = 32.43200 38.50301 35.46751
#
# Velocity S-wave (km/s) = 3.66862 3.99726 3.83646
# Velocity P-wave (km/s) = 5.91048 6.53952 6.23294
#
# Compressibility (1/GPa) = 0.02442690
#
# Stress axis : x y z
#
# Youngs Moduli (GPa) = 116.94783 105.39262 62.26081
#
# Poissons Ratio (x) = 0.23948 0.12633
# Poissons Ratio (y) = 0.26574 0.03334
# Poissons Ratio (z) = 0.23730 0.05643
#
# Static dielectric constant tensor:
#      x y z
#    x 1.989040 -0.050780 0.100000 
#    y -0.050780 1.924540 0.041840 
#    z 0.100000 0.041840 1.781580 
# 
# From -- ./inp_files/247851.got.cif
#   From: 2010.05.17/outbox.cif.g08.bks.cpg/sg2_124_cif.got.tgz:247851.got - 2010.06.03 11:33:40.
