data_PCOD9091815
_publ_section_title
;
Structure prediction by ZEFSAII (Michael W. Deem and Ramdas Pophale) SiO2 
 PCOD9091815
Probable space group: P -1
;
_chemical_formula_sum "Si O2"
_cell_formula_units_Z 16
_cell_length_a 5.319541
_cell_length_b 25.780066
_cell_length_c 8.200168
_cell_angle_alpha 53.075702
_cell_angle_beta 60.785083
_cell_angle_gamma 43.632393
_cell_volume 617.439267
_symmetry_space_group_name_H-M "P -1"
_symmetry_group_IT_number 2
_symmetry_cell_setting 'triclinic'
loop_
_space_group_symop_operation_xyz
x,y,z
-x,-y,-z
loop_
_atom_site_type_symbol
_atom_site_label
_atom_site_fract_x
_atom_site_fract_y
_atom_site_fract_z
Si Si1 0.502394 0.401347 0.303864
Si Si2 0.293562 0.258524 0.628395
Si Si3 0.483732 0.389841 0.679297
Si Si4 0.258499 0.292051 0.932557
Si Si5 0.329950 0.053161 0.750295
Si Si6 0.018598 0.779444 0.635696
Si Si7 0.423422 0.461195 0.884361
Si Si8 0.447712 0.909074 0.072515
O O1 0.301183 0.412511 0.516187
O O2 0.833546 0.303270 0.361872
O O3 0.615422 0.460046 0.191752
O O4 0.304387 0.432027 0.130033
O O5 0.435725 0.259552 0.760517
O O6 0.587563 0.238599 0.437670
O O7 0.257781 0.186564 0.796805
O O8 0.901413 0.345898 0.582602
O O9 0.477692 0.319426 0.898166
O O10 0.327735 0.459129 0.731814
O O11 0.854574 0.380405 0.893814
O O12 0.199832 0.228911 0.141536
O O13 0.563918 0.051303 0.826336
O O14 0.238625 0.127382 0.526102
O O15 0.923260 0.079562 0.867747
O O16 0.523188 0.956694 0.830100
#
# Coordination Sequence:
#
# PCOD9091815 Si02
#       8
#     2   2   2   2   2   2   2   2
#     4  10  19  40  61  84 122 166 204 260 320 383
#     4  10  21  39  61  90 120 163 205 259 317 382
#     4  11  21  40  63  89 121 164 211 261 320 380
#     4  10  22  41  58  91 123 157 210 263 309 386
#     4   9  18  35  57  94 118 166 206 267 317 387
#     4  10  20  40  62  86 124 160 207 256 321 376
#     4   9  22  40  55  90 125 156 211 264 313 382
#     4   9  18  33  62  87 126 157 217 257 320 389
#
# _framework density 25.913478000000001
#
# number of rings (size 3 to 8) (size 9 to 14) (size 15 to 20)
#    0.000    2.250    1.250    1.125    1.750    0.500 
#   29.250    3.750    0.000    0.750    0.000    0.000 
#    0.000    0.000    0.000    0.000    0.000    0.000 
#
# Total GULP energy -89077.472800 kJ/mol
# GULP energy per Si atom -5567.342050 kJ/mol
# Density = 2.585450 g / cm^3
# Si number density = 25.913478 Si / 1000 Ang^3
#
#
#
# Elastic Constant Matrix: (Units=GPa)
#
#
# Indices 1 2 3 4 5 6 
#
# 1 65.6427 19.5568 47.1988 -8.7694 10.3663 6.1448
# 2 19.5568 45.5528 37.2230 -23.5935 -2.4606 18.7461
# 3 47.1988 37.2230 186.3856 -28.5061 -9.5563 7.9426
# 4 -8.7694 -23.5935 -28.5061 53.7381 11.4588 -9.4440
# 5 10.3663 -2.4606 -9.5563 11.4588 31.1527 -1.2205
# 6 6.1448 18.7461 7.9426 -9.4440 -1.2205 40.2260
#
#
#
# Elastic Compliance Matrix: (Units=1/GPa)
#
#
# Indices 1 2 3 4 5 6 
#
# 1 0.021969 -0.005788 -0.004816 0.000523 -0.009432 0.000129
# 2 -0.005788 0.039772 -0.004084 0.012141 -0.001201 -0.014030
# 3 -0.004816 -0.004084 0.007667 0.001041 0.003307 0.001470
# 4 0.000523 0.012141 0.001041 0.026412 -0.008611 -0.000004
# 5 -0.009432 -0.001201 0.003307 -0.008611 0.039346 0.000520
# 6 0.000129 -0.014030 0.001470 -0.000004 0.000520 0.031103
#
#
# Mechanical properties :
#
#
# Convention : Reuss Voigt Hill
#
# Bulk Modulus (GPa) = 24.98064 56.17090 40.57577
# Shear Modulus (GPa) = 23.92481 37.93019 30.92750
#
# Velocity S-wave (km/s) = 3.04181 3.83002 3.45844
# Velocity P-wave (km/s) = 4.69018 6.42511 5.62494
#
# Compressibility (1/GPa) = 0.04003101
#
# Stress axis : x y z
#
# Youngs Moduli (GPa) = 45.51906 25.14349 130.43530
#
# Poissons Ratio (x) = 0.14552 0.62824
# Poissons Ratio (y) = 0.26345 0.53270
# Poissons Ratio (z) = 0.21924 0.10269
#
# Static dielectric constant tensor:
#      x y z
#    x 2.155820 -0.022830 0.075470 
#    y -0.022830 2.066500 -0.090320 
#    z 0.075470 -0.090320 2.197130 
# 
# From -- ./inp_files/143103.got.cif
#   From: 2010.05.17/outbox.cif.g08.bks.cpg/sg2_72_cif.got.tgz:143103.got - 2010.06.03 11:33:40.
