data_PCOD9091595
_publ_section_title
;
Structure prediction by ZEFSAII (Michael W. Deem and Ramdas Pophale) SiO2 
 PCOD9091595
Probable space group: P -1
;
_chemical_formula_sum "Si O2"
_cell_formula_units_Z 15
_cell_length_a 20.448476
_cell_length_b 11.278162
_cell_length_c 8.491037
_cell_angle_alpha 138.629130
_cell_angle_beta 41.900412
_cell_angle_gamma 152.730871
_cell_volume 573.358857
_symmetry_space_group_name_H-M "P -1"
_symmetry_group_IT_number 2
_symmetry_cell_setting 'triclinic'
loop_
_space_group_symop_operation_xyz
x,y,z
-x,-y,-z
loop_
_atom_site_type_symbol
_atom_site_label
_atom_site_fract_x
_atom_site_fract_y
_atom_site_fract_z
Si Si1 0.461862 0.686597 0.126439
Si Si2 0.367696 0.279151 0.639103
Si Si3 0.206005 0.962284 0.080852
Si Si4 0.148079 0.384983 0.822778
Si Si5 0.981815 0.490170 0.266226
Si Si6 0.000000 0.000000 0.500000
Si Si7 0.474973 0.828047 0.601785
Si Si8 0.947145 0.073463 0.290554
O O1 0.438669 0.699382 0.364901
O O2 0.473901 0.897567 0.233385
O O3 0.365980 0.421435 0.926606
O O4 0.623756 0.816199 0.962645
O O5 0.500000 0.500000 0.500000
O O6 0.406731 0.138234 0.496182
O O7 0.213486 0.080628 0.626988
O O8 0.112443 0.748428 0.178633
O O9 0.149149 0.081806 0.265059
O O10 0.162499 0.777273 0.828278
O O11 0.102892 0.334458 0.671648
O O12 0.320654 0.613355 0.762276
O O13 0.068553 0.076364 0.673603
O O14 0.062134 0.416720 0.105071
O O15 0.952428 0.617520 0.556321
O O16 0.000000 0.000000 0.000000
#
# Coordination Sequence:
#
# PCOD9091595 Si02
#       8
#     2   2   2   2   2   1   2   2
#     4  11  25  44  71 107 138 175 244 294 344 410
#     4  12  26  46  72 101 143 195 231 282 351 430
#     4  10  19  39  68 101 133 173 223 293 340 410
#     4  11  22  41  69  98 134 184 227 285 351 412
#     4  10  22  41  67  97 135 176 229 279 353 413
#     4  10  20  34  70  98 128 172 222 282 350 400
#     4  11  25  44  71 101 136 182 234 300 347 406
#     4  12  28  46  68 100 142 184 235 283 343 429
#
# _framework density 26.161625999999998
#
# number of rings (size 3 to 8) (size 9 to 14) (size 15 to 20)
#    0.000    1.067    4.000    2.000    0.000    7.467 
#    0.000    0.000    0.000    0.000    0.000    0.000 
#    0.000    0.000    0.000    0.000    0.000    0.000 
#
# Total GULP energy -83848.200504 kJ/mol
# GULP energy per Si atom -5589.880034 kJ/mol
# Density = 2.610208 g / cm^3
# Si number density = 26.161626 Si / 1000 Ang^3
#
#
#
# Elastic Constant Matrix: (Units=GPa)
#
#
# Indices 1 2 3 4 5 6 
#
# 1 137.8044 32.2108 54.0352 19.6579 -27.8528 2.2125
# 2 32.2108 42.0306 15.4862 15.3756 -5.5147 1.3960
# 3 54.0352 15.4862 140.5290 42.3336 -10.6811 -15.1860
# 4 19.6579 15.3756 42.3336 42.6130 -14.0150 1.6443
# 5 -27.8528 -5.5147 -10.6811 -14.0150 48.4232 8.0286
# 6 2.2125 1.3960 -15.1860 1.6443 8.0286 28.0070
#
#
#
# Elastic Compliance Matrix: (Units=1/GPa)
#
#
# Indices 1 2 3 4 5 6 
#
# 1 0.012115 -0.008085 -0.005492 0.005450 0.007404 -0.005975
# 2 -0.008085 0.032838 0.003400 -0.013060 -0.004418 0.002878
# 3 -0.005492 0.003400 0.014035 -0.014917 -0.005716 0.010389
# 4 0.005450 -0.013060 -0.014917 0.045644 0.013981 -0.014555
# 5 0.007404 -0.004418 -0.005716 0.013981 0.029296 -0.012683
# 6 -0.005975 0.002878 0.010389 -0.014555 -0.012683 0.046157
#
#
# Mechanical properties :
#
#
# Convention : Reuss Voigt Hill
#
# Bulk Modulus (GPa) = 25.88448 58.20314 42.04381
# Shear Modulus (GPa) = 23.43933 38.38408 30.91171
#
# Velocity S-wave (km/s) = 2.99648 3.83455 3.44112
# Velocity P-wave (km/s) = 4.67840 6.47308 5.64749
#
# Compressibility (1/GPa) = 0.03863319
#
# Stress axis : x y z
#
# Youngs Moduli (GPa) = 82.54271 30.45260 71.25106
#
# Poissons Ratio (x) = 0.24620 0.39132
# Poissons Ratio (y) = 0.66734 -0.24222
# Poissons Ratio (z) = 0.45333 -0.10353
#
# Static dielectric constant tensor:
#      x y z
#    x 2.484060 -0.099550 0.201240 
#    y -0.099550 2.087560 -0.054960 
#    z 0.201240 -0.054960 2.160570 
# 
# From -- ./inp_files/345680.got.cif
#   From: 2010.05.17/outbox.cif.g08.bks.cpg/sg2_173_cif.got.tgz:345680.got - 2010.06.03 11:33:40.
