data_PCOD9091787
_publ_section_title
;
Structure prediction by ZEFSAII (Michael W. Deem and Ramdas Pophale) SiO2 
 PCOD9091787
Probable space group: P -1
;
_chemical_formula_sum "Si O2"
_cell_formula_units_Z 10
_cell_length_a 7.486072
_cell_length_b 13.523248
_cell_length_c 10.677073
_cell_angle_alpha 150.403632
_cell_angle_beta 54.884683
_cell_angle_gamma 136.930422
_cell_volume 358.742222
_symmetry_space_group_name_H-M "P -1"
_symmetry_group_IT_number 2
_symmetry_cell_setting 'triclinic'
loop_
_space_group_symop_operation_xyz
x,y,z
-x,-y,-z
loop_
_atom_site_type_symbol
_atom_site_label
_atom_site_fract_x
_atom_site_fract_y
_atom_site_fract_z
Si Si1 0.440790 0.241560 0.589545
Si Si2 0.229401 0.484793 0.576233
Si Si3 0.611447 0.956374 0.054684
Si Si4 0.029854 0.735277 0.312251
Si Si5 0.174963 0.260550 0.092062
O O1 0.214270 0.259917 0.637121
O O2 0.674358 0.526971 0.837704
O O3 0.562396 0.149747 0.340170
O O4 0.288135 0.011174 0.490956
O O5 0.500000 0.500000 0.500000
O O6 0.011182 0.319278 0.584456
O O7 0.138413 0.384194 0.364890
O O8 0.344503 0.758509 0.870724
O O9 0.652010 0.831217 0.022478
O O10 0.870231 0.038808 0.956677
O O11 0.000000 0.500000 0.000000
#
# Coordination Sequence:
#
# PCOD9091787 Si02
#       5
#     2   2   2   2   2
#     4  11  20  35  61  86 117 157 198 233 294 352
#     4  10  19  40  60  86 117 154 197 237 291 341
#     4  10  20  37  61  86 123 150 191 246 293 334
#     4  11  21  38  59  87 121 158 189 241 300 345
#     4  10  21  38  60  90 117 153 197 241 286 346
#
# _framework density 27.875170000000001
#
# number of rings (size 3 to 8) (size 9 to 14) (size 15 to 20)
#    0.000    1.600    6.000    0.600    0.000    0.800 
#    0.000    1.000    0.000   12.000    0.000    0.000 
#    0.000    0.000    0.000    0.000    0.000    0.000 
#
# Total GULP energy -55980.760511 kJ/mol
# GULP energy per Si atom -5598.076051 kJ/mol
# Density = 2.781172 g / cm^3
# Si number density = 27.875170 Si / 1000 Ang^3
#
#
#
# Elastic Constant Matrix: (Units=GPa)
#
#
# Indices 1 2 3 4 5 6 
#
# 1 88.6998 9.4967 33.1223 -0.3482 -30.7311 -1.4056
# 2 9.4967 209.6524 39.7079 45.8359 0.7658 1.8599
# 3 33.1223 39.7079 131.2307 20.4440 -33.5348 -6.9059
# 4 -0.3482 45.8359 20.4440 54.1515 4.6712 1.9653
# 5 -30.7311 0.7658 -33.5348 4.6712 52.3683 6.1729
# 6 -1.4056 1.8599 -6.9059 1.9653 6.1729 35.3955
#
#
#
# Elastic Compliance Matrix: (Units=1/GPa)
#
#
# Indices 1 2 3 4 5 6 
#
# 1 0.014566 -0.000463 -0.001759 0.000541 0.007507 -0.001080
# 2 -0.000463 0.006021 -0.001173 -0.004591 -0.000679 -0.000190
# 3 -0.001759 -0.001173 0.010548 -0.003555 0.005913 0.001216
# 4 0.000541 -0.004591 -0.003555 0.024075 -0.003911 -0.001085
# 5 0.007507 -0.000679 0.005913 -0.003911 0.028021 -0.003182
# 6 -0.001080 -0.000190 0.001216 -0.001085 -0.003182 0.029072
#
#
# Mechanical properties :
#
#
# Convention : Reuss Voigt Hill
#
# Bulk Modulus (GPa) = 41.07691 66.02628 53.55159
# Shear Modulus (GPa) = 39.30549 51.53347 45.41948
#
# Velocity S-wave (km/s) = 3.75914 4.30434 4.04095
# Velocity P-wave (km/s) = 5.79737 6.95996 6.40510
#
# Compressibility (1/GPa) = 0.02434458
#
# Stress axis : x y z
#
# Youngs Moduli (GPa) = 68.65099 166.08991 94.80464
#
# Poissons Ratio (x) = 0.07686 0.16678
# Poissons Ratio (y) = 0.03177 0.11124
# Poissons Ratio (z) = 0.12077 0.19488
#
# Static dielectric constant tensor:
#      x y z
#    x 2.130600 -0.063130 -0.006620 
#    y -0.063130 2.356530 0.175050 
#    z -0.006620 0.175050 2.256230 
# 
# From -- ./inp_files/160621.got.cif
#   From: 2010.05.17/outbox.cif.g08.bks.cpg/sg2_81_cif.got.tgz:160621.got - 2010.06.03 11:33:40.
