data_PCOD9091715
_publ_section_title
;
Structure prediction by ZEFSAII (Michael W. Deem and Ramdas Pophale) SiO2 
 PCOD9091715
Probable space group: P -1
;
_chemical_formula_sum "Si O2"
_cell_formula_units_Z 14
_cell_length_a 9.604599
_cell_length_b 10.802690
_cell_length_c 8.698701
_cell_angle_alpha 129.488150
_cell_angle_beta 59.825279
_cell_angle_gamma 119.823631
_cell_volume 580.406092
_symmetry_space_group_name_H-M "P -1"
_symmetry_group_IT_number 2
_symmetry_cell_setting 'triclinic'
loop_
_space_group_symop_operation_xyz
x,y,z
-x,-y,-z
loop_
_atom_site_type_symbol
_atom_site_label
_atom_site_fract_x
_atom_site_fract_y
_atom_site_fract_z
Si Si1 0.597811 0.145198 0.172793
Si Si2 0.199692 0.060147 0.926918
Si Si3 0.836902 0.415600 0.679967
Si Si4 0.154881 0.275540 0.875182
Si Si5 0.181638 0.361306 0.369434
Si Si6 0.370735 0.359451 0.553811
Si Si7 0.862860 0.318565 0.919586
O O1 0.455679 0.209578 0.385581
O O2 0.720740 0.280033 0.098773
O O3 0.500000 0.000000 0.000000
O O4 0.708915 0.073573 0.173818
O O5 0.247801 0.219375 0.138849
O O6 0.225467 0.133519 0.799817
O O7 0.000000 0.000000 0.000000
O O8 0.737070 0.461727 0.623874
O O9 0.789107 0.308019 0.778747
O O10 0.985144 0.351008 0.472919
O O11 0.887531 0.604480 0.874351
O O12 0.304271 0.386728 0.778368
O O13 0.986817 0.206170 0.813893
O O14 0.214359 0.337641 0.510518
O O15 0.500000 0.500000 0.500000
O O16 0.000000 0.500000 0.000000
#
# Coordination Sequence:
#
# PCOD9091715 Si02
#       7
#     2   2   2   2   2   2   2
#     4  12  26  45  67 101 148 181 221 293 359 410
#     4  11  23  45  69  95 135 189 234 281 342 420
#     4   9  19  37  66  96 127 163 232 289 321 386
#     4  10  21  40  69  96 132 174 235 281 332 411
#     4  10  21  38  64 102 132 170 233 285 337 403
#     4  12  25  42  68 101 143 183 225 286 364 411
#     4  10  19  39  70  97 127 180 233 277 329 410
#
# _framework density 24.121041000000002
#
# number of rings (size 3 to 8) (size 9 to 14) (size 15 to 20)
#    0.000    1.429    4.286    1.714    2.000    1.714 
#    5.143    4.286    0.000    0.000    0.000    0.000 
#    0.000    0.000    0.000    0.000    0.000    0.000 
#
# Total GULP energy -78025.533501 kJ/mol
# GULP energy per Si atom -5573.252393 kJ/mol
# Density = 2.406614 g / cm^3
# Si number density = 24.121041 Si / 1000 Ang^3
#
#
#
# Elastic Constant Matrix: (Units=GPa)
#
#
# Indices 1 2 3 4 5 6 
#
# 1 85.6583 34.1509 23.8720 0.0811 -9.5117 -36.3832
# 2 34.1509 83.4721 27.2484 -21.2837 -1.5017 -31.2612
# 3 23.8720 27.2484 111.1065 -17.9546 -18.9350 -16.8939
# 4 0.0811 -21.2837 -17.9546 41.5223 -8.7579 3.9562
# 5 -9.5117 -1.5017 -18.9350 -8.7579 26.9495 -3.2836
# 6 -36.3832 -31.2612 -16.8939 3.9562 -3.2836 52.6173
#
#
#
# Elastic Compliance Matrix: (Units=1/GPa)
#
#
# Indices 1 2 3 4 5 6 
#
# 1 0.018809 -0.003637 -0.000566 -0.001775 0.006829 0.011223
# 2 -0.003637 0.019241 -0.000528 0.009603 0.003543 0.008246
# 3 -0.000566 -0.000528 0.013034 0.007510 0.011814 0.003653
# 4 -0.001775 0.009603 0.007510 0.035408 0.017339 0.005310
# 5 0.006829 0.003543 0.011814 0.017339 0.055205 0.012762
# 6 0.011223 0.008246 0.003653 0.005310 0.012762 0.033235
#
#
# Mechanical properties :
#
#
# Convention : Reuss Voigt Hill
#
# Bulk Modulus (GPa) = 24.02547 50.08660 37.05604
# Shear Modulus (GPa) = 25.21851 37.21553 31.21702
#
# Velocity S-wave (km/s) = 3.23692 3.93219 3.60138
# Velocity P-wave (km/s) = 4.89410 6.43630 5.71744
#
# Compressibility (1/GPa) = 0.04162249
#
# Stress axis : x y z
#
# Youngs Moduli (GPa) = 53.16631 51.97216 76.72335
#
# Poissons Ratio (x) = 0.18903 0.04340
# Poissons Ratio (y) = 0.19337 0.04049
# Poissons Ratio (z) = 0.03008 0.02743
#
# Static dielectric constant tensor:
#      x y z
#    x 2.668490 0.041910 -0.098660 
#    y 0.041910 2.082380 -0.002140 
#    z -0.098660 -0.002140 1.948800 
# 
# From -- ./inp_files/182228.got.cif
#   From: 2010.05.17/outbox.cif.g08.bks.cpg/sg2_92_cif.got.tgz:182228.got - 2010.06.03 11:33:40.
