data_PCOD9091404
_publ_section_title
;
Structure prediction by ZEFSAII (Michael W. Deem and Ramdas Pophale) SiO2 
 PCOD9091404
Probable space group: P -1
;
_chemical_formula_sum "Si O2"
_cell_formula_units_Z 14
_cell_length_a 15.661220
_cell_length_b 15.543742
_cell_length_c 10.282815
_cell_angle_alpha 35.607434
_cell_angle_beta 145.393378
_cell_angle_gamma 153.725445
_cell_volume 600.680561
_symmetry_space_group_name_H-M "P -1"
_symmetry_group_IT_number 2
_symmetry_cell_setting 'triclinic'
loop_
_space_group_symop_operation_xyz
x,y,z
-x,-y,-z
loop_
_atom_site_type_symbol
_atom_site_label
_atom_site_fract_x
_atom_site_fract_y
_atom_site_fract_z
Si Si1 0.992195 0.145043 0.893638
Si Si2 0.704948 0.549464 0.309841
Si Si3 0.940680 0.331780 0.232774
Si Si4 0.739640 0.983145 0.221388
Si Si5 0.167579 0.264150 0.254032
Si Si6 0.542805 0.772388 0.795829
Si Si7 0.650503 0.296007 0.099628
O O1 0.142065 0.349023 0.748093
O O2 0.748783 0.010925 0.761818
O O3 0.087029 0.184697 0.104646
O O4 0.000000 0.000000 0.000000
O O5 0.539590 0.314509 0.346584
O O6 0.849280 0.612433 0.535112
O O7 0.606111 0.646460 0.075919
O O8 0.770338 0.113051 0.220849
O O9 0.841015 0.332715 0.236279
O O10 0.000000 0.500000 0.000000
O O11 0.715699 0.800873 0.468460
O O12 0.556487 0.893451 0.002579
O O13 0.960436 0.142625 0.229110
O O14 0.300835 0.502061 0.127607
O O15 0.389899 0.732011 0.762685
#
# Coordination Sequence:
#
# PCOD9091404 Si02
#       7
#     2   2   2   2   2   2   2
#     4  10  19  39  65  99 133 164 218 283 336 380
#     4  10  23  43  67  95 136 171 224 276 337 392
#     4  12  27  48  65  97 146 184 212 278 350 405
#     4  11  24  43  66  98 137 182 229 273 332 400
#     4  11  22  40  71 101 133 176 230 287 321 390
#     4  10  21  41  71 103 123 171 231 282 322 395
#     4  12  24  43  68 100 138 176 226 275 338 399
#
# _framework density 23.306896999999999
#
# number of rings (size 3 to 8) (size 9 to 14) (size 15 to 20)
#    0.000    1.143    4.286    2.571    2.000    1.714 
#    5.143    0.714    0.000    0.000    0.000    0.000 
#    0.000    0.000    0.000    0.000    0.000    0.000 
#
# Total GULP energy -78320.595891 kJ/mol
# GULP energy per Si atom -5594.328278 kJ/mol
# Density = 2.325385 g / cm^3
# Si number density = 23.306897 Si / 1000 Ang^3
#
#
#
# Elastic Constant Matrix: (Units=GPa)
#
#
# Indices 1 2 3 4 5 6 
#
# 1 110.6327 10.7251 7.4826 -6.7393 0.6051 -7.3533
# 2 10.7251 74.0799 9.6644 22.0005 6.6539 -14.4173
# 3 7.4826 9.6644 30.5285 6.8507 -0.4016 -10.3427
# 4 -6.7393 22.0005 6.8507 26.2826 -4.2437 -12.4429
# 5 0.6051 6.6539 -0.4016 -4.2437 23.6745 1.0026
# 6 -7.3533 -14.4173 -10.3427 -12.4429 1.0026 34.3265
#
#
#
# Elastic Compliance Matrix: (Units=1/GPa)
#
#
# Indices 1 2 3 4 5 6 
#
# 1 0.010089 -0.002919 -0.002183 0.007221 0.001700 0.002845
# 2 -0.002919 0.020682 -0.001378 -0.018630 -0.009150 0.001160
# 3 -0.002183 -0.001378 0.037766 -0.005301 -0.000223 0.008418
# 4 0.007221 -0.018630 -0.005301 0.067064 0.016307 0.015959
# 5 0.001700 -0.009150 -0.000223 0.016307 0.047646 0.000973
# 6 0.002845 0.001160 0.008418 0.015959 0.000973 0.038521
#
#
# Mechanical properties :
#
#
# Convention : Reuss Voigt Hill
#
# Bulk Modulus (GPa) = 17.99351 30.10947 24.05149
# Shear Modulus (GPa) = 19.74296 29.34800 24.54548
#
# Velocity S-wave (km/s) = 2.91363 3.55237 3.24874
# Velocity P-wave (km/s) = 4.36532 5.45642 4.94108
#
# Compressibility (1/GPa) = 0.05557559
#
# Stress axis : x y z
#
# Youngs Moduli (GPa) = 99.11490 48.35182 26.47884
#
# Poissons Ratio (x) = 0.14116 0.05780
# Poissons Ratio (y) = 0.28936 0.03650
# Poissons Ratio (z) = 0.21635 0.06665
#
# Static dielectric constant tensor:
#      x y z
#    x 1.863660 0.033020 0.021660 
#    y 0.033020 1.913110 0.000040 
#    z 0.021660 0.000040 1.856930 
# 
# From -- ./inp_files/184719.got.cif
#   From: 2010.05.17/outbox.cif.g08.bks.cpg/sg2_93_cif.got.tgz:184719.got - 2010.06.03 11:33:40.
