data_PCOD9091097
_publ_section_title
;
Structure prediction by ZEFSAII (Michael W. Deem and Ramdas Pophale) SiO2 
 PCOD9091097
Probable space group: P -1
;
_chemical_formula_sum "Si O2"
_cell_formula_units_Z 14
_cell_length_a 6.635397
_cell_length_b 17.515562
_cell_length_c 9.227431
_cell_angle_alpha 53.918319
_cell_angle_beta 116.124150
_cell_angle_gamma 135.865713
_cell_volume 603.237802
_symmetry_space_group_name_H-M "P -1"
_symmetry_group_IT_number 2
_symmetry_cell_setting 'triclinic'
loop_
_space_group_symop_operation_xyz
x,y,z
-x,-y,-z
loop_
_atom_site_type_symbol
_atom_site_label
_atom_site_fract_x
_atom_site_fract_y
_atom_site_fract_z
Si Si1 0.255642 0.743852 0.795935
Si Si2 0.242941 0.814053 0.006228
Si Si3 0.217521 0.183049 0.978937
Si Si4 0.817308 0.912385 0.214177
Si Si5 0.584302 0.565545 0.797762
Si Si6 0.030424 0.398258 0.654319
Si Si7 0.536310 0.240591 0.460579
O O1 0.459238 0.720813 0.966885
O O2 0.416684 0.797492 0.634587
O O3 0.917542 0.632264 0.792410
O O4 0.249134 0.825295 0.823444
O O5 0.556865 0.907672 0.071314
O O6 0.134719 0.679832 0.165875
O O7 0.002483 0.810813 0.012289
O O8 0.186179 0.175346 0.803512
O O9 0.109023 0.048532 0.139014
O O10 0.719948 0.862351 0.400369
O O11 0.366213 0.468567 0.713548
O O12 0.521696 0.662106 0.683088
O O13 0.500000 0.500000 0.000000
O O14 0.000000 0.500000 0.500000
O O15 0.837190 0.302248 0.573754
#
# Coordination Sequence:
#
# PCOD9091097 Si02
#       7
#     2   2   2   2   2   2   2
#     4  11  23  37  60  93 127 164 205 256 311 373
#     4  10  19  39  63  90 123 164 212 249 305 382
#     4  10  21  40  67  93 121 169 206 257 312 375
#     4   9  21  41  65  92 127 160 209 258 316 368
#     4  11  22  41  62  87 124 171 213 251 310 373
#     4   9  20  40  61  85 122 161 209 257 302 356
#     4  10  23  41  61  92 130 158 205 266 311 369
#
# _framework density 23.208095
#
# number of rings (size 3 to 8) (size 9 to 14) (size 15 to 20)
#    0.000    2.000    1.429    1.286    0.000    4.000 
#    0.000    1.429    0.000    0.000    0.000    0.000 
#    0.000    0.000    0.000    0.000    0.000    0.000 
#
# Total GULP energy -78075.063531 kJ/mol
# GULP energy per Si atom -5576.790252 kJ/mol
# Density = 2.315527 g / cm^3
# Si number density = 23.208095 Si / 1000 Ang^3
#
#
#
# Elastic Constant Matrix: (Units=GPa)
#
#
# Indices 1 2 3 4 5 6 
#
# 1 155.9091 22.7871 48.4908 11.6909 -28.1712 13.3703
# 2 22.7871 56.5843 27.7638 8.3694 5.7964 28.3299
# 3 48.4908 27.7638 108.5359 5.0615 -32.8334 -1.6645
# 4 11.6909 8.3694 5.0615 28.4908 0.9170 -1.1044
# 5 -28.1712 5.7964 -32.8334 0.9170 45.7918 13.9498
# 6 13.3703 28.3299 -1.6645 -1.1044 13.9498 38.2092
#
#
#
# Elastic Compliance Matrix: (Units=1/GPa)
#
#
# Indices 1 2 3 4 5 6 
#
# 1 0.008824 0.000314 -0.002262 -0.003704 0.005531 -0.005545
# 2 0.000314 0.039546 -0.011414 -0.010704 -0.004018 -0.028771
# 3 -0.002262 -0.011414 0.016075 0.001369 0.009572 0.006499
# 4 -0.003704 -0.010704 0.001369 0.040130 -0.004422 0.012066
# 5 0.005531 -0.004018 0.009572 -0.004422 0.036336 -0.011933
# 6 -0.005545 -0.028771 0.006499 0.012066 -0.011933 0.054432
#
#
# Mechanical properties :
#
#
# Convention : Reuss Voigt Hill
#
# Bulk Modulus (GPa) = 26.50963 57.67920 42.09441
# Shear Modulus (GPa) = 21.30911 37.29755 29.30333
#
# Velocity S-wave (km/s) = 3.03343 4.01320 3.55721
# Velocity P-wave (km/s) = 4.86994 6.81039 5.92021
#
# Compressibility (1/GPa) = 0.03772214
#
# Stress axis : x y z
#
# Youngs Moduli (GPa) = 113.32390 25.28709 62.20742
#
# Poissons Ratio (x) = -0.00794 0.14071
# Poissons Ratio (y) = -0.03558 0.71001
# Poissons Ratio (z) = 0.25634 0.28862
#
# Static dielectric constant tensor:
#      x y z
#    x 1.899530 -0.030250 0.020970 
#    y -0.030250 1.937930 0.018780 
#    z 0.020970 0.018780 1.910170 
# 
# From -- ./inp_files/37014.got.cif
#   From: 2010.05.17/outbox.cif.g08.bks.cpg/sg2_19_cif.got.tgz:37014.got - 2010.06.03 11:33:40.
