data_PCOD9091780
_publ_section_title
;
Structure prediction by ZEFSAII (Michael W. Deem and Ramdas Pophale) SiO2 
 PCOD9091780
Probable space group: P -1
;
_chemical_formula_sum "Si O2"
_cell_formula_units_Z 16
_cell_length_a 10.253566
_cell_length_b 17.171621
_cell_length_c 7.684928
_cell_angle_alpha 60.401052
_cell_angle_beta 89.004025
_cell_angle_gamma 134.772256
_cell_volume 673.311207
_symmetry_space_group_name_H-M "P -1"
_symmetry_group_IT_number 2
_symmetry_cell_setting 'triclinic'
loop_
_space_group_symop_operation_xyz
x,y,z
-x,-y,-z
loop_
_atom_site_type_symbol
_atom_site_label
_atom_site_fract_x
_atom_site_fract_y
_atom_site_fract_z
Si Si1 0.146195 0.495015 0.453911
Si Si2 0.376743 0.199408 0.978430
Si Si3 0.712225 0.022690 0.586332
Si Si4 0.700748 0.786454 0.440057
Si Si5 0.780319 0.454718 0.216328
Si Si6 0.767850 0.650607 0.402265
Si Si7 0.755934 0.246459 0.326989
Si Si8 0.970270 0.867519 0.839525
O O1 0.202270 0.494951 0.648612
O O2 0.129061 0.385978 0.495146
O O3 0.000000 0.500000 0.500000
O O4 0.354439 0.653236 0.167766
O O5 0.270790 0.217778 0.079198
O O6 0.274607 0.046464 0.194507
O O7 0.337108 0.202002 0.773930
O O8 0.724380 0.130513 0.534599
O O9 0.910617 0.117467 0.335593
O O10 0.467125 0.871217 0.661688
O O11 0.473788 0.660956 0.700670
O O12 0.771044 0.724017 0.477510
O O13 0.871314 0.956939 0.319210
O O14 0.765758 0.337687 0.352305
O O15 0.002425 0.609114 0.936863
O O16 0.500000 0.500000 0.500000
O O17 0.928391 0.780343 0.102114
#
# Coordination Sequence:
#
# PCOD9091780 Si02
#       8
#     2   2   2   2   2   2   2   2
#     4  11  22  38  60  92 122 154 198 254 307 346
#     4  10  21  37  59  86 123 147 195 258 297 348
#     4  11  22  37  60  89 118 161 201 240 306 361
#     4  10  21  39  63  88 115 157 205 248 297 349
#     4  10  19  40  60  83 119 162 202 251 287 359
#     4  11  19  37  65  88 112 157 208 238 293 369
#     4  10  22  37  60  84 121 161 204 238 302 367
#     4  11  21  39  63  86 118 160 202 248 295 358
#
# _framework density 23.763155000000001
#
# number of rings (size 3 to 8) (size 9 to 14) (size 15 to 20)
#    0.000    1.500    5.000    3.375    0.000    1.000 
#    4.500    1.250    0.000    1.500    0.000    0.000 
#    0.000    0.000    0.000    0.000    0.000    0.000 
#
# Total GULP energy -89260.313578 kJ/mol
# GULP energy per Si atom -5578.769599 kJ/mol
# Density = 2.370907 g / cm^3
# Si number density = 23.763155 Si / 1000 Ang^3
#
#
#
# Elastic Constant Matrix: (Units=GPa)
#
#
# Indices 1 2 3 4 5 6 
#
# 1 149.6106 15.1544 46.2720 -14.7886 -6.5905 -30.7473
# 2 15.1544 66.3220 2.5917 -10.4696 -5.8946 -11.5679
# 3 46.2720 2.5917 80.4148 -10.0339 -31.8266 -6.8125
# 4 -14.7886 -10.4696 -10.0339 24.2704 -0.5606 6.9816
# 5 -6.5905 -5.8946 -31.8266 -0.5606 44.1149 -13.4256
# 6 -30.7473 -11.5679 -6.8125 6.9816 -13.4256 38.5456
#
#
#
# Elastic Compliance Matrix: (Units=1/GPa)
#
#
# Indices 1 2 3 4 5 6 
#
# 1 0.009731 -0.000677 -0.004924 0.001791 -0.000257 0.006275
# 2 -0.000677 0.018136 0.004370 0.007375 0.007706 0.007024
# 3 -0.004924 0.004370 0.024527 0.007384 0.019858 0.007298
# 4 0.001791 0.007375 0.007384 0.049148 0.006713 -0.001617
# 5 -0.000257 0.007706 0.019858 0.006713 0.044084 0.019757
# 6 0.006275 0.007024 0.007298 -0.001617 0.019757 0.041521
#
#
# Mechanical properties :
#
#
# Convention : Reuss Voigt Hill
#
# Bulk Modulus (GPa) = 20.02676 47.15375 33.59025
# Shear Modulus (GPa) = 24.24214 36.87477 30.55846
#
# Velocity S-wave (km/s) = 3.19745 3.94352 3.58992
# Velocity P-wave (km/s) = 4.69868 6.37349 5.59906
#
# Compressibility (1/GPa) = 0.04993319
#
# Stress axis : x y z
#
# Youngs Moduli (GPa) = 102.76662 55.13866 40.77111
#
# Poissons Ratio (x) = 0.03731 0.20076
# Poissons Ratio (y) = 0.06954 -0.17818
# Poissons Ratio (z) = 0.50602 -0.24097
#
# Static dielectric constant tensor:
#      x y z
#    x 2.011630 0.114360 -0.015210 
#    y 0.114360 1.956420 -0.030280 
#    z -0.015210 -0.030280 1.864640 
# 
# From -- ./inp_files/277579.got.cif
#   From: 2010.05.17/outbox.cif.g08.bks.cpg/sg2_139_cif.got.tgz:277579.got - 2010.06.03 11:33:40.
