data_PCOD9091016
_publ_section_title
;
Structure prediction by ZEFSAII (Michael W. Deem and Ramdas Pophale) SiO2 
 PCOD9091016
Probable space group: P -1
;
_chemical_formula_sum "Si O2"
_cell_formula_units_Z 14
_cell_length_a 10.868955
_cell_length_b 8.308063
_cell_length_c 8.594420
_cell_angle_alpha 91.687069
_cell_angle_beta 79.080492
_cell_angle_gamma 42.187974
_cell_volume 494.491767
_symmetry_space_group_name_H-M "P -1"
_symmetry_group_IT_number 2
_symmetry_cell_setting 'triclinic'
loop_
_space_group_symop_operation_xyz
x,y,z
-x,-y,-z
loop_
_atom_site_type_symbol
_atom_site_label
_atom_site_fract_x
_atom_site_fract_y
_atom_site_fract_z
Si Si1 0.773130 0.621467 0.640845
Si Si2 0.784425 0.712490 0.991432
Si Si3 0.220668 0.965898 0.825985
Si Si4 0.829155 0.345602 0.083774
Si Si5 0.667338 0.449874 0.511371
Si Si6 0.382410 0.911221 0.445930
Si Si7 0.044537 0.152952 0.346487
O O1 0.797722 0.675728 0.803388
O O2 0.665596 0.552039 0.672540
O O3 0.650978 0.873588 0.586232
O O4 0.956380 0.381899 0.485858
O O5 0.703434 0.960850 0.080473
O O6 0.700162 0.627002 0.077533
O O7 0.000000 0.500000 0.000000
O O8 0.283723 0.965370 0.638724
O O9 0.269309 0.732994 0.861507
O O10 0.985301 0.181822 0.899447
O O11 0.984506 0.230504 0.183933
O O12 0.500000 0.500000 0.500000
O O13 0.880878 0.179683 0.425561
O O14 0.607065 0.647110 0.405254
O O15 0.263620 0.925872 0.342411
#
# Coordination Sequence:
#
# PCOD9091016 Si02
#       7
#     2   2   2   2   2   2   2
#     4  10  23  42  68 102 130 176 227 277 342 396
#     4  10  19  39  62  92 138 172 216 277 324 404
#     4  10  22  34  64  95 130 178 214 271 337 397
#     4  10  20  39  60  97 136 170 223 272 332 401
#     4  10  25  42  63 101 136 170 223 284 333 394
#     4  12  21  43  70  99 133 170 229 284 332 399
#     4  10  22  39  73  97 127 178 224 276 342 392
#
# _framework density 28.311895
#
# number of rings (size 3 to 8) (size 9 to 14) (size 15 to 20)
#    0.857    0.857    0.000    6.000    0.000    2.286 
#    5.143    0.714    3.143    1.714    0.000    0.000 
#    0.000    0.000    0.000    0.000    0.000    0.000 
#
# Total GULP energy -78037.101127 kJ/mol
# GULP energy per Si atom -5574.078652 kJ/mol
# Density = 2.824746 g / cm^3
# Si number density = 28.311895 Si / 1000 Ang^3
#
#
#
# Elastic Constant Matrix: (Units=GPa)
#
#
# Indices 1 2 3 4 5 6 
#
# 1 121.8294 36.7545 44.6385 0.9364 17.0178 31.5688
# 2 36.7545 90.6277 46.0708 -5.3434 9.0119 14.6460
# 3 44.6385 46.0708 184.0600 0.8270 8.2198 15.1590
# 4 0.9364 -5.3434 0.8270 40.8579 3.5638 9.1884
# 5 17.0178 9.0119 8.2198 3.5638 58.3293 -4.6090
# 6 31.5688 14.6460 15.1590 9.1884 -4.6090 79.4092
#
#
#
# Elastic Compliance Matrix: (Units=1/GPa)
#
#
# Indices 1 2 3 4 5 6 
#
# 1 0.010982 -0.002739 -0.001538 0.000528 -0.002896 -0.003796
# 2 -0.002739 0.013983 -0.002682 0.002350 -0.001231 -0.001321
# 3 -0.001538 -0.002682 0.006488 -0.000425 -0.000032 -0.000085
# 4 0.000528 0.002350 -0.000425 0.025810 -0.002325 -0.003684
# 5 -0.002896 -0.001231 -0.000032 -0.002325 0.018542 0.002730
# 6 -0.003796 -0.001321 -0.000085 -0.003684 0.002730 0.014947
#
#
# Mechanical properties :
#
#
# Convention : Reuss Voigt Hill
#
# Bulk Modulus (GPa) = 57.03370 72.38274 64.70822
# Shear Modulus (GPa) = 45.24202 53.65615 49.44908
#
# Velocity S-wave (km/s) = 4.00182 4.35809 4.18375
# Velocity P-wave (km/s) = 6.44525 7.13762 6.80025
#
# Compressibility (1/GPa) = 0.01753349
#
# Stress axis : x y z
#
# Youngs Moduli (GPa) = 91.05406 71.51370 154.13543
#
# Poissons Ratio (x) = 0.19591 0.23708
# Poissons Ratio (y) = 0.24944 0.41346
# Poissons Ratio (z) = 0.14006 0.19183
#
# Static dielectric constant tensor:
#      x y z
#    x 2.584620 0.114600 -0.132310 
#    y 0.114600 2.391410 0.071600 
#    z -0.132310 0.071600 2.393140 
# 
# From -- ./inp_files/244101.got.cif
#   From: 2010.05.17/outbox.cif.g08.bks.cpg/sg2_123_cif.got.tgz:244101.got - 2010.06.03 11:33:40.
