data_PCOD9091546
_publ_section_title
;
Structure prediction by ZEFSAII (Michael W. Deem and Ramdas Pophale) SiO2 
 PCOD9091546
Probable space group: P -1
;
_chemical_formula_sum "Si O2"
_cell_formula_units_Z 16
_cell_length_a 7.667292
_cell_length_b 18.406052
_cell_length_c 16.906437
_cell_angle_alpha 151.860151
_cell_angle_beta 144.875433
_cell_angle_gamma 51.551487
_cell_volume 602.407973
_symmetry_space_group_name_H-M "P -1"
_symmetry_group_IT_number 2
_symmetry_cell_setting 'triclinic'
loop_
_space_group_symop_operation_xyz
x,y,z
-x,-y,-z
loop_
_atom_site_type_symbol
_atom_site_label
_atom_site_fract_x
_atom_site_fract_y
_atom_site_fract_z
Si Si1 0.681488 0.235125 0.863279
Si Si2 0.354055 0.670885 0.229599
Si Si3 0.086978 0.930302 0.083043
Si Si4 0.157498 0.559892 0.291852
Si Si5 0.438706 0.790954 0.952161
Si Si6 0.217338 0.312430 0.460972
Si Si7 0.391989 0.890100 0.774586
Si Si8 0.126913 0.199721 0.746424
O O1 0.563202 0.216507 0.710605
O O2 0.396969 0.255434 0.831121
O O3 0.789301 0.094287 0.808194
O O4 0.014557 0.399675 0.141971
O O5 0.629099 0.631276 0.341822
O O6 0.190148 0.753780 0.313351
O O7 0.097911 0.503918 0.936797
O O8 0.707676 0.840313 0.843084
O O9 0.149623 0.115169 0.253446
O O10 0.254042 0.840436 0.002243
O O11 0.510412 0.603653 0.423467
O O12 0.135541 0.718295 0.481962
O O13 0.139506 0.680024 0.679648
O O14 0.691982 0.734318 0.038502
O O15 0.631712 0.966987 0.153177
O O16 0.500000 0.000000 0.000000
O O17 0.000000 0.000000 0.500000
#
# Coordination Sequence:
#
# PCOD9091546 Si02
#       8
#     2   2   2   2   2   2   2   2
#     4   9  24  43  64 106 140 184 236 296 360 415
#     4  10  24  43  73  99 144 194 231 285 369 411
#     4  10  19  39  67  91 133 182 236 278 358 408
#     4  10  22  44  66  99 147 185 232 295 364 420
#     4  10  21  42  69  98 134 179 245 285 350 412
#     4  11  19  42  73  97 133 199 230 282 354 434
#     4  11  22  38  66 102 133 185 238 292 343 426
#     4  11  24  45  72 104 143 189 247 290 346 431
#
# _framework density 26.560074
#
# number of rings (size 3 to 8) (size 9 to 14) (size 15 to 20)
#    0.750    1.000    2.500    2.625    1.750    2.500 
#    6.750    1.250    0.000    0.000    0.000    0.000 
#    0.000    0.000    0.000    0.000    0.000    0.000 
#
# Total GULP energy -89278.594526 kJ/mol
# GULP energy per Si atom -5579.912158 kJ/mol
# Density = 2.649962 g / cm^3
# Si number density = 26.560074 Si / 1000 Ang^3
#
#
#
# Elastic Constant Matrix: (Units=GPa)
#
#
# Indices 1 2 3 4 5 6 
#
# 1 101.7405 30.0195 29.1091 7.5027 4.9532 23.5302
# 2 30.0195 89.2968 27.5828 -4.3612 8.6104 17.8156
# 3 29.1091 27.5828 161.0374 -12.7018 -20.8006 4.8445
# 4 7.5027 -4.3612 -12.7018 38.2194 -3.8882 4.2189
# 5 4.9532 8.6104 -20.8006 -3.8882 37.0669 -0.9781
# 6 23.5302 17.8156 4.8445 4.2189 -0.9781 36.7745
#
#
#
# Elastic Compliance Matrix: (Units=1/GPa)
#
#
# Indices 1 2 3 4 5 6 
#
# 1 0.013118 -0.002160 -0.002459 -0.003215 -0.003146 -0.006738
# 2 -0.002160 0.014223 -0.002324 0.001441 -0.004313 -0.005482
# 3 -0.002459 -0.002324 0.008013 0.003309 0.005750 0.001417
# 4 -0.003215 0.001441 0.003309 0.028808 0.004914 -0.002251
# 5 -0.003146 -0.004313 0.005750 0.004914 0.032239 0.003639
# 6 -0.006738 -0.005482 0.001417 -0.002251 0.003639 0.034328
#
#
# Mechanical properties :
#
#
# Convention : Reuss Voigt Hill
#
# Bulk Modulus (GPa) = 46.57905 58.38862 52.48384
# Shear Modulus (GPa) = 32.94434 40.10305 36.52369
#
# Velocity S-wave (km/s) = 3.52571 3.88996 3.71230
# Velocity P-wave (km/s) = 5.84376 6.49669 6.17886
#
# Compressibility (1/GPa) = 0.02146888
#
# Stress axis : x y z
#
# Youngs Moduli (GPa) = 76.22940 70.31063 124.79295
#
# Poissons Ratio (x) = 0.15187 0.30680
# Poissons Ratio (y) = 0.16465 0.29004
# Poissons Ratio (z) = 0.18741 0.16341
#
# Static dielectric constant tensor:
#      x y z
#    x 2.185670 0.001350 -0.026200 
#    y 0.001350 2.242440 -0.006670 
#    z -0.026200 -0.006670 2.230460 
# 
# From -- ./inp_files/562685.got.cif
#   From: 2010.05.17/outbox.cif.g08.bks.cpg/sg2_282_cif.got.tgz:562685.got - 2010.06.03 11:33:40.
