data_PCOD9091454
_publ_section_title
;
Structure prediction by ZEFSAII (Michael W. Deem and Ramdas Pophale) SiO2 
 PCOD9091454
Probable space group: P -1
;
_chemical_formula_sum "Si O2"
_cell_formula_units_Z 14
_cell_length_a 8.705877
_cell_length_b 17.760615
_cell_length_c 7.654582
_cell_angle_alpha 102.413033
_cell_angle_beta 66.358473
_cell_angle_gamma 47.895083
_cell_volume 564.934910
_symmetry_space_group_name_H-M "P -1"
_symmetry_group_IT_number 2
_symmetry_cell_setting 'triclinic'
loop_
_space_group_symop_operation_xyz
x,y,z
-x,-y,-z
loop_
_atom_site_type_symbol
_atom_site_label
_atom_site_fract_x
_atom_site_fract_y
_atom_site_fract_z
Si Si1 0.226641 0.670053 0.706185
Si Si2 0.241845 0.876612 0.583637
Si Si3 0.788975 0.757596 0.666210
Si Si4 0.658702 0.521405 0.944166
Si Si5 0.192819 0.045095 0.911928
Si Si6 0.550958 0.723863 0.016981
Si Si7 0.738000 0.571829 0.309874
O O1 0.500000 0.500000 0.500000
O O2 0.474634 0.643471 0.593700
O O3 0.014356 0.721857 0.667304
O O4 0.940490 0.820279 0.020196
O O5 0.302649 0.849379 0.336228
O O6 0.590930 0.711838 0.401501
O O7 0.002486 0.909566 0.803288
O O8 0.159990 0.991553 0.754963
O O9 0.020749 0.617991 0.372324
O O10 0.586339 0.772886 0.874130
O O11 0.552651 0.903182 0.738799
O O12 0.500000 0.500000 0.000000
O O13 0.478502 0.661174 0.998948
O O14 0.698885 0.535356 0.132651
O O15 0.915650 0.575192 0.847966
#
# Coordination Sequence:
#
# PCOD9091454 Si02
#       7
#     2   2   2   2   2   2   2
#     4  11  22  41  66  95 132 171 218 274 326 387
#     4   9  20  40  64  89 128 174 219 265 320 395
#     4  12  23  39  65  99 135 168 219 275 330 380
#     4  11  22  38  62 100 135 173 217 270 324 386
#     4  10  22  41  67  93 128 174 222 265 331 389
#     4  11  22  38  66  97 131 174 221 270 321 392
#     4  10  19  39  66  90 127 176 222 259 317 393
#
# _framework density 24.781614999999999
#
# number of rings (size 3 to 8) (size 9 to 14) (size 15 to 20)
#    0.000    1.429    2.857    4.286    0.000    0.571 
#    2.571    0.714    3.143    0.000    0.000    0.000 
#    0.000    0.000    0.000    0.000    0.000    0.000 
#
# Total GULP energy -77976.176214 kJ/mol
# GULP energy per Si atom -5569.726872 kJ/mol
# Density = 2.472521 g / cm^3
# Si number density = 24.781615 Si / 1000 Ang^3
#
#
#
# Elastic Constant Matrix: (Units=GPa)
#
#
# Indices 1 2 3 4 5 6 
#
# 1 80.9608 20.0426 15.0904 5.9963 14.8244 0.6271
# 2 20.0426 80.2182 42.9125 37.4421 8.2484 5.2676
# 3 15.0904 42.9125 154.5597 15.8355 26.0986 3.6791
# 4 5.9963 37.4421 15.8355 63.0544 10.9273 -0.0985
# 5 14.8244 8.2484 26.0986 10.9273 40.6231 4.5710
# 6 0.6271 5.2676 3.6791 -0.0985 4.5710 28.2923
#
#
#
# Elastic Compliance Matrix: (Units=1/GPa)
#
#
# Indices 1 2 3 4 5 6 
#
# 1 0.014122 -0.004233 0.000452 0.001970 -0.005258 0.001273
# 2 -0.004233 0.021541 -0.004930 -0.011845 0.003970 -0.003958
# 3 0.000452 -0.004930 0.008476 0.001645 -0.005124 0.000639
# 4 0.001970 -0.011845 0.001645 0.023334 -0.005984 0.002996
# 5 -0.005258 0.003970 -0.005124 -0.005984 0.031195 -0.005017
# 6 0.001273 -0.003958 0.000639 0.002996 -0.005017 0.036792
#
#
# Mechanical properties :
#
#
# Convention : Reuss Voigt Hill
#
# Bulk Modulus (GPa) = 37.42791 52.42553 44.92672
# Shear Modulus (GPa) = 30.90456 42.24018 36.57237
#
# Velocity S-wave (km/s) = 3.53523 4.13303 3.84576
# Velocity P-wave (km/s) = 5.63912 6.63151 6.15535
#
# Compressibility (1/GPa) = 0.02671803
#
# Stress axis : x y z
#
# Youngs Moduli (GPa) = 70.81052 46.42261 117.97856
#
# Poissons Ratio (x) = 0.19650 -0.05333
# Poissons Ratio (y) = 0.29972 0.58164
# Poissons Ratio (z) = -0.03201 0.22887
#
# Static dielectric constant tensor:
#      x y z
#    x 2.076970 0.053890 -0.014560 
#    y 0.053890 2.230650 -0.017280 
#    z -0.014560 -0.017280 1.955530 
# 
# From -- ./inp_files/219737.got.cif
#   From: 2010.05.17/outbox.cif.g08.bks.cpg/sg2_110_cif.got.tgz:219737.got - 2010.06.03 11:33:40.
