data_PCOD9091356
_publ_section_title
;
Structure prediction by ZEFSAII (Michael W. Deem and Ramdas Pophale) SiO2 
 PCOD9091356
Probable space group: P -1
;
_chemical_formula_sum "Si O2"
_cell_formula_units_Z 16
_cell_length_a 10.607109
_cell_length_b 10.933040
_cell_length_c 13.300182
_cell_angle_alpha 147.074719
_cell_angle_beta 57.874124
_cell_angle_gamma 128.549535
_cell_volume 655.519618
_symmetry_space_group_name_H-M "P -1"
_symmetry_group_IT_number 2
_symmetry_cell_setting 'triclinic'
loop_
_space_group_symop_operation_xyz
x,y,z
-x,-y,-z
loop_
_atom_site_type_symbol
_atom_site_label
_atom_site_fract_x
_atom_site_fract_y
_atom_site_fract_z
Si Si1 0.597921 0.654794 0.971175
Si Si2 0.135553 0.065895 0.187617
Si Si3 0.685120 0.456996 0.470018
Si Si4 0.846134 0.142286 0.294604
Si Si5 0.961513 0.147556 0.710731
Si Si6 0.602236 0.046496 0.742346
Si Si7 0.099431 0.550255 0.790467
Si Si8 0.754479 0.293858 0.645253
O O1 0.669441 0.473033 0.765567
O O2 0.500000 0.500000 0.000000
O O3 0.483474 0.778468 0.056653
O O4 0.745383 0.884679 0.110130
O O5 0.292418 0.291990 0.312488
O O6 0.029430 0.169917 0.236510
O O7 0.022440 0.949015 0.252895
O O8 0.159887 0.840645 0.971077
O O9 0.807663 0.347603 0.393453
O O10 0.764899 0.518718 0.369182
O O11 0.515183 0.234474 0.390478
O O12 0.784833 0.155115 0.441793
O O13 0.774346 0.103930 0.756424
O O14 0.066381 0.424423 0.826740
O O15 0.000000 0.000000 0.500000
O O16 0.640043 0.116551 0.656518
O O17 0.925861 0.440367 0.730402
#
# Coordination Sequence:
#
# PCOD9091356 Si02
#       8
#     2   2   2   2   2   2   2   2
#     4   9  19  36  59  91 133 163 202 270 315 371
#     4  12  23  40  68  96 128 173 215 266 314 380
#     4  11  24  41  61  98 139 163 209 267 327 385
#     4  11  22  38  66 100 129 169 218 257 326 382
#     4  11  22  46  74  92 120 172 226 265 313 381
#     4   9  22  40  63  94 130 170 208 268 323 375
#     4  11  23  41  66  98 125 168 222 262 316 378
#     4  10  19  39  65  92 130 169 216 262 312 383
#
# _framework density 24.408118000000002
#
# number of rings (size 3 to 8) (size 9 to 14) (size 15 to 20)
#    0.000    1.500    3.750    1.500    0.000    7.500 
#    0.000    1.875    2.750    0.000    0.000    0.000 
#    0.000    0.000    0.000    0.000    0.000    0.000 
#
# Total GULP energy -89553.282290 kJ/mol
# GULP energy per Si atom -5597.080143 kJ/mol
# Density = 2.435256 g / cm^3
# Si number density = 24.408118 Si / 1000 Ang^3
#
#
#
# Elastic Constant Matrix: (Units=GPa)
#
#
# Indices 1 2 3 4 5 6 
#
# 1 77.7544 18.6337 27.6879 4.5577 -17.0482 11.8293
# 2 18.6337 127.0668 10.9128 13.2411 9.0346 11.7789
# 3 27.6879 10.9128 75.2169 13.2299 -9.3929 20.1691
# 4 4.5577 13.2411 13.2299 43.2281 6.4083 9.0182
# 5 -17.0482 9.0346 -9.3929 6.4083 19.9501 -2.6350
# 6 11.8293 11.7789 20.1691 9.0182 -2.6350 33.7119
#
#
#
# Elastic Compliance Matrix: (Units=1/GPa)
#
#
# Indices 1 2 3 4 5 6 
#
# 1 0.018875 -0.003269 -0.003698 -0.001969 0.016308 -0.001468
# 2 -0.003269 0.009172 -0.000264 -0.000871 -0.007085 -0.002221
# 3 -0.003698 -0.000264 0.018335 -0.004364 0.005944 -0.007948
# 4 -0.001969 -0.000871 -0.004364 0.027875 -0.012939 -0.004862
# 5 0.016308 -0.007085 0.005944 -0.012939 0.074552 0.002485
# 6 -0.001468 -0.002221 -0.007948 -0.004862 0.002485 0.037204
#
#
# Mechanical properties :
#
#
# Convention : Reuss Voigt Hill
#
# Bulk Modulus (GPa) = 31.32534 43.83412 37.57973
# Shear Modulus (GPa) = 23.68371 34.23160 28.95765
#
# Velocity S-wave (km/s) = 3.11838 3.74902 3.44814
# Velocity P-wave (km/s) = 5.08208 6.06119 5.59310
#
# Compressibility (1/GPa) = 0.03192303
#
# Stress axis : x y z
#
# Youngs Moduli (GPa) = 52.97933 109.02526 54.53932
#
# Poissons Ratio (x) = 0.35637 0.20167
# Poissons Ratio (y) = 0.17317 0.01437
# Poissons Ratio (z) = 0.19590 0.02874
#
# Static dielectric constant tensor:
#      x y z
#    x 1.949990 -0.050410 -0.006780 
#    y -0.050410 1.991180 0.007260 
#    z -0.006780 0.007260 1.953580 
# 
# From -- ./inp_files/519369.got.cif
#   From: 2010.05.17/outbox.cif.g08.bks.cpg/sg2_260_cif.got.tgz:519369.got - 2010.06.03 11:33:40.
