data_PCOD9091654
_publ_section_title
;
Structure prediction by ZEFSAII (Michael W. Deem and Ramdas Pophale) SiO2 
 PCOD9091654
Probable space group: P -1
;
_chemical_formula_sum "Si O2"
_cell_formula_units_Z 14
_cell_length_a 9.834863
_cell_length_b 12.664333
_cell_length_c 12.866996
_cell_angle_alpha 145.601174
_cell_angle_beta 45.003646
_cell_angle_gamma 124.986463
_cell_volume 640.049511
_symmetry_space_group_name_H-M "P -1"
_symmetry_group_IT_number 2
_symmetry_cell_setting 'triclinic'
loop_
_space_group_symop_operation_xyz
x,y,z
-x,-y,-z
loop_
_atom_site_type_symbol
_atom_site_label
_atom_site_fract_x
_atom_site_fract_y
_atom_site_fract_z
Si Si1 0.278571 0.025655 0.604035
Si Si2 0.895486 0.158164 0.251497
Si Si3 0.262692 0.285037 0.230397
Si Si4 0.339920 0.105337 0.239965
Si Si5 0.465184 0.650677 0.499755
Si Si6 0.186806 0.427490 0.904520
Si Si7 0.343174 0.825963 0.187256
O O1 0.186706 0.238822 0.821411
O O2 0.500000 0.000000 0.500000
O O3 0.169091 0.912715 0.659235
O O4 0.289720 0.933352 0.408768
O O5 0.701205 0.210480 0.338037
O O6 0.064765 0.307800 0.293489
O O7 0.000000 0.000000 0.000000
O O8 0.204715 0.170562 0.272486
O O9 0.362802 0.457367 0.372807
O O10 0.431498 0.201172 0.993994
O O11 0.449442 0.270922 0.375645
O O12 0.259244 0.958654 0.247332
O O13 0.500000 0.000000 0.000000
O O14 0.652526 0.637043 0.316899
O O15 0.262172 0.617497 0.070112
O O16 0.000000 0.500000 0.000000
#
# Coordination Sequence:
#
# PCOD9091654 Si02
#       7
#     2   2   2   2   2   2   2
#     4  12  24  48  73  98 143 189 232 292 355 412
#     4  12  25  45  70 103 140 186 235 289 353 425
#     4  10  23  40  70 105 136 185 235 286 356 418
#     4  10  19  39  68  98 136 184 224 281 349 409
#     4  11  22  47  68  99 146 181 238 295 344 420
#     4  11  26  45  71 106 140 185 237 292 349 421
#     4  10  23  45  72 100 142 182 236 290 348 422
#
# _framework density 21.873307
#
# number of rings (size 3 to 8) (size 9 to 14) (size 15 to 20)
#    0.000    1.143    2.857    3.429    2.000    2.286 
#   10.286    0.000    0.000    0.000    0.000    0.000 
#    0.000    0.000    0.000    0.000    0.000    0.000 
#
# Total GULP energy -77960.849164 kJ/mol
# GULP energy per Si atom -5568.632083 kJ/mol
# Density = 2.182352 g / cm^3
# Si number density = 21.873307 Si / 1000 Ang^3
#
#
#
# Elastic Constant Matrix: (Units=GPa)
#
#
# Indices 1 2 3 4 5 6 
#
# 1 -106.5599 -254.0374 -163.6438 -81.7194 -72.4236 9.1106
# 2 -254.0374 -308.1037 -229.7315 -112.2556 -71.2281 -1.3317
# 3 -163.6438 -229.7315 -95.1646 -72.3464 -46.7008 -13.9759
# 4 -81.7194 -112.2556 -72.3464 2.1720 -20.5129 5.2295
# 5 -72.4236 -71.2281 -46.7008 -20.5129 36.7050 -4.9815
# 6 9.1106 -1.3317 -13.9759 5.2295 -4.9815 28.0930
#
#
#
# Elastic Compliance Matrix: (Units=1/GPa)
#
#
# Indices 1 2 3 4 5 6 
#
# 1 0.012223 -0.006436 -0.005257 -0.001316 0.003386 -0.006039
# 2 -0.006436 0.009763 -0.006701 -0.004354 -0.004825 -0.000829
# 3 -0.005257 -0.006701 0.017558 -0.004447 -0.002086 0.010580
# 4 -0.001316 -0.004354 -0.004447 0.026097 -0.003123 -0.007403
# 5 0.003386 -0.004825 -0.002086 -0.003123 0.020411 0.001836
# 6 -0.006039 -0.000829 0.010580 -0.007403 0.001836 0.044482
#
#
# Mechanical properties :
#
#
# Convention : Reuss Voigt Hill
#
# Bulk Modulus (GPa) = 362.74974 -200.51707 81.11634
# Shear Modulus (GPa) = 29.71918 22.56631 26.14274
#
# Velocity S-wave (km/s) = 3.69005 3.21547 3.46090
# Velocity P-wave (km/s) = 13.57780 8.83660 7.28942
#
# Compressibility (1/GPa) = 0.00275672
#
# Stress axis : x y z
#
# Youngs Moduli (GPa) = 81.81052 102.43070 56.95351
#
# Poissons Ratio (x) = 0.65923 0.29940
# Poissons Ratio (y) = 0.52652 0.38165
# Poissons Ratio (z) = 0.43007 0.68639
#
# Static dielectric constant tensor:
#      x y z
#    x 2.042040 -0.008650 -0.053040 
#    y -0.008650 1.886760 0.083850 
#    z -0.053040 0.083850 1.784970 
# 
# From -- ./inp_files/243467.got.cif
#   From: 2010.05.17/outbox.cif.g08.bks.cpg/sg2_122_cif.got.tgz:243467.got - 2010.06.03 11:33:40.
