data_PCOD9091368
_publ_section_title
;
Structure prediction by ZEFSAII (Michael W. Deem and Ramdas Pophale) SiO2 
 PCOD9091368
Probable space group: P -1
;
_chemical_formula_sum "Si O2"
_cell_formula_units_Z 16
_cell_length_a 14.887485
_cell_length_b 9.213957
_cell_length_c 21.186511
_cell_angle_alpha 33.926450
_cell_angle_beta 26.973988
_cell_angle_gamma 35.100727
_cell_volume 699.322417
_symmetry_space_group_name_H-M "P -1"
_symmetry_group_IT_number 2
_symmetry_cell_setting 'triclinic'
loop_
_space_group_symop_operation_xyz
x,y,z
-x,-y,-z
loop_
_atom_site_type_symbol
_atom_site_label
_atom_site_fract_x
_atom_site_fract_y
_atom_site_fract_z
Si Si1 0.455366 0.209368 0.640918
Si Si2 0.734161 0.812221 0.101768
Si Si3 0.190285 0.360899 0.340969
Si Si4 0.270287 0.174565 0.104313
Si Si5 0.637621 0.673167 0.882177
Si Si6 0.769571 0.365590 0.666314
Si Si7 0.939000 0.199574 0.193824
Si Si8 0.422061 0.051398 0.461057
O O1 0.500000 0.500000 0.500000
O O2 0.293627 0.200219 0.800451
O O3 0.413616 0.137273 0.622183
O O4 0.654488 0.941344 0.629671
O O5 0.780955 0.495998 0.167948
O O6 0.519607 0.017657 0.135824
O O7 0.919346 0.902769 0.920293
O O8 0.183742 0.376761 0.264375
O O9 0.251621 0.597749 0.256905
O O10 0.973905 0.397887 0.495470
O O11 0.216033 0.928719 0.261387
O O12 0.284619 0.385187 0.073742
O O13 0.101065 0.251171 0.126319
O O14 0.500000 0.000000 0.000000
O O15 0.500000 0.500000 0.000000
O O16 0.596497 0.637019 0.655087
O O17 0.797621 0.024415 0.374222
O O18 0.500000 0.000000 0.500000
#
# Coordination Sequence:
#
# PCOD9091368 Si02
#       8
#     2   2   2   2   2   2   2   2
#     4  10  19  39  65  93 133 174 217 276 337 387
#     4  10  23  41  70  95 137 176 222 283 328 409
#     4   9  20  39  63  93 131 169 214 280 318 390
#     4  12  24  41  71  97 134 177 223 275 335 401
#     4  11  24  42  66 100 135 172 216 280 339 397
#     4  10  22  39  65  97 127 176 230 267 327 393
#     4  11  23  44  68 104 132 179 228 274 340 396
#     4  11  25  42  71  98 139 181 226 278 332 401
#
# _framework density 22.879289
#
# number of rings (size 3 to 8) (size 9 to 14) (size 15 to 20)
#    0.000    1.500    2.500    3.000    3.500    0.500 
#    2.250    1.250    0.000    0.000    0.000    0.000 
#    0.000    0.000    0.000    0.000    0.000    0.000 
#
# Total GULP energy -89104.625482 kJ/mol
# GULP energy per Si atom -5569.039093 kJ/mol
# Density = 2.282721 g / cm^3
# Si number density = 22.879289 Si / 1000 Ang^3
#
#
#
# Elastic Constant Matrix: (Units=GPa)
#
#
# Indices 1 2 3 4 5 6 
#
# 1 120.6021 15.4624 29.4778 16.6230 17.2884 25.1558
# 2 15.4624 77.3135 -8.2046 6.0905 6.9021 4.8268
# 3 29.4778 -8.2046 61.0674 14.4676 23.4713 13.7775
# 4 16.6230 6.0905 14.4676 39.1454 12.8869 14.6359
# 5 17.2884 6.9021 23.4713 12.8869 35.1660 9.8447
# 6 25.1558 4.8268 13.7775 14.6359 9.8447 25.7232
#
#
#
# Elastic Compliance Matrix: (Units=1/GPa)
#
#
# Indices 1 2 3 4 5 6 
#
# 1 0.011290 -0.002101 -0.003709 0.000257 -0.000326 -0.008681
# 2 -0.002101 0.014489 0.005253 -0.001476 -0.004522 -0.000908
# 3 -0.003709 0.005253 0.025983 -0.002470 -0.014427 -0.004348
# 4 0.000257 -0.001476 -0.002470 0.034641 -0.006432 -0.015900
# 5 -0.000326 -0.004522 -0.014427 -0.006432 0.042511 -0.003715
# 6 -0.008681 -0.000908 -0.004348 -0.015900 -0.003715 0.060333
#
#
# Mechanical properties :
#
#
# Convention : Reuss Voigt Hill
#
# Bulk Modulus (GPa) = 19.74386 36.93936 28.34161
# Shear Modulus (GPa) = 24.12648 34.82341 29.47494
#
# Velocity S-wave (km/s) = 3.25085 3.90558 3.59316
# Velocity P-wave (km/s) = 4.76854 6.04305 5.44323
#
# Compressibility (1/GPa) = 0.05064865
#
# Stress axis : x y z
#
# Youngs Moduli (GPa) = 88.57623 69.02006 38.48723
#
# Poissons Ratio (x) = 0.14498 0.14273
# Poissons Ratio (y) = 0.18606 -0.20217
# Poissons Ratio (z) = 0.32849 -0.36256
#
# Static dielectric constant tensor:
#      x y z
#    x 1.804860 -0.112000 0.261070 
#    y -0.112000 1.757990 0.194370 
#    z 0.261070 0.194370 1.489990 
# 
# From -- ./inp_files/597304.got.cif
#   From: 2010.05.17/outbox.cif.g08.bks.cpg/sg2_299_cif.got.tgz:597304.got - 2010.06.03 11:33:40.
