data_PCOD9091552
_publ_section_title
;
Structure prediction by ZEFSAII (Michael W. Deem and Ramdas Pophale) SiO2 
 PCOD9091552
Probable space group: P -1
;
_chemical_formula_sum "Si O2"
_cell_formula_units_Z 16
_cell_length_a 22.677785
_cell_length_b 8.173383
_cell_length_c 7.695070
_cell_angle_alpha 62.405968
_cell_angle_beta 144.589690
_cell_angle_gamma 118.875734
_cell_volume 716.848268
_symmetry_space_group_name_H-M "P -1"
_symmetry_group_IT_number 2
_symmetry_cell_setting 'triclinic'
loop_
_space_group_symop_operation_xyz
x,y,z
-x,-y,-z
loop_
_atom_site_type_symbol
_atom_site_label
_atom_site_fract_x
_atom_site_fract_y
_atom_site_fract_z
Si Si1 0.383896 0.906463 0.223028
Si Si2 0.919388 0.428893 0.542037
Si Si3 0.384030 0.887028 0.819205
Si Si4 0.993458 0.823220 0.370951
Si Si5 0.214043 0.117686 0.290346
Si Si6 0.779003 0.451458 0.500666
Si Si7 0.244662 0.550637 0.163083
Si Si8 0.199730 0.108421 0.675953
O O1 0.349385 0.705160 0.329214
O O2 0.500000 0.000000 0.500000
O O3 0.376264 0.879961 0.011542
O O4 0.300231 0.030531 0.013854
O O5 0.991641 0.289398 0.718706
O O6 0.862633 0.383266 0.610720
O O7 0.972864 0.649617 0.542774
O O8 0.829403 0.402139 0.190675
O O9 0.336074 0.675427 0.743282
O O10 0.298763 0.002545 0.490766
O O11 0.500000 0.000000 0.000000
O O12 0.095603 0.981425 0.566504
O O13 0.893029 0.912309 0.057297
O O14 0.260638 0.340632 0.276274
O O15 0.191744 0.081815 0.459828
O O16 0.804017 0.440909 0.768359
O O17 0.785272 0.670050 0.360812
#
# Coordination Sequence:
#
# PCOD9091552 Si02
#       8
#     2   2   2   2   2   2   2   2
#     4  11  22  42  67  93 130 173 209 273 330 379
#     4  10  20  40  66  95 132 172 214 263 317 376
#     4  11  23  44  66  97 129 165 221 272 318 385
#     4  10  19  39  67  92 132 175 212 262 321 382
#     4   9  21  39  67  92 128 175 213 260 325 382
#     4  11  23  41  66  96 130 170 215 267 318 385
#     4  10  20  42  64  95 132 168 211 262 323 385
#     4  10  21  39  64  94 134 169 217 261 323 387
#
# _framework density 22.319925999999999
#
# number of rings (size 3 to 8) (size 9 to 14) (size 15 to 20)
#    0.000    1.750    2.500    1.875    0.000    1.500 
#    9.000   20.625    0.000    0.000    0.000    0.000 
#    0.000    0.000    0.000    0.000    0.000    0.000 
#
# Total GULP energy -89522.311736 kJ/mol
# GULP energy per Si atom -5595.144483 kJ/mol
# Density = 2.226912 g / cm^3
# Si number density = 22.319926 Si / 1000 Ang^3
#
#
#
# Elastic Constant Matrix: (Units=GPa)
#
#
# Indices 1 2 3 4 5 6 
#
# 1 90.7247 49.4129 22.2573 4.3173 7.9177 13.9131
# 2 49.4129 137.8971 67.7336 27.2585 18.8458 23.3388
# 3 22.2573 67.7336 119.4756 15.9501 22.4234 12.0777
# 4 4.3173 27.2585 15.9501 27.1275 7.0776 6.6734
# 5 7.9177 18.8458 22.4234 7.0776 30.6891 10.8170
# 6 13.9131 23.3388 12.0777 6.6734 10.8170 34.5322
#
#
#
# Elastic Compliance Matrix: (Units=1/GPa)
#
#
# Indices 1 2 3 4 5 6 
#
# 1 0.014206 -0.005479 0.000306 0.003854 -0.000450 -0.002732
# 2 -0.005479 0.014436 -0.005536 -0.009471 0.000125 -0.003822
# 3 0.000306 -0.005536 0.012558 -0.000572 -0.006170 0.001270
# 4 0.003854 -0.009471 -0.000572 0.048043 -0.004887 -0.002705
# 5 -0.000450 0.000125 -0.006170 -0.004887 0.041741 -0.009876
# 6 -0.002732 -0.003822 0.001270 -0.002705 -0.009876 0.035814
#
#
# Mechanical properties :
#
#
# Convention : Reuss Voigt Hill
#
# Bulk Modulus (GPa) = 50.55267 69.65613 60.10440
# Shear Modulus (GPa) = 25.66597 32.38267 29.02432
#
# Velocity S-wave (km/s) = 3.39472 3.81312 3.60999
# Velocity P-wave (km/s) = 6.16958 7.11775 6.66056
#
# Compressibility (1/GPa) = 0.01978135
#
# Stress axis : x y z
#
# Youngs Moduli (GPa) = 70.39247 69.26975 79.63263
#
# Poissons Ratio (x) = 0.37950 -0.02433
# Poissons Ratio (y) = 0.38565 0.44087
# Poissons Ratio (z) = -0.02151 0.38350
#
# Static dielectric constant tensor:
#      x y z
#    x 1.848800 -0.016950 -0.002110 
#    y -0.016950 1.856470 0.011400 
#    z -0.002110 0.011400 1.808820 
# 
# From -- ./inp_files/351682.got.cif
#   From: 2010.05.17/outbox.cif.g08.bks.cpg/sg2_176_cif.got.tgz:351682.got - 2010.06.03 11:33:40.
