data_PCOD9091476
_publ_section_title
;
Structure prediction by ZEFSAII (Michael W. Deem and Ramdas Pophale) SiO2 
 PCOD9091476
Probable space group: P -1
;
_chemical_formula_sum "Si O2"
_cell_formula_units_Z 16
_cell_length_a 20.869473
_cell_length_b 9.187661
_cell_length_c 7.116912
_cell_angle_alpha 68.470136
_cell_angle_beta 59.453474
_cell_angle_gamma 33.417840
_cell_volume 642.514895
_symmetry_space_group_name_H-M "P -1"
_symmetry_group_IT_number 2
_symmetry_cell_setting 'triclinic'
loop_
_space_group_symop_operation_xyz
x,y,z
-x,-y,-z
loop_
_atom_site_type_symbol
_atom_site_label
_atom_site_fract_x
_atom_site_fract_y
_atom_site_fract_z
Si Si1 0.285842 0.500060 0.945989
Si Si2 0.216571 0.814721 0.548463
Si Si3 0.532867 0.227252 0.747881
Si Si4 0.820482 0.752239 0.623659
Si Si5 0.506967 0.628653 0.699796
Si Si6 0.270639 0.209247 0.898818
Si Si7 0.020050 0.981326 0.205042
Si Si8 0.940723 0.454936 0.220887
O O1 0.245526 0.714857 0.769582
O O2 0.417748 0.311216 0.937789
O O3 0.302352 0.329646 0.857443
O O4 0.162083 0.679170 0.171520
O O5 0.351419 0.561222 0.365948
O O6 0.099968 0.913751 0.594871
O O7 0.187216 0.047970 0.478551
O O8 0.506854 0.441480 0.775781
O O9 0.518344 0.271210 0.523499
O O10 0.676910 0.935119 0.710416
O O11 0.923654 0.515064 0.437865
O O12 0.834250 0.675348 0.853090
O O13 0.394094 0.891835 0.863689
O O14 0.202276 0.320804 0.749304
O O15 0.009019 0.177997 0.195693
O O16 0.000000 0.000000 0.000000
O O17 0.000000 0.500000 0.000000
#
# Coordination Sequence:
#
# PCOD9091476 Si02
#       8
#     2   2   2   2   2   2   2   2
#     4  10  21  38  66  94 130 175 212 262 322 384
#     4   9  19  39  65  92 129 175 214 258 317 393
#     4   9  19  38  65  94 129 172 217 256 320 393
#     4  11  25  43  67 101 129 165 220 266 318 386
#     4   9  19  36  65  94 125 173 215 261 322 377
#     4  12  25  41  66 101 129 166 218 269 324 376
#     4  10  19  39  66  93 123 174 217 254 324 386
#     4  12  25  43  70  93 132 174 211 269 324 380
#
# _framework density 24.902148
#
# number of rings (size 3 to 8) (size 9 to 14) (size 15 to 20)
#    0.000    1.750    3.750    2.250    1.750    6.000 
#    0.000    1.875    0.000    0.000    0.000    0.000 
#    0.000    0.000    0.000    0.000    0.000    0.000 
#
# Total GULP energy -89590.401045 kJ/mol
# GULP energy per Si atom -5599.400065 kJ/mol
# Density = 2.484547 g / cm^3
# Si number density = 24.902148 Si / 1000 Ang^3
#
#
#
# Elastic Constant Matrix: (Units=GPa)
#
#
# Indices 1 2 3 4 5 6 
#
# 1 107.2486 40.4775 46.0012 22.6552 -33.3757 -3.5250
# 2 40.4775 83.1849 30.8110 23.3772 2.3260 2.6668
# 3 46.0012 30.8110 99.8809 28.9588 3.1949 9.1559
# 4 22.6552 23.3772 28.9588 50.8040 -5.5595 -1.2347
# 5 -33.3757 2.3260 3.1949 -5.5595 44.9550 10.9728
# 6 -3.5250 2.6668 9.1559 -1.2347 10.9728 41.6980
#
#
#
# Elastic Compliance Matrix: (Units=1/GPa)
#
#
# Indices 1 2 3 4 5 6 
#
# 1 0.020492 -0.007725 -0.007716 0.000592 0.016322 -0.000357
# 2 -0.007725 0.017517 -0.000051 -0.005386 -0.007304 0.000000
# 3 -0.007716 -0.000051 0.015897 -0.006429 -0.007046 -0.002476
# 4 0.000592 -0.005386 -0.006429 0.026040 0.004025 0.001518
# 5 0.016322 -0.007304 -0.007046 0.004025 0.037275 -0.006296
# 6 -0.000357 0.000000 -0.002476 0.001518 -0.006296 0.026197
#
#
# Mechanical properties :
#
#
# Convention : Reuss Voigt Hill
#
# Bulk Modulus (GPa) = 43.62320 58.32154 50.97237
# Shear Modulus (GPa) = 27.46634 39.02637 33.24636
#
# Velocity S-wave (km/s) = 3.32470 3.96307 3.65784
# Velocity P-wave (km/s) = 5.68279 6.66426 6.19300
#
# Compressibility (1/GPa) = 0.02292358
#
# Stress axis : x y z
#
# Youngs Moduli (GPa) = 48.80068 57.08823 62.90317
#
# Poissons Ratio (x) = 0.44098 0.48534
# Poissons Ratio (y) = 0.37696 0.00319
# Poissons Ratio (z) = 0.37653 0.00290
#
# Static dielectric constant tensor:
#      x y z
#    x 1.963430 -0.025290 -0.019420 
#    y -0.025290 1.935010 -0.006430 
#    z -0.019420 -0.006430 2.030340 
# 
# From -- ./inp_files/343533.got.cif
#   From: 2010.05.17/outbox.cif.g08.bks.cpg/sg2_172_cif.got.tgz:343533.got - 2010.06.03 11:33:40.
