data_PCOD9091944
_publ_section_title
;
Structure prediction by ZEFSAII (Michael W. Deem and Ramdas Pophale) SiO2 
 PCOD9091944
Probable space group: P -1
;
_chemical_formula_sum "Si O2"
_cell_formula_units_Z 16
_cell_length_a 12.770310
_cell_length_b 10.347186
_cell_length_c 14.494587
_cell_angle_alpha 112.397399
_cell_angle_beta 143.148111
_cell_angle_gamma 49.476559
_cell_volume 831.642775
_symmetry_space_group_name_H-M "P -1"
_symmetry_group_IT_number 2
_symmetry_cell_setting 'triclinic'
loop_
_space_group_symop_operation_xyz
x,y,z
-x,-y,-z
loop_
_atom_site_type_symbol
_atom_site_label
_atom_site_fract_x
_atom_site_fract_y
_atom_site_fract_z
Si Si1 0.438129 0.181368 0.050496
Si Si2 0.235937 0.115236 0.353953
Si Si3 0.801286 0.725191 0.816979
Si Si4 0.372543 0.665595 0.884502
Si Si5 0.986954 0.669187 0.553270
Si Si6 0.038363 0.642163 0.148822
Si Si7 0.072788 0.946455 0.290538
Si Si8 0.330078 0.967665 0.640380
O O1 0.461295 0.308175 0.039595
O O2 0.603917 0.121278 0.237815
O O3 0.190328 0.288135 0.943498
O O4 0.500000 0.000000 0.000000
O O5 0.140769 0.230073 0.225388
O O6 0.126872 0.240297 0.402258
O O7 0.500000 0.000000 0.500000
O O8 0.190171 0.974341 0.299223
O O9 0.561061 0.892321 0.731536
O O10 0.786960 0.563936 0.756362
O O11 0.984969 0.662599 0.007698
O O12 0.222608 0.633409 0.708969
O O13 0.500000 0.500000 0.000000
O O14 0.180663 0.868568 0.841274
O O15 0.000000 0.500000 0.500000
O O16 0.824166 0.819399 0.404270
O O17 0.091354 0.773131 0.247410
O O18 0.189750 0.936349 0.465762
#
# Coordination Sequence:
#
# PCOD9091944 Si02
#       8
#     2   2   2   2   2   2   2   2
#     4  11  22  39  63  86 120 170 199 247 315 364
#     4  10  19  40  64  85 121 164 198 245 313 357
#     4  10  20  40  60  85 120 159 200 256 301 370
#     4  10  23  40  57  89 126 156 202 253 307 370
#     4  10  23  39  63  94 125 159 205 257 305 361
#     4  10  23  37  60  90 118 155 210 250 308 356
#     4  10  21  40  60  90 119 156 204 261 297 363
#     4   9  21  40  62  83 126 156 209 252 305 362
#
# _framework density 19.239028999999999
#
# number of rings (size 3 to 8) (size 9 to 14) (size 15 to 20)
#    0.000    2.250    3.750    0.000    5.250    3.000 
#    2.250    2.500    0.000    0.000    0.000    0.000 
#    0.000    0.000    0.000    0.000    0.000    0.000 
#
# Total GULP energy -89192.372946 kJ/mol
# GULP energy per Si atom -5574.523309 kJ/mol
# Density = 1.919524 g / cm^3
# Si number density = 19.239029 Si / 1000 Ang^3
#
#
#
# Elastic Constant Matrix: (Units=GPa)
#
#
# Indices 1 2 3 4 5 6 
#
# 1 84.7801 18.5074 22.7543 8.1558 -8.2195 29.6003
# 2 18.5074 114.6437 27.7250 18.5948 0.1034 34.5994
# 3 22.7543 27.7250 50.1709 -6.5772 -6.2535 17.9031
# 4 8.1558 18.5948 -6.5772 26.7096 5.7866 2.0876
# 5 -8.2195 0.1034 -6.2535 5.7866 27.0391 -3.8644
# 6 29.6003 34.5994 17.9031 2.0876 -3.8644 34.7020
#
#
#
# Elastic Compliance Matrix: (Units=1/GPa)
#
#
# Indices 1 2 3 4 5 6 
#
# 1 0.020293 0.005748 -0.006767 -0.011380 0.004391 -0.018376
# 2 0.005748 0.017178 -0.007838 -0.014423 0.000517 -0.017062
# 3 -0.006767 -0.007838 0.030500 0.014953 0.001414 -0.002890
# 4 -0.011380 -0.014423 0.014953 0.055924 -0.010217 0.011871
# 5 0.004391 0.000517 0.001414 -0.010217 0.040855 0.000174
# 6 -0.018376 -0.017062 -0.002890 0.011871 0.000174 0.062299
#
#
# Mechanical properties :
#
#
# Convention : Reuss Voigt Hill
#
# Bulk Modulus (GPa) = 19.89747 43.06312 31.48030
# Shear Modulus (GPa) = 19.11929 29.73067 24.42498
#
# Velocity S-wave (km/s) = 3.15584 3.93533 3.56695
# Velocity P-wave (km/s) = 4.86249 6.56361 5.77602
#
# Compressibility (1/GPa) = 0.05025764
#
# Stress axis : x y z
#
# Youngs Moduli (GPa) = 49.27836 58.21259 32.78641
#
# Poissons Ratio (x) = -0.33462 0.22188
# Poissons Ratio (y) = -0.28327 0.25698
# Poissons Ratio (z) = 0.33348 0.45627
#
# Static dielectric constant tensor:
#      x y z
#    x 1.696330 -0.005380 -0.002510 
#    y -0.005380 1.690060 -0.013460 
#    z -0.002510 -0.013460 1.693080 
# 
# From -- ./inp_files/515790.got.cif
#   From: 2010.05.17/outbox.cif.g08.bks.cpg/sg2_258_cif.got.tgz:515790.got - 2010.06.03 11:33:40.
