data_PCOD9091211
_publ_section_title
;
Structure prediction by ZEFSAII (Michael W. Deem and Ramdas Pophale) SiO2 
 PCOD9091211
Probable space group: P -1
;
_chemical_formula_sum "Si O2"
_cell_formula_units_Z 15
_cell_length_a 7.476026
_cell_length_b 15.704698
_cell_length_c 6.726868
_cell_angle_alpha 125.053257
_cell_angle_beta 72.236032
_cell_angle_gamma 87.623035
_cell_volume 591.447703
_symmetry_space_group_name_H-M "P -1"
_symmetry_group_IT_number 2
_symmetry_cell_setting 'triclinic'
loop_
_space_group_symop_operation_xyz
x,y,z
-x,-y,-z
loop_
_atom_site_type_symbol
_atom_site_label
_atom_site_fract_x
_atom_site_fract_y
_atom_site_fract_z
Si Si1 0.648539 0.963869 0.718435
Si Si2 0.000000 0.000000 0.500000
Si Si3 0.016264 0.223486 0.009373
Si Si4 0.545032 0.826313 0.093968
Si Si5 0.657286 0.383682 0.506053
Si Si6 0.024036 0.619960 0.141924
Si Si7 0.448082 0.615331 0.928279
Si Si8 0.620357 0.747115 0.528165
O O1 0.873907 0.957783 0.663775
O O2 0.618445 0.847806 0.521246
O O3 0.500000 0.000000 0.000000
O O4 0.601398 0.053468 0.678021
O O5 0.035951 0.878387 0.213837
O O6 0.020744 0.316904 0.970231
O O7 0.859297 0.289353 0.310985
O O8 0.231342 0.175741 0.961557
O O9 0.496810 0.728008 0.089644
O O10 0.518538 0.797638 0.833650
O O11 0.626866 0.507545 0.749110
O O12 0.606760 0.390696 0.295516
O O13 0.487520 0.341998 0.611877
O O14 0.844804 0.689362 0.425272
O O15 0.246399 0.616863 0.108161
O O16 0.000000 0.500000 0.000000
#
# Coordination Sequence:
#
# PCOD9091211 Si02
#       8
#     2   1   2   2   2   2   2   2
#     4  10  21  40  65  89 126 166 211 259 316 382
#     4  12  22  42  68  90 122 174 216 260 324 386
#     4  11  24  40  63  92 122 161 215 258 317 378
#     4  10  23  40  60  92 127 163 205 265 313 365
#     4   9  18  36  61  87 119 166 205 246 306 385
#     4  11  20  38  65  91 121 166 211 250 310 381
#     4   9  18  35  61  87 122 163 206 246 309 375
#     4  10  19  39  64  90 122 166 205 255 312 374
#
# _framework density 25.361498000000001
#
# number of rings (size 3 to 8) (size 9 to 14) (size 15 to 20)
#    0.000    1.867    2.667    3.200    1.867    1.067 
#    0.000    8.000    0.000    0.000    0.000    0.000 
#    0.000    0.000    0.000    0.000    0.000    0.000 
#
# Total GULP energy -83515.266928 kJ/mol
# GULP energy per Si atom -5567.684462 kJ/mol
# Density = 2.530377 g / cm^3
# Si number density = 25.361498 Si / 1000 Ang^3
#
#
#
# Elastic Constant Matrix: (Units=GPa)
#
#
# Indices 1 2 3 4 5 6 
#
# 1 64.9817 23.5127 7.0336 23.1177 0.6526 20.2765
# 2 23.5127 139.7966 42.6421 34.7107 8.0017 32.7164
# 3 7.0336 42.6421 114.4409 29.6886 -7.5175 21.4472
# 4 23.1177 34.7107 29.6886 61.0549 5.2059 -0.3673
# 5 0.6526 8.0017 -7.5175 5.2059 30.5748 0.9770
# 6 20.2765 32.7164 21.4472 -0.3673 0.9770 52.6410
#
#
#
# Elastic Compliance Matrix: (Units=1/GPa)
#
#
# Indices 1 2 3 4 5 6 
#
# 1 0.021633 0.000016 0.003259 -0.010045 0.002358 -0.009785
# 2 0.000016 0.010346 -0.001626 -0.004955 -0.002080 -0.005770
# 3 0.003259 -0.001626 0.012178 -0.006660 0.004655 -0.005339
# 4 -0.010045 -0.004955 -0.006660 0.026723 -0.004994 0.009941
# 5 0.002358 -0.002080 0.004655 -0.004994 0.035266 -0.002202
# 6 -0.009785 -0.005770 -0.005339 0.009941 -0.002202 0.028637
#
#
# Mechanical properties :
#
#
# Convention : Reuss Voigt Hill
#
# Bulk Modulus (GPa) = 21.07218 51.73288 36.40253
# Shear Modulus (GPa) = 33.94355 45.25620 39.59987
#
# Velocity S-wave (km/s) = 3.66237 4.22885 3.95576
# Velocity P-wave (km/s) = 5.11964 6.65483 5.93706
#
# Compressibility (1/GPa) = 0.04745593
#
# Stress axis : x y z
#
# Youngs Moduli (GPa) = 46.22497 96.65480 82.11619
#
# Poissons Ratio (x) = -0.00159 -0.26760
# Poissons Ratio (y) = -0.00076 0.13352
# Poissons Ratio (z) = -0.15064 0.15716
#
# Static dielectric constant tensor:
#      x y z
#    x 2.342110 -0.019560 -0.087910 
#    y -0.019560 2.151020 -0.071530 
#    z -0.087910 -0.071530 2.098710 
# 
# From -- ./inp_files/198256.got.cif
#   From: 2010.05.17/outbox.cif.g08.bks.cpg/sg2_100_cif.got.tgz:198256.got - 2010.06.03 11:33:40.
