data_PCOD9091197
_publ_section_title
;
Structure prediction by ZEFSAII (Michael W. Deem and Ramdas Pophale) SiO2 
 PCOD9091197
Probable space group: P -1
;
_chemical_formula_sum "Si O2"
_cell_formula_units_Z 12
_cell_length_a 6.655594
_cell_length_b 9.558588
_cell_length_c 18.379381
_cell_angle_alpha 53.889077
_cell_angle_beta 140.796323
_cell_angle_gamma 126.590056
_cell_volume 574.397086
_symmetry_space_group_name_H-M "P -1"
_symmetry_group_IT_number 2
_symmetry_cell_setting 'triclinic'
loop_
_space_group_symop_operation_xyz
x,y,z
-x,-y,-z
loop_
_atom_site_type_symbol
_atom_site_label
_atom_site_fract_x
_atom_site_fract_y
_atom_site_fract_z
Si Si1 0.609937 0.705104 0.251217
Si Si2 0.666748 0.245939 0.611106
Si Si3 0.518309 0.804755 0.041125
Si Si4 0.390320 0.676896 0.896093
Si Si5 0.245569 0.429610 0.348474
Si Si6 0.718999 0.051266 0.819973
O O1 0.469155 0.681233 0.136742
O O2 0.493204 0.534674 0.323148
O O3 0.470401 0.858061 0.202759
O O4 0.004263 0.760861 0.336936
O O5 0.383217 0.275580 0.470275
O O6 0.759230 0.422965 0.635584
O O7 0.574231 0.079170 0.691780
O O8 0.897793 0.837369 0.110964
O O9 0.290461 0.736588 0.928935
O O10 0.500000 0.000000 0.000000
O O11 0.101843 0.636536 0.768692
O O12 0.671232 0.845598 0.891157
O O13 0.500000 0.500000 0.000000
#
# Coordination Sequence:
#
# PCOD9091197 Si02
#       6
#     2   2   2   2   2   2
#     4  10  19  39  64  88 118 168 201 243 308 367
#     4   9  20  42  66  86 119 169 204 240 315 364
#     4  11  23  40  64  86 121 171 200 234 311 375
#     4  12  24  39  60  95 128 155 202 260 300 349
#     4  10  22  39  62  95 125 153 205 262 295 356
#     4  10  22  40  64  86 122 164 204 248 299 372
#
# _framework density 20.891472
#
# number of rings (size 3 to 8) (size 9 to 14) (size 15 to 20)
#    0.000    1.667    1.667    4.000    2.333    1.333 
#    3.000    0.833    0.000    0.000    0.000    0.000 
#    0.000    0.000    0.000    0.000    0.000    0.000 
#
# Total GULP energy -67025.286135 kJ/mol
# GULP energy per Si atom -5585.440511 kJ/mol
# Density = 2.084392 g / cm^3
# Si number density = 20.891472 Si / 1000 Ang^3
#
#
#
# Elastic Constant Matrix: (Units=GPa)
#
#
# Indices 1 2 3 4 5 6 
#
# 1 109.1167 19.6532 33.8720 -5.5633 -3.0172 3.4335
# 2 19.6532 45.3489 24.9146 -11.9517 -16.4915 2.0754
# 3 33.8720 24.9146 139.3152 -4.3570 -24.0119 -0.1542
# 4 -5.5633 -11.9517 -4.3570 34.7384 2.1012 -9.4000
# 5 -3.0172 -16.4915 -24.0119 2.1012 33.4834 -9.2611
# 6 3.4335 2.0754 -0.1542 -9.4000 -9.2611 26.7082
#
#
#
# Elastic Compliance Matrix: (Units=1/GPa)
#
#
# Indices 1 2 3 4 5 6 
#
# 1 0.010717 -0.004749 -0.002434 -0.000692 -0.003789 -0.002580
# 2 -0.004749 0.033738 -0.001674 0.011757 0.016410 0.007807
# 3 -0.002434 -0.001674 0.009176 0.000585 0.006298 0.002886
# 4 -0.000692 0.011757 0.000585 0.036293 0.007937 0.014704
# 5 -0.003789 0.016410 0.006298 0.007937 0.046665 0.018223
# 6 -0.002580 0.007807 0.002886 0.014704 0.018223 0.048677
#
#
# Mechanical properties :
#
#
# Convention : Reuss Voigt Hill
#
# Bulk Modulus (GPa) = 27.84260 50.07335 38.95798
# Shear Modulus (GPa) = 23.26090 33.34208 28.30149
#
# Velocity S-wave (km/s) = 3.34041 3.99929 3.68461
# Velocity P-wave (km/s) = 5.31356 6.73395 6.06548
#
# Compressibility (1/GPa) = 0.03591618
#
# Stress axis : x y z
#
# Youngs Moduli (GPa) = 93.31371 29.64001 108.97910
#
# Poissons Ratio (x) = 0.14077 0.26523
# Poissons Ratio (y) = 0.44319 0.18245
# Poissons Ratio (z) = 0.22710 0.04962
#
# Static dielectric constant tensor:
#      x y z
#    x 1.758850 -0.007720 -0.014000 
#    y -0.007720 1.763270 0.000640 
#    z -0.014000 0.000640 1.785390 
# 
# From -- ./inp_files/22288.got.cif
#   From: 2010.05.17/outbox.cif.g08.bks.cpg/sg2_12_cif.got.tgz:22288.got - 2010.06.03 11:33:40.
