data_PCOD9091401
_publ_section_title
;
Structure prediction by ZEFSAII (Michael W. Deem and Ramdas Pophale) SiO2 
 PCOD9091401
Probable space group: P -1
;
_chemical_formula_sum "Si O2"
_cell_formula_units_Z 16
_cell_length_a 12.301113
_cell_length_b 8.819612
_cell_length_c 9.164553
_cell_angle_alpha 101.421997
_cell_angle_beta 49.581098
_cell_angle_gamma 95.238608
_cell_volume 741.054733
_symmetry_space_group_name_H-M "P -1"
_symmetry_group_IT_number 2
_symmetry_cell_setting 'triclinic'
loop_
_space_group_symop_operation_xyz
x,y,z
-x,-y,-z
loop_
_atom_site_type_symbol
_atom_site_label
_atom_site_fract_x
_atom_site_fract_y
_atom_site_fract_z
Si Si1 0.079936 0.021367 0.585754
Si Si2 0.382760 0.904852 0.738971
Si Si3 0.005846 0.164829 0.110756
Si Si4 0.604241 0.618049 0.510383
Si Si5 0.120462 0.729646 0.037588
Si Si6 0.542855 0.432979 0.793585
Si Si7 0.630939 0.095296 0.596452
Si Si8 0.763576 0.608392 0.092975
O O1 0.007036 0.175785 0.751374
O O2 0.047075 0.876777 0.692397
O O3 0.252198 0.011935 0.438510
O O4 0.000000 0.000000 0.500000
O O5 0.512738 0.776937 0.608530
O O6 0.339202 0.920308 0.608345
O O7 0.465984 0.051167 0.748177
O O8 0.256333 0.839997 0.933666
O O9 0.916915 0.281877 0.104305
O O10 0.156686 0.242827 0.001592
O O11 0.000000 0.000000 0.000000
O O12 0.500000 0.500000 0.500000
O O13 0.620162 0.556286 0.648148
O O14 0.741383 0.623136 0.289740
O O15 0.158126 0.559789 0.033957
O O16 0.635658 0.272000 0.678350
O O17 0.392202 0.399611 0.842151
O O18 0.500000 0.500000 0.000000
#
# Coordination Sequence:
#
# PCOD9091401 Si02
#       8
#     2   2   2   2   2   2   2   2
#     4  11  27  45  61  91 144 184 216 267 333 416
#     4  11  21  39  72 105 126 166 233 292 326 381
#     4  10  24  41  67  94 131 174 224 276 329 395
#     4  10  19  39  65  98 132 162 218 282 331 386
#     4  11  22  42  67  98 132 172 222 277 334 396
#     4  11  24  42  67 100 140 172 217 276 342 405
#     4  11  24  40  70 102 130 175 227 280 337 388
#     4  11  22  42  69 101 128 174 225 283 337 391
#
# _framework density 21.590848999999999
#
# number of rings (size 3 to 8) (size 9 to 14) (size 15 to 20)
#    0.000    1.250    6.250    0.375    8.750    0.000 
#    2.250    1.875    0.000    0.000    0.000    0.000 
#    0.000    0.000    0.000    0.000    0.000    0.000 
#
# Total GULP energy -89324.003648 kJ/mol
# GULP energy per Si atom -5582.750228 kJ/mol
# Density = 2.154171 g / cm^3
# Si number density = 21.590849 Si / 1000 Ang^3
#
#
#
# Elastic Constant Matrix: (Units=GPa)
#
#
# Indices 1 2 3 4 5 6 
#
# 1 100.0936 29.6964 40.5430 4.7523 -2.8163 -2.2416
# 2 29.6964 75.9950 20.1900 11.9140 -4.7420 -6.4543
# 3 40.5430 20.1900 67.5868 6.7448 5.2053 -2.0531
# 4 4.7523 11.9140 6.7448 34.4764 -7.6649 -20.5779
# 5 -2.8163 -4.7420 5.2053 -7.6649 35.1068 -0.5045
# 6 -2.2416 -6.4543 -2.0531 -20.5779 -0.5045 29.3574
#
#
#
# Elastic Compliance Matrix: (Units=1/GPa)
#
#
# Indices 1 2 3 4 5 6 
#
# 1 0.014197 -0.003549 -0.007797 0.002029 0.002276 0.001220
# 2 -0.003549 0.015906 -0.002301 -0.004171 0.001297 0.000163
# 3 -0.007797 -0.002301 0.021019 -0.005608 -0.005330 -0.003654
# 4 0.002029 -0.004171 -0.005608 0.058036 0.013673 0.039761
# 5 0.002276 0.001297 -0.005330 0.013673 0.032765 0.010233
# 6 0.001220 0.000163 -0.003654 0.039761 0.010233 0.061982
#
#
# Mechanical properties :
#
#
# Convention : Reuss Voigt Hill
#
# Bulk Modulus (GPa) = 41.96705 47.17048 44.56876
# Shear Modulus (GPa) = 20.90818 30.00452 25.45635
#
# Velocity S-wave (km/s) = 3.11526 3.73189 3.43743
# Velocity P-wave (km/s) = 5.69380 6.36115 6.03671
#
# Compressibility (1/GPa) = 0.02382822
#
# Stress axis : x y z
#
# Youngs Moduli (GPa) = 70.43971 62.87102 47.57525
#
# Poissons Ratio (x) = 0.22310 0.37093
# Poissons Ratio (y) = 0.24996 0.10949
# Poissons Ratio (z) = 0.54919 0.14469
#
# Static dielectric constant tensor:
#      x y z
#    x 1.817230 -0.004990 -0.015110 
#    y -0.004990 1.792680 0.037140 
#    z -0.015110 0.037140 1.785340 
# 
# From -- ./inp_files/244362.got.cif
#   From: 2010.05.17/outbox.cif.g08.bks.cpg/sg2_123_cif.got.tgz:244362.got - 2010.06.03 11:33:40.
