data_PCOD9091142
_publ_section_title
;
Structure prediction by ZEFSAII (Michael W. Deem and Ramdas Pophale) SiO2 
 PCOD9091142
Probable space group: P -1
;
_chemical_formula_sum "Si O2"
_cell_formula_units_Z 16
_cell_length_a 11.786889
_cell_length_b 7.917707
_cell_length_c 19.138271
_cell_angle_alpha 44.503692
_cell_angle_beta 31.344712
_cell_angle_gamma 45.763796
_cell_volume 631.778410
_symmetry_space_group_name_H-M "P -1"
_symmetry_group_IT_number 2
_symmetry_cell_setting 'triclinic'
loop_
_space_group_symop_operation_xyz
x,y,z
-x,-y,-z
loop_
_atom_site_type_symbol
_atom_site_label
_atom_site_fract_x
_atom_site_fract_y
_atom_site_fract_z
Si Si1 0.102951 0.426369 0.392745
Si Si2 0.608913 0.592134 0.534367
Si Si3 0.933946 0.652994 0.780323
Si Si4 0.824027 0.252218 0.850176
Si Si5 0.514419 0.049761 0.895535
Si Si6 0.818585 0.475991 0.044357
Si Si7 0.220922 0.883145 0.468755
Si Si8 0.301552 0.943585 0.705379
O O1 0.871163 0.493106 0.449417
O O2 0.000000 0.500000 0.500000
O O3 0.245134 0.594162 0.230000
O O4 0.253239 0.146521 0.399254
O O5 0.574164 0.319661 0.614581
O O6 0.457668 0.750858 0.627278
O O7 0.609391 0.805464 0.412704
O O8 0.865271 0.446881 0.828462
O O9 0.156640 0.718530 0.614484
O O10 0.762997 0.922979 0.779627
O O11 0.905578 0.564847 0.899668
O O12 0.641287 0.109155 0.011923
O O13 0.052127 0.047866 0.773192
O O14 0.500000 0.000000 0.000000
O O15 0.405901 0.336478 0.863453
O O16 0.759980 0.208583 0.151879
O O17 0.000000 0.500000 0.000000
O O18 0.000000 0.000000 0.500000
#
# Coordination Sequence:
#
# PCOD9091142 Si02
#       8
#     2   2   2   2   2   2   2   2
#     4  10  22  33  65  93 126 165 212 276 325 387
#     4   9  20  39  63  88 124 169 211 270 312 389
#     4  11  23  40  68  94 130 171 217 280 319 388
#     4  11  21  43  60  93 131 166 224 270 326 385
#     4  10  24  40  63  92 126 169 216 274 327 384
#     4  11  24  40  63  94 129 177 217 263 331 393
#     4  10  19  39  63  95 123 167 218 266 334 373
#     4  10  20  38  65  87 127 170 217 257 327 386
#
# _framework density 25.325336
#
# number of rings (size 3 to 8) (size 9 to 14) (size 15 to 20)
#    0.000    1.750    5.000    0.375    7.000    1.500 
#    0.000    0.000    2.750    4.500    0.000    0.000 
#    0.000    0.000    0.000    0.000    0.000    0.000 
#
# Total GULP energy -89303.466813 kJ/mol
# GULP energy per Si atom -5581.466676 kJ/mol
# Density = 2.526769 g / cm^3
# Si number density = 25.325336 Si / 1000 Ang^3
#
#
#
# Elastic Constant Matrix: (Units=GPa)
#
#
# Indices 1 2 3 4 5 6 
#
# 1 66.7123 26.6525 28.8664 -4.1907 7.9590 2.3561
# 2 26.6525 194.6327 31.2711 -11.4756 17.9617 -5.6028
# 3 28.8664 31.2711 91.3381 -21.8213 32.8425 -2.3534
# 4 -4.1907 -11.4756 -21.8213 52.6603 -6.7755 3.6673
# 5 7.9590 17.9617 32.8425 -6.7755 30.1788 -0.1191
# 6 2.3561 -5.6028 -2.3534 3.6673 -0.1191 26.1242
#
#
#
# Elastic Compliance Matrix: (Units=1/GPa)
#
#
# Indices 1 2 3 4 5 6 
#
# 1 0.018230 -0.001869 -0.006618 -0.001109 0.003248 -0.002471
# 2 -0.001869 0.005742 -0.000334 0.000562 -0.002429 0.001280
# 3 -0.006618 -0.000334 0.022020 0.005747 -0.020723 0.001608
# 4 -0.001109 0.000562 0.005747 0.021369 -0.001508 -0.002268
# 5 0.003248 -0.002429 -0.020723 -0.001508 0.055930 -0.002214
# 6 -0.002471 0.001280 0.001608 -0.002268 -0.002214 0.039229
#
#
# Mechanical properties :
#
#
# Convention : Reuss Voigt Hill
#
# Bulk Modulus (GPa) = 35.27469 58.47367 46.87418
# Shear Modulus (GPa) = 26.36951 39.51887 32.94419
#
# Velocity S-wave (km/s) = 3.23031 3.95454 3.61063
# Velocity P-wave (km/s) = 5.27940 6.63252 5.99426
#
# Compressibility (1/GPa) = 0.02834894
#
# Stress axis : x y z
#
# Youngs Moduli (GPa) = 54.85384 174.16290 45.41335
#
# Poissons Ratio (x) = 0.32558 0.30055
# Poissons Ratio (y) = 0.10254 0.01517
# Poissons Ratio (z) = 0.36302 0.05819
#
# Static dielectric constant tensor:
#      x y z
#    x 2.120340 0.019560 -0.034590 
#    y 0.019560 1.983290 -0.021260 
#    z -0.034590 -0.021260 1.989820 
# 
# From -- ./inp_files/597109.got.cif
#   From: 2010.05.17/outbox.cif.g08.bks.cpg/sg2_299_cif.got.tgz:597109.got - 2010.06.03 11:33:40.
