data_PCOD9091806
_publ_section_title
;
Structure prediction by ZEFSAII (Michael W. Deem and Ramdas Pophale) SiO2 
 PCOD9091806
Probable space group: P -1
;
_chemical_formula_sum "Si O2"
_cell_formula_units_Z 12
_cell_length_a 7.045681
_cell_length_b 11.162761
_cell_length_c 11.521640
_cell_angle_alpha 50.576672
_cell_angle_beta 110.702433
_cell_angle_gamma 77.770379
_cell_volume 521.942363
_symmetry_space_group_name_H-M "P -1"
_symmetry_group_IT_number 2
_symmetry_cell_setting 'triclinic'
loop_
_space_group_symop_operation_xyz
x,y,z
-x,-y,-z
loop_
_atom_site_type_symbol
_atom_site_label
_atom_site_fract_x
_atom_site_fract_y
_atom_site_fract_z
Si Si1 0.320254 0.943483 0.538742
Si Si2 0.130654 0.334196 0.533340
Si Si3 0.613677 0.440048 0.284319
Si Si4 0.117541 0.062524 0.849603
Si Si5 0.774220 0.197680 0.174324
Si Si6 0.598615 0.278284 0.710838
O O1 0.368778 0.754661 0.600973
O O2 0.344209 0.879329 0.718622
O O3 0.500000 0.000000 0.500000
O O4 0.028073 0.131945 0.337856
O O5 0.233587 0.143894 0.748196
O O6 0.372088 0.321661 0.553161
O O7 0.000000 0.500000 0.500000
O O8 0.901001 0.378120 0.377874
O O9 0.497992 0.568463 0.298750
O O10 0.436522 0.585961 0.051890
O O11 0.837337 0.240371 0.719670
O O12 0.108425 0.925778 0.842287
O O13 0.275932 0.930434 0.073318
#
# Coordination Sequence:
#
# PCOD9091806 Si02
#       6
#     2   2   2   2   2   2
#     4  11  24  45  67  94 124 172 219 273 327 369
#     4  10  20  36  59  94 128 169 205 253 316 378
#     4  10  21  43  67  97 130 169 214 268 319 381
#     4  10  19  40  60  97 131 167 206 259 317 381
#     4  10  23  44  67  92 133 163 217 276 312 386
#     4   9  21  37  66  92 134 167 208 255 315 391
#
# _framework density 22.991043999999999
#
# number of rings (size 3 to 8) (size 9 to 14) (size 15 to 20)
#    0.000    2.000    1.667    1.000    0.000    4.667 
#    3.000   10.000    0.000    0.000    0.000    0.000 
#    0.000    0.000    0.000    0.000    0.000    0.000 
#
# Total GULP energy -66933.973451 kJ/mol
# GULP energy per Si atom -5577.831121 kJ/mol
# Density = 2.293872 g / cm^3
# Si number density = 22.991044 Si / 1000 Ang^3
#
#
#
# Elastic Constant Matrix: (Units=GPa)
#
#
# Indices 1 2 3 4 5 6 
#
# 1 156.8554 55.2292 78.8247 1.4585 21.1651 7.0187
# 2 55.2292 108.8752 23.1657 3.0887 13.2990 0.1518
# 3 78.8247 23.1657 172.6831 -16.8119 -1.4768 22.1719
# 4 1.4585 3.0887 -16.8119 16.0508 4.2846 -8.2373
# 5 21.1651 13.2990 -1.4768 4.2846 25.7882 -0.7628
# 6 7.0187 0.1518 22.1719 -8.2373 -0.7628 32.3786
#
#
#
# Elastic Compliance Matrix: (Units=1/GPa)
#
#
# Indices 1 2 3 4 5 6 
#
# 1 0.011152 -0.003635 -0.005018 -0.003759 -0.006944 -0.000084
# 2 -0.003635 0.011397 -0.000044 -0.000945 -0.002726 0.000460
# 3 -0.005018 -0.000044 0.009275 0.007631 0.003308 -0.003244
# 4 -0.003759 -0.000945 0.007631 0.081507 -0.009055 0.016116
# 5 -0.006944 -0.002726 0.003308 -0.009055 0.047519 -0.001932
# 6 -0.000084 0.000460 -0.003244 0.016116 -0.001932 0.037177
#
#
# Mechanical properties :
#
#
# Convention : Reuss Voigt Hill
#
# Bulk Modulus (GPa) = 69.29300 83.65030 76.47165
# Shear Modulus (GPa) = 22.70348 33.58981 28.14665
#
# Velocity S-wave (km/s) = 3.14585 3.82644 3.50272
# Velocity P-wave (km/s) = 6.58785 7.48232 7.04928
#
# Compressibility (1/GPa) = 0.01443147
#
# Stress axis : x y z
#
# Youngs Moduli (GPa) = 89.66788 87.74084 107.81603
#
# Poissons Ratio (x) = 0.31891 0.54098
# Poissons Ratio (y) = 0.32591 0.00477
# Poissons Ratio (z) = 0.44992 0.00388
#
# Static dielectric constant tensor:
#      x y z
#    x 2.023710 0.238630 -0.128040 
#    y 0.238630 2.276120 -0.179140 
#    z -0.128040 -0.179140 1.979880 
# 
# From -- ./inp_files/303735.got.cif
#   From: 2010.05.17/outbox.cif.g08.bks.cpg/sg2_152_cif.got.tgz:303735.got - 2010.06.03 11:33:40.
