data_PCOD9091874
_publ_section_title
;
Structure prediction by ZEFSAII (Michael W. Deem and Ramdas Pophale) SiO2 
 PCOD9091874
Probable space group: P -1
;
_chemical_formula_sum "Si O2"
_cell_formula_units_Z 14
_cell_length_a 9.557183
_cell_length_b 9.468537
_cell_length_c 13.908846
_cell_angle_alpha 91.364870
_cell_angle_beta 53.114229
_cell_angle_gamma 132.818244
_cell_volume 558.140055
_symmetry_space_group_name_H-M "P -1"
_symmetry_group_IT_number 2
_symmetry_cell_setting 'triclinic'
loop_
_space_group_symop_operation_xyz
x,y,z
-x,-y,-z
loop_
_atom_site_type_symbol
_atom_site_label
_atom_site_fract_x
_atom_site_fract_y
_atom_site_fract_z
Si Si1 0.375433 0.563185 0.666581
Si Si2 0.701620 0.785625 0.218711
Si Si3 0.528948 0.427026 0.891214
Si Si4 0.036199 0.567427 0.726252
Si Si5 0.013909 0.978007 0.703056
Si Si6 0.585516 0.114318 0.617132
Si Si7 0.774677 0.970477 0.642557
O O1 0.423177 0.432434 0.671035
O O2 0.066014 0.428225 0.750502
O O3 0.364305 0.214943 0.516839
O O4 0.439386 0.684824 0.742926
O O5 0.704407 0.734903 0.106568
O O6 0.979910 0.009866 0.183927
O O7 0.510663 0.803282 0.292764
O O8 0.680011 0.381195 0.861033
O O9 0.500000 0.500000 0.000000
O O10 0.838644 0.723349 0.729537
O O11 0.199833 0.696011 0.557582
O O12 0.264909 0.822002 0.703366
O O13 0.845749 0.998874 0.724809
O O14 0.771149 0.126213 0.606634
O O15 0.000000 0.000000 0.500000
#
# Coordination Sequence:
#
# PCOD9091874 Si02
#       7
#     2   2   2   2   2   2   2
#     4  10  20  37  68 102 131 165 199 264 357 376
#     4  12  24  39  68 107 122 168 219 261 335 389
#     4  12  27  45  65  90 129 183 223 259 314 380
#     4  10  19  40  62  92 138 164 205 272 320 382
#     4  11  21  42  62  95 136 159 204 276 321 381
#     4  10  20  36  67 103 128 166 204 266 344 372
#     4   9  18  34  61  88 138 172 186 249 335 383
#
# _framework density 25.083309
#
# number of rings (size 3 to 8) (size 9 to 14) (size 15 to 20)
#    0.000    1.429    4.286    3.000    2.000    2.286 
#    0.000    0.714    0.000    1.714    0.000    0.000 
#    0.000    0.000    0.000    0.000    0.000    0.000 
#
# Total GULP energy -78029.235004 kJ/mol
# GULP energy per Si atom -5573.516786 kJ/mol
# Density = 2.502622 g / cm^3
# Si number density = 25.083309 Si / 1000 Ang^3
#
#
#
# Elastic Constant Matrix: (Units=GPa)
#
#
# Indices 1 2 3 4 5 6 
#
# 1 230.5605 52.9737 22.8423 24.6047 32.3126 -7.8542
# 2 52.9737 122.0455 22.5956 9.6319 13.2483 4.1232
# 3 22.8423 22.5956 21.2165 29.3219 32.2743 12.4232
# 4 24.6047 9.6319 29.3219 26.8391 8.6104 2.6548
# 5 32.3126 13.2483 32.2743 8.6104 14.2851 -5.4597
# 6 -7.8542 4.1232 12.4232 2.6548 -5.4597 56.6778
#
#
#
# Elastic Compliance Matrix: (Units=1/GPa)
#
#
# Indices 1 2 3 4 5 6 
#
# 1 0.005231 -0.001506 -0.004033 0.000268 -0.000865 0.001623
# 2 -0.001506 0.009500 -0.000465 0.000199 -0.004966 -0.001286
# 3 -0.004033 -0.000465 -0.011894 0.004967 0.035445 0.005264
# 4 0.000268 0.000199 0.004967 0.045854 -0.042443 -0.007302
# 5 -0.000865 -0.004966 0.035445 -0.042443 0.020713 -0.003544
# 6 0.001623 -0.001286 0.005264 -0.007302 -0.003544 0.016809
#
#
# Mechanical properties :
#
#
# Convention : Reuss Voigt Hill
#
# Bulk Modulus (GPa) = -109.04174 63.40508 -22.81833
# Shear Modulus (GPa) = 52.54187 37.92113 45.23150
#
# Velocity S-wave (km/s) = 4.58175 3.89241 4.25108
# Velocity P-wave (km/s) = 3.94668 6.74788 3.87024
#
# Compressibility (1/GPa) = -0.00917080
#
# Stress axis : x y z
#
# Youngs Moduli (GPa) = 191.18134 105.26243 -84.07318
#
# Poissons Ratio (x) = 0.15850 -0.33907
# Poissons Ratio (y) = 0.28788 -0.03907
# Poissons Ratio (z) = 0.77104 0.04892
#
# Static dielectric constant tensor:
#      x y z
#    x 2.067440 0.083740 -0.071680 
#    y 0.083740 2.240350 -0.224940 
#    z -0.071680 -0.224940 2.287510 
# 
# From -- ./inp_files/494829.got.cif
#   From: 2010.05.17/outbox.cif.g08.bks.cpg/sg2_248_cif.got.tgz:494829.got - 2010.06.03 11:33:40.
