data_PCOD9091601
_publ_section_title
;
Structure prediction by ZEFSAII (Michael W. Deem and Ramdas Pophale) SiO2 
 PCOD9091601
Probable space group: P -1
;
_chemical_formula_sum "Si O2"
_cell_formula_units_Z 16
_cell_length_a 11.159633
_cell_length_b 14.417212
_cell_length_c 9.914901
_cell_angle_alpha 82.075902
_cell_angle_beta 85.982351
_cell_angle_gamma 148.417066
_cell_volume 771.537365
_symmetry_space_group_name_H-M "P -1"
_symmetry_group_IT_number 2
_symmetry_cell_setting 'triclinic'
loop_
_space_group_symop_operation_xyz
x,y,z
-x,-y,-z
loop_
_atom_site_type_symbol
_atom_site_label
_atom_site_fract_x
_atom_site_fract_y
_atom_site_fract_z
Si Si1 0.748309 0.803967 0.135238
Si Si2 0.561416 0.938737 0.057166
Si Si3 0.982467 0.178001 0.764188
Si Si4 0.729795 0.453588 0.254833
Si Si5 0.961757 0.505413 0.847560
Si Si6 0.748517 0.544203 0.926897
Si Si7 0.817418 0.962305 0.549598
Si Si8 0.157853 0.949063 0.758270
O O1 0.800513 0.740560 0.213831
O O2 0.512291 0.638589 0.090613
O O3 0.739949 0.881947 0.229294
O O4 0.000000 0.000000 0.000000
O O5 0.308518 0.712289 0.126168
O O6 0.681597 0.016123 0.178531
O O7 0.500000 0.000000 0.000000
O O8 0.757863 0.028224 0.919301
O O9 0.092583 0.356953 0.713784
O O10 0.889844 0.068832 0.656076
O O11 0.453444 0.263245 0.364653
O O12 0.837143 0.420906 0.257470
O O13 0.732872 0.496998 0.091903
O O14 0.935839 0.599239 0.826693
O O15 0.000000 0.500000 0.000000
O O16 0.878504 0.733680 0.867618
O O17 0.826300 0.035975 0.405269
O O18 0.000000 0.000000 0.500000
#
# Coordination Sequence:
#
# PCOD9091601 Si02
#       8
#     2   2   2   2   2   2   2   2
#     4  12  22  38  68 106 138 174 236 295 346 404
#     4  12  21  44  75 104 138 175 232 298 344 405
#     4  12  24  43  72 102 138 189 229 283 355 416
#     4  11  24  44  70 101 135 185 237 282 350 419
#     4  10  19  39  68 104 134 170 229 289 343 406
#     4  11  23  41  73 105 136 178 237 296 346 409
#     4  12  29  47  66  99 153 189 227 284 352 417
#     4  12  26  45  66 107 138 182 234 291 345 410
#
# _framework density 20.737817
#
# number of rings (size 3 to 8) (size 9 to 14) (size 15 to 20)
#    0.000    0.500    6.250    3.000    1.750    2.500 
#    0.000    3.125    0.000    0.000    0.000    0.000 
#    0.000    0.000    0.000    0.000    0.000    0.000 
#
# Total GULP energy -89407.510155 kJ/mol
# GULP energy per Si atom -5587.969385 kJ/mol
# Density = 2.069062 g / cm^3
# Si number density = 20.737817 Si / 1000 Ang^3
#
#
#
# Elastic Constant Matrix: (Units=GPa)
#
#
# Indices 1 2 3 4 5 6 
#
# 1 103.5213 15.6754 29.1080 2.7401 -7.3813 7.5031
# 2 15.6754 119.3694 32.1551 1.4314 -8.8544 22.0017
# 3 29.1080 32.1551 85.3379 -3.0115 9.2947 12.1022
# 4 2.7401 1.4314 -3.0115 31.6219 9.7678 -1.1496
# 5 -7.3813 -8.8544 9.2947 9.7678 30.2960 0.5623
# 6 7.5031 22.0017 12.1022 -1.1496 0.5623 31.3542
#
#
#
# Elastic Compliance Matrix: (Units=1/GPa)
#
#
# Indices 1 2 3 4 5 6 
#
# 1 0.011448 0.000434 -0.004550 -0.003154 0.005357 -0.001499
# 2 0.000434 0.011085 -0.004124 -0.002921 0.005673 -0.006499
# 3 -0.004550 -0.004124 0.016227 0.004772 -0.008795 -0.001948
# 4 -0.003154 -0.002921 0.004772 0.037257 -0.015147 0.002600
# 5 0.005357 0.005673 -0.008795 -0.015147 0.043612 -0.003206
# 6 -0.001499 -0.006499 -0.001948 0.002600 -0.003206 0.037718
#
#
# Mechanical properties :
#
#
# Convention : Reuss Voigt Hill
#
# Bulk Modulus (GPa) = 44.88638 51.34508 48.11573
# Shear Modulus (GPa) = 27.58573 34.07375 30.82974
#
# Velocity S-wave (km/s) = 3.65117 4.05788 3.85988
# Velocity P-wave (km/s) = 6.28223 6.83872 6.56637
#
# Compressibility (1/GPa) = 0.02227847
#
# Stress axis : x y z
#
# Youngs Moduli (GPa) = 87.35375 90.21145 61.62688
#
# Poissons Ratio (x) = -0.03915 0.28042
# Poissons Ratio (y) = -0.03791 0.25416
# Poissons Ratio (z) = 0.39749 0.37204
#
# Static dielectric constant tensor:
#      x y z
#    x 1.820130 -0.030790 -0.015900 
#    y -0.030790 1.767660 0.028240 
#    z -0.015900 0.028240 1.732150 
# 
# From -- ./inp_files/273160.got.cif
#   From: 2010.05.17/outbox.cif.g08.bks.cpg/sg2_137_cif.got.tgz:273160.got - 2010.06.03 11:33:40.
