data_PCOD9091769
_publ_section_title
;
Structure prediction by ZEFSAII (Michael W. Deem and Ramdas Pophale) SiO2 
 PCOD9091769
Probable space group: P -1
;
_chemical_formula_sum "Si O2"
_cell_formula_units_Z 16
_cell_length_a 10.668487
_cell_length_b 9.485021
_cell_length_c 7.066049
_cell_angle_alpha 69.974618
_cell_angle_beta 65.831301
_cell_angle_gamma 91.321918
_cell_volume 601.682565
_symmetry_space_group_name_H-M "P -1"
_symmetry_group_IT_number 2
_symmetry_cell_setting 'triclinic'
loop_
_space_group_symop_operation_xyz
x,y,z
-x,-y,-z
loop_
_atom_site_type_symbol
_atom_site_label
_atom_site_fract_x
_atom_site_fract_y
_atom_site_fract_z
Si Si1 0.769768 0.010946 0.278370
Si Si2 0.331143 0.239512 0.117447
Si Si3 0.670972 0.393315 0.531536
Si Si4 0.073090 0.686855 0.099272
Si Si5 0.832549 0.565579 0.053037
Si Si6 0.956130 0.824337 0.435395
Si Si7 0.574933 0.691123 0.577032
Si Si8 0.729192 0.090315 0.684502
O O1 0.704530 0.068526 0.483699
O O2 0.669221 0.849525 0.370205
O O3 0.811567 0.156267 0.051508
O O4 0.912599 0.953957 0.269797
O O5 0.440816 0.285673 0.197700
O O6 0.178086 0.220382 0.326257
O O7 0.338521 0.072899 0.111105
O O8 0.306393 0.362993 0.922605
O O9 0.809672 0.447910 0.297518
O O10 0.644546 0.541237 0.589103
O O11 0.555834 0.343861 0.463069
O O12 0.679487 0.242121 0.711743
O O13 0.985778 0.690857 0.341531
O O14 0.965420 0.686369 0.988943
O O15 0.139026 0.537905 0.091946
O O16 0.103518 0.885333 0.412096
#
# Coordination Sequence:
#
# PCOD9091769 Si02
#       8
#     2   2   2   2   2   2   2   2
#     4  10  19  40  58  91 117 162 195 245 295 357
#     4  10  22  39  59  89 120 162 194 245 295 356
#     4  11  22  42  63  89 116 160 198 253 290 355
#     4  11  22  35  57  93 125 158 196 242 299 356
#     4  11  23  37  59  89 128 154 196 246 302 352
#     4  10  20  33  59  85 123 154 194 240 291 356
#     4   9  23  41  66  84 118 154 209 242 299 347
#     4  10  20  36  61  86 119 155 200 238 297 352
#
# _framework density 26.592093999999999
#
# number of rings (size 3 to 8) (size 9 to 14) (size 15 to 20)
#    0.000    2.000    1.250    4.875    3.500    4.000 
#    0.000    0.000    0.000    2.250    0.000    0.000 
#    0.000    0.000    0.000    0.000    0.000    0.000 
#
# Total GULP energy -89528.398473 kJ/mol
# GULP energy per Si atom -5595.524905 kJ/mol
# Density = 2.653157 g / cm^3
# Si number density = 26.592094 Si / 1000 Ang^3
#
#
#
# Elastic Constant Matrix: (Units=GPa)
#
#
# Indices 1 2 3 4 5 6 
#
# 1 54.0199 21.6820 11.6249 -22.8501 3.4134 21.0975
# 2 21.6820 174.3703 37.3332 -20.3775 -4.1488 6.0245
# 3 11.6249 37.3332 71.6257 -17.7157 5.0000 -0.5097
# 4 -22.8501 -20.3775 -17.7157 38.3085 -3.5990 0.5805
# 5 3.4134 -4.1488 5.0000 -3.5990 23.9894 -4.3108
# 6 21.0975 6.0245 -0.5097 0.5805 -4.3108 41.9765
#
#
#
# Elastic Compliance Matrix: (Units=1/GPa)
#
#
# Indices 1 2 3 4 5 6 
#
# 1 0.034958 -0.001599 0.000346 0.019910 -0.005604 -0.018187
# 2 -0.001599 0.006820 -0.003094 0.001457 0.002270 0.000000
# 3 0.000346 -0.003094 0.017291 0.006252 -0.003239 0.000061
# 4 0.019910 0.001457 0.006252 0.041852 0.000478 -0.010670
# 5 -0.005604 0.002270 -0.003239 0.000478 0.044890 0.007055
# 6 -0.018187 0.000000 0.000061 -0.010670 0.007055 0.033837
#
#
# Mechanical properties :
#
#
# Convention : Reuss Voigt Hill
#
# Bulk Modulus (GPa) = 19.85083 49.03293 34.44188
# Shear Modulus (GPa) = 24.37445 36.14658 30.26052
#
# Velocity S-wave (km/s) = 3.03083 3.69087 3.37701
# Velocity P-wave (km/s) = 4.44174 6.05329 5.30902
#
# Compressibility (1/GPa) = 0.05037574
#
# Stress axis : x y z
#
# Youngs Moduli (GPa) = 28.60568 146.61962 57.83495
#
# Poissons Ratio (x) = 0.23447 -0.02002
# Poissons Ratio (y) = 0.04574 0.17892
# Poissons Ratio (z) = -0.00990 0.45358
#
# Static dielectric constant tensor:
#      x y z
#    x 2.098600 -0.005930 0.046110 
#    y -0.005930 2.096500 -0.032470 
#    z 0.046110 -0.032470 2.168160 
# 
# From -- ./inp_files/242934.got.cif
#   From: 2010.05.17/outbox.cif.g08.bks.cpg/sg2_122_cif.got.tgz:242934.got - 2010.06.03 11:33:40.
