data_PCOD9091637
_publ_section_title
;
Structure prediction by ZEFSAII (Michael W. Deem and Ramdas Pophale) SiO2 
 PCOD9091637
Probable space group: P -1
;
_chemical_formula_sum "Si O2"
_cell_formula_units_Z 16
_cell_length_a 7.805976
_cell_length_b 12.703480
_cell_length_c 10.042247
_cell_angle_alpha 122.372976
_cell_angle_beta 98.217680
_cell_angle_gamma 54.200469
_cell_volume 660.741575
_symmetry_space_group_name_H-M "P -1"
_symmetry_group_IT_number 2
_symmetry_cell_setting 'triclinic'
loop_
_space_group_symop_operation_xyz
x,y,z
-x,-y,-z
loop_
_atom_site_type_symbol
_atom_site_label
_atom_site_fract_x
_atom_site_fract_y
_atom_site_fract_z
Si Si1 0.884970 0.618702 0.408105
Si Si2 0.768337 0.145440 0.129165
Si Si3 0.771260 0.256786 0.625537
Si Si4 0.847758 0.792163 0.246962
Si Si5 0.171291 0.560121 0.921852
Si Si6 0.762339 0.379397 0.441813
Si Si7 0.566088 0.126336 0.368368
Si Si8 0.501719 0.618010 0.943480
O O1 0.858584 0.710149 0.329211
O O2 0.860801 0.491892 0.257803
O O3 0.692062 0.742913 0.568574
O O4 0.112011 0.550294 0.460168
O O5 0.807569 0.275121 0.250606
O O6 0.678424 0.116422 0.233372
O O7 0.569541 0.240220 0.064970
O O8 0.000000 0.000000 0.000000
O O9 0.849337 0.252913 0.483425
O O10 0.639273 0.188749 0.539572
O O11 0.630914 0.443379 0.772732
O O12 0.978868 0.169332 0.683684
O O13 0.628817 0.958322 0.298803
O O14 0.950494 0.668284 0.054191
O O15 0.280697 0.648243 0.986513
O O16 0.350095 0.410720 0.933736
O O17 0.500000 0.500000 0.500000
#
# Coordination Sequence:
#
# PCOD9091637 Si02
#       8
#     2   2   2   2   2   2   2   2
#     4  11  23  42  66 103 134 174 228 277 343 392
#     4  11  24  44  68  95 134 178 232 270 342 405
#     4   9  18  36  65  91 125 175 226 264 322 396
#     4  10  21  38  63  95 143 173 217 276 332 397
#     4  10  21  39  67 101 130 175 231 275 335 390
#     4  10  21  42  69  91 129 175 222 275 332 406
#     4  11  22  40  63 101 136 178 222 278 337 394
#     4  10  19  39  68  95 133 175 225 278 321 401
#
# _framework density 24.215216000000002
#
# number of rings (size 3 to 8) (size 9 to 14) (size 15 to 20)
#    0.000    1.750    2.500    1.875    0.000    0.000 
#    9.000    6.250    0.000    0.000    0.000    0.000 
#    0.000    0.000    0.000    0.000    0.000    0.000 
#
# Total GULP energy -89291.375781 kJ/mol
# GULP energy per Si atom -5580.710986 kJ/mol
# Density = 2.416010 g / cm^3
# Si number density = 24.215216 Si / 1000 Ang^3
#
#
#
# Elastic Constant Matrix: (Units=GPa)
#
#
# Indices 1 2 3 4 5 6 
#
# 1 88.0935 9.6425 29.8002 7.3123 -3.4870 -15.0803
# 2 9.6425 98.9967 47.0847 7.2302 -4.0041 -8.7833
# 3 29.8002 47.0847 109.8644 7.1070 -21.5734 -22.4831
# 4 7.3123 7.2302 7.1070 35.9438 -6.2375 -0.7219
# 5 -3.4870 -4.0041 -21.5734 -6.2375 40.7689 -7.7242
# 6 -15.0803 -8.7833 -22.4831 -0.7219 -7.7242 35.9338
#
#
#
# Elastic Compliance Matrix: (Units=1/GPa)
#
#
# Indices 1 2 3 4 5 6 
#
# 1 0.013090 0.000588 -0.002876 -0.002127 0.000051 0.003806
# 2 0.000588 0.012995 -0.006329 -0.001944 -0.002533 -0.001121
# 3 -0.002876 -0.006329 0.016448 0.000490 0.009737 0.009640
# 4 -0.002127 -0.001944 0.000490 0.029333 0.004466 0.000488
# 5 0.000051 -0.002533 0.009737 0.004466 0.032502 0.012571
# 6 0.003806 -0.001121 0.009640 0.000488 0.012571 0.037896
#
#
# Mechanical properties :
#
#
# Convention : Reuss Voigt Hill
#
# Bulk Modulus (GPa) = 39.52919 52.22326 45.87623
# Shear Modulus (GPa) = 29.77399 36.55779 33.16589
#
# Velocity S-wave (km/s) = 3.51031 3.88971 3.70487
# Velocity P-wave (km/s) = 5.72619 6.46422 6.10637
#
# Compressibility (1/GPa) = 0.02529776
#
# Stress axis : x y z
#
# Youngs Moduli (GPa) = 76.39248 76.95497 60.79726
#
# Poissons Ratio (x) = -0.04525 0.17487
# Poissons Ratio (y) = -0.04492 0.38482
# Poissons Ratio (z) = 0.21972 0.48709
#
# Static dielectric constant tensor:
#      x y z
#    x 2.071270 0.014440 -0.008420 
#    y 0.014440 2.036740 -0.079760 
#    z -0.008420 -0.079760 1.982390 
# 
# From -- ./inp_files/399621.got.cif
#   From: 2010.05.17/outbox.cif.g08.bks.cpg/sg2_200_cif.got.tgz:399621.got - 2010.06.03 11:33:40.
