data_PCOD9091215
_publ_section_title
;
Structure prediction by ZEFSAII (Michael W. Deem and Ramdas Pophale) SiO2 
 PCOD9091215
Probable space group: P -1
;
_chemical_formula_sum "Si O2"
_cell_formula_units_Z 16
_cell_length_a 21.659538
_cell_length_b 17.605786
_cell_length_c 7.700758
_cell_angle_alpha 125.089466
_cell_angle_beta 129.982033
_cell_angle_gamma 17.024423
_cell_volume 648.478532
_symmetry_space_group_name_H-M "P -1"
_symmetry_group_IT_number 2
_symmetry_cell_setting 'triclinic'
loop_
_space_group_symop_operation_xyz
x,y,z
-x,-y,-z
loop_
_atom_site_type_symbol
_atom_site_label
_atom_site_fract_x
_atom_site_fract_y
_atom_site_fract_z
Si Si1 0.193218 0.921400 0.468372
Si Si2 0.002802 0.187021 0.826074
Si Si3 0.288004 0.987937 0.499403
Si Si4 0.287065 0.613781 0.152660
Si Si5 0.500485 0.709636 0.197548
Si Si6 0.056872 0.378288 0.775890
Si Si7 0.617464 0.777859 0.367559
Si Si8 0.920700 0.461491 0.184021
O O1 0.186865 0.824997 0.256162
O O2 0.451464 0.660677 0.666289
O O3 0.025715 0.117507 0.586503
O O4 0.176253 0.016902 0.415038
O O5 0.850017 0.300569 0.843522
O O6 0.924623 0.379008 0.934577
O O7 0.265221 0.906829 0.003192
O O8 0.281889 0.072609 0.750601
O O9 0.124531 0.210991 0.352362
O O10 0.508894 0.719969 0.433678
O O11 0.308662 0.548064 0.911373
O O12 0.482846 0.830076 0.234575
O O13 0.051839 0.464929 0.737572
O O14 0.849903 0.529585 0.573639
O O15 0.000000 0.500000 0.000000
O O16 0.696364 0.697027 0.205959
O O17 0.500000 0.000000 0.500000
#
# Coordination Sequence:
#
# PCOD9091215 Si02
#       8
#     2   2   2   2   2   2   2   2
#     4  10  22  39  64  93 133 163 211 266 313 379
#     4  10  19  39  64  90 126 165 210 258 318 367
#     4  10  21  40  60  92 129 164 208 262 312 370
#     4  10  21  41  64  95 123 173 213 257 322 368
#     4  10  21  38  62  89 125 164 212 257 305 378
#     4  11  23  41  64  94 129 164 212 260 317 381
#     4  11  20  37  63  91 123 166 209 256 311 371
#     4  10  20  39  64  88 125 165 208 256 310 375
#
# _framework density 24.673137000000001
#
# number of rings (size 3 to 8) (size 9 to 14) (size 15 to 20)
#    0.000    1.750    1.250    4.875    0.000    1.500 
#    6.750    3.750    0.000    0.000    0.000    0.000 
#    0.000    0.000    0.000    0.000    0.000    0.000 
#
# Total GULP energy -89464.005920 kJ/mol
# GULP energy per Si atom -5591.500370 kJ/mol
# Density = 2.461698 g / cm^3
# Si number density = 24.673137 Si / 1000 Ang^3
#
#
#
# Elastic Constant Matrix: (Units=GPa)
#
#
# Indices 1 2 3 4 5 6 
#
# 1 122.0917 48.8834 50.4217 34.7066 2.4578 -16.2555
# 2 48.8834 113.4199 65.6091 43.1965 -1.8897 -28.5211
# 3 50.4217 65.6091 142.0034 51.7128 -8.6358 -13.7803
# 4 34.7066 43.1965 51.7128 68.5790 -4.9952 -2.7924
# 5 2.4578 -1.8897 -8.6358 -4.9952 40.5321 16.5362
# 6 -16.2555 -28.5211 -13.7803 -2.7924 16.5362 40.4640
#
#
#
# Elastic Compliance Matrix: (Units=1/GPa)
#
#
# Indices 1 2 3 4 5 6 
#
# 1 0.011074 -0.001561 -0.001826 -0.003315 -0.003073 0.003753
# 2 -0.001561 0.017564 -0.004154 -0.007067 -0.005834 0.012234
# 3 -0.001826 -0.004154 0.011461 -0.004985 0.002144 -0.000979
# 4 -0.003315 -0.007067 -0.004985 0.024509 0.005290 -0.008481
# 5 -0.003073 -0.005834 0.002144 0.005290 0.032918 -0.017704
# 6 0.003753 0.012234 -0.000979 -0.008481 -0.017704 0.041160
#
#
# Mechanical properties :
#
#
# Convention : Reuss Voigt Hill
#
# Bulk Modulus (GPa) = 39.97750 78.59371 59.28560
# Shear Modulus (GPa) = 30.84379 44.08840 37.46609
#
# Velocity S-wave (km/s) = 3.53951 4.23176 3.90102
# Velocity P-wave (km/s) = 5.73953 7.46995 6.66117
#
# Compressibility (1/GPa) = 0.02501407
#
# Stress axis : x y z
#
# Youngs Moduli (GPa) = 90.30385 56.93597 87.25530
#
# Poissons Ratio (x) = 0.08889 0.15934
# Poissons Ratio (y) = 0.14099 0.36250
# Poissons Ratio (z) = 0.16491 0.23654
#
# Static dielectric constant tensor:
#      x y z
#    x 1.878860 -0.026460 -0.070900 
#    y -0.026460 2.092460 -0.052360 
#    z -0.070900 -0.052360 2.112730 
# 
# From -- ./inp_files/348900.got.cif
#   From: 2010.05.17/outbox.cif.g08.bks.cpg/sg2_175_cif.got.tgz:348900.got - 2010.06.03 11:33:40.
