data_PCOD9091074
_publ_section_title
;
Structure prediction by ZEFSAII (Michael W. Deem and Ramdas Pophale) SiO2 
 PCOD9091074
Probable space group: P -1
;
_chemical_formula_sum "Si O2"
_cell_formula_units_Z 14
_cell_length_a 7.805707
_cell_length_b 9.516131
_cell_length_c 16.901110
_cell_angle_alpha 97.846222
_cell_angle_beta 34.509021
_cell_angle_gamma 114.642508
_cell_volume 591.891809
_symmetry_space_group_name_H-M "P -1"
_symmetry_group_IT_number 2
_symmetry_cell_setting 'triclinic'
loop_
_space_group_symop_operation_xyz
x,y,z
-x,-y,-z
loop_
_atom_site_type_symbol
_atom_site_label
_atom_site_fract_x
_atom_site_fract_y
_atom_site_fract_z
Si Si1 0.234525 0.655558 0.204694
Si Si2 0.594462 0.706983 0.409322
Si Si3 0.075160 0.087728 0.284489
Si Si4 0.506600 0.285046 0.722847
Si Si5 0.659393 0.030524 0.030883
Si Si6 0.315050 0.982898 0.411229
Si Si7 0.047530 0.683889 0.748524
O O1 0.306640 0.610687 0.261198
O O2 0.880932 0.664938 0.329125
O O3 0.186654 0.510765 0.153111
O O4 0.563129 0.846760 0.079285
O O5 0.429905 0.625791 0.380227
O O6 0.321754 0.680834 0.579956
O O7 0.825459 0.909127 0.320983
O O8 0.828637 0.077023 0.449313
O O9 0.163641 0.244047 0.209101
O O10 0.424202 0.084973 0.173782
O O11 0.643429 0.157623 0.655678
O O12 0.075518 0.173167 0.888419
O O13 0.500000 0.000000 0.000000
O O14 0.684528 0.165966 0.283367
O O15 0.000000 0.000000 0.500000
#
# Coordination Sequence:
#
# PCOD9091074 Si02
#       7
#     2   2   2   2   2   2   2
#     4  11  25  37  61  99 125 159 207 261 313 358
#     4  10  19  39  64  86 125 164 202 242 310 372
#     4  10  19  39  63  88 120 166 204 249 310 363
#     4  12  21  41  68  89 119 171 214 242 301 387
#     4  11  21  42  66  85 122 173 215 244 299 383
#     4  11  21  38  66  95 121 163 213 247 303 379
#     4  11  20  40  59  94 134 151 197 275 312 347
#
# _framework density 23.65297
#
# number of rings (size 3 to 8) (size 9 to 14) (size 15 to 20)
#    0.000    1.143    5.714    4.286    0.000    0.571 
#    2.571    3.571    0.000    0.000    0.000    0.000 
#    0.000    0.000    0.000    0.000    0.000    0.000 
#
# Total GULP energy -78261.367803 kJ/mol
# GULP energy per Si atom -5590.097700 kJ/mol
# Density = 2.359914 g / cm^3
# Si number density = 23.652970 Si / 1000 Ang^3
#
#
#
# Elastic Constant Matrix: (Units=GPa)
#
#
# Indices 1 2 3 4 5 6 
#
# 1 88.5258 -14.5740 -1.3285 -1.8192 -15.4925 0.6914
# 2 -14.5740 77.0808 12.2441 0.2636 -13.6629 -8.9910
# 3 -1.3285 12.2441 81.2467 12.5817 -14.4345 -4.4513
# 4 -1.8192 0.2636 12.5817 24.2127 -6.8048 -2.7409
# 5 -15.4925 -13.6629 -14.4345 -6.8048 31.0524 5.4392
# 6 0.6914 -8.9910 -4.4513 -2.7409 5.4392 29.2141
#
#
#
# Elastic Compliance Matrix: (Units=1/GPa)
#
#
# Indices 1 2 3 4 5 6 
#
# 1 0.013799 0.004170 0.000821 0.003296 0.009903 -0.000453
# 2 0.004170 0.015866 -0.001142 0.003563 0.008730 0.003319
# 3 0.000821 -0.001142 0.014351 -0.005878 0.005240 0.000289
# 4 0.003296 0.003563 -0.005878 0.047813 0.010493 0.002655
# 5 0.009903 0.008730 0.005240 0.010493 0.046495 -0.004421
# 6 -0.000453 0.003319 0.000289 0.002655 -0.004421 0.036379
#
#
# Mechanical properties :
#
#
# Convention : Reuss Voigt Hill
#
# Bulk Modulus (GPa) = 19.33705 26.61518 22.97611
# Shear Modulus (GPa) = 27.13835 33.59663 30.36749
#
# Velocity S-wave (km/s) = 3.39094 3.77291 3.58701
# Velocity P-wave (km/s) = 4.85019 5.50059 5.18560
#
# Compressibility (1/GPa) = 0.05171419
#
# Stress axis : x y z
#
# Youngs Moduli (GPa) = 72.46760 63.02975 69.68365
#
# Poissons Ratio (x) = -0.26283 -0.05723
# Poissons Ratio (y) = -0.30218 0.07956
# Poissons Ratio (z) = -0.05952 0.07196
#
# Static dielectric constant tensor:
#      x y z
#    x 1.974970 -0.016890 0.065060 
#    y -0.016890 1.881030 -0.033970 
#    z 0.065060 -0.033970 1.958480 
# 
# From -- ./inp_files/167454.got.cif
#   From: 2010.05.17/outbox.cif.g08.bks.cpg/sg2_84_cif.got.tgz:167454.got - 2010.06.03 11:33:40.
