data_PCOD9091019
_publ_section_title
;
Structure prediction by ZEFSAII (Michael W. Deem and Ramdas Pophale) SiO2 
 PCOD9091019
Probable space group: P -1
;
_chemical_formula_sum "Si O2"
_cell_formula_units_Z 14
_cell_length_a 7.956105
_cell_length_b 18.599547
_cell_length_c 12.058994
_cell_angle_alpha 154.360503
_cell_angle_beta 55.226399
_cell_angle_gamma 125.021351
_cell_volume 625.250384
_symmetry_space_group_name_H-M "P -1"
_symmetry_group_IT_number 2
_symmetry_cell_setting 'triclinic'
loop_
_space_group_symop_operation_xyz
x,y,z
-x,-y,-z
loop_
_atom_site_type_symbol
_atom_site_label
_atom_site_fract_x
_atom_site_fract_y
_atom_site_fract_z
Si Si1 0.035287 0.324136 0.689084
Si Si2 0.612423 0.462615 0.723235
Si Si3 0.394532 0.712554 0.284694
Si Si4 0.556024 0.175832 0.161612
Si Si5 0.288988 0.372598 0.434321
Si Si6 0.855043 0.827336 0.342583
Si Si7 0.033380 0.630676 0.817330
O O1 0.807767 0.224303 0.598694
O O2 0.176611 0.367006 0.587991
O O3 0.138670 0.218773 0.594930
O O4 0.000000 0.500000 0.000000
O O5 0.666156 0.372789 0.691960
O O6 0.556196 0.323181 0.457712
O O7 0.812551 0.592057 0.786713
O O8 0.445701 0.572723 0.982685
O O9 0.620754 0.822067 0.377920
O O10 0.384807 0.199193 0.164025
O O11 0.787842 0.222535 0.089647
O O12 0.500000 0.000000 0.000000
O O13 0.500000 0.500000 0.500000
O O14 0.122968 0.455752 0.542288
O O15 0.000000 0.000000 0.500000
O O16 0.962993 0.688690 0.044648
#
# Coordination Sequence:
#
# PCOD9091019 Si02
#       7
#     2   2   2   2   2   2   2
#     4  12  20  39  71  95 124 176 220 271 328 390
#     4  10  19  39  62  93 126 164 217 275 320 397
#     4  10  21  38  68  98 123 168 232 266 324 405
#     4  11  24  37  64  92 127 171 213 269 343 381
#     4  10  21  39  60  89 126 164 221 259 313 406
#     4  11  25  39  65  99 138 168 213 287 338 380
#     4  10  21  41  60  91 125 174 222 259 322 402
#
# _framework density 22.391029
#
# number of rings (size 3 to 8) (size 9 to 14) (size 15 to 20)
#    0.000    1.429    2.857    3.857    4.000    0.571 
#    0.000    0.714    0.000    0.000    0.000    0.000 
#    0.000    0.000    0.000    0.000    0.000    0.000 
#
# Total GULP energy -78015.999230 kJ/mol
# GULP energy per Si atom -5572.571374 kJ/mol
# Density = 2.234007 g / cm^3
# Si number density = 22.391029 Si / 1000 Ang^3
#
#
#
# Elastic Constant Matrix: (Units=GPa)
#
#
# Indices 1 2 3 4 5 6 
#
# 1 105.3195 42.3198 25.1530 -5.7687 -4.9907 29.9926
# 2 42.3198 146.2314 21.2845 -10.2195 4.3610 15.3463
# 3 25.1530 21.2845 22.6684 -5.9935 4.1598 4.1357
# 4 -5.7687 -10.2195 -5.9935 46.7194 -2.8833 -1.8574
# 5 -4.9907 4.3610 4.1598 -2.8833 23.8303 -3.8872
# 6 29.9926 15.3463 4.1357 -1.8574 -3.8872 40.7220
#
#
#
# Elastic Compliance Matrix: (Units=1/GPa)
#
#
# Indices 1 2 3 4 5 6 
#
# 1 0.017211 -0.001690 -0.016786 -0.000470 0.005178 -0.009862
# 2 -0.001690 0.008335 -0.005274 0.000814 -0.001093 -0.001428
# 3 -0.016786 -0.005274 0.070369 0.005233 -0.013192 0.006184
# 4 -0.000470 0.000814 0.005233 0.022325 0.001652 0.000684
# 5 0.005178 -0.001093 -0.013192 0.001652 0.046145 0.002418
# 6 -0.009862 -0.001428 0.006184 0.000684 0.002418 0.031992
#
#
# Mechanical properties :
#
#
# Convention : Reuss Voigt Hill
#
# Bulk Modulus (GPa) = 20.65537 50.19265 35.42401
# Shear Modulus (GPa) = 19.22973 34.61847 26.92410
#
# Velocity S-wave (km/s) = 2.93373 3.93630 3.47140
# Velocity P-wave (km/s) = 4.55199 6.56691 5.65000
#
# Compressibility (1/GPa) = 0.04841355
#
# Stress axis : x y z
#
# Youngs Moduli (GPa) = 58.10282 119.98241 14.21089
#
# Poissons Ratio (x) = 0.20277 0.23854
# Poissons Ratio (y) = 0.09819 0.07495
# Poissons Ratio (z) = 0.97531 0.63283
#
# Static dielectric constant tensor:
#      x y z
#    x 1.957300 0.007560 0.004590 
#    y 0.007560 1.844630 -0.006960 
#    z 0.004590 -0.006960 1.851660 
# 
# From -- ./inp_files/403488.got.cif
#   From: 2010.05.17/outbox.cif.g08.bks.cpg/sg2_202_cif.got.tgz:403488.got - 2010.06.03 11:33:40.
