data_PCOD9091224
_publ_section_title
;
Structure prediction by ZEFSAII (Michael W. Deem and Ramdas Pophale) SiO2 
 PCOD9091224
Probable space group: P -1
;
_chemical_formula_sum "Si O2"
_cell_formula_units_Z 12
_cell_length_a 8.640743
_cell_length_b 12.293282
_cell_length_c 6.977678
_cell_angle_alpha 85.437759
_cell_angle_beta 110.037826
_cell_angle_gamma 137.253985
_cell_volume 455.094113
_symmetry_space_group_name_H-M "P -1"
_symmetry_group_IT_number 2
_symmetry_cell_setting 'triclinic'
loop_
_space_group_symop_operation_xyz
x,y,z
-x,-y,-z
loop_
_atom_site_type_symbol
_atom_site_label
_atom_site_fract_x
_atom_site_fract_y
_atom_site_fract_z
Si Si1 0.214825 0.822312 0.453222
Si Si2 0.348113 0.451908 0.245196
Si Si3 0.797068 0.801961 0.292418
Si Si4 0.519603 0.878793 0.876772
Si Si5 0.193278 0.138916 0.268251
Si Si6 0.173359 0.740597 0.039810
O O1 0.258547 0.790704 0.680471
O O2 0.024374 0.827444 0.390967
O O3 0.500000 0.000000 0.500000
O O4 0.134169 0.708021 0.256082
O O5 0.500000 0.500000 0.500000
O O6 0.549920 0.609247 0.171772
O O7 0.236216 0.277492 0.172818
O O8 0.101071 0.402910 0.150078
O O9 0.756899 0.828100 0.486696
O O10 0.906887 0.950190 0.178513
O O11 0.623715 0.851003 0.763326
O O12 0.291699 0.923902 0.046516
O O13 0.599107 0.217059 0.957144
#
# Coordination Sequence:
#
# PCOD9091224 Si02
#       6
#     2   2   2   2   2   2
#     4  10  19  39  64  91 123 171 209 257 322 374
#     4  10  22  40  62  92 130 167 206 266 319 372
#     4  10  20  39  63  92 125 166 209 258 322 376
#     4  10  20  39  65  94 125 168 215 261 315 381
#     4  10  20  38  65  95 121 168 212 261 317 377
#     4  10  21  38  64  93 127 170 214 254 323 383
#
# _framework density 26.368172999999999
#
# number of rings (size 3 to 8) (size 9 to 14) (size 15 to 20)
#    0.000    2.000    3.333    2.000    0.000    1.333 
#    0.000    7.500    0.000    5.000    0.000    0.000 
#    0.000    0.000    0.000    0.000    0.000    0.000 
#
# Total GULP energy -67077.315265 kJ/mol
# GULP energy per Si atom -5589.776272 kJ/mol
# Density = 2.630816 g / cm^3
# Si number density = 26.368173 Si / 1000 Ang^3
#
#
#
# Elastic Constant Matrix: (Units=GPa)
#
#
# Indices 1 2 3 4 5 6 
#
# 1 123.6258 60.3934 33.8149 9.6392 -27.1018 40.1642
# 2 60.3934 182.3638 25.0809 21.6885 -3.7261 12.6880
# 3 33.8149 25.0809 109.7476 1.4882 -0.7553 27.4720
# 4 9.6392 21.6885 1.4882 34.2081 10.7122 4.7653
# 5 -27.1018 -3.7261 -0.7553 10.7122 43.2962 0.8949
# 6 40.1642 12.6880 27.4720 4.7653 0.8949 46.6626
#
#
#
# Elastic Compliance Matrix: (Units=1/GPa)
#
#
# Indices 1 2 3 4 5 6 
#
# 1 0.017591 -0.004007 -0.001054 -0.004280 0.011980 -0.013224
# 2 -0.004007 0.007149 -0.000973 -0.003347 -0.001132 0.002441
# 3 -0.001054 -0.000973 0.010994 0.001441 -0.000796 -0.005433
# 4 -0.004280 -0.003347 0.001441 0.036186 -0.011901 0.000278
# 5 0.011980 -0.001132 -0.000796 -0.011901 0.033614 -0.008965
# 6 -0.013224 0.002441 -0.005433 0.000278 -0.008965 0.035491
#
#
# Mechanical properties :
#
#
# Convention : Reuss Voigt Hill
#
# Bulk Modulus (GPa) = 42.25177 72.70175 57.47676
# Shear Modulus (GPa) = 31.05954 44.59658 37.82806
#
# Velocity S-wave (km/s) = 3.43580 4.11701 3.79173
# Velocity P-wave (km/s) = 5.63899 7.08740 6.40428
#
# Compressibility (1/GPa) = 0.02366765
#
# Stress axis : x y z
#
# Youngs Moduli (GPa) = 56.84765 139.87301 90.96109
#
# Poissons Ratio (x) = 0.56044 0.09584
# Poissons Ratio (y) = 0.22778 0.08848
# Poissons Ratio (z) = 0.05989 0.13606
#
# Static dielectric constant tensor:
#      x y z
#    x 2.107600 -0.068160 0.049330 
#    y -0.068160 2.082450 -0.033600 
#    z 0.049330 -0.033600 2.200350 
# 
# From -- ./inp_files/197573.got.cif
#   From: 2010.05.17/outbox.cif.g08.bks.cpg/sg2_99_cif.got.tgz:197573.got - 2010.06.03 11:33:40.
