data_PCOD9091605
_publ_section_title
;
Structure prediction by ZEFSAII (Michael W. Deem and Ramdas Pophale) SiO2 
 PCOD9091605
Probable space group: P -1
;
_chemical_formula_sum "Si O2"
_cell_formula_units_Z 16
_cell_length_a 9.392846
_cell_length_b 9.408609
_cell_length_c 13.815376
_cell_angle_alpha 47.576426
_cell_angle_beta 106.702312
_cell_angle_gamma 81.861818
_cell_volume 759.892370
_symmetry_space_group_name_H-M "P -1"
_symmetry_group_IT_number 2
_symmetry_cell_setting 'triclinic'
loop_
_space_group_symop_operation_xyz
x,y,z
-x,-y,-z
loop_
_atom_site_type_symbol
_atom_site_label
_atom_site_fract_x
_atom_site_fract_y
_atom_site_fract_z
Si Si1 0.496608 0.225125 0.362069
Si Si2 0.160189 0.296771 0.215253
Si Si3 0.075437 0.240103 0.627610
Si Si4 0.313624 0.026926 0.954372
Si Si5 0.327869 0.629852 0.259157
Si Si6 0.844749 0.950660 0.479576
Si Si7 0.172580 0.912420 0.265716
Si Si8 0.024121 0.281672 0.924443
O O1 0.321552 0.338223 0.216871
O O2 0.470248 0.387574 0.371086
O O3 0.500000 0.000000 0.500000
O O4 0.664504 0.163630 0.363804
O O5 0.146686 0.210624 0.359405
O O6 0.000333 0.538056 0.082111
O O7 0.196831 0.088965 0.252106
O O8 0.219138 0.109792 0.795574
O O9 0.145105 0.154134 0.574286
O O10 0.000000 0.500000 0.500000
O O11 0.922937 0.186508 0.644905
O O12 0.187483 0.207193 0.924003
O O13 0.500000 0.000000 0.000000
O O14 0.332146 0.797719 0.103425
O O15 0.326141 0.728187 0.319237
O O16 0.146428 0.633859 0.210193
O O17 0.000000 0.000000 0.500000
O O18 0.049579 0.066380 0.085592
#
# Coordination Sequence:
#
# PCOD9091605 Si02
#       8
#     2   2   2   2   2   2   2   2
#     4   9  22  40  61  88 125 163 217 267 323 374
#     4  10  21  39  63  94 123 167 218 269 320 386
#     4  12  25  41  66  96 134 175 220 264 328 397
#     4  11  23  42  65 101 132 168 221 273 327 385
#     4  10  20  40  69  87 123 168 217 271 320 380
#     4  11  23  41  61  89 135 175 213 261 326 396
#     4  11  20  38  65  97 120 162 226 262 320 390
#     4  10  19  39  68  86 124 171 212 266 325 384
#
# _framework density 21.055613999999998
#
# number of rings (size 3 to 8) (size 9 to 14) (size 15 to 20)
#    0.000    1.500    3.750    1.875    3.500    4.000 
#    0.000    3.125    0.000    0.000    0.000    0.000 
#    0.000    0.000    0.000    0.000    0.000    0.000 
#
# Total GULP energy -89268.886905 kJ/mol
# GULP energy per Si atom -5579.305432 kJ/mol
# Density = 2.100769 g / cm^3
# Si number density = 21.055614 Si / 1000 Ang^3
#
#
#
# Elastic Constant Matrix: (Units=GPa)
#
#
# Indices 1 2 3 4 5 6 
#
# 1 138.4647 57.0009 19.9819 -12.8701 6.7856 -15.4457
# 2 57.0009 216.8274 47.3416 -21.1157 3.8137 -31.5799
# 3 19.9819 47.3416 53.1761 -13.4294 -4.1355 -11.3478
# 4 -12.8701 -21.1157 -13.4294 34.7577 -5.4021 3.1667
# 5 6.7856 3.8137 -4.1355 -5.4021 19.1542 -3.9527
# 6 -15.4457 -31.5799 -11.3478 3.1667 -3.9527 37.3206
#
#
#
# Elastic Compliance Matrix: (Units=1/GPa)
#
#
# Indices 1 2 3 4 5 6 
#
# 1 0.008443 -0.001560 -0.001376 0.001151 -0.002362 0.001408
# 2 -0.001560 0.006599 -0.004242 0.001388 -0.000569 0.003470
# 3 -0.001376 -0.004242 0.027033 0.008587 0.010508 0.004445
# 4 0.001151 0.001388 0.008587 0.034921 0.011539 0.002520
# 5 -0.002362 -0.000569 0.010508 0.011539 0.060152 0.007127
# 6 0.001408 0.003470 0.004445 0.002520 0.007127 0.032206
#
#
# Mechanical properties :
#
#
# Convention : Reuss Voigt Hill
#
# Bulk Modulus (GPa) = 36.07697 73.01298 54.54497
# Shear Modulus (GPa) = 25.91344 37.18942 31.55143
#
# Velocity S-wave (km/s) = 3.51196 4.20723 3.87522
# Velocity P-wave (km/s) = 5.79797 7.63889 6.78119
#
# Compressibility (1/GPa) = 0.02771852
#
# Stress axis : x y z
#
# Youngs Moduli (GPa) = 118.44472 151.54084 36.99155
#
# Poissons Ratio (x) = 0.23646 0.05090
# Poissons Ratio (y) = 0.18482 0.15691
# Poissons Ratio (z) = 0.16297 0.64281
#
# Static dielectric constant tensor:
#      x y z
#    x 1.759780 0.007770 0.070590 
#    y 0.007770 1.825110 0.008120 
#    z 0.070590 0.008120 1.857120 
# 
# From -- ./inp_files/295243.got.cif
#   From: 2010.05.17/outbox.cif.g08.bks.cpg/sg2_148_cif.got.tgz:295243.got - 2010.06.03 11:33:40.
