data_PCOD9091302
_publ_section_title
;
Structure prediction by ZEFSAII (Michael W. Deem and Ramdas Pophale) SiO2 
 PCOD9091302
Probable space group: P -1
;
_chemical_formula_sum "Si O2"
_cell_formula_units_Z 16
_cell_length_a 20.058124
_cell_length_b 25.987926
_cell_length_c 5.382615
_cell_angle_alpha 51.548713
_cell_angle_beta 130.053530
_cell_angle_gamma 162.001171
_cell_volume 663.051889
_symmetry_space_group_name_H-M "P -1"
_symmetry_group_IT_number 2
_symmetry_cell_setting 'triclinic'
loop_
_space_group_symop_operation_xyz
x,y,z
-x,-y,-z
loop_
_atom_site_type_symbol
_atom_site_label
_atom_site_fract_x
_atom_site_fract_y
_atom_site_fract_z
Si Si1 0.759383 0.407870 0.332198
Si Si2 0.267037 0.889748 0.504510
Si Si3 0.333124 0.348425 0.369752
Si Si4 0.421979 0.700694 0.279468
Si Si5 0.228145 0.778706 0.245464
Si Si6 0.966786 0.789733 0.282839
Si Si7 0.083234 0.985023 0.314809
Si Si8 0.311923 0.508223 0.292236
O O1 0.678351 0.328358 0.643793
O O2 0.019492 0.586375 0.363241
O O3 0.620554 0.291728 0.105729
O O4 0.704613 0.448878 0.089216
O O5 0.226052 0.826707 0.331718
O O6 0.127819 0.859432 0.289129
O O7 0.528456 0.082948 0.580442
O O8 0.207656 0.801051 0.862978
O O9 0.500000 0.500000 0.500000
O O10 0.455272 0.366913 0.526342
O O11 0.104075 0.171697 0.480843
O O12 0.260102 0.346172 0.984137
O O13 0.296271 0.544435 0.387012
O O14 0.673977 0.855124 0.469574
O O15 0.879664 0.678414 0.616543
O O16 0.076063 0.930812 0.226321
O O17 0.000000 0.000000 0.000000
#
# Coordination Sequence:
#
# PCOD9091302 Si02
#       8
#     2   2   2   2   2   2   2   2
#     4  10  20  38  68  91 131 167 219 265 330 397
#     4  10  22  36  65 102 140 170 214 280 343 399
#     4  12  27  40  66  95 131 175 227 285 332 398
#     4  10  24  39  66  91 128 172 222 268 329 396
#     4  10  19  39  65 103 137 170 215 277 344 399
#     4  12  25  40  65  97 137 177 224 282 338 394
#     4  12  28  45  63  92 136 184 227 280 333 396
#     4  10  22  38  62  94 125 171 222 274 323 393
#
# _framework density 24.130844
#
# number of rings (size 3 to 8) (size 9 to 14) (size 15 to 20)
#    0.750    0.500    2.500    3.375    8.750    1.000 
#    0.000    0.000    0.000    1.500    0.000    0.000 
#    0.000    0.000    0.000    0.000    0.000    0.000 
#
# Total GULP energy -89458.833443 kJ/mol
# GULP energy per Si atom -5591.177090 kJ/mol
# Density = 2.407592 g / cm^3
# Si number density = 24.130844 Si / 1000 Ang^3
#
#
#
# Elastic Constant Matrix: (Units=GPa)
#
#
# Indices 1 2 3 4 5 6 
#
# 1 103.5865 38.1666 40.3820 2.0261 -7.5793 5.0707
# 2 38.1666 135.9450 20.2514 24.5360 4.1223 11.3505
# 3 40.3820 20.2514 52.1902 7.4068 -9.6647 -14.8719
# 4 2.0261 24.5360 7.4068 40.3169 1.8285 2.5792
# 5 -7.5793 4.1223 -9.6647 1.8285 45.0823 3.4701
# 6 5.0707 11.3505 -14.8719 2.5792 3.4701 44.2785
#
#
#
# Elastic Compliance Matrix: (Units=1/GPa)
#
#
# Indices 1 2 3 4 5 6 
#
# 1 0.016229 -0.002696 -0.013683 0.003707 0.000354 -0.006007
# 2 -0.002696 0.009543 -0.001800 -0.005132 -0.001324 -0.002339
# 3 -0.013683 -0.001800 0.036220 -0.005994 0.004782 0.014168
# 4 0.003707 -0.005132 -0.005994 0.029068 -0.001162 -0.002725
# 5 0.000354 -0.001324 0.004782 -0.001162 0.023424 0.000137
# 6 -0.006007 -0.002339 0.014168 -0.002725 0.000137 0.028779
#
#
# Mechanical properties :
#
#
# Convention : Reuss Voigt Hill
#
# Bulk Modulus (GPa) = 39.01302 54.36909 46.69105
# Shear Modulus (GPa) = 26.57244 38.79698 32.68471
#
# Velocity S-wave (km/s) = 3.32201 4.01406 3.68432
# Velocity P-wave (km/s) = 5.56028 6.63803 6.12291
#
# Compressibility (1/GPa) = 0.02563247
#
# Stress axis : x y z
#
# Youngs Moduli (GPa) = 61.61902 104.79247 27.60921
#
# Poissons Ratio (x) = 0.28254 0.37778
# Poissons Ratio (y) = 0.16614 0.04970
# Poissons Ratio (z) = 0.84314 0.18864
#
# Static dielectric constant tensor:
#      x y z
#    x 1.993390 0.004200 -0.039380 
#    y 0.004200 1.912830 -0.030800 
#    z -0.039380 -0.030800 2.016200 
# 
# From -- ./inp_files/120755.got.cif
#   From: 2010.05.17/outbox.cif.g08.bks.cpg/sg2_61_cif.got.tgz:120755.got - 2010.06.03 11:33:40.
