data_PCOD9091178
_publ_section_title
;
Structure prediction by ZEFSAII (Michael W. Deem and Ramdas Pophale) SiO2 
 PCOD9091178
Probable space group: P -1
;
_chemical_formula_sum "Si O2"
_cell_formula_units_Z 16
_cell_length_a 24.321345
_cell_length_b 8.706599
_cell_length_c 10.335926
_cell_angle_alpha 53.583127
_cell_angle_beta 132.786532
_cell_angle_gamma 150.099668
_cell_volume 800.640715
_symmetry_space_group_name_H-M "P -1"
_symmetry_group_IT_number 2
_symmetry_cell_setting 'triclinic'
loop_
_space_group_symop_operation_xyz
x,y,z
-x,-y,-z
loop_
_atom_site_type_symbol
_atom_site_label
_atom_site_fract_x
_atom_site_fract_y
_atom_site_fract_z
Si Si1 0.500008 0.164695 0.667687
Si Si2 0.639916 0.779822 0.044626
Si Si3 0.735934 0.554613 0.364349
Si Si4 0.264064 0.610918 0.052863
Si Si5 0.867109 0.671277 0.763285
Si Si6 0.145059 0.790122 0.081745
Si Si7 0.132878 0.202861 0.799632
Si Si8 0.389905 0.279804 0.279550
O O1 0.614750 0.260548 0.778843
O O2 0.461962 0.235990 0.458326
O O3 0.538068 0.388177 0.729671
O O4 0.385249 0.801567 0.690149
O O5 0.634583 0.769173 0.886333
O O6 0.705670 0.103787 0.034814
O O7 0.500000 0.500000 0.000000
O O8 0.705672 0.718859 0.227268
O O9 0.776115 0.583343 0.559078
O O10 0.837939 0.688646 0.356908
O O11 0.162077 0.336948 0.130327
O O12 0.223855 0.478917 0.909733
O O13 0.840214 0.391849 0.860224
O O14 0.999990 0.971651 0.764155
O O15 0.252130 0.004218 0.255356
O O16 0.000000 0.500000 0.000000
O O17 0.159805 0.031087 0.928386
#
# Coordination Sequence:
#
# PCOD9091178 Si02
#       8
#     2   2   2   2   2   2   2   2
#     4  11  24  37  68  92 126 159 204 257 306 378
#     4  12  25  37  59  90 131 162 197 250 316 372
#     4  12  23  42  63  93 126 164 206 253 313 367
#     4  12  23  42  63  93 126 164 206 253 313 367
#     4  11  24  42  66  91 123 164 212 257 305 365
#     4  10  19  39  64  85 117 165 209 245 298 371
#     4  11  24  42  66  91 123 164 212 257 305 365
#     4  11  22  44  58  95 124 163 205 245 311 377
#
# _framework density 19.983995
#
# number of rings (size 3 to 8) (size 9 to 14) (size 15 to 20)
#    0.000    0.750    6.250    0.750    3.500    2.000 
#    0.000    1.875    0.000    0.000    0.000    0.000 
#    0.000    0.000    0.000    0.000    0.000    0.000 
#
# Total GULP energy -89079.130320 kJ/mol
# GULP energy per Si atom -5567.445645 kJ/mol
# Density = 1.993851 g / cm^3
# Si number density = 19.983995 Si / 1000 Ang^3
#
#
#
# Elastic Constant Matrix: (Units=GPa)
#
#
# Indices 1 2 3 4 5 6 
#
# 1 64.1538 28.7337 36.5193 -14.4752 10.7332 4.3546
# 2 28.7337 95.9698 14.0954 -1.1330 11.9324 2.0393
# 3 36.5193 14.0954 61.2505 2.5586 7.0432 -12.7478
# 4 -14.4752 -1.1330 2.5586 25.8614 1.5053 5.8899
# 5 10.7332 11.9324 7.0432 1.5053 33.7551 -0.5531
# 6 4.3546 2.0393 -12.7478 5.8899 -0.5531 36.6613
#
#
#
# Elastic Compliance Matrix: (Units=1/GPa)
#
#
# Indices 1 2 3 4 5 6 
#
# 1 0.048168 -0.007847 -0.032124 0.035314 -0.007779 -0.022246
# 2 -0.007847 0.012579 0.002604 -0.004378 -0.002270 0.001807
# 3 -0.032124 0.002604 0.040321 -0.027025 0.002448 0.022070
# 4 0.035314 -0.004378 -0.027025 0.066860 -0.007421 -0.024202
# 5 -0.007779 -0.002270 0.002448 -0.007421 0.032780 0.003588
# 6 -0.022246 0.001807 0.022070 -0.024202 0.003588 0.041435
#
#
# Mechanical properties :
#
#
# Convention : Reuss Voigt Hill
#
# Bulk Modulus (GPa) = 37.97376 42.23010 40.10193
# Shear Modulus (GPa) = 15.35364 28.72393 22.03878
#
# Velocity S-wave (km/s) = 2.77482 3.79535 3.32448
# Velocity P-wave (km/s) = 5.41383 6.35485 5.90312
#
# Compressibility (1/GPa) = 0.02633398
#
# Stress axis : x y z
#
# Youngs Moduli (GPa) = 20.76068 79.49723 24.80077
#
# Poissons Ratio (x) = 0.62379 0.79670
# Poissons Ratio (y) = 0.16290 -0.06457
# Poissons Ratio (z) = 0.66692 -0.20697
#
# Static dielectric constant tensor:
#      x y z
#    x 1.775030 0.112870 -0.005650 
#    y 0.112870 1.805210 -0.007630 
#    z -0.005650 -0.007630 1.676000 
# 
# From -- ./inp_files/256462.got.cif
#   From: 2010.05.17/outbox.cif.g08.bks.cpg/sg2_129_cif.got.tgz:256462.got - 2010.06.03 11:33:40.
