data_PCOD9091684
_publ_section_title
;
Structure prediction by ZEFSAII (Michael W. Deem and Ramdas Pophale) SiO2 
 PCOD9091684
Probable space group: P -1
;
_chemical_formula_sum "Si O2"
_cell_formula_units_Z 12
_cell_length_a 7.312128
_cell_length_b 10.869017
_cell_length_c 10.949904
_cell_angle_alpha 86.874992
_cell_angle_beta 48.631891
_cell_angle_gamma 117.339130
_cell_volume 489.385847
_symmetry_space_group_name_H-M "P -1"
_symmetry_group_IT_number 2
_symmetry_cell_setting 'triclinic'
loop_
_space_group_symop_operation_xyz
x,y,z
-x,-y,-z
loop_
_atom_site_type_symbol
_atom_site_label
_atom_site_fract_x
_atom_site_fract_y
_atom_site_fract_z
Si Si1 0.875803 0.591507 0.313756
Si Si2 0.143938 0.247126 0.901998
Si Si3 0.372895 0.578544 0.119582
Si Si4 0.719350 0.957045 0.285455
Si Si5 0.791181 0.875035 0.742247
Si Si6 0.116259 0.833028 0.418105
O O1 0.500000 0.500000 0.500000
O O2 0.956219 0.671970 0.140195
O O3 0.998418 0.492179 0.276832
O O4 0.047497 0.721542 0.341635
O O5 0.493667 0.382252 0.804067
O O6 0.154804 0.131514 0.816531
O O7 0.904543 0.129077 0.123057
O O8 0.500000 0.500000 0.000000
O O9 0.556411 0.752060 0.959337
O O10 0.352319 0.847550 0.410082
O O11 0.844531 0.002619 0.365863
O O12 0.805076 0.780889 0.631897
O O13 0.728294 0.990059 0.715246
#
# Coordination Sequence:
#
# PCOD9091684 Si02
#       6
#     2   2   2   2   2   2
#     4  12  27  44  67  97 136 178 219 269 329 394
#     4  10  22  40  67  98 125 173 220 274 325 389
#     4  11  26  47  67  94 133 181 223 269 324 392
#     4  10  19  39  69  96 128 164 222 272 325 388
#     4  10  23  41  66 101 128 167 220 275 326 385
#     4  11  22  41  67  98 134 168 215 275 331 384
#
# _framework density 24.520527999999999
#
# number of rings (size 3 to 8) (size 9 to 14) (size 15 to 20)
#    0.000    1.333    3.333    1.500    2.333    4.000 
#   12.000    0.000    0.000    0.000    0.000    0.000 
#    0.000    0.000    0.000    0.000    0.000    0.000 
#
# Total GULP energy -67122.816132 kJ/mol
# GULP energy per Si atom -5593.568011 kJ/mol
# Density = 2.446472 g / cm^3
# Si number density = 24.520528 Si / 1000 Ang^3
#
#
#
# Elastic Constant Matrix: (Units=GPa)
#
#
# Indices 1 2 3 4 5 6 
#
# 1 165.1343 40.7912 26.8545 6.0192 -14.7852 -18.6245
# 2 40.7912 56.0802 18.3205 12.0404 -2.0920 -16.6100
# 3 26.8545 18.3205 45.3167 9.1333 -4.0922 -5.9878
# 4 6.0192 12.0404 9.1333 32.0576 -3.4043 4.6784
# 5 -14.7852 -2.0920 -4.0922 -3.4043 44.0238 5.8458
# 6 -18.6245 -16.6100 -5.9878 4.6784 5.8458 21.3104
#
#
#
# Elastic Compliance Matrix: (Units=1/GPa)
#
#
# Indices 1 2 3 4 5 6 
#
# 1 0.007958 -0.004432 -0.002645 0.000843 0.002013 0.002020
# 2 -0.004432 0.032906 -0.004958 -0.014245 -0.004783 0.024821
# 3 -0.002645 -0.004958 0.027177 -0.005688 0.000626 0.002537
# 4 0.000843 -0.014245 -0.005688 0.041871 0.005318 -0.022615
# 5 0.002013 -0.004783 0.000626 0.005318 0.024935 -0.009800
# 6 0.002020 0.024821 0.002537 -0.022615 -0.009800 0.076403
#
#
# Mechanical properties :
#
#
# Convention : Reuss Voigt Hill
#
# Bulk Modulus (GPa) = 22.74252 48.71818 35.73035
# Shear Modulus (GPa) = 20.00173 31.51602 25.75887
#
# Velocity S-wave (km/s) = 2.85917 3.58899 3.24466
# Velocity P-wave (km/s) = 4.49386 6.08982 5.35167
#
# Compressibility (1/GPa) = 0.04397050
#
# Stress axis : x y z
#
# Youngs Moduli (GPa) = 125.66040 30.38917 36.79568
#
# Poissons Ratio (x) = 0.13468 0.09734
# Poissons Ratio (y) = 0.55690 0.18245
# Poissons Ratio (z) = 0.33242 0.15068
#
# Static dielectric constant tensor:
#      x y z
#    x 1.923540 -0.004280 -0.070380 
#    y -0.004280 1.929940 -0.043880 
#    z -0.070380 -0.043880 2.059450 
# 
# From -- ./inp_files/361233.got.cif
#   From: 2010.05.17/outbox.cif.g08.bks.cpg/sg2_181_cif.got.tgz:361233.got - 2010.06.03 11:33:40.
