data_PCOD9091700
_publ_section_title
;
Structure prediction by ZEFSAII (Michael W. Deem and Ramdas Pophale) SiO2 
 PCOD9091700
Probable space group: P -1
;
_chemical_formula_sum "Si O2"
_cell_formula_units_Z 16
_cell_length_a 9.976392
_cell_length_b 9.758153
_cell_length_c 11.785761
_cell_angle_alpha 92.203680
_cell_angle_beta 90.582773
_cell_angle_gamma 42.166637
_cell_volume 769.351607
_symmetry_space_group_name_H-M "P -1"
_symmetry_group_IT_number 2
_symmetry_cell_setting 'triclinic'
loop_
_space_group_symop_operation_xyz
x,y,z
-x,-y,-z
loop_
_atom_site_type_symbol
_atom_site_label
_atom_site_fract_x
_atom_site_fract_y
_atom_site_fract_z
Si Si1 0.572515 0.845833 0.232354
Si Si2 0.012251 0.071309 0.884540
Si Si3 0.733604 0.789693 0.471303
Si Si4 0.744961 0.683206 0.710261
Si Si5 0.597670 0.280016 0.275252
Si Si6 0.950028 0.636202 0.107612
Si Si7 0.189628 0.956953 0.500032
Si Si8 0.369876 0.733824 0.256035
O O1 0.705441 0.743124 0.346377
O O2 0.499312 0.751301 0.195562
O O3 0.716065 0.804558 0.140270
O O4 0.373653 0.086524 0.257357
O O5 0.994724 0.247713 0.908224
O O6 0.829229 0.159055 0.807964
O O7 0.220276 0.885226 0.814620
O O8 0.000000 0.000000 0.000000
O O9 0.801882 0.648643 0.575853
O O10 0.500000 0.000000 0.500000
O O11 0.843937 0.854294 0.473715
O O12 0.582798 0.689741 0.735667
O O13 0.926787 0.515080 0.788934
O O14 0.678496 0.193510 0.399218
O O15 0.507921 0.498120 0.268182
O O16 0.000000 0.500000 0.000000
O O17 0.302990 0.849696 0.379176
O O18 0.000000 0.000000 0.500000
#
# Coordination Sequence:
#
# PCOD9091700 Si02
#       8
#     2   2   2   2   2   2   2   2
#     4  11  24  46  71 103 143 178 224 285 344 407
#     4  12  29  49  68  98 141 182 236 299 342 404
#     4  10  19  39  70 100 138 177 216 270 339 412
#     4  11  22  45  74  98 140 179 223 282 346 409
#     4  12  24  45  72 102 145 184 226 284 349 414
#     4  12  29  47  72 103 129 182 246 283 341 412
#     4  12  22  39  72 107 147 181 220 278 350 416
#     4  12  26  43  72 108 138 186 230 278 353 418
#
# _framework density 20.796731999999999
#
# number of rings (size 3 to 8) (size 9 to 14) (size 15 to 20)
#    0.000    0.500    8.750    0.375    3.500    3.500 
#    0.000    0.000    0.000    0.000    0.000    0.000 
#    0.000    0.000    0.000    0.000    0.000    0.000 
#
# Total GULP energy -89466.504138 kJ/mol
# GULP energy per Si atom -5591.656509 kJ/mol
# Density = 2.074940 g / cm^3
# Si number density = 20.796732 Si / 1000 Ang^3
#
#
#
# Elastic Constant Matrix: (Units=GPa)
#
#
# Indices 1 2 3 4 5 6 
#
# 1 144.4105 40.9890 26.7301 3.2102 -12.5089 17.3785
# 2 40.9890 99.2903 33.0421 -12.0262 -1.7022 15.4767
# 3 26.7301 33.0421 74.5422 2.7873 -14.8193 -4.2253
# 4 3.2102 -12.0262 2.7873 25.0344 9.5839 -5.4016
# 5 -12.5089 -1.7022 -14.8193 9.5839 18.1761 -4.9607
# 6 17.3785 15.4767 -4.2253 -5.4016 -4.9607 38.3842
#
#
#
# Elastic Compliance Matrix: (Units=1/GPa)
#
#
# Indices 1 2 3 4 5 6 
#
# 1 0.009407 -0.004683 0.000977 -0.008027 0.010509 -0.002035
# 2 -0.004683 0.019246 -0.012676 0.018703 -0.023654 -0.007460
# 3 0.000977 -0.012676 0.026880 -0.020514 0.034737 0.009230
# 4 -0.008027 0.018703 -0.020514 0.074799 -0.060896 -0.003509
# 5 0.010509 -0.023654 0.034737 -0.060896 0.124879 0.016173
# 6 -0.002035 -0.007460 0.009230 -0.003509 0.016173 0.032594
#
#
# Mechanical properties :
#
#
# Convention : Reuss Voigt Hill
#
# Bulk Modulus (GPa) = 43.92336 57.75173 50.83755
# Shear Modulus (GPa) = 15.23652 30.81774 23.02713
#
# Velocity S-wave (km/s) = 2.70967 3.85366 3.33114
# Velocity P-wave (km/s) = 5.56380 6.90151 6.26844
#
# Compressibility (1/GPa) = 0.02276693
#
# Stress axis : x y z
#
# Youngs Moduli (GPa) = 106.30703 51.95897 37.20227
#
# Poissons Ratio (x) = 0.24334 -0.03634
# Poissons Ratio (y) = 0.49786 0.47159
# Poissons Ratio (z) = -0.10383 0.65865
#
# Static dielectric constant tensor:
#      x y z
#    x 1.689720 0.013460 -0.029620 
#    y 0.013460 1.768440 0.018290 
#    z -0.029620 0.018290 1.740010 
# 
# From -- ./inp_files/245980.got.cif
#   From: 2010.05.17/outbox.cif.g08.bks.cpg/sg2_123_cif.got.tgz:245980.got - 2010.06.03 11:33:40.
