data_PCOD9091638
_publ_section_title
;
Structure prediction by ZEFSAII (Michael W. Deem and Ramdas Pophale) SiO2 
 PCOD9091638
Probable space group: P -1
;
_chemical_formula_sum "Si O2"
_cell_formula_units_Z 16
_cell_length_a 7.704952
_cell_length_b 8.178734
_cell_length_c 19.548352
_cell_angle_alpha 58.719249
_cell_angle_beta 139.893161
_cell_angle_gamma 128.568722
_cell_volume 618.277105
_symmetry_space_group_name_H-M "P -1"
_symmetry_group_IT_number 2
_symmetry_cell_setting 'triclinic'
loop_
_space_group_symop_operation_xyz
x,y,z
-x,-y,-z
loop_
_atom_site_type_symbol
_atom_site_label
_atom_site_fract_x
_atom_site_fract_y
_atom_site_fract_z
Si Si1 0.156764 0.670081 0.171212
Si Si2 0.834054 0.926034 0.153481
Si Si3 0.765687 0.715002 0.725292
Si Si4 0.695353 0.915473 0.530037
Si Si5 0.358778 0.104108 0.168016
Si Si6 0.151631 0.651872 0.337735
Si Si7 0.282150 0.522755 0.032949
Si Si8 0.220463 0.782758 0.613569
O O1 0.328769 0.528358 0.234847
O O2 0.131819 0.642353 0.251686
O O3 0.298434 0.913430 0.138039
O O4 0.846297 0.547001 0.066643
O O5 0.522367 0.756247 0.070946
O O6 0.973881 0.795260 0.269576
O O7 0.922503 0.139456 0.176716
O O8 0.043090 0.010497 0.132018
O O9 0.799620 0.782776 0.641746
O O10 0.501882 0.761702 0.667540
O O11 0.479552 0.767229 0.439938
O O12 0.500000 0.000000 0.500000
O O13 0.904343 0.110116 0.504575
O O14 0.415412 0.347237 0.124582
O O15 0.617056 0.094558 0.295905
O O16 0.010618 0.436939 0.382262
O O17 0.000000 0.500000 0.000000
#
# Coordination Sequence:
#
# PCOD9091638 Si02
#       8
#     2   2   2   2   2   2   2   2
#     4  11  25  43  61  98 135 171 210 274 331 373
#     4  10  21  42  66  91 131 167 218 269 315 382
#     4  10  22  42  67  95 134 171 217 272 316 383
#     4  10  19  39  68  96 127 173 220 262 320 379
#     4  10  21  42  66  90 130 170 211 264 324 387
#     4  11  21  40  66  95 131 170 212 272 323 383
#     4  12  25  43  70  97 125 174 223 266 324 391
#     4  10  19  40  67  91 126 170 221 256 318 388
#
# _framework density 25.878364999999999
#
# number of rings (size 3 to 8) (size 9 to 14) (size 15 to 20)
#    0.000    1.500    6.250    1.875    0.000    6.500 
#    4.500    0.625    0.000    0.000    0.000    0.000 
#    0.000    0.000    0.000    0.000    0.000    0.000 
#
# Total GULP energy -89370.550122 kJ/mol
# GULP energy per Si atom -5585.659383 kJ/mol
# Density = 2.581946 g / cm^3
# Si number density = 25.878365 Si / 1000 Ang^3
#
#
#
# Elastic Constant Matrix: (Units=GPa)
#
#
# Indices 1 2 3 4 5 6 
#
# 1 57.7445 26.4352 14.9644 0.7348 -4.3034 4.3614
# 2 26.4352 117.2930 20.7044 0.3971 -8.1622 -6.9275
# 3 14.9644 20.7044 81.5544 -5.3483 -25.1536 -23.4528
# 4 0.7348 0.3971 -5.3483 27.6173 -5.4036 2.2655
# 5 -4.3034 -8.1622 -25.1536 -5.4036 30.4092 -3.9752
# 6 4.3614 -6.9275 -23.4528 2.2655 -3.9752 34.2057
#
#
#
# Elastic Compliance Matrix: (Units=1/GPa)
#
#
# Indices 1 2 3 4 5 6 
#
# 1 0.021625 -0.004509 -0.007540 -0.002382 -0.006037 -0.009384
# 2 -0.004509 0.009893 -0.000227 0.000146 0.002204 0.002669
# 3 -0.007540 -0.000227 0.030201 0.009683 0.028753 0.024322
# 4 -0.002382 0.000146 0.009683 0.040726 0.015747 0.006105
# 5 -0.006037 0.002204 0.028753 0.015747 0.062757 0.027181
# 6 -0.009384 0.002669 0.024322 0.006105 0.027181 0.050403
#
#
# Mechanical properties :
#
#
# Convention : Reuss Voigt Hill
#
# Bulk Modulus (GPa) = 26.90625 42.31109 34.60867
# Shear Modulus (GPa) = 19.79844 31.41232 25.60538
#
# Velocity S-wave (km/s) = 2.76897 3.48781 3.14897
# Velocity P-wave (km/s) = 4.54342 5.71010 5.15984
#
# Compressibility (1/GPa) = 0.03716608
#
# Stress axis : x y z
#
# Youngs Moduli (GPa) = 46.24266 101.08635 33.11181
#
# Poissons Ratio (x) = 0.45581 0.24966
# Poissons Ratio (y) = 0.20851 0.00752
# Poissons Ratio (z) = 0.34867 0.02295
#
# Static dielectric constant tensor:
#      x y z
#    x 2.116530 -0.088200 -0.002530 
#    y -0.088200 2.148230 -0.035940 
#    z -0.002530 -0.035940 2.059120 
# 
# From -- ./inp_files/587939.got.cif
#   From: 2010.05.17/outbox.cif.g08.bks.cpg/sg2_294_cif.got.tgz:587939.got - 2010.06.03 11:33:40.
