data_PCOD9091283
_publ_section_title
;
Structure prediction by ZEFSAII (Michael W. Deem and Ramdas Pophale) SiO2 
 PCOD9091283
Probable space group: P -1
;
_chemical_formula_sum "Si O2"
_cell_formula_units_Z 15
_cell_length_a 18.681450
_cell_length_b 25.886300
_cell_length_c 6.100318
_cell_angle_alpha 110.532771
_cell_angle_beta 78.922341
_cell_angle_gamma 162.936154
_cell_volume 691.959827
_symmetry_space_group_name_H-M "P -1"
_symmetry_group_IT_number 2
_symmetry_cell_setting 'triclinic'
loop_
_space_group_symop_operation_xyz
x,y,z
-x,-y,-z
loop_
_atom_site_type_symbol
_atom_site_label
_atom_site_fract_x
_atom_site_fract_y
_atom_site_fract_z
Si Si1 0.269653 0.722850 0.290377
Si Si2 0.365240 0.587543 0.892630
Si Si3 0.099601 0.765771 0.023350
Si Si4 0.239077 0.177400 0.311988
Si Si5 0.500000 0.000000 0.500000
Si Si6 0.901379 0.012771 0.508410
Si Si7 0.662998 0.946707 0.692090
Si Si8 0.131987 0.497638 0.553901
O O1 0.498049 0.845900 0.419859
O O2 0.121014 0.644358 0.469863
O O3 0.401537 0.866845 0.277579
O O4 0.000000 0.500000 0.000000
O O5 0.471298 0.625006 0.691744
O O6 0.189380 0.508548 0.766326
O O7 0.161123 0.409425 0.921500
O O8 0.639289 0.812274 0.193294
O O9 0.337614 0.911733 0.254310
O O10 0.214666 0.906987 0.064600
O O11 0.976577 0.629931 0.730881
O O12 0.175569 0.082636 0.382468
O O13 0.183422 0.193639 0.498007
O O14 0.000000 0.000000 0.000000
O O15 0.897760 0.072772 0.679543
O O16 0.420047 0.737787 0.664290
#
# Coordination Sequence:
#
# PCOD9091283 Si02
#       8
#     2   2   2   2   1   2   2   2
#     4  11  23  39  63  92 124 171 215 261 314 373
#     4  11  19  40  65  90 126 171 208 257 323 379
#     4  11  24  41  61  91 131 172 216 264 316 369
#     4   9  19  34  69  97 120 168 207 256 331 384
#     4  10  22  40  60  88 128 170 216 264 302 370
#     4  10  19  39  64  97 128 158 215 266 313 388
#     4  11  23  39  61  94 126 164 214 267 309 373
#     4  12  23  42  64  89 130 175 213 261 317 378
#
# _framework density 21.677557
#
# number of rings (size 3 to 8) (size 9 to 14) (size 15 to 20)
#    0.000    1.333    4.000    2.000    0.000    3.200 
#    2.400    0.667    0.000   11.200    0.000    0.000 
#    0.000    0.000    0.000    0.000    0.000    0.000 
#
# Total GULP energy -83527.521036 kJ/mol
# GULP energy per Si atom -5568.501402 kJ/mol
# Density = 2.162822 g / cm^3
# Si number density = 21.677557 Si / 1000 Ang^3
#
#
#
# Elastic Constant Matrix: (Units=GPa)
#
#
# Indices 1 2 3 4 5 6 
#
# 1 116.0265 23.8114 21.6954 -13.1506 -17.4450 -5.1413
# 2 23.8114 55.7492 27.8039 -3.8668 -35.5783 -4.4746
# 3 21.6954 27.8039 65.6071 -5.5992 -10.7523 -9.8178
# 4 -13.1506 -3.8668 -5.5992 22.6695 2.1853 -14.8277
# 5 -17.4450 -35.5783 -10.7523 2.1853 34.4018 3.1129
# 6 -5.1413 -4.4746 -9.8178 -14.8277 3.1129 30.2223
#
#
#
# Elastic Compliance Matrix: (Units=1/GPa)
#
#
# Indices 1 2 3 4 5 6 
#
# 1 0.010754 -0.001295 -0.000952 0.009135 0.002736 0.005528
# 2 -0.001295 0.069450 -0.019100 -0.002752 0.065759 -0.004266
# 3 -0.000952 -0.019100 0.024001 0.011250 -0.014519 0.011822
# 4 0.009135 -0.002752 0.011250 0.081747 -0.003992 0.045319
# 5 0.002736 0.065759 -0.014519 -0.003992 0.094744 -0.006232
# 6 0.005528 -0.004266 0.011822 0.045319 -0.006232 0.060114
#
#
# Mechanical properties :
#
#
# Convention : Reuss Voigt Hill
#
# Bulk Modulus (GPa) = 16.25739 42.66715 29.46227
# Shear Modulus (GPa) = 12.37599 28.39688 20.38643
#
# Velocity S-wave (km/s) = 2.39197 3.62327 3.06999
# Velocity P-wave (km/s) = 3.89161 6.10160 5.11733
#
# Compressibility (1/GPa) = 0.06151048
#
# Stress axis : x y z
#
# Youngs Moduli (GPa) = 92.98695 14.39887 41.66427
#
# Poissons Ratio (x) = 0.01865 0.03967
# Poissons Ratio (y) = 0.12043 0.79580
# Poissons Ratio (z) = 0.08854 0.27502
#
# Static dielectric constant tensor:
#      x y z
#    x 1.795000 0.014240 -0.044100 
#    y 0.014240 1.893540 0.022250 
#    z -0.044100 0.022250 1.850240 
# 
# From -- ./inp_files/110893.got.cif
#   From: 2010.05.17/outbox.cif.g08.bks.cpg/sg2_56_cif.got.tgz:110893.got - 2010.06.03 11:33:40.
