data_PCOD9092119
_publ_section_title
;
Structure prediction by ZEFSAII (Michael W. Deem and Ramdas Pophale) SiO2 
 PCOD9092119
Probable space group: P -1
;
_chemical_formula_sum "Si O2"
_cell_formula_units_Z 16
_cell_length_a 12.750713
_cell_length_b 7.230504
_cell_length_c 11.737794
_cell_angle_alpha 103.957113
_cell_angle_beta 47.708613
_cell_angle_gamma 117.719110
_cell_volume 704.365882
_symmetry_space_group_name_H-M "P -1"
_symmetry_group_IT_number 2
_symmetry_cell_setting 'triclinic'
loop_
_space_group_symop_operation_xyz
x,y,z
-x,-y,-z
loop_
_atom_site_type_symbol
_atom_site_label
_atom_site_fract_x
_atom_site_fract_y
_atom_site_fract_z
Si Si1 0.726787 0.756329 0.394652
Si Si2 0.915727 0.684346 0.454784
Si Si3 0.878561 0.458134 0.817334
Si Si4 0.414449 0.638205 0.728029
Si Si5 0.963710 0.912374 0.868501
Si Si6 0.461587 0.650253 0.964263
Si Si7 0.873037 0.269696 0.024351
Si Si8 0.200118 0.104659 0.254314
O O1 0.820051 0.687552 0.411665
O O2 0.581772 0.769811 0.567286
O O3 0.661743 0.579427 0.318533
O O4 0.854429 0.967077 0.277976
O O5 0.811330 0.705458 0.636062
O O6 0.979027 0.505970 0.366839
O O7 0.080758 0.893131 0.371512
O O8 0.913578 0.669536 0.894857
O O9 0.706550 0.367348 0.877352
O O10 0.875071 0.288886 0.888569
O O11 0.435003 0.596458 0.840082
O O12 0.296527 0.749515 0.818897
O O13 0.084779 0.923643 0.002614
O O14 0.867747 0.883631 0.816596
O O15 0.621453 0.861631 0.879918
O O16 0.500000 0.500000 0.000000
O O17 0.000000 0.500000 0.000000
#
# Coordination Sequence:
#
# PCOD9092119 Si02
#       8
#     2   2   2   2   2   2   2   2
#     4  10  19  40  66  93 123 157 219 259 308 382
#     4  10  20  39  65  92 122 167 214 259 309 375
#     4  11  23  38  64  93 123 170 206 256 325 369
#     4  10  21  37  68  90 120 175 201 257 330 358
#     4  11  22  40  63  94 127 163 214 262 309 383
#     4  11  22  39  56  92 132 163 208 261 310 375
#     4  11  21  42  63  92 124 166 210 259 314 378
#     4  10  20  39  61  86 127 168 204 261 308 365
#
# _framework density 22.715467
#
# number of rings (size 3 to 8) (size 9 to 14) (size 15 to 20)
#    0.000    1.500    6.250    0.000    0.000    1.500 
#    0.000    1.250    0.000    2.250    0.000    0.000 
#    0.000    0.000    0.000    0.000    0.000    0.000 
#
# Total GULP energy -89296.142956 kJ/mol
# GULP energy per Si atom -5581.008935 kJ/mol
# Density = 2.266377 g / cm^3
# Si number density = 22.715467 Si / 1000 Ang^3
#
#
#
# Elastic Constant Matrix: (Units=GPa)
#
#
# Indices 1 2 3 4 5 6 
#
# 1 89.2215 37.0282 36.0314 -5.6872 -22.0790 -2.1729
# 2 37.0282 78.1182 27.5720 -5.5884 -11.3893 -6.9084
# 3 36.0314 27.5720 115.2913 -0.6982 -39.6060 -3.2796
# 4 -5.6872 -5.5884 -0.6982 31.9074 4.8205 -11.9522
# 5 -22.0790 -11.3893 -39.6060 4.8205 52.0921 0.6368
# 6 -2.1729 -6.9084 -3.2796 -11.9522 0.6368 38.9277
#
#
#
# Elastic Compliance Matrix: (Units=1/GPa)
#
#
# Indices 1 2 3 4 5 6 
#
# 1 0.015522 -0.005997 -0.002217 0.001103 0.003481 -0.000103
# 2 -0.005997 0.016885 -0.002394 0.003297 -0.001018 0.003489
# 3 -0.002217 -0.002394 0.012832 -0.001882 0.008470 -0.000184
# 4 0.001103 0.003297 -0.001882 0.037128 -0.003824 0.011950
# 5 0.003481 -0.001018 0.008470 -0.003824 0.027254 -0.000893
# 6 -0.000103 0.003489 -0.000184 0.011950 -0.000893 0.029970
#
#
# Mechanical properties :
#
#
# Convention : Reuss Voigt Hill
#
# Bulk Modulus (GPa) = 41.63020 53.76601 47.69811
# Shear Modulus (GPa) = 29.61820 36.71874 33.16847
#
# Velocity S-wave (km/s) = 3.61484 4.02489 3.82536
# Velocity P-wave (km/s) = 5.98242 6.73204 6.36827
#
# Compressibility (1/GPa) = 0.02402102
#
# Stress axis : x y z
#
# Youngs Moduli (GPa) = 64.42616 59.22453 77.92975
#
# Poissons Ratio (x) = 0.35520 0.17277
# Poissons Ratio (y) = 0.38639 0.18659
# Poissons Ratio (z) = 0.14283 0.14180
#
# Static dielectric constant tensor:
#      x y z
#    x 1.857550 -0.002040 0.006200 
#    y -0.002040 1.911480 0.060570 
#    z 0.006200 0.060570 1.906690 
# 
# From -- ./inp_files/257530.got.cif
#   From: 2010.05.17/outbox.cif.g08.bks.cpg/sg2_129_cif.got.tgz:257530.got - 2010.06.03 11:33:40.
