data_PCOD9092187
_publ_section_title
;
Structure prediction by ZEFSAII (Michael W. Deem and Ramdas Pophale) SiO2 
 PCOD9092187
Probable space group: P -1
;
_chemical_formula_sum "Si O2"
_cell_formula_units_Z 16
_cell_length_a 8.254921
_cell_length_b 18.384259
_cell_length_c 6.976864
_cell_angle_alpha 73.745550
_cell_angle_beta 122.746302
_cell_angle_gamma 136.251215
_cell_volume 604.518906
_symmetry_space_group_name_H-M "P -1"
_symmetry_group_IT_number 2
_symmetry_cell_setting 'triclinic'
loop_
_space_group_symop_operation_xyz
x,y,z
-x,-y,-z
loop_
_atom_site_type_symbol
_atom_site_label
_atom_site_fract_x
_atom_site_fract_y
_atom_site_fract_z
Si Si1 0.466012 0.873819 0.536606
Si Si2 0.772637 0.398351 0.057104
Si Si3 0.032197 0.193404 0.815539
Si Si4 0.927864 0.938862 0.300433
Si Si5 0.345311 0.411191 0.726066
Si Si6 0.481720 0.710441 0.653169
Si Si7 0.678136 0.198698 0.076789
Si Si8 0.729252 0.643676 0.706103
O O1 0.297237 0.892109 0.304484
O O2 0.441277 0.782954 0.497929
O O3 0.326024 0.831365 0.685695
O O4 0.790297 0.970470 0.702391
O O5 0.766274 0.383637 0.295922
O O6 0.721519 0.300791 0.020605
O O7 0.537363 0.392546 0.879104
O O8 0.000000 0.500000 0.000000
O O9 0.094171 0.157808 0.692493
O O10 0.099683 0.303056 0.761481
O O11 0.243720 0.216725 0.088999
O O12 0.637287 0.897410 0.108145
O O13 0.000000 0.000000 0.500000
O O14 0.542547 0.537372 0.799332
O O15 0.251600 0.393311 0.458475
O O16 0.547179 0.668104 0.565033
O O17 0.959093 0.247947 0.125467
#
# Coordination Sequence:
#
# PCOD9092187 Si02
#       8
#     2   2   2   2   2   2   2   2
#     4  11  24  46  70  91 136 179 219 285 334 391
#     4  10  19  40  67  92 133 180 212 267 336 397
#     4  11  23  46  69  96 137 177 220 272 346 395
#     4  12  27  44  69 103 128 173 238 281 331 395
#     4  10  21  40  68  95 141 169 212 273 332 400
#     4  10  25  42  67 101 136 174 227 272 326 402
#     4  11  22  42  68  93 134 180 217 271 345 392
#     4  11  23  40  68 102 133 176 222 266 338 402
#
# _framework density 26.46733
#
# number of rings (size 3 to 8) (size 9 to 14) (size 15 to 20)
#    0.000    1.250    6.250    0.750    3.500    2.000 
#    0.000    2.500    0.000    0.000    0.000    0.000 
#    0.000    0.000    0.000    0.000    0.000    0.000 
#
# Total GULP energy -89168.740538 kJ/mol
# GULP energy per Si atom -5573.046284 kJ/mol
# Density = 2.640709 g / cm^3
# Si number density = 26.467330 Si / 1000 Ang^3
#
#
#
# Elastic Constant Matrix: (Units=GPa)
#
#
# Indices 1 2 3 4 5 6 
#
# 1 121.4040 33.1118 9.4353 7.4150 13.7075 7.2693
# 2 33.1118 93.2545 2.6313 6.2745 -1.2629 16.1833
# 3 9.4353 2.6313 64.7547 15.8820 2.6149 -0.7207
# 4 7.4150 6.2745 15.8820 30.1087 -0.0733 7.6378
# 5 13.7075 -1.2629 2.6149 -0.0733 42.9863 2.4372
# 6 7.2693 16.1833 -0.7207 7.6378 2.4372 54.8638
#
#
#
# Elastic Compliance Matrix: (Units=1/GPa)
#
#
# Indices 1 2 3 4 5 6 
#
# 1 0.009648 -0.003363 -0.000837 -0.001245 -0.003127 0.000015
# 2 -0.003363 0.012558 0.000137 -0.001050 0.001612 -0.003182
# 3 -0.000837 0.000137 0.018009 -0.009757 -0.000938 0.001707
# 4 -0.001245 -0.001050 -0.009757 0.040237 0.001330 -0.005314
# 5 -0.003127 0.001612 -0.000938 0.001330 0.024443 -0.001344
# 6 0.000015 -0.003182 0.001707 -0.005314 -0.001344 0.019986
#
#
# Mechanical properties :
#
#
# Convention : Reuss Voigt Hill
#
# Bulk Modulus (GPa) = 31.16452 41.08556 36.12504
# Shear Modulus (GPa) = 34.79373 41.20743 38.00058
#
# Velocity S-wave (km/s) = 3.62966 3.95006 3.79325
# Velocity P-wave (km/s) = 5.41906 6.02999 5.73267
#
# Compressibility (1/GPa) = 0.03208777
#
# Stress axis : x y z
#
# Youngs Moduli (GPa) = 103.65365 79.62831 55.52675
#
# Poissons Ratio (x) = 0.26780 0.04649
# Poissons Ratio (y) = 0.34860 -0.00759
# Poissons Ratio (z) = 0.08679 -0.01088
#
# Static dielectric constant tensor:
#      x y z
#    x 2.117200 0.178710 -0.010810 
#    y 0.178710 2.556380 0.187640 
#    z -0.010810 0.187640 2.232960 
# 
# From -- ./inp_files/217533.got.cif
#   From: 2010.05.17/outbox.cif.g08.bks.cpg/sg2_109_cif.got.tgz:217533.got - 2010.06.03 11:33:40.
