data_PCOD9092805
_publ_section_title
;
Structure prediction by ZEFSAII (Michael W. Deem and Ramdas Pophale) SiO2 
 PCOD9092805
Probable space group: P -1
;
_chemical_formula_sum "Si O2"
_cell_formula_units_Z 16
_cell_length_a 11.291832
_cell_length_b 8.150068
_cell_length_c 13.605813
_cell_angle_alpha 90.015876
_cell_angle_beta 146.626065
_cell_angle_gamma 81.302877
_cell_volume 662.348363
_symmetry_space_group_name_H-M "P -1"
_symmetry_group_IT_number 2
_symmetry_cell_setting 'triclinic'
loop_
_space_group_symop_operation_xyz
x,y,z
-x,-y,-z
loop_
_atom_site_type_symbol
_atom_site_label
_atom_site_fract_x
_atom_site_fract_y
_atom_site_fract_z
Si Si1 0.731687 0.526753 0.182313
Si Si2 0.109176 0.745991 0.539752
Si Si3 0.702888 0.089244 0.648969
Si Si4 0.507470 0.740747 0.694662
Si Si5 0.173563 0.089601 0.988583
Si Si6 0.934668 0.421011 0.704044
Si Si7 0.624841 0.835878 0.241996
Si Si8 0.500301 0.368540 0.659531
O O1 0.844218 0.399798 0.346272
O O2 0.879002 0.482666 0.186838
O O3 0.656669 0.720733 0.167653
O O4 0.500000 0.500000 0.000000
O O5 0.340716 0.790295 0.673347
O O6 0.081664 0.653397 0.417266
O O7 0.871392 0.870958 0.410371
O O8 0.648246 0.194681 0.508536
O O9 0.664899 0.214456 0.716593
O O10 0.970764 0.997432 0.846212
O O11 0.500000 0.000000 0.500000
O O12 0.586154 0.533328 0.746813
O O13 0.698033 0.841676 0.832976
O O14 0.041429 0.268704 0.849082
O O15 0.387763 0.977591 0.077501
O O16 0.697879 0.553244 0.556752
O O17 0.598247 0.716010 0.317232
#
# Coordination Sequence:
#
# PCOD9092805 Si02
#       8
#     2   2   2   2   2   2   2   2
#     4  11  20  36  65 106 138 180 234 280 335 419
#     4  10  19  42  70  99 142 182 229 283 339 415
#     4  12  28  50  71 100 142 183 235 301 356 405
#     4  11  24  46  74 104 138 183 235 289 342 419
#     4  12  27  46  68 109 143 180 235 294 352 416
#     4  10  20  40  68  96 138 179 232 280 333 424
#     4  11  23  42  70 102 145 185 224 283 352 412
#     4  11  22  47  77  96 136 193 233 282 349 407
#
# _framework density 24.156472999999998
#
# number of rings (size 3 to 8) (size 9 to 14) (size 15 to 20)
#    0.000    1.000    6.250    2.625    0.000    6.000 
#    2.250    0.000    0.000    0.000    0.000    0.000 
#    0.000    0.000    0.000    0.000    0.000    0.000 
#
# Total GULP energy -89081.289041 kJ/mol
# GULP energy per Si atom -5567.580565 kJ/mol
# Density = 2.410149 g / cm^3
# Si number density = 24.156473 Si / 1000 Ang^3
#
#
#
# Elastic Constant Matrix: (Units=GPa)
#
#
# Indices 1 2 3 4 5 6 
#
# 1 68.2713 18.7503 12.3224 5.1442 31.5195 13.9272
# 2 18.7503 54.2927 20.1184 15.0570 25.3528 -5.2594
# 3 12.3224 20.1184 126.3735 17.0140 31.7983 -1.3949
# 4 5.1442 15.0570 17.0140 33.7147 3.3237 11.5793
# 5 31.5195 25.3528 31.7983 3.3237 46.4932 -1.8609
# 6 13.9272 -5.2594 -1.3949 11.5793 -1.8609 34.5839
#
#
#
# Elastic Compliance Matrix: (Units=1/GPa)
#
#
# Indices 1 2 3 4 5 6 
#
# 1 0.025747 -0.003318 0.001974 0.002638 -0.017690 -0.012628
# 2 -0.003318 0.031274 0.001203 -0.016425 -0.014018 0.010886
# 3 0.001974 0.001203 0.010506 -0.005712 -0.008722 0.001255
# 4 0.002638 -0.016425 -0.005712 0.045136 0.007106 -0.018521
# 5 -0.017690 -0.014018 -0.008722 0.007106 0.046793 0.004779
# 6 -0.012628 0.010886 0.001255 -0.018521 0.004779 0.042165
#
#
# Mechanical properties :
#
#
# Convention : Reuss Voigt Hill
#
# Bulk Modulus (GPa) = 14.87062 39.03551 26.95307
# Shear Modulus (GPa) = 22.28984 36.14144 29.21564
#
# Velocity S-wave (km/s) = 3.04094 3.87219 3.48146
# Velocity P-wave (km/s) = 4.30105 6.01551 5.22903
#
# Compressibility (1/GPa) = 0.06724670
#
# Stress axis : x y z
#
# Youngs Moduli (GPa) = 38.83987 31.97550 95.18005
#
# Poissons Ratio (x) = 0.10609 -0.18791
# Poissons Ratio (y) = 0.12886 -0.11453
# Poissons Ratio (z) = -0.07668 -0.03848
#
# Static dielectric constant tensor:
#      x y z
#    x 2.069630 0.173100 0.158960 
#    y 0.173100 2.083710 0.173990 
#    z 0.158960 0.173990 2.083790 
# 
# From -- ./inp_files/515697.got.cif
#   From: 2010.05.17/outbox.cif.g08.bks.cpg/sg2_258_cif.got.tgz:515697.got - 2010.06.03 11:33:40.
