data_PCOD9092501
_publ_section_title
;
Structure prediction by ZEFSAII (Michael W. Deem and Ramdas Pophale) SiO2 
 PCOD9092501
Probable space group: P -1
;
_chemical_formula_sum "Si O2"
_cell_formula_units_Z 16
_cell_length_a 21.577706
_cell_length_b 11.929795
_cell_length_c 9.488234
_cell_angle_alpha 38.216897
_cell_angle_beta 134.367957
_cell_angle_gamma 153.596454
_cell_volume 671.835262
_symmetry_space_group_name_H-M "P -1"
_symmetry_group_IT_number 2
_symmetry_cell_setting 'triclinic'
loop_
_space_group_symop_operation_xyz
x,y,z
-x,-y,-z
loop_
_atom_site_type_symbol
_atom_site_label
_atom_site_fract_x
_atom_site_fract_y
_atom_site_fract_z
Si Si1 0.271446 0.005115 0.605026
Si Si2 0.378685 0.769709 0.696551
Si Si3 0.277462 0.133771 0.931402
Si Si4 0.063137 0.972566 0.341932
Si Si5 0.675722 0.119647 0.908526
Si Si6 0.421585 0.266389 0.300716
Si Si7 0.871524 0.573892 0.166737
Si Si8 0.182753 0.356420 0.530338
O O1 0.197435 0.066153 0.480157
O O2 0.160583 0.682041 0.679660
O O3 0.380815 0.228449 0.435027
O O4 0.331419 0.985916 0.847688
O O5 0.269824 0.574614 0.843699
O O6 0.299869 0.583507 0.613690
O O7 0.519902 0.894080 0.826192
O O8 0.413507 0.039406 0.480489
O O9 0.425803 0.419641 0.810411
O O10 0.176427 0.130308 0.735010
O O11 0.309379 0.174809 0.108068
O O12 0.240389 0.877400 0.065161
O O13 0.982937 0.763441 0.282596
O O14 0.959002 0.797436 0.480608
O O15 0.086442 0.219863 0.092775
O O16 0.756701 0.442593 0.707614
#
# Coordination Sequence:
#
# PCOD9092501 Si02
#       8
#     2   2   2   2   2   2   2   2
#     4  11  26  42  64 100 135 167 209 268 330 382
#     4  10  19  41  66  95 130 165 217 264 321 379
#     4  11  23  38  64  96 125 171 216 260 319 379
#     4  10  23  43  68  96 122 174 225 261 312 379
#     4  12  25  41  63  99 137 173 202 265 335 386
#     4  10  21  39  66  95 128 165 216 268 312 385
#     4   9  22  41  68  94 124 168 214 275 310 373
#     4  11  23  42  68  92 129 172 222 268 307 382
#
# _framework density 23.815363000000001
#
# number of rings (size 3 to 8) (size 9 to 14) (size 15 to 20)
#    0.000    1.500    2.500    2.250    7.000    5.000 
#    0.000    1.250    0.000    0.000    0.000    0.000 
#    0.000    0.000    0.000    0.000    0.000    0.000 
#
# Total GULP energy -89618.019657 kJ/mol
# GULP energy per Si atom -5601.126229 kJ/mol
# Density = 2.376116 g / cm^3
# Si number density = 23.815363 Si / 1000 Ang^3
#
#
#
# Elastic Constant Matrix: (Units=GPa)
#
#
# Indices 1 2 3 4 5 6 
#
# 1 88.3952 10.8778 45.0860 20.9574 2.4160 14.9528
# 2 10.8778 36.0537 24.2791 14.4923 -5.6993 5.2822
# 3 45.0860 24.2791 125.9248 17.0126 -13.9511 18.8067
# 4 20.9574 14.4923 17.0126 32.8674 -1.3056 -2.7725
# 5 2.4160 -5.6993 -13.9511 -1.3056 45.9024 -3.6118
# 6 14.9528 5.2822 18.8067 -2.7725 -3.6118 23.3992
#
#
#
# Elastic Compliance Matrix: (Units=1/GPa)
#
#
# Indices 1 2 3 4 5 6 
#
# 1 0.017596 0.003145 -0.004120 -0.011473 -0.002937 -0.010456
# 2 0.003145 0.038439 -0.004707 -0.017166 0.002009 -0.008628
# 3 -0.004120 -0.004707 0.011668 -0.001690 0.002701 -0.005466
# 4 -0.011473 -0.017166 -0.001690 0.047762 0.000760 0.018342
# 5 -0.002937 0.002009 0.002701 0.000760 0.023263 0.002934
# 6 -0.010456 -0.008628 -0.005466 0.018342 0.002934 0.058384
#
#
# Mechanical properties :
#
#
# Convention : Reuss Voigt Hill
#
# Bulk Modulus (GPa) = 17.74994 45.65105 31.70050
# Shear Modulus (GPa) = 22.00152 31.77586 26.88869
#
# Velocity S-wave (km/s) = 3.04277 3.65671 3.36378
# Velocity P-wave (km/s) = 4.45128 6.08598 5.33165
#
# Compressibility (1/GPa) = 0.05633823
#
# Stress axis : x y z
#
# Youngs Moduli (GPa) = 56.82978 26.01522 85.70514
#
# Poissons Ratio (x) = -0.08182 0.35314
# Poissons Ratio (y) = -0.17872 0.40341
# Poissons Ratio (z) = 0.23416 0.12245
#
# Static dielectric constant tensor:
#      x y z
#    x 1.881080 -0.048940 0.000960 
#    y -0.048940 1.919810 -0.015230 
#    z 0.000960 -0.015230 1.895570 
# 
# From -- ./inp_files/345897.got.cif
#   From: 2010.05.17/outbox.cif.g08.bks.cpg/sg2_173_cif.got.tgz:345897.got - 2010.06.03 11:33:40.
