data_PCOD9092015
_publ_section_title
;
Structure prediction by ZEFSAII (Michael W. Deem and Ramdas Pophale) SiO2 
 PCOD9092015
Probable space group: P -1
;
_chemical_formula_sum "Si O2"
_cell_formula_units_Z 16
_cell_length_a 14.472839
_cell_length_b 18.823340
_cell_length_c 9.635033
_cell_angle_alpha 99.984801
_cell_angle_beta 91.582430
_cell_angle_gamma 161.038861
_cell_volume 672.775966
_symmetry_space_group_name_H-M "P -1"
_symmetry_group_IT_number 2
_symmetry_cell_setting 'triclinic'
loop_
_space_group_symop_operation_xyz
x,y,z
-x,-y,-z
loop_
_atom_site_type_symbol
_atom_site_label
_atom_site_fract_x
_atom_site_fract_y
_atom_site_fract_z
Si Si1 0.890013 0.171233 0.872851
Si Si2 0.863937 0.479637 0.364002
Si Si3 0.945745 0.488274 0.839644
Si Si4 0.755049 0.563140 0.305213
Si Si5 0.043840 0.277174 0.230970
Si Si6 0.682621 0.717203 0.582331
Si Si7 0.647744 0.122480 0.223921
Si Si8 0.232484 0.030311 0.670692
O O1 0.166650 0.364618 0.827779
O O2 0.534078 0.852930 0.745665
O O3 0.736341 0.137061 0.837226
O O4 0.055739 0.287695 0.070738
O O5 0.834963 0.540658 0.336869
O O6 0.082008 0.599857 0.296510
O O7 0.080934 0.640295 0.570070
O O8 0.272572 0.777024 0.883588
O O9 0.635535 0.313464 0.758477
O O10 0.000000 0.500000 0.000000
O O11 0.377462 0.297131 0.271129
O O12 0.023398 0.818737 0.486050
O O13 0.428045 0.571221 0.420709
O O14 0.784065 0.143830 0.231321
O O15 0.859445 0.065820 0.209647
O O16 0.500000 0.500000 0.500000
O O17 0.075623 0.992567 0.643132
#
# Coordination Sequence:
#
# PCOD9092015 Si02
#       8
#     2   2   2   2   2   2   2   2
#     4  11  23  34  58  93 127 157 190 257 322 341
#     4  11  22  39  58  91 129 154 204 253 293 372
#     4  11  24  36  59  95 126 155 194 255 309 358
#     4  10  20  37  64  87 118 163 208 242 300 367
#     4  10  20  37  58  85 119 158 198 253 301 354
#     4   8  18  39  64  83 113 163 209 246 285 367
#     4  11  21  38  56  86 128 154 205 245 296 375
#     4  10  19  40  65  83 118 166 203 242 303 358
#
# _framework density 23.782060999999999
#
# number of rings (size 3 to 8) (size 9 to 14) (size 15 to 20)
#    0.000    2.000    2.500    4.875    3.500    1.000 
#    0.000    6.250    5.500   12.750    0.000    0.000 
#    0.000    0.000    0.000    0.000    0.000    0.000 
#
# Total GULP energy -89392.117515 kJ/mol
# GULP energy per Si atom -5587.007345 kJ/mol
# Density = 2.372793 g / cm^3
# Si number density = 23.782061 Si / 1000 Ang^3
#
#
#
# Elastic Constant Matrix: (Units=GPa)
#
#
# Indices 1 2 3 4 5 6 
#
# 1 73.9686 42.0493 48.2820 -6.2741 4.3073 43.8521
# 2 42.0493 104.6259 47.9550 -19.5451 -6.1233 32.1045
# 3 48.2820 47.9550 108.0375 -26.5182 -0.0600 14.7518
# 4 -6.2741 -19.5451 -26.5182 38.2116 2.3080 2.3544
# 5 4.3073 -6.1233 -0.0600 2.3080 19.6706 0.2003
# 6 43.8521 32.1045 14.7518 2.3544 0.2003 44.3270
#
#
#
# Elastic Compliance Matrix: (Units=1/GPa)
#
#
# Indices 1 2 3 4 5 6 
#
# 1 0.053480 0.000541 -0.017554 0.000473 -0.011168 -0.047432
# 2 0.000541 0.016078 -0.004498 0.005608 0.004327 -0.011001
# 3 -0.017554 -0.004498 0.018908 0.006986 0.001540 0.013953
# 4 0.000473 0.005608 0.006986 0.034639 -0.002312 -0.008684
# 5 -0.011168 0.004327 0.001540 -0.002312 0.054832 0.007277
# 6 -0.047432 -0.011001 0.013953 -0.008684 0.007277 0.073236
#
#
# Mechanical properties :
#
#
# Convention : Reuss Voigt Hill
#
# Bulk Modulus (GPa) = 22.00437 62.57829 42.29133
# Shear Modulus (GPa) = 16.16329 30.33155 23.24742
#
# Velocity S-wave (km/s) = 2.60982 3.57514 3.12992
# Velocity P-wave (km/s) = 4.28418 6.58882 5.55728
#
# Compressibility (1/GPa) = 0.04544552
#
# Stress axis : x y z
#
# Youngs Moduli (GPa) = 18.69851 62.19534 52.88804
#
# Poissons Ratio (x) = -0.03368 0.92841
# Poissons Ratio (y) = -0.01012 0.23787
# Poissons Ratio (z) = 0.32824 0.27973
#
# Static dielectric constant tensor:
#      x y z
#    x 1.978700 -0.008980 -0.039550 
#    y -0.008980 1.996820 0.041830 
#    z -0.039550 0.041830 1.955800 
# 
# From -- ./inp_files/319389.got.cif
#   From: 2010.05.17/outbox.cif.g08.bks.cpg/sg2_160_cif.got.tgz:319389.got - 2010.06.03 11:33:40.
