data_PCOD9092658
_publ_section_title
;
Structure prediction by ZEFSAII (Michael W. Deem and Ramdas Pophale) SiO2 
 PCOD9092658
Probable space group: P -1
;
_chemical_formula_sum "Si O2"
_cell_formula_units_Z 15
_cell_length_a 9.038435
_cell_length_b 22.099851
_cell_length_c 8.473495
_cell_angle_alpha 133.602735
_cell_angle_beta 86.664700
_cell_angle_gamma 128.750505
_cell_volume 716.961453
_symmetry_space_group_name_H-M "P -1"
_symmetry_group_IT_number 2
_symmetry_cell_setting 'triclinic'
loop_
_space_group_symop_operation_xyz
x,y,z
-x,-y,-z
loop_
_atom_site_type_symbol
_atom_site_label
_atom_site_fract_x
_atom_site_fract_y
_atom_site_fract_z
Si Si1 0.152984 0.108622 0.329243
Si Si2 0.500000 0.000000 0.500000
Si Si3 0.943831 0.623560 0.176835
Si Si4 0.503367 0.637080 0.472324
Si Si5 0.444602 0.799317 0.332554
Si Si6 0.720182 0.400937 0.293357
Si Si7 0.386301 0.499734 0.718997
Si Si8 0.032518 0.202391 0.697023
O O1 0.348266 0.259573 0.500050
O O2 0.307952 0.112589 0.427644
O O3 0.994255 0.093142 0.430765
O O4 0.000000 0.000000 0.000000
O O5 0.465137 0.896510 0.417015
O O6 0.191625 0.877324 0.315119
O O7 0.778133 0.543473 0.199996
O O8 0.983919 0.739051 0.340710
O O9 0.210244 0.698755 0.289424
O O10 0.775416 0.512210 0.843068
O O11 0.467667 0.687112 0.704067
O O12 0.624840 0.605707 0.468193
O O13 0.380519 0.699569 0.026868
O O14 0.722122 0.499414 0.420335
O O15 0.000000 0.500000 0.500000
O O16 0.682005 0.659419 0.006393
#
# Coordination Sequence:
#
# PCOD9092658 Si02
#       8
#     2   1   2   2   2   2   2   2
#     4  12  26  44  69  98 133 182 236 271 329 408
#     4  10  26  44  70  92 136 196 220 268 338 406
#     4  10  19  41  74  95 130 173 220 278 347 393
#     4  11  22  41  65 104 133 171 222 276 342 407
#     4  11  25  47  67  99 139 180 223 284 335 401
#     4  12  25  39  64 108 138 166 222 282 346 396
#     4  11  21  42  71  97 136 176 215 287 342 401
#     4  10  20  43  68  96 127 174 229 269 336 398
#
# _framework density 20.921627000000001
#
# number of rings (size 3 to 8) (size 9 to 14) (size 15 to 20)
#    0.000    1.067    5.333    1.200    3.733    2.667 
#    2.400    2.667    0.000    0.000    0.000    0.000 
#    0.000    0.000    0.000    0.000    0.000    0.000 
#
# Total GULP energy -83541.868953 kJ/mol
# GULP energy per Si atom -5569.457930 kJ/mol
# Density = 2.087401 g / cm^3
# Si number density = 20.921627 Si / 1000 Ang^3
#
#
#
# Elastic Constant Matrix: (Units=GPa)
#
#
# Indices 1 2 3 4 5 6 
#
# 1 99.3150 20.6261 33.4215 -10.3802 -0.8603 -8.1614
# 2 20.6261 77.2720 -0.3678 6.0783 -2.2955 15.7139
# 3 33.4215 -0.3678 59.4851 -4.9492 2.6069 3.4518
# 4 -10.3802 6.0783 -4.9492 26.5245 -3.7878 -3.0209
# 5 -0.8603 -2.2955 2.6069 -3.7878 18.3613 -0.3365
# 6 -8.1614 15.7139 3.4518 -3.0209 -0.3365 39.0701
#
#
#
# Elastic Compliance Matrix: (Units=1/GPa)
#
#
# Indices 1 2 3 4 5 6 
#
# 1 0.015642 -0.006132 -0.008769 0.007097 0.002805 0.007081
# 2 -0.006132 0.016926 0.003522 -0.006667 -0.000210 -0.008917
# 3 -0.008769 0.003522 0.022120 -0.001212 -0.003459 -0.005326
# 4 0.007097 -0.006667 -0.001212 0.043930 0.008875 0.007744
# 5 0.002805 -0.000210 -0.003459 0.008875 0.056929 0.002153
# 6 0.007081 -0.008917 -0.005326 0.007744 0.002153 0.031749
#
#
# Mechanical properties :
#
#
# Convention : Reuss Voigt Hill
#
# Bulk Modulus (GPa) = 31.32003 38.15908 34.73956
# Shear Modulus (GPa) = 22.65555 28.95066 25.80310
#
# Velocity S-wave (km/s) = 3.29428 3.72394 3.51568
# Velocity P-wave (km/s) = 5.42885 6.06374 5.75505
#
# Compressibility (1/GPa) = 0.03192845
#
# Stress axis : x y z
#
# Youngs Moduli (GPa) = 63.93225 59.07931 45.20887
#
# Poissons Ratio (x) = 0.36227 0.39646
# Poissons Ratio (y) = 0.39203 -0.15922
# Poissons Ratio (z) = 0.56065 -0.20807
#
# Static dielectric constant tensor:
#      x y z
#    x 1.733210 0.010450 -0.024120 
#    y 0.010450 1.750590 0.006160 
#    z -0.024120 0.006160 1.777820 
# 
# From -- ./inp_files/185073.got.cif
#   From: 2010.05.17/outbox.cif.g08.bks.cpg/sg2_93_cif.got.tgz:185073.got - 2010.06.03 11:33:40.
