data_PCOD9092583
_publ_section_title
;
Structure prediction by ZEFSAII (Michael W. Deem and Ramdas Pophale) SiO2 
 PCOD9092583
Probable space group: P -1
;
_chemical_formula_sum "Si O2"
_cell_formula_units_Z 16
_cell_length_a 19.341037
_cell_length_b 7.540709
_cell_length_c 12.597340
_cell_angle_alpha 133.793200
_cell_angle_beta 29.035274
_cell_angle_gamma 133.401183
_cell_volume 625.785723
_symmetry_space_group_name_H-M "P -1"
_symmetry_group_IT_number 2
_symmetry_cell_setting 'triclinic'
loop_
_space_group_symop_operation_xyz
x,y,z
-x,-y,-z
loop_
_atom_site_type_symbol
_atom_site_label
_atom_site_fract_x
_atom_site_fract_y
_atom_site_fract_z
Si Si1 0.813525 0.941846 0.991955
Si Si2 0.538118 0.505691 0.130081
Si Si3 0.384907 0.959821 0.514407
Si Si4 0.060340 0.413497 0.604578
Si Si5 0.886460 0.472120 0.044457
Si Si6 0.106686 0.963309 0.503221
Si Si7 0.425283 0.510341 0.493817
Si Si8 0.319591 0.823673 0.320323
O O1 0.753395 0.021857 0.218232
O O2 0.817271 0.171670 0.000178
O O3 0.699028 0.692780 0.003805
O O4 0.980866 0.922489 0.747479
O O5 0.426660 0.688119 0.340435
O O6 0.497103 0.388403 0.252202
O O7 0.547607 0.298607 0.945095
O O8 0.358806 0.004424 0.443751
O O9 0.517907 0.181538 0.471442
O O10 0.191635 0.597268 0.445123
O O11 0.955220 0.246954 0.589807
O O12 0.116444 0.226280 0.535362
O O13 0.967838 0.563088 0.864315
O O14 0.748467 0.573525 0.305310
O O15 0.000000 0.500000 0.000000
O O16 0.251325 0.927797 0.352179
O O17 0.500000 0.500000 0.500000
#
# Coordination Sequence:
#
# PCOD9092583 Si02
#       8
#     2   2   2   2   2   2   2   2
#     4  10  19  41  69  91 131 178 230 274 336 411
#     4  11  22  44  70  93 134 186 226 271 343 418
#     4  11  23  44  68  98 132 188 226 282 342 406
#     4  10  23  40  67  99 137 180 221 281 350 400
#     4  11  22  40  69  98 133 176 230 284 340 414
#     4  10  23  41  65 104 136 181 228 283 341 412
#     4  11  25  43  70 102 137 179 231 285 352 410
#     4  12  25  42  70 105 140 176 236 279 343 414
#
# _framework density 25.567855000000002
#
# number of rings (size 3 to 8) (size 9 to 14) (size 15 to 20)
#    0.000    1.250    3.750    2.250    1.750    3.500 
#    0.000    0.625    0.000    0.000    0.000    0.000 
#    0.000    0.000    0.000    0.000    0.000    0.000 
#
# Total GULP energy -89560.428939 kJ/mol
# GULP energy per Si atom -5597.526809 kJ/mol
# Density = 2.550966 g / cm^3
# Si number density = 25.567855 Si / 1000 Ang^3
#
#
#
# Elastic Constant Matrix: (Units=GPa)
#
#
# Indices 1 2 3 4 5 6 
#
# 1 126.0424 26.8598 46.6702 2.7021 10.9185 4.4775
# 2 26.8598 71.5277 25.7900 -4.4698 3.8061 15.5126
# 3 46.6702 25.7900 144.1894 7.5197 30.0042 8.7115
# 4 2.7021 -4.4698 7.5197 32.0428 2.2845 4.9986
# 5 10.9185 3.8061 30.0042 2.2845 45.7851 1.5436
# 6 4.4775 15.5126 8.7115 4.9986 1.5436 36.3053
#
#
#
# Elastic Compliance Matrix: (Units=1/GPa)
#
#
# Indices 1 2 3 4 5 6 
#
# 1 0.009485 -0.002853 -0.002489 -0.000705 -0.000384 0.000760
# 2 -0.002853 0.017642 -0.002152 0.004297 0.000655 -0.007290
# 3 -0.002489 -0.002152 0.009345 -0.001825 -0.005242 -0.000541
# 4 -0.000705 0.004297 -0.001825 0.033243 -0.000454 -0.005869
# 5 -0.000384 0.000655 -0.005242 -0.000454 0.025336 0.000010
# 6 0.000760 -0.007290 -0.000541 -0.005869 0.000010 0.031503
#
#
# Mechanical properties :
#
#
# Convention : Reuss Voigt Hill
#
# Bulk Modulus (GPa) = 46.54637 60.04438 53.29537
# Shear Modulus (GPa) = 33.62415 38.98926 36.30670
#
# Velocity S-wave (km/s) = 3.63036 3.90928 3.77239
# Velocity P-wave (km/s) = 5.98475 6.62660 6.31384
#
# Compressibility (1/GPa) = 0.02148395
#
# Stress axis : x y z
#
# Youngs Moduli (GPa) = 105.43273 56.68156 107.01380
#
# Poissons Ratio (x) = 0.16169 0.26635
# Poissons Ratio (y) = 0.30076 0.23033
# Poissons Ratio (z) = 0.26242 0.12200
#
# Static dielectric constant tensor:
#      x y z
#    x 2.025440 -0.139850 -0.024740 
#    y -0.139850 2.372570 0.145670 
#    z -0.024740 0.145670 2.073120 
# 
# From -- ./inp_files/261687.got.cif
#   From: 2010.05.17/outbox.cif.g08.bks.cpg/sg2_131_cif.got.tgz:261687.got - 2010.06.03 11:33:40.
