data_PCOD9092967
_publ_section_title
;
Structure prediction by ZEFSAII (Michael W. Deem and Ramdas Pophale) SiO2 
 PCOD9092967
Probable space group: P -1
;
_chemical_formula_sum "Si O2"
_cell_formula_units_Z 14
_cell_length_a 5.237586
_cell_length_b 13.957125
_cell_length_c 14.823346
_cell_angle_alpha 74.092404
_cell_angle_beta 54.299149
_cell_angle_gamma 85.188147
_cell_volume 842.251574
_symmetry_space_group_name_H-M "P -1"
_symmetry_group_IT_number 2
_symmetry_cell_setting 'triclinic'
loop_
_space_group_symop_operation_xyz
x,y,z
-x,-y,-z
loop_
_atom_site_type_symbol
_atom_site_label
_atom_site_fract_x
_atom_site_fract_y
_atom_site_fract_z
Si Si1 0.798381 0.714132 0.979221
Si Si2 0.169273 0.226518 0.853376
Si Si3 0.222428 0.598416 0.788187
Si Si4 0.616679 0.479828 0.880410
Si Si5 0.464077 0.882802 0.054756
Si Si6 0.612682 0.376701 0.602755
Si Si7 0.662475 0.615336 0.541050
O O1 0.012582 0.668831 0.871893
O O2 0.964204 0.724492 0.040485
O O3 0.486358 0.637035 0.082446
O O4 0.679087 0.822054 0.958090
O O5 0.399871 0.149967 0.868943
O O6 0.370908 0.310372 0.732805
O O7 0.891489 0.165219 0.872677
O O8 0.416611 0.537602 0.835120
O O9 0.466881 0.654850 0.653962
O O10 0.979753 0.523917 0.797733
O O11 0.500000 0.500000 0.000000
O O12 0.500000 0.000000 0.000000
O O13 0.635679 0.494505 0.592384
O O14 0.493459 0.366730 0.527284
O O15 0.968909 0.347288 0.545118
#
# Coordination Sequence:
#
# PCOD9092967 Si02
#       7
#     2   2   2   2   2   2   2
#     4   9  22  30  55  75 107 135 170 212 269 316
#     4  10  21  34  58  74 107 133 175 219 268 314
#     4  11  21  33  48  77 111 143 173 206 255 307
#     4  10  20  29  46  72 109 142 172 198 245 316
#     4  10  22  36  54  82 105 130 173 224 279 318
#     4  10  20  35  49  75 100 148 178 212 243 294
#     4  10  21  32  51  71 111 139 184 209 237 293
#
# _framework density 16.622112999999999
#
# number of rings (size 3 to 8) (size 9 to 14) (size 15 to 20)
#    0.857    1.143    0.000    4.714    8.000    1.143 
#    0.000    0.000    0.000    0.000    0.000    6.000 
#    0.000    0.000    0.000    0.000    0.000    0.000 
#
# Total GULP energy -78017.779438 kJ/mol
# GULP energy per Si atom -5572.698531 kJ/mol
# Density = 1.658428 g / cm^3
# Si number density = 16.622113 Si / 1000 Ang^3
#
#
#
# Elastic Constant Matrix: (Units=GPa)
#
#
# Indices 1 2 3 4 5 6 
#
# 1 114.2881 29.3182 22.4667 -0.9027 -10.9013 -1.4691
# 2 29.3182 77.0332 37.4510 -2.4231 2.4226 -6.0941
# 3 22.4667 37.4510 80.1807 7.4251 -8.6873 -2.7652
# 4 -0.9027 -2.4231 7.4251 17.6288 -4.0933 -1.0266
# 5 -10.9013 2.4226 -8.6873 -4.0933 24.2733 -7.5315
# 6 -1.4691 -6.0941 -2.7652 -1.0266 -7.5315 11.0516
#
#
#
# Elastic Compliance Matrix: (Units=1/GPa)
#
#
# Indices 1 2 3 4 5 6 
#
# 1 0.010442 -0.003482 -0.000672 0.002026 0.006315 0.003791
# 2 -0.003482 0.019350 -0.008799 0.005633 -0.003866 0.005894
# 3 -0.000672 -0.008799 0.018332 -0.007084 0.007138 0.003852
# 4 0.002026 0.005633 -0.007084 0.064864 0.014099 0.017237
# 5 0.006315 -0.003866 0.007138 0.014099 0.063295 0.044938
# 6 0.003791 0.005894 0.003852 0.017237 0.044938 0.127429
#
#
# Mechanical properties :
#
#
# Convention : Reuss Voigt Hill
#
# Bulk Modulus (GPa) = 45.01112 49.99710 47.50411
# Shear Modulus (GPa) = 14.83564 22.74181 18.78872
#
# Velocity S-wave (km/s) = 2.99076 3.70289 3.36571
# Velocity P-wave (km/s) = 6.25012 6.95886 6.61399
#
# Compressibility (1/GPa) = 0.02221673
#
# Stress axis : x y z
#
# Youngs Moduli (GPa) = 95.76384 51.67996 54.54819
#
# Poissons Ratio (x) = 0.17998 0.03666
# Poissons Ratio (y) = 0.33350 0.47999
# Poissons Ratio (z) = 0.06436 0.45475
#
# Static dielectric constant tensor:
#      x y z
#    x 1.606920 -0.001960 -0.017680 
#    y -0.001960 1.565920 0.021560 
#    z -0.017680 0.021560 1.554790 
# 
# From -- ./inp_files/483289.got.cif
#   From: 2010.05.17/outbox.cif.g08.bks.cpg/sg2_242_cif.got.tgz:483289.got - 2010.06.03 11:33:40.
