data_PCOD9092334
_publ_section_title
;
Structure prediction by ZEFSAII (Michael W. Deem and Ramdas Pophale) SiO2 
 PCOD9092334
Probable space group: P -1
;
_chemical_formula_sum "Si O2"
_cell_formula_units_Z 13
_cell_length_a 8.721621
_cell_length_b 7.302686
_cell_length_c 11.760375
_cell_angle_alpha 50.447382
_cell_angle_beta 62.828474
_cell_angle_gamma 58.247502
_cell_volume 482.581781
_symmetry_space_group_name_H-M "P -1"
_symmetry_group_IT_number 2
_symmetry_cell_setting 'triclinic'
loop_
_space_group_symop_operation_xyz
x,y,z
-x,-y,-z
loop_
_atom_site_type_symbol
_atom_site_label
_atom_site_fract_x
_atom_site_fract_y
_atom_site_fract_z
Si Si1 0.202170 0.997809 0.348804
Si Si2 0.508315 0.412945 0.265784
Si Si3 0.907299 0.721700 0.115544
Si Si4 0.500000 0.500000 0.500000
Si Si5 0.104184 0.424201 0.377394
Si Si6 0.518049 0.129796 0.060918
Si Si7 0.099880 0.793882 0.802046
O O1 0.092059 0.181408 0.412277
O O2 0.355349 0.116288 0.203029
O O3 0.072694 0.009621 0.280774
O O4 0.308495 0.732131 0.473259
O O5 0.507046 0.532940 0.343248
O O6 0.319318 0.361546 0.349021
O O7 0.700476 0.182349 0.282120
O O8 0.501044 0.592782 0.088315
O O9 0.876781 0.478307 0.159263
O O10 0.011550 0.640055 0.230779
O O11 0.716423 0.949737 0.107932
O O12 0.037592 0.786219 0.954867
O O13 0.000000 0.500000 0.500000
O O14 0.500000 0.000000 0.000000
#
# Coordination Sequence:
#
# PCOD9092334 Si02
#       7
#     2   2   2   1   2   2   2
#     4  11  25  47  79 108 153 197 247 320 369 444
#     4  12  26  43  74 110 148 199 257 302 378 455
#     4  10  20  40  72 104 150 195 243 313 362 436
#     4  12  26  46  76 110 142 202 256 300 376 448
#     4  11  29  50  69 109 163 200 243 309 392 449
#     4  12  20  43  75 112 146 190 260 314 357 434
#     4  10  19  40  73 109 138 195 259 301 361 440
#
# _framework density 26.938438000000001
#
# number of rings (size 3 to 8) (size 9 to 14) (size 15 to 20)
#    0.000    0.923    4.615    1.846    6.462    4.308 
#    2.769    0.000    0.000    0.000    0.000    0.000 
#    0.000    0.000    0.000    0.000    0.000    0.000 
#
# Total GULP energy -72704.769283 kJ/mol
# GULP energy per Si atom -5592.674560 kJ/mol
# Density = 2.687712 g / cm^3
# Si number density = 26.938438 Si / 1000 Ang^3
#
#
#
# Elastic Constant Matrix: (Units=GPa)
#
#
# Indices 1 2 3 4 5 6 
#
# 1 146.8014 63.5699 89.8326 6.1026 7.5524 -40.6795
# 2 63.5699 111.4086 69.0951 5.0647 21.7171 -25.5126
# 3 89.8326 69.0951 170.0120 33.8579 36.9250 -21.9480
# 4 6.1026 5.0647 33.8579 65.5994 -8.1747 14.5522
# 5 7.5524 21.7171 36.9250 -8.1747 49.3163 4.4945
# 6 -40.6795 -25.5126 -21.9480 14.5522 4.4945 50.3500
#
#
#
# Elastic Compliance Matrix: (Units=1/GPa)
#
#
# Indices 1 2 3 4 5 6 
#
# 1 0.013227 -0.003305 -0.005921 0.001246 0.003545 0.005754
# 2 -0.003305 0.014186 -0.002210 -0.001187 -0.004676 0.004315
# 3 -0.005921 -0.002210 0.014625 -0.009096 -0.010950 0.004078
# 4 0.001246 -0.001187 -0.009096 0.024002 0.012177 -0.011584
# 5 0.003545 -0.004676 -0.010950 0.012177 0.032989 -0.010742
# 6 0.005754 0.004315 0.004078 -0.011584 -0.010742 0.032781
#
#
# Mechanical properties :
#
#
# Convention : Reuss Voigt Hill
#
# Bulk Modulus (GPa) = 52.17692 97.02412 74.60052
# Shear Modulus (GPa) = 31.04256 46.76809 38.90532
#
# Velocity S-wave (km/s) = 3.39831 4.17119 3.80443
# Velocity P-wave (km/s) = 5.89992 7.70023 6.85939
#
# Compressibility (1/GPa) = 0.01916556
#
# Stress axis : x y z
#
# Youngs Moduli (GPa) = 75.60524 70.49146 68.37776
#
# Poissons Ratio (x) = 0.23298 0.40486
# Poissons Ratio (y) = 0.24988 0.15111
# Poissons Ratio (z) = 0.44765 0.15578
#
# Static dielectric constant tensor:
#      x y z
#    x 2.147410 0.072870 -0.096690 
#    y 0.072870 2.132450 -0.095710 
#    z -0.096690 -0.095710 2.083530 
# 
# From -- ./inp_files/377571.got.cif
#   From: 2010.05.17/outbox.cif.g08.bks.cpg/sg2_189_cif.got.tgz:377571.got - 2010.06.03 11:33:40.
