data_PCOD9092950
_publ_section_title
;
Structure prediction by ZEFSAII (Michael W. Deem and Ramdas Pophale) SiO2 
 PCOD9092950
Probable space group: P -1
;
_chemical_formula_sum "Si O2"
_cell_formula_units_Z 14
_cell_length_a 12.225078
_cell_length_b 6.801881
_cell_length_c 14.598142
_cell_angle_alpha 139.772399
_cell_angle_beta 130.728690
_cell_angle_gamma 59.310386
_cell_volume 593.904832
_symmetry_space_group_name_H-M "P -1"
_symmetry_group_IT_number 2
_symmetry_cell_setting 'triclinic'
loop_
_space_group_symop_operation_xyz
x,y,z
-x,-y,-z
loop_
_atom_site_type_symbol
_atom_site_label
_atom_site_fract_x
_atom_site_fract_y
_atom_site_fract_z
Si Si1 0.881934 0.548934 0.064803
Si Si2 0.654363 0.486703 0.532016
Si Si3 0.616268 0.353300 0.257529
Si Si4 0.088773 0.785348 0.719310
Si Si5 0.091539 0.089338 0.170345
Si Si6 0.413298 0.370820 0.991602
Si Si7 0.083665 0.916401 0.422663
O O1 0.854229 0.866650 0.110409
O O2 0.751207 0.513378 0.052313
O O3 0.020331 0.627140 0.229965
O O4 0.884380 0.254211 0.897988
O O5 0.500000 0.500000 0.500000
O O6 0.632661 0.510026 0.419468
O O7 0.756291 0.763301 0.713337
O O8 0.751564 0.180021 0.499547
O O9 0.763969 0.378260 0.289401
O O10 0.590070 0.997220 0.140753
O O11 0.488974 0.463710 0.160895
O O12 0.974193 0.823256 0.586667
O O13 0.999304 0.715062 0.735594
O O14 0.000000 0.000000 0.000000
O O15 0.500000 0.500000 0.000000
O O16 0.000000 0.000000 0.500000
#
# Coordination Sequence:
#
# PCOD9092950 Si02
#       7
#     2   2   2   2   2   2   2
#     4   9  21  40  64  98 126 179 233 277 337 416
#     4  12  27  44  66 105 147 178 219 300 356 407
#     4  10  23  45  65 103 141 179 234 295 346 405
#     4   9  21  40  69  93 127 176 238 283 326 416
#     4  12  24  41  67 100 132 183 230 274 349 417
#     4  10  22  40  71  97 138 188 227 284 353 423
#     4  10  19  45  70  92 133 179 228 278 348 403
#
# _framework density 23.572797999999999
#
# number of rings (size 3 to 8) (size 9 to 14) (size 15 to 20)
#    0.857    0.857    2.857    0.429    4.000    4.000 
#    5.143    1.429    0.000    0.000    0.000    0.000 
#    0.000    0.000    0.000    0.000    0.000    0.000 
#
# Total GULP energy -78175.817156 kJ/mol
# GULP energy per Si atom -5583.986940 kJ/mol
# Density = 2.351915 g / cm^3
# Si number density = 23.572798 Si / 1000 Ang^3
#
#
#
# Elastic Constant Matrix: (Units=GPa)
#
#
# Indices 1 2 3 4 5 6 
#
# 1 150.0506 9.6630 30.7935 -12.9763 6.6543 -20.9482
# 2 9.6630 52.2851 22.4191 -16.2159 2.7158 -8.1383
# 3 30.7935 22.4191 114.9333 -16.3685 8.4791 -2.8387
# 4 -12.9763 -16.2159 -16.3685 43.1435 3.8769 3.9338
# 5 6.6543 2.7158 8.4791 3.8769 40.8212 -2.4206
# 6 -20.9482 -8.1383 -2.8387 3.9338 -2.4206 33.5463
#
#
#
# Elastic Compliance Matrix: (Units=1/GPa)
#
#
# Indices 1 2 3 4 5 6 
#
# 1 0.007814 0.000569 -0.001813 0.001526 -0.000806 0.004627
# 2 0.000569 0.023638 -0.003488 0.007414 -0.001359 0.004827
# 3 -0.001813 -0.003488 0.010309 0.002367 -0.001929 -0.001523
# 4 0.001526 0.007414 0.002367 0.027726 -0.003901 -0.000581
# 5 -0.000806 -0.001359 -0.001929 -0.003901 0.025567 0.001307
# 6 0.004627 0.004827 -0.001523 -0.000581 0.001307 0.033903
#
#
# Mechanical properties :
#
#
# Convention : Reuss Voigt Hill
#
# Bulk Modulus (GPa) = 30.96420 49.22448 40.09434
# Shear Modulus (GPa) = 33.51520 40.46177 36.98848
#
# Velocity S-wave (km/s) = 3.77473 4.14751 3.96551
# Velocity P-wave (km/s) = 5.67117 6.62292 6.16544
#
# Compressibility (1/GPa) = 0.03229536
#
# Stress axis : x y z
#
# Youngs Moduli (GPa) = 127.98254 42.30525 97.00591
#
# Poissons Ratio (x) = -0.02407 0.17590
# Poissons Ratio (y) = -0.07281 0.33834
# Poissons Ratio (z) = 0.23207 0.14755
#
# Static dielectric constant tensor:
#      x y z
#    x 1.897270 0.038260 0.025780 
#    y 0.038260 2.106450 0.123690 
#    z 0.025780 0.123690 1.928970 
# 
# From -- ./inp_files/512525.got.cif
#   From: 2010.05.17/outbox.cif.g08.bks.cpg/sg2_257_cif.got.tgz:512525.got - 2010.06.03 11:33:40.
