data_PCOD9092277
_publ_section_title
;
Structure prediction by ZEFSAII (Michael W. Deem and Ramdas Pophale) SiO2 
 PCOD9092277
Probable space group: P -1
;
_chemical_formula_sum "Si O2"
_cell_formula_units_Z 16
_cell_length_a 8.839920
_cell_length_b 9.929062
_cell_length_c 19.800320
_cell_angle_alpha 43.565877
_cell_angle_beta 140.258848
_cell_angle_gamma 107.711130
_cell_volume 626.997253
_symmetry_space_group_name_H-M "P -1"
_symmetry_group_IT_number 2
_symmetry_cell_setting 'triclinic'
loop_
_space_group_symop_operation_xyz
x,y,z
-x,-y,-z
loop_
_atom_site_type_symbol
_atom_site_label
_atom_site_fract_x
_atom_site_fract_y
_atom_site_fract_z
Si Si1 0.190274 0.282110 0.865643
Si Si2 0.155959 0.628891 0.420466
Si Si3 0.417183 0.219026 0.752814
Si Si4 0.213018 0.516893 0.911928
Si Si5 0.184023 0.242716 0.119809
Si Si6 0.747564 0.035789 0.592644
Si Si7 0.714646 0.137001 0.394537
Si Si8 0.613686 0.322301 0.908510
O O1 0.315272 0.049257 0.039909
O O2 0.088406 0.498892 0.803957
O O3 0.475104 0.221838 0.943977
O O4 0.039418 0.663338 0.291285
O O5 0.357701 0.348665 0.613424
O O6 0.291502 0.772826 0.436463
O O7 0.875613 0.740483 0.333531
O O8 0.480681 0.364711 0.773131
O O9 0.500000 0.500000 0.000000
O O10 0.248206 0.306843 0.045769
O O11 0.017410 0.764107 0.795560
O O12 0.487741 0.072021 0.323563
O O13 0.000000 0.500000 0.000000
O O14 0.955623 0.175443 0.068066
O O15 0.802158 0.107739 0.512529
O O16 0.500000 0.000000 0.500000
O O17 0.530780 0.412888 0.209888
O O18 0.000000 0.000000 0.500000
#
# Coordination Sequence:
#
# PCOD9092277 Si02
#       8
#     2   2   2   2   2   2   2   2
#     4  11  24  43  73 107 141 189 243 310 360 434
#     4  10  22  42  69 106 140 189 249 295 358 444
#     4  10  21  40  71 100 139 192 246 290 354 450
#     4  12  25  45  69 109 146 184 243 302 369 435
#     4  10  22  40  67  96 140 189 231 289 360 438
#     4  12  25  44  73 102 143 187 239 301 361 435
#     4  11  22  38  62 102 140 180 226 298 363 417
#     4  10  19  40  69  95 135 181 245 288 349 435
#
# _framework density 25.518453000000001
#
# number of rings (size 3 to 8) (size 9 to 14) (size 15 to 20)
#    0.000    1.250    1.250    6.750    0.000    4.000 
#    2.250    1.250    0.000    0.000    0.000    0.875 
#    0.000    0.000    0.000    0.000    0.000    0.000 
#
# Total GULP energy -89441.415092 kJ/mol
# GULP energy per Si atom -5590.088443 kJ/mol
# Density = 2.546037 g / cm^3
# Si number density = 25.518453 Si / 1000 Ang^3
#
#
#
# Elastic Constant Matrix: (Units=GPa)
#
#
# Indices 1 2 3 4 5 6 
#
# 1 92.3689 49.8613 42.4666 15.0997 -28.0688 -9.9721
# 2 49.8613 139.0894 37.0144 27.2987 -12.0431 -5.7367
# 3 42.4666 37.0144 119.4607 13.1843 -27.5105 9.1043
# 4 15.0997 27.2987 13.1843 42.1607 8.6525 -6.3168
# 5 -28.0688 -12.0431 -27.5105 8.6525 52.4021 9.5622
# 6 -9.9721 -5.7367 9.1043 -6.3168 9.5622 31.8173
#
#
#
# Elastic Compliance Matrix: (Units=1/GPa)
#
#
# Indices 1 2 3 4 5 6 
#
# 1 0.017419 -0.003969 -0.003219 -0.003622 0.006797 0.002903
# 2 -0.003969 0.009840 -0.000985 -0.004777 0.000457 -0.000274
# 3 -0.003219 -0.000985 0.012486 -0.004664 0.006784 -0.007724
# 4 -0.003622 -0.004777 -0.004664 0.033687 -0.012853 0.009889
# 5 0.006797 0.000457 0.006784 -0.012853 0.030607 -0.011479
# 6 0.002903 -0.000274 -0.007724 0.009889 -0.011479 0.039913
#
#
# Mechanical properties :
#
#
# Convention : Reuss Voigt Hill
#
# Bulk Modulus (GPa) = 42.73325 67.73373 55.23349
# Shear Modulus (GPa) = 29.74450 40.04780 34.89615
#
# Velocity S-wave (km/s) = 3.41780 3.96582 3.70197
# Velocity P-wave (km/s) = 5.68837 6.89717 6.32173
#
# Compressibility (1/GPa) = 0.02340098
#
# Stress axis : x y z
#
# Youngs Moduli (GPa) = 57.40726 101.62269 80.09011
#
# Poissons Ratio (x) = 0.40332 0.25780
# Poissons Ratio (y) = 0.22784 0.07886
# Poissons Ratio (z) = 0.18479 0.10007
#
# Static dielectric constant tensor:
#      x y z
#    x 2.086460 0.147360 -0.042130 
#    y 0.147360 2.238360 0.031460 
#    z -0.042130 0.031460 2.029530 
# 
# From -- ./inp_files/607761.got.cif
#   From: 2010.05.17/outbox.cif.g08.bks.cpg/sg2_304_cif.got.tgz:607761.got - 2010.06.03 11:33:40.
