data_PCOD9092818
_publ_section_title
;
Structure prediction by ZEFSAII (Michael W. Deem and Ramdas Pophale) SiO2 
 PCOD9092818
Probable space group: P -1
;
_chemical_formula_sum "Si O2"
_cell_formula_units_Z 14
_cell_length_a 9.586932
_cell_length_b 8.899098
_cell_length_c 8.998120
_cell_angle_alpha 98.619268
_cell_angle_beta 55.675836
_cell_angle_gamma 101.375802
_cell_volume 620.828964
_symmetry_space_group_name_H-M "P -1"
_symmetry_group_IT_number 2
_symmetry_cell_setting 'triclinic'
loop_
_space_group_symop_operation_xyz
x,y,z
-x,-y,-z
loop_
_atom_site_type_symbol
_atom_site_label
_atom_site_fract_x
_atom_site_fract_y
_atom_site_fract_z
Si Si1 0.976819 0.368258 0.120966
Si Si2 0.658938 0.940076 0.979913
Si Si3 0.549661 0.348330 0.013288
Si Si4 0.210858 0.171280 0.822970
Si Si5 0.992363 0.900863 0.339643
Si Si6 0.353187 0.524063 0.705822
Si Si7 0.098669 0.589343 0.317683
O O1 0.782994 0.382578 0.281717
O O2 0.098801 0.448011 0.184500
O O3 0.000000 0.500000 0.000000
O O4 0.033830 0.208492 0.014174
O O5 0.831412 0.039386 0.840015
O O6 0.622253 0.769573 0.913219
O O7 0.678237 0.914567 0.142108
O O8 0.500000 0.000000 0.000000
O O9 0.708317 0.320720 0.804942
O O10 0.500000 0.500000 0.000000
O O11 0.601178 0.375004 0.158074
O O12 0.291488 0.348021 0.769138
O O13 0.159030 0.088510 0.685925
O O14 0.987631 0.720618 0.352224
O O15 0.000000 0.000000 0.500000
O O16 0.500000 0.500000 0.500000
O O17 0.000000 0.500000 0.500000
#
# Coordination Sequence:
#
# PCOD9092818 Si02
#       7
#     2   2   2   2   2   2   2
#     4  10  19  42  71  96 136 183 245 295 350 423
#     4  12  27  47  71 101 147 194 237 298 367 432
#     4  12  24  44  71 103 142 184 240 299 371 422
#     4  11  23  49  72 100 143 200 246 291 365 437
#     4  12  28  47  69 106 149 193 246 292 359 448
#     4  11  23  38  72 110 140 177 240 309 360 422
#     4  12  25  43  72 106 141 186 248 297 354 436
#
# _framework density 22.550492999999999
#
# number of rings (size 3 to 8) (size 9 to 14) (size 15 to 20)
#    0.000    0.571    8.571    0.429    8.000    0.000 
#    0.000    0.714    0.000    0.000    0.000    0.000 
#    0.000    0.000    0.000    0.000    0.000    0.000 
#
# Total GULP energy -77982.564196 kJ/mol
# GULP energy per Si atom -5570.183157 kJ/mol
# Density = 2.249917 g / cm^3
# Si number density = 22.550493 Si / 1000 Ang^3
#
#
#
# Elastic Constant Matrix: (Units=GPa)
#
#
# Indices 1 2 3 4 5 6 
#
# 1 124.6845 33.4486 28.0334 -3.4195 21.2695 -7.2933
# 2 33.4486 80.6260 16.7423 -13.1214 21.1850 -1.0982
# 3 28.0334 16.7423 93.5445 -8.3835 8.4040 1.1523
# 4 -3.4195 -13.1214 -8.3835 36.2388 3.4422 0.8388
# 5 21.2695 21.1850 8.4040 3.4422 34.4148 10.4952
# 6 -7.2933 -1.0982 1.1523 0.8388 10.4952 46.6996
#
#
#
# Elastic Compliance Matrix: (Units=1/GPa)
#
#
# Indices 1 2 3 4 5 6 
#
# 1 0.010190 -0.002383 -0.002199 0.000014 -0.005132 0.002743
# 2 -0.002383 0.017462 -0.000889 0.006831 -0.010439 0.002284
# 3 -0.002199 -0.000889 0.011818 0.002317 -0.001072 -0.000457
# 4 0.000014 0.006831 0.002317 0.031366 -0.008349 0.001419
# 5 -0.005132 -0.010439 -0.001072 -0.008349 0.042962 -0.010526
# 6 0.002743 0.002284 -0.000457 0.001419 -0.010526 0.024247
#
#
# Mechanical properties :
#
#
# Convention : Reuss Voigt Hill
#
# Bulk Modulus (GPa) = 35.05340 50.58930 42.82135
# Shear Modulus (GPa) = 31.54676 38.17934 34.86305
#
# Velocity S-wave (km/s) = 3.74430 4.11914 3.93619
# Velocity P-wave (km/s) = 5.85416 6.71607 6.29987
#
# Compressibility (1/GPa) = 0.02852791
#
# Stress axis : x y z
#
# Youngs Moduli (GPa) = 98.13462 57.26775 84.61841
#
# Poissons Ratio (x) = 0.13646 0.18606
# Poissons Ratio (y) = 0.23383 0.07525
# Poissons Ratio (z) = 0.21578 0.05093
#
# Static dielectric constant tensor:
#      x y z
#    x 21.725790 -38.418840 27.897590 
#    y -38.418840 76.795030 -54.410840 
#    z 27.897590 -54.410840 41.425950 
# 
# From -- ./inp_files/159098.got.cif
#   From: 2010.05.17/outbox.cif.g08.bks.cpg/sg2_80_cif.got.tgz:159098.got - 2010.06.03 11:33:40.
