data_PCOD9092466
_publ_section_title
;
Structure prediction by ZEFSAII (Michael W. Deem and Ramdas Pophale) SiO2 
 PCOD9092466
Probable space group: P -1
;
_chemical_formula_sum "Si O2"
_cell_formula_units_Z 13
_cell_length_a 8.252260
_cell_length_b 12.436659
_cell_length_c 6.947972
_cell_angle_alpha 101.735961
_cell_angle_beta 80.972822
_cell_angle_gamma 49.518677
_cell_volume 489.436309
_symmetry_space_group_name_H-M "P -1"
_symmetry_group_IT_number 2
_symmetry_cell_setting 'triclinic'
loop_
_space_group_symop_operation_xyz
x,y,z
-x,-y,-z
loop_
_atom_site_type_symbol
_atom_site_label
_atom_site_fract_x
_atom_site_fract_y
_atom_site_fract_z
Si Si1 0.242082 0.463013 0.704626
Si Si2 0.511126 0.441650 0.186821
Si Si3 0.533818 0.967158 0.713546
Si Si4 0.998162 0.262633 0.620645
Si Si5 0.640888 0.178874 0.280066
Si Si6 0.000000 0.000000 0.500000
Si Si7 0.785038 0.701349 0.049015
O O1 0.343911 0.536110 0.716700
O O2 0.394066 0.320995 0.479921
O O3 0.289969 0.376461 0.867134
O O4 0.965347 0.593718 0.807535
O O5 0.635356 0.266866 0.137008
O O6 0.241532 0.571342 0.340306
O O7 0.500000 0.500000 0.000000
O O8 0.806579 0.822073 0.611828
O O9 0.377206 0.940837 0.799660
O O10 0.500000 0.000000 0.500000
O O11 0.439022 0.121335 0.884817
O O12 0.080391 0.290902 0.806979
O O13 0.978850 0.141549 0.619635
O O14 0.838647 0.103362 0.374395
#
# Coordination Sequence:
#
# PCOD9092466 Si02
#       7
#     2   2   2   2   2   1   2
#     4  11  21  40  69 101 141 183 230 286 346 422
#     4  12  27  44  66 103 142 188 236 290 341 415
#     4  10  19  41  66 100 137 184 227 281 345 423
#     4  11  21  39  67 102 143 184 229 283 352 420
#     4  12  24  43  73 101 140 187 235 284 354 415
#     4  12  22  38  72 106 134 180 232 290 352 408
#     4  10  20  39  70  97 141 189 223 291 348 416
#
# _framework density 26.561167000000001
#
# number of rings (size 3 to 8) (size 9 to 14) (size 15 to 20)
#    0.000    0.923    9.231    0.462    0.000    0.615 
#    0.000    3.077    0.000    1.846    0.000    1.077 
#    0.000    0.000    0.000    0.000    0.000    0.000 
#
# Total GULP energy -72511.262880 kJ/mol
# GULP energy per Si atom -5577.789452 kJ/mol
# Density = 2.650071 g / cm^3
# Si number density = 26.561167 Si / 1000 Ang^3
#
#
#
# Elastic Constant Matrix: (Units=GPa)
#
#
# Indices 1 2 3 4 5 6 
#
# 1 85.7763 47.3170 16.2106 -26.9167 2.5588 12.7068
# 2 47.3170 194.2728 20.3475 -35.6884 5.5934 12.8132
# 3 16.2106 20.3475 44.5003 -14.1813 5.0680 -24.4499
# 4 -26.9167 -35.6884 -14.1813 42.6482 -8.2017 4.6940
# 5 2.5588 5.5934 5.0680 -8.2017 30.8564 1.2816
# 6 12.7068 12.8132 -24.4499 4.6940 1.2816 52.0210
#
#
#
# Elastic Compliance Matrix: (Units=1/GPa)
#
#
# Indices 1 2 3 4 5 6 
#
# 1 0.018019 -0.001372 -0.008238 0.009007 0.002868 -0.008819
# 2 -0.001372 0.006775 -0.003056 0.004261 0.000652 -0.003170
# 3 -0.008238 -0.003056 0.040004 0.002086 -0.005673 0.021518
# 4 0.009007 0.004261 0.002086 0.035518 0.007814 -0.005667
# 5 0.002868 0.000652 -0.005673 0.007814 0.035273 -0.005101
# 6 -0.008819 -0.003170 0.021518 -0.005667 -0.005101 0.032909
#
#
# Mechanical properties :
#
#
# Convention : Reuss Voigt Hill
#
# Bulk Modulus (GPa) = 25.33894 54.69994 40.01944
# Shear Modulus (GPa) = 24.15620 41.15009 32.65314
#
# Velocity S-wave (km/s) = 3.01899 3.94033 3.51002
# Velocity P-wave (km/s) = 4.65972 6.42964 5.61486
#
# Compressibility (1/GPa) = 0.03946494
#
# Stress axis : x y z
#
# Youngs Moduli (GPa) = 55.49554 147.60455 24.99759
#
# Poissons Ratio (x) = 0.20255 0.20594
# Poissons Ratio (y) = 0.07615 0.07639
# Poissons Ratio (z) = 0.45719 0.45109
#
# Static dielectric constant tensor:
#      x y z
#    x 2.077830 -0.014870 -0.047260 
#    y -0.014870 2.113720 -0.051930 
#    z -0.047260 -0.051930 2.165240 
# 
# From -- ./inp_files/170335.got.cif
#   From: 2010.05.17/outbox.cif.g08.bks.cpg/sg2_86_cif.got.tgz:170335.got - 2010.06.03 11:33:40.
