data_PCOD9092094
_publ_section_title
;
Structure prediction by ZEFSAII (Michael W. Deem and Ramdas Pophale) SiO2 
 PCOD9092094
Probable space group: P -1
;
_chemical_formula_sum "Si O2"
_cell_formula_units_Z 14
_cell_length_a 8.329509
_cell_length_b 22.925109
_cell_length_c 9.652162
_cell_angle_alpha 142.491206
_cell_angle_beta 101.579190
_cell_angle_gamma 49.852541
_cell_volume 638.638797
_symmetry_space_group_name_H-M "P -1"
_symmetry_group_IT_number 2
_symmetry_cell_setting 'triclinic'
loop_
_space_group_symop_operation_xyz
x,y,z
-x,-y,-z
loop_
_atom_site_type_symbol
_atom_site_label
_atom_site_fract_x
_atom_site_fract_y
_atom_site_fract_z
Si Si1 0.206807 0.214212 0.420898
Si Si2 0.416040 0.103971 0.967167
Si Si3 0.287613 0.885645 0.615934
Si Si4 0.602224 0.541095 0.003164
Si Si5 0.560760 0.377596 0.191616
Si Si6 0.347758 0.839369 0.014522
Si Si7 0.782703 0.967801 0.389891
O O1 0.486648 0.147310 0.345817
O O2 0.942638 0.387302 0.777831
O O3 0.295908 0.076803 0.260306
O O4 0.178855 0.202619 0.231291
O O5 0.446988 0.201412 0.128267
O O6 0.355311 0.064398 0.750771
O O7 0.300569 0.908190 0.497919
O O8 0.418093 0.719856 0.353105
O O9 0.950674 0.052014 0.900853
O O10 0.561285 0.553002 0.852547
O O11 0.500000 0.500000 0.000000
O O12 0.500000 0.500000 0.500000
O O13 0.497434 0.316516 0.164560
O O14 0.890660 0.207268 0.901227
O O15 0.266543 0.963984 0.340934
#
# Coordination Sequence:
#
# PCOD9092094 Si02
#       7
#     2   2   2   2   2   2   2
#     4  10  23  39  58  91 134 157 200 263 314 371
#     4  10  22  39  63  94 122 164 208 258 312 369
#     4  10  20  39  63  87 121 166 207 251 309 370
#     4  12  23  40  62  89 127 169 209 251 315 386
#     4  11  23  40  63  94 128 160 207 269 315 361
#     4  11  20  40  69  90 119 166 217 251 306 373
#     4  10  19  40  66  88 122 160 213 259 301 365
#
# _framework density 21.921624999999999
#
# number of rings (size 3 to 8) (size 9 to 14) (size 15 to 20)
#    0.000    1.429    2.857    3.429    0.000    2.857 
#    0.000    2.857    0.000    0.000    0.000    0.000 
#    0.000    0.000    0.000    0.000    0.000    0.000 
#
# Total GULP energy -78080.312718 kJ/mol
# GULP energy per Si atom -5577.165194 kJ/mol
# Density = 2.187173 g / cm^3
# Si number density = 21.921625 Si / 1000 Ang^3
#
#
#
# Elastic Constant Matrix: (Units=GPa)
#
#
# Indices 1 2 3 4 5 6 
#
# 1 104.4849 37.5302 3.3704 15.9196 19.2512 15.4231
# 2 37.5302 76.7610 13.8785 11.7943 4.0947 8.0972
# 3 3.3704 13.8785 50.9130 9.2746 12.2176 6.0464
# 4 15.9196 11.7943 9.2746 26.7017 3.8543 12.3944
# 5 19.2512 4.0947 12.2176 3.8543 24.4061 5.0822
# 6 15.4231 8.0972 6.0464 12.3944 5.0822 32.8125
#
#
#
# Elastic Compliance Matrix: (Units=1/GPa)
#
#
# Indices 1 2 3 4 5 6 
#
# 1 0.015117 -0.006610 0.004859 -0.004802 -0.011925 -0.002709
# 2 -0.006610 0.017309 -0.005050 -0.002696 0.005270 -0.000032
# 3 0.004859 -0.005050 0.025560 -0.007065 -0.014491 -0.000834
# 4 -0.004802 -0.002696 -0.007065 0.050666 0.002977 -0.015375
# 5 -0.011925 0.005270 -0.014491 0.002977 0.056896 -0.002962
# 6 -0.002709 -0.000032 -0.000834 -0.015375 -0.002962 0.038177
#
#
# Mechanical properties :
#
#
# Convention : Reuss Voigt Hill
#
# Bulk Modulus (GPa) = 22.53087 37.96855 30.24971
# Shear Modulus (GPa) = 21.54041 28.60939 25.07490
#
# Velocity S-wave (km/s) = 3.13806 3.61650 3.38574
# Velocity P-wave (km/s) = 4.84047 5.89886 5.39568
#
# Compressibility (1/GPa) = 0.04438355
#
# Stress axis : x y z
#
# Youngs Moduli (GPa) = 66.15094 57.77411 39.12361
#
# Poissons Ratio (x) = 0.38188 -0.19011
# Poissons Ratio (y) = 0.43725 0.19759
# Poissons Ratio (z) = -0.32144 0.29179
#
# Static dielectric constant tensor:
#      x y z
#    x 1.864370 0.010410 0.019110 
#    y 0.010410 1.930490 0.006170 
#    z 0.019110 0.006170 1.797700 
# 
# From -- ./inp_files/185024.got.cif
#   From: 2010.05.17/outbox.cif.g08.bks.cpg/sg2_93_cif.got.tgz:185024.got - 2010.06.03 11:33:40.
