data_PCOD9092337
_publ_section_title
;
Structure prediction by ZEFSAII (Michael W. Deem and Ramdas Pophale) SiO2 
 PCOD9092337
Probable space group: P -1
;
_chemical_formula_sum "Si O2"
_cell_formula_units_Z 14
_cell_length_a 11.581853
_cell_length_b 20.517005
_cell_length_c 18.238604
_cell_angle_alpha 159.967117
_cell_angle_beta 153.065537
_cell_angle_gamma 37.279356
_cell_volume 647.523664
_symmetry_space_group_name_H-M "P -1"
_symmetry_group_IT_number 2
_symmetry_cell_setting 'triclinic'
loop_
_space_group_symop_operation_xyz
x,y,z
-x,-y,-z
loop_
_atom_site_type_symbol
_atom_site_label
_atom_site_fract_x
_atom_site_fract_y
_atom_site_fract_z
Si Si1 0.997679 0.970582 0.646159
Si Si2 0.543968 0.783436 0.287002
Si Si3 0.972015 0.437947 0.307305
Si Si4 0.366372 0.344084 0.321092
Si Si5 0.689847 0.288815 0.767384
Si Si6 0.142312 0.229126 0.322021
Si Si7 0.099635 0.610461 0.249396
O O1 0.840548 0.831674 0.476241
O O2 0.051382 0.825415 0.461074
O O3 0.809710 0.101633 0.647645
O O4 0.249717 0.129375 0.991258
O O5 0.448497 0.680128 0.201146
O O6 0.500000 0.000000 0.500000
O O7 0.338169 0.671911 0.991802
O O8 0.985395 0.660372 0.571381
O O9 0.120317 0.403917 0.282040
O O10 0.092422 0.333946 0.330071
O O11 0.500000 0.500000 0.500000
O O12 0.591763 0.357516 0.523868
O O13 0.450512 0.255549 0.539509
O O14 0.926685 0.467333 0.062063
O O15 0.000000 0.000000 0.000000
O O16 0.000000 0.500000 0.000000
#
# Coordination Sequence:
#
# PCOD9092337 Si02
#       7
#     2   2   2   2   2   2   2
#     4  11  24  45  74  98 135 175 231 286 333 394
#     4  10  19  40  73  97 128 163 219 281 339 383
#     4  11  23  45  66  99 140 169 216 283 332 399
#     4  12  24  48  70  98 136 183 232 276 328 400
#     4  11  23  45  69 103 131 171 226 275 338 398
#     4  11  25  41  67 104 136 171 214 272 351 403
#     4  12  27  46  68  98 140 187 227 269 334 406
#
# _framework density 21.620830000000002
#
# number of rings (size 3 to 8) (size 9 to 14) (size 15 to 20)
#    0.000    0.857    4.286    3.857    0.000    7.429 
#    5.143    0.000    0.000    0.000    0.000    0.000 
#    0.000    0.000    0.000    0.000    0.000    0.000 
#
# Total GULP energy -78273.162074 kJ/mol
# GULP energy per Si atom -5590.940148 kJ/mol
# Density = 2.157162 g / cm^3
# Si number density = 21.620830 Si / 1000 Ang^3
#
#
#
# Elastic Constant Matrix: (Units=GPa)
#
#
# Indices 1 2 3 4 5 6 
#
# 1 83.4477 19.6291 56.1690 14.1729 -5.6734 -0.6062
# 2 19.6291 104.9864 61.5863 -6.1965 -7.1640 0.5252
# 3 56.1690 61.5863 173.9129 -2.4903 -12.8438 -14.4832
# 4 14.1729 -6.1965 -2.4903 45.9585 -10.3221 -13.1823
# 5 -5.6734 -7.1640 -12.8438 -10.3221 43.8982 0.0458
# 6 -0.6062 0.5252 -14.4832 -13.1823 0.0458 23.6709
#
#
#
# Elastic Compliance Matrix: (Units=1/GPa)
#
#
# Indices 1 2 3 4 5 6 
#
# 1 0.017784 0.000025 -0.006706 -0.008650 -0.001684 -0.008462
# 2 0.000025 0.012279 -0.004488 0.000883 0.000904 -0.002528
# 3 -0.006706 -0.004488 0.010562 0.005333 0.002736 0.009355
# 4 -0.008650 0.000883 0.005333 0.032793 0.008275 0.021268
# 5 -0.001684 0.000904 0.002736 0.008275 0.025450 0.006170
# 6 -0.008462 -0.002528 0.009355 0.021268 0.006170 0.059642
#
#
# Mechanical properties :
#
#
# Convention : Reuss Voigt Hill
#
# Bulk Modulus (GPa) = 54.67453 70.79065 62.73259
# Shear Modulus (GPa) = 26.74607 37.70303 32.22455
#
# Velocity S-wave (km/s) = 3.52099 4.18045 3.86481
# Velocity P-wave (km/s) = 6.47090 7.49096 6.99954
#
# Compressibility (1/GPa) = 0.01829005
#
# Stress axis : x y z
#
# Youngs Moduli (GPa) = 56.22905 81.43820 94.67496
#
# Poissons Ratio (x) = -0.00207 0.63487
# Poissons Ratio (y) = -0.00143 0.42487
# Poissons Ratio (z) = 0.37706 0.36547
#
# Static dielectric constant tensor:
#      x y z
#    x 1.818860 -0.006800 -0.015930 
#    y -0.006800 1.795370 0.004480 
#    z -0.015930 0.004480 1.749270 
# 
# From -- ./inp_files/570826.got.cif
#   From: 2010.05.17/outbox.cif.g08.bks.cpg/sg2_286_cif.got.tgz:570826.got - 2010.06.03 11:33:40.
