data_PCOD9092477
_publ_section_title
;
Structure prediction by ZEFSAII (Michael W. Deem and Ramdas Pophale) SiO2 
 PCOD9092477
Probable space group: P -1
;
_chemical_formula_sum "Si O2"
_cell_formula_units_Z 16
_cell_length_a 7.717985
_cell_length_b 18.446968
_cell_length_c 15.321442
_cell_angle_alpha 19.480874
_cell_angle_beta 84.005131
_cell_angle_gamma 85.316826
_cell_volume 722.559831
_symmetry_space_group_name_H-M "P -1"
_symmetry_group_IT_number 2
_symmetry_cell_setting 'triclinic'
loop_
_space_group_symop_operation_xyz
x,y,z
-x,-y,-z
loop_
_atom_site_type_symbol
_atom_site_label
_atom_site_fract_x
_atom_site_fract_y
_atom_site_fract_z
Si Si1 0.179224 0.604379 0.765474
Si Si2 0.316629 0.879982 0.802785
Si Si3 0.992306 0.568700 0.202881
Si Si4 0.863827 0.605194 0.451546
Si Si5 0.751483 0.801977 0.073058
Si Si6 0.526947 0.440511 0.733912
Si Si7 0.510634 0.157559 0.603048
Si Si8 0.892706 0.836529 0.625740
O O1 0.368004 0.728047 0.608378
O O2 0.130110 0.520604 0.766008
O O3 0.032016 0.761901 0.630170
O O4 0.172353 0.387900 0.070210
O O5 0.338950 0.043003 0.699095
O O6 0.269655 0.037324 0.547799
O O7 0.165869 0.689651 0.018565
O O8 0.481186 0.736444 0.985122
O O9 0.039661 0.370803 0.488424
O O10 0.914090 0.758253 0.051652
O O11 0.793631 0.797158 0.178520
O O12 0.704996 0.432798 0.678669
O O13 0.000000 0.500000 0.500000
O O14 0.628118 0.592063 0.289039
O O15 0.637733 0.995720 0.827973
O O16 0.538105 0.669829 0.519234
O O17 0.000000 0.000000 0.500000
#
# Coordination Sequence:
#
# PCOD9092477 Si02
#       8
#     2   2   2   2   2   2   2   2
#     4  11  24  41  67  94 125 163 211 255 318 373
#     4  10  23  39  63  92 125 161 208 254 317 368
#     4  10  19  41  66  88 128 169 207 261 309 371
#     4   9  20  36  63  94 126 168 212 258 307 360
#     4  10  20  40  62  92 127 172 208 257 311 368
#     4  10  21  39  64  88 132 166 211 258 311 367
#     4  11  24  39  64  94 125 170 207 258 313 376
#     4  11  24  42  69  95 123 160 210 263 311 378
#
# _framework density 22.143495999999999
#
# number of rings (size 3 to 8) (size 9 to 14) (size 15 to 20)
#    0.000    1.750    2.500    1.125    3.500    1.000 
#    0.000    1.875    0.000    0.000    0.000    0.000 
#    0.000    0.000    0.000    0.000    0.000    0.000 
#
# Total GULP energy -89129.486289 kJ/mol
# GULP energy per Si atom -5570.592893 kJ/mol
# Density = 2.209310 g / cm^3
# Si number density = 22.143496 Si / 1000 Ang^3
#
#
#
# Elastic Constant Matrix: (Units=GPa)
#
#
# Indices 1 2 3 4 5 6 
#
# 1 48.9517 6.6023 8.1976 8.3439 6.8445 4.3062
# 2 6.6023 68.1692 37.9566 3.9920 16.0484 6.4872
# 3 8.1976 37.9566 84.1208 8.9821 21.6223 15.1714
# 4 8.3439 3.9920 8.9821 35.0058 10.9678 1.0704
# 5 6.8445 16.0484 21.6223 10.9678 35.4096 13.7658
# 6 4.3062 6.4872 15.1714 1.0704 13.7658 22.0877
#
#
#
# Elastic Compliance Matrix: (Units=1/GPa)
#
#
# Indices 1 2 3 4 5 6 
#
# 1 0.021809 -0.001150 -0.000358 -0.004593 -0.000942 -0.002859
# 2 -0.001150 0.020403 -0.008435 0.001829 -0.005828 0.003569
# 3 -0.000358 -0.008435 0.018275 -0.002286 -0.003580 -0.007663
# 4 -0.004593 0.001829 -0.002286 0.033546 -0.011948 0.007749
# 5 -0.000942 -0.005828 -0.003580 -0.011948 0.046236 -0.023883
# 6 -0.002859 0.003569 -0.007663 0.007749 -0.023883 0.064556
#
#
# Mechanical properties :
#
#
# Convention : Reuss Voigt Hill
#
# Bulk Modulus (GPa) = 24.63034 34.08385 29.35709
# Shear Modulus (GPa) = 20.98685 28.39962 24.69324
#
# Velocity S-wave (km/s) = 3.08192 3.58512 3.34300
# Velocity P-wave (km/s) = 4.87971 5.70641 5.30917
#
# Compressibility (1/GPa) = 0.04060033
#
# Stress axis : x y z
#
# Youngs Moduli (GPa) = 45.85173 49.01349 54.71994
#
# Poissons Ratio (x) = 0.05637 0.01961
# Poissons Ratio (y) = 0.05273 0.46155
# Poissons Ratio (z) = 0.01643 0.41342
#
# Static dielectric constant tensor:
#      x y z
#    x 1.863690 -0.019450 0.024290 
#    y -0.019450 1.825720 0.020670 
#    z 0.024290 0.020670 1.876820 
# 
# From -- ./inp_files/126482.got.cif
#   From: 2010.05.17/outbox.cif.g08.bks.cpg/sg2_64_cif.got.tgz:126482.got - 2010.06.03 11:33:40.
