data_PCOD9092450
_publ_section_title
;
Structure prediction by ZEFSAII (Michael W. Deem and Ramdas Pophale) SiO2 
 PCOD9092450
Probable space group: P -1
;
_chemical_formula_sum "Si O2"
_cell_formula_units_Z 14
_cell_length_a 9.889829
_cell_length_b 6.013110
_cell_length_c 11.141226
_cell_angle_alpha 130.284866
_cell_angle_beta 97.627578
_cell_angle_gamma 85.163009
_cell_volume 500.948623
_symmetry_space_group_name_H-M "P -1"
_symmetry_group_IT_number 2
_symmetry_cell_setting 'triclinic'
loop_
_space_group_symop_operation_xyz
x,y,z
-x,-y,-z
loop_
_atom_site_type_symbol
_atom_site_label
_atom_site_fract_x
_atom_site_fract_y
_atom_site_fract_z
Si Si1 0.220017 0.319051 0.492497
Si Si2 0.923024 0.805112 0.811900
Si Si3 0.686967 0.259598 0.948018
Si Si4 0.804831 0.855182 0.112510
Si Si5 0.584067 0.324612 0.225375
Si Si6 0.598712 0.191005 0.664129
Si Si7 0.059287 0.262785 0.672882
O O1 0.127404 0.328842 0.369025
O O2 0.354128 0.514884 0.591983
O O3 0.147630 0.430895 0.642608
O O4 0.260022 0.979987 0.397996
O O5 0.959962 0.518250 0.792409
O O6 0.793481 0.002781 0.899404
O O7 0.057584 0.009150 0.884183
O O8 0.583666 0.152244 0.793995
O O9 0.771821 0.513299 0.980125
O O10 0.625451 0.379750 0.107016
O O11 0.848725 0.875554 0.263661
O O12 0.659445 0.014219 0.133341
O O13 0.433565 0.473283 0.255837
O O14 0.500000 0.000000 0.500000
O O15 0.000000 0.000000 0.500000
#
# Coordination Sequence:
#
# PCOD9092450 Si02
#       7
#     2   2   2   2   2   2   2
#     4  10  19  41  65  91 126 168 210 259 310 365
#     4  11  23  40  62  97 133 167 207 258 313 373
#     4  11  24  41  66  94 126 167 210 257 320 377
#     4  12  23  37  64  93 135 167 208 250 317 378
#     4  11  22  42  65  90 128 168 210 263 314 363
#     4   9  22  43  71  87 119 167 214 267 314 364
#     4  12  22  38  67  96 130 170 211 253 313 377
#
# _framework density 27.946978000000001
#
# number of rings (size 3 to 8) (size 9 to 14) (size 15 to 20)
#    0.000    1.143    4.286    2.143    0.000    4.000 
#    0.000    0.714    3.143    0.000    0.000    0.000 
#    0.000    0.000    0.000    0.000    0.000    0.000 
#
# Total GULP energy -78116.434178 kJ/mol
# GULP energy per Si atom -5579.745298 kJ/mol
# Density = 2.788337 g / cm^3
# Si number density = 27.946978 Si / 1000 Ang^3
#
#
#
# Elastic Constant Matrix: (Units=GPa)
#
#
# Indices 1 2 3 4 5 6 
#
# 1 76.0939 45.6792 30.0816 10.7776 -10.0065 -7.7444
# 2 45.6792 112.4389 28.2032 11.1761 -3.2873 -49.4008
# 3 30.0816 28.2032 161.1854 -12.6751 17.4823 -5.5312
# 4 10.7776 11.1761 -12.6751 67.0300 -19.4477 -0.1079
# 5 -10.0065 -3.2873 17.4823 -19.4477 47.0108 7.2091
# 6 -7.7444 -49.4008 -5.5312 -0.1079 7.2091 49.4857
#
#
#
# Elastic Compliance Matrix: (Units=1/GPa)
#
#
# Indices 1 2 3 4 5 6 
#
# 1 0.021438 -0.012206 -0.002903 -0.000159 0.006268 -0.010067
# 2 -0.012206 0.024550 -0.000903 -0.003932 -0.005749 0.023326
# 3 -0.002903 -0.000903 0.007306 0.001157 -0.002902 -0.000114
# 4 -0.000159 -0.003932 0.001157 0.017970 0.007441 -0.004866
# 5 0.006268 -0.005749 -0.002902 0.007441 0.027758 -0.009110
# 6 -0.010067 0.023326 -0.000114 -0.004866 -0.009110 0.043222
#
#
# Mechanical properties :
#
#
# Convention : Reuss Voigt Hill
#
# Bulk Modulus (GPa) = 47.01280 61.96069 54.48675
# Shear Modulus (GPa) = 27.56999 49.08891 38.32945
#
# Velocity S-wave (km/s) = 3.14428 4.19561 3.70740
# Velocity P-wave (km/s) = 5.48094 6.75942 6.15347
#
# Compressibility (1/GPa) = 0.02127080
#
# Stress axis : x y z
#
# Youngs Moduli (GPa) = 46.64534 40.73359 136.88119
#
# Poissons Ratio (x) = 0.49717 0.39738
# Poissons Ratio (y) = 0.56933 0.12359
# Poissons Ratio (z) = 0.13542 0.03678
#
# Static dielectric constant tensor:
#      x y z
#    x 2.424100 0.076380 -0.017600 
#    y 0.076380 2.158510 -0.017450 
#    z -0.017600 -0.017450 2.201110 
# 
# From -- ./inp_files/107441.got.cif
#   From: 2010.05.17/outbox.cif.g08.bks.cpg/sg2_54_cif.got.tgz:107441.got - 2010.06.03 11:33:40.
