data_PCOD9092854
_publ_section_title
;
Structure prediction by ZEFSAII (Michael W. Deem and Ramdas Pophale) SiO2 
 PCOD9092854
Probable space group: P -1
;
_chemical_formula_sum "Si O2"
_cell_formula_units_Z 15
_cell_length_a 7.377023
_cell_length_b 7.383544
_cell_length_c 11.603825
_cell_angle_alpha 92.117070
_cell_angle_beta 121.630442
_cell_angle_gamma 101.442790
_cell_volume 519.874521
_symmetry_space_group_name_H-M "P -1"
_symmetry_group_IT_number 2
_symmetry_cell_setting 'triclinic'
loop_
_space_group_symop_operation_xyz
x,y,z
-x,-y,-z
loop_
_atom_site_type_symbol
_atom_site_label
_atom_site_fract_x
_atom_site_fract_y
_atom_site_fract_z
Si Si1 0.562104 0.161799 0.191260
Si Si2 0.224684 0.101269 0.894090
Si Si3 0.449509 0.417985 0.808091
Si Si4 0.081522 0.489719 0.392267
Si Si5 0.201390 0.148032 0.516077
Si Si6 0.517209 0.808678 0.592708
Si Si7 0.858608 0.606130 0.829280
Si Si8 0.000000 0.000000 0.000000
O O1 0.628019 0.387512 0.212028
O O2 0.561159 0.095815 0.319485
O O3 0.695053 0.054659 0.152943
O O4 0.308368 0.098374 0.057278
O O5 0.357977 0.294055 0.886506
O O6 0.977803 0.068198 0.850473
O O7 0.334750 0.284891 0.661939
O O8 0.709679 0.472059 0.872888
O O9 0.091042 0.277433 0.403619
O O10 0.305583 0.654423 0.472454
O O11 0.030160 0.489556 0.236037
O O12 0.000000 0.500000 0.500000
O O13 0.346992 0.084428 0.466264
O O14 0.000000 0.000000 0.500000
O O15 0.661951 0.680560 0.701779
O O16 0.006245 0.787319 0.944724
#
# Coordination Sequence:
#
# PCOD9092854 Si02
#       8
#     2   2   2   2   2   2   2   1
#     4  10  22  43  67  91 129 177 221 270 330 401
#     4  11  25  40  67  97 128 173 231 268 330 398
#     4  11  21  44  69  90 132 180 216 272 338 401
#     4  11  22  40  67  94 127 175 221 274 338 404
#     4  11  23  39  63  98 129 170 221 274 335 406
#     4  10  19  43  66  85 132 181 210 267 351 391
#     4  10  21  40  64  91 132 179 219 265 346 399
#     4  12  24  38  64 102 130 174 228 278 324 410
#
# _framework density 28.853113
#
# number of rings (size 3 to 8) (size 9 to 14) (size 15 to 20)
#    0.000    1.333    6.667    1.200    5.600    0.000 
#    2.400    2.000    0.000    0.000    0.000    0.000 
#    0.000    0.000    0.000    0.000    0.000    0.000 
#
# Total GULP energy -83691.306256 kJ/mol
# GULP energy per Si atom -5579.420417 kJ/mol
# Density = 2.878744 g / cm^3
# Si number density = 28.853113 Si / 1000 Ang^3
#
#
#
# Elastic Constant Matrix: (Units=GPa)
#
#
# Indices 1 2 3 4 5 6 
#
# 1 169.0149 75.0123 67.6234 -3.6704 -80.1124 27.0607
# 2 75.0123 195.9986 80.6368 5.8293 -33.9600 45.6074
# 3 67.6234 80.6368 188.8789 13.2540 -52.6090 18.2907
# 4 -3.6704 5.8293 13.2540 57.6851 17.2273 -13.5175
# 5 -80.1124 -33.9600 -52.6090 17.2273 62.0583 -7.8331
# 6 27.0607 45.6074 18.2907 -13.5175 -7.8331 64.9232
#
#
#
# Elastic Compliance Matrix: (Units=1/GPa)
#
#
# Indices 1 2 3 4 5 6 
#
# 1 0.020717 -0.002282 0.003241 -0.009676 0.030130 -0.006324
# 2 -0.002282 0.007773 -0.002231 -0.001171 -0.000791 -0.004220
# 3 0.003241 -0.002231 0.009002 -0.005677 0.011910 -0.002065
# 4 -0.009676 -0.001171 -0.005677 0.027610 -0.024441 0.009255
# 5 0.030130 -0.000791 0.011910 -0.024441 0.069942 -0.012008
# 6 -0.006324 -0.004220 -0.002065 0.009255 -0.012008 0.022063
#
#
# Mechanical properties :
#
#
# Convention : Reuss Voigt Hill
#
# Bulk Modulus (GPa) = 28.61465 111.15971 69.88718
# Shear Modulus (GPa) = 29.18843 58.97464 44.08154
#
# Velocity S-wave (km/s) = 3.18405 4.52592 3.91294
# Velocity P-wave (km/s) = 4.84319 8.11922 6.68499
#
# Compressibility (1/GPa) = 0.03494714
#
# Stress axis : x y z
#
# Youngs Moduli (GPa) = 48.26995 128.65082 111.08455
#
# Poissons Ratio (x) = 0.29359 -0.36000
# Poissons Ratio (y) = 0.11016 0.24784
# Poissons Ratio (z) = -0.15643 0.28703
#
# Static dielectric constant tensor:
#      x y z
#    x 3.323770 0.114480 0.231290 
#    y 0.114480 2.342150 -0.034670 
#    z 0.231290 -0.034670 2.383580 
# 
# From -- ./inp_files/293158.got.cif
#   From: 2010.05.17/outbox.cif.g08.bks.cpg/sg2_147_cif.got.tgz:293158.got - 2010.06.03 11:33:40.
