data_PCOD9092559
_publ_section_title
;
Structure prediction by ZEFSAII (Michael W. Deem and Ramdas Pophale) SiO2 
 PCOD9092559
Probable space group: P -1
;
_chemical_formula_sum "Si O2"
_cell_formula_units_Z 16
_cell_length_a 14.300131
_cell_length_b 8.821236
_cell_length_c 13.925182
_cell_angle_alpha 138.523736
_cell_angle_beta 140.216965
_cell_angle_gamma 50.239081
_cell_volume 735.953051
_symmetry_space_group_name_H-M "P -1"
_symmetry_group_IT_number 2
_symmetry_cell_setting 'triclinic'
loop_
_space_group_symop_operation_xyz
x,y,z
-x,-y,-z
loop_
_atom_site_type_symbol
_atom_site_label
_atom_site_fract_x
_atom_site_fract_y
_atom_site_fract_z
Si Si1 0.765617 0.389561 0.277563
Si Si2 0.812633 0.837804 0.820954
Si Si3 0.414439 0.037725 0.050262
Si Si4 0.967335 0.233342 0.183722
Si Si5 0.765326 0.899001 0.522620
Si Si6 0.002537 0.084855 0.434901
Si Si7 0.879715 0.713737 0.032455
Si Si8 0.501952 0.235849 0.410226
O O1 0.702140 0.657102 0.371761
O O2 0.861047 0.367939 0.243669
O O3 0.883263 0.303779 0.413926
O O4 0.657258 0.197226 0.099554
O O5 0.932824 0.670644 0.774177
O O6 0.644969 0.795297 0.659413
O O7 0.840644 0.812964 0.943820
O O8 0.860096 0.092415 0.969108
O O9 0.499310 0.091671 0.239641
O O10 0.500000 0.000000 0.000000
O O11 0.284846 0.261733 0.041750
O O12 0.102718 0.101395 0.295185
O O13 0.643530 0.124477 0.530258
O O14 0.841234 0.881341 0.469237
O O15 0.957660 0.877687 0.238168
O O16 0.000000 0.000000 0.500000
O O17 0.000000 0.500000 0.000000
O O18 0.500000 0.500000 0.500000
#
# Coordination Sequence:
#
# PCOD9092559 Si02
#       8
#     2   2   2   2   2   2   2   2
#     4  10  21  44  67  97 139 170 226 289 334 411
#     4  10  21  41  65  90 134 179 218 274 344 399
#     4  10  23  45  66  95 140 186 222 280 353 417
#     4  10  19  41  68  95 129 170 224 280 333 407
#     4  11  24  40  68 100 136 174 223 287 348 397
#     4  10  21  38  66 102 133 171 229 280 337 398
#     4  10  21  38  64  96 131 174 228 280 326 404
#     4  11  26  45  66  96 141 182 226 284 343 414
#
# _framework density 21.740517000000001
#
# number of rings (size 3 to 8) (size 9 to 14) (size 15 to 20)
#    0.000    1.750    5.000    1.500    7.000    4.000 
#    0.000    1.250    0.000    0.000    0.000    0.000 
#    0.000    0.000    0.000    0.000    0.000    0.000 
#
# Total GULP energy -89081.233744 kJ/mol
# GULP energy per Si atom -5567.577109 kJ/mol
# Density = 2.169103 g / cm^3
# Si number density = 21.740517 Si / 1000 Ang^3
#
#
#
# Elastic Constant Matrix: (Units=GPa)
#
#
# Indices 1 2 3 4 5 6 
#
# 1 134.6453 12.9025 21.1682 -1.3928 -4.3175 2.7724
# 2 12.9025 80.3849 23.9618 10.9028 7.6888 -16.1584
# 3 21.1682 23.9618 80.0481 3.4466 4.1800 -5.4891
# 4 -1.3928 10.9028 3.4466 12.0732 -4.6303 -1.9416
# 5 -4.3175 7.6888 4.1800 -4.6303 33.1695 -3.7710
# 6 2.7724 -16.1584 -5.4891 -1.9416 -3.7710 18.9841
#
#
#
# Elastic Compliance Matrix: (Units=1/GPa)
#
#
# Indices 1 2 3 4 5 6 
#
# 1 0.008076 -0.001890 -0.002003 0.003532 0.001937 -0.002622
# 2 -0.001890 0.019013 -0.003347 -0.016308 -0.005051 0.012820
# 3 -0.002003 -0.003347 0.014243 -0.001623 -0.001379 0.001122
# 4 0.003532 -0.016308 -0.001623 0.105742 0.019178 -0.000241
# 5 0.001937 -0.005051 -0.001379 0.019178 0.034866 0.003907
# 6 -0.002622 0.012820 0.001122 -0.000241 0.003907 0.065046
#
#
# Mechanical properties :
#
#
# Convention : Reuss Voigt Hill
#
# Bulk Modulus (GPa) = 37.24081 45.68260 41.46171
# Shear Modulus (GPa) = 18.49001 28.64841 23.56921
#
# Velocity S-wave (km/s) = 2.91947 3.63401 3.29616
# Velocity P-wave (km/s) = 5.34147 6.21822 5.79645
#
# Compressibility (1/GPa) = 0.02685226
#
# Stress axis : x y z
#
# Youngs Moduli (GPa) = 123.83097 52.59502 70.21159
#
# Poissons Ratio (x) = 0.09943 0.14060
# Poissons Ratio (y) = 0.23410 0.23496
# Poissons Ratio (z) = 0.24798 0.17601
#
# Static dielectric constant tensor:
#      x y z
#    x 1.914540 -0.080660 0.025170 
#    y -0.080660 1.927790 0.074200 
#    z 0.025170 0.074200 1.896120 
# 
# From -- ./inp_files/529164.got.cif
#   From: 2010.05.17/outbox.cif.g08.bks.cpg/sg2_265_cif.got.tgz:529164.got - 2010.06.03 11:33:40.
