data_PCOD9092814
_publ_section_title
;
Structure prediction by ZEFSAII (Michael W. Deem and Ramdas Pophale) SiO2 
 PCOD9092814
Probable space group: P -1
;
_chemical_formula_sum "Si O2"
_cell_formula_units_Z 14
_cell_length_a 9.837457
_cell_length_b 10.708630
_cell_length_c 8.726887
_cell_angle_alpha 80.452395
_cell_angle_beta 44.211121
_cell_angle_gamma 86.918702
_cell_volume 629.337192
_symmetry_space_group_name_H-M "P -1"
_symmetry_group_IT_number 2
_symmetry_cell_setting 'triclinic'
loop_
_space_group_symop_operation_xyz
x,y,z
-x,-y,-z
loop_
_atom_site_type_symbol
_atom_site_label
_atom_site_fract_x
_atom_site_fract_y
_atom_site_fract_z
Si Si1 0.681584 0.087703 0.398552
Si Si2 0.144785 0.760071 0.063984
Si Si3 0.029570 0.986288 0.298813
Si Si4 0.169225 0.428363 0.796338
Si Si5 0.189612 0.260793 0.097000
Si Si6 0.545999 0.356359 0.973855
Si Si7 0.256898 0.674532 0.501268
O O1 0.637936 0.199959 0.527988
O O2 0.821657 0.996382 0.386300
O O3 0.500000 0.000000 0.500000
O O4 0.801761 0.160889 0.149040
O O5 0.330564 0.685749 0.973646
O O6 0.949179 0.667683 0.207450
O O7 0.114389 0.859042 0.202958
O O8 0.162131 0.112014 0.109987
O O9 0.000000 0.000000 0.500000
O O10 0.291241 0.544268 0.588899
O O11 0.257291 0.347617 0.877614
O O12 0.000000 0.500000 0.000000
O O13 0.974329 0.301612 0.306692
O O14 0.339821 0.279889 0.112025
O O15 0.679706 0.340249 0.720371
O O16 0.500000 0.500000 0.000000
#
# Coordination Sequence:
#
# PCOD9092814 Si02
#       7
#     2   2   2   2   2   2   2
#     4  11  25  44  72 107 133 174 236 282 342 411
#     4  12  24  44  71 100 138 179 229 287 339 408
#     4  11  25  45  69 101 137 187 225 275 356 408
#     4  10  19  42  71  94 133 179 226 279 340 402
#     4  10  23  44  69  98 141 178 227 286 346 408
#     4  12  28  43  67 106 137 180 236 280 345 407
#     4  10  23  47  72  96 141 180 226 288 346 405
#
# _framework density 22.245626000000001
#
# number of rings (size 3 to 8) (size 9 to 14) (size 15 to 20)
#    0.000    1.143    4.286    3.857    4.000    4.571 
#    0.000    0.000    0.000    0.000    0.000    0.000 
#    0.000    0.000    0.000    0.000    0.000    0.000 
#
# Total GULP energy -78324.954811 kJ/mol
# GULP energy per Si atom -5594.639629 kJ/mol
# Density = 2.219499 g / cm^3
# Si number density = 22.245626 Si / 1000 Ang^3
#
#
#
# Elastic Constant Matrix: (Units=GPa)
#
#
# Indices 1 2 3 4 5 6 
#
# 1 109.9586 22.7272 2.9132 -1.1169 -10.5170 -13.9975
# 2 22.7272 115.9187 17.0829 9.8985 -7.7663 -2.2471
# 3 2.9132 17.0829 54.4562 7.4954 6.3867 -1.6775
# 4 -1.1169 9.8985 7.4954 34.0289 6.2619 3.6140
# 5 -10.5170 -7.7663 6.3867 6.2619 33.1579 -9.8434
# 6 -13.9975 -2.2471 -1.6775 3.6140 -9.8434 42.1393
#
#
#
# Elastic Compliance Matrix: (Units=1/GPa)
#
#
# Indices 1 2 3 4 5 6 
#
# 1 0.010408 -0.001569 -0.000390 -0.000394 0.004395 0.004418
# 2 -0.001569 0.009852 -0.002948 -0.002951 0.003198 0.000887
# 3 -0.000390 -0.002948 0.020184 -0.002795 -0.004244 -0.000235
# 4 -0.000394 -0.002951 -0.002795 0.032859 -0.007993 -0.005085
# 5 0.004395 0.003198 -0.004244 -0.007993 0.037894 0.010998
# 6 0.004418 0.000887 -0.000235 -0.005085 0.010998 0.028242
#
#
# Mechanical properties :
#
#
# Convention : Reuss Voigt Hill
#
# Bulk Modulus (GPa) = 32.64787 40.64223 36.64505
# Shear Modulus (GPa) = 31.35526 37.70591 34.53058
#
# Velocity S-wave (km/s) = 3.75841 4.12148 3.94412
# Velocity P-wave (km/s) = 5.79155 6.39986 6.10329
#
# Compressibility (1/GPa) = 0.03062987
#
# Stress axis : x y z
#
# Youngs Moduli (GPa) = 96.08183 101.49827 49.54332
#
# Poissons Ratio (x) = 0.15930 0.01930
# Poissons Ratio (y) = 0.15079 0.14607
# Poissons Ratio (z) = 0.03743 0.29926
#
# Static dielectric constant tensor:
#      x y z
#    x 1.845150 0.003770 -0.019080 
#    y 0.003770 1.810800 -0.019680 
#    z -0.019080 -0.019680 1.838400 
# 
# From -- ./inp_files/186355.got.cif
#   From: 2010.05.17/outbox.cif.g08.bks.cpg/sg2_94_cif.got.tgz:186355.got - 2010.06.03 11:33:40.
