data_PCOD9092640
_publ_section_title
;
Structure prediction by ZEFSAII (Michael W. Deem and Ramdas Pophale) SiO2 
 PCOD9092640
Probable space group: P -1
;
_chemical_formula_sum "Si O2"
_cell_formula_units_Z 14
_cell_length_a 9.209095
_cell_length_b 18.652341
_cell_length_c 5.045705
_cell_angle_alpha 113.000181
_cell_angle_beta 48.468673
_cell_angle_gamma 127.842020
_cell_volume 512.181070
_symmetry_space_group_name_H-M "P -1"
_symmetry_group_IT_number 2
_symmetry_cell_setting 'triclinic'
loop_
_space_group_symop_operation_xyz
x,y,z
-x,-y,-z
loop_
_atom_site_type_symbol
_atom_site_label
_atom_site_fract_x
_atom_site_fract_y
_atom_site_fract_z
Si Si1 0.054078 0.063694 0.279079
Si Si2 0.716629 0.723760 0.103144
Si Si3 0.490988 0.813014 0.261635
Si Si4 0.862419 0.386804 0.799783
Si Si5 0.006858 0.724143 0.237734
Si Si6 0.333032 0.536015 0.192661
Si Si7 0.352681 0.908747 0.217203
O O1 0.885438 0.098476 0.485964
O O2 0.000000 0.000000 0.500000
O O3 0.306284 0.145252 0.139230
O O4 0.000000 0.000000 0.000000
O O5 0.647173 0.800152 0.268849
O O6 0.875532 0.730478 0.156938
O O7 0.472364 0.633562 0.305934
O O8 0.847231 0.715336 0.671750
O O9 0.281148 0.713632 0.307289
O O10 0.426290 0.890672 0.392005
O O11 0.710969 0.433024 0.999372
O O12 0.948957 0.359735 0.918693
O O13 0.094238 0.459130 0.482236
O O14 0.262865 0.812947 0.036501
O O15 0.500000 0.500000 0.000000
O O16 0.500000 0.000000 0.000000
#
# Coordination Sequence:
#
# PCOD9092640 Si02
#       7
#     2   2   2   2   2   2   2
#     4  12  27  47  72 104 144 185 235 298 360 420
#     4  11  24  44  73 101 140 190 229 291 353 419
#     4  10  23  44  72 102 144 187 239 292 356 421
#     4   9  21  41  68 106 138 184 236 287 346 426
#     4  11  24  46  70 102 141 185 236 287 354 417
#     4  10  19  41  72 102 144 182 232 287 356 414
#     4  11  24  48  74 108 141 190 242 298 355 429
#
# _framework density 27.334081000000001
#
# number of rings (size 3 to 8) (size 9 to 14) (size 15 to 20)
#    0.000    1.429    4.286    0.000    2.000    1.143 
#    5.143   10.714    0.000    0.000    0.000    0.000 
#    0.000    0.000    0.000    0.000    0.000    0.000 
#
# Total GULP energy -78072.359845 kJ/mol
# GULP energy per Si atom -5576.597132 kJ/mol
# Density = 2.727187 g / cm^3
# Si number density = 27.334081 Si / 1000 Ang^3
#
#
#
# Elastic Constant Matrix: (Units=GPa)
#
#
# Indices 1 2 3 4 5 6 
#
# 1 250.9953 69.4591 63.0324 -7.0475 -3.4730 -60.4938
# 2 69.4591 164.5298 34.4361 -46.9303 2.0868 -27.6844
# 3 63.0324 34.4361 79.1737 -28.7765 -5.9371 7.1150
# 4 -7.0475 -46.9303 -28.7765 49.2007 -0.9862 -11.7311
# 5 -3.4730 2.0868 -5.9371 -0.9862 65.6681 -0.2208
# 6 -60.4938 -27.6844 7.1150 -11.7311 -0.2208 80.4194
#
#
#
# Elastic Compliance Matrix: (Units=1/GPa)
#
#
# Indices 1 2 3 4 5 6 
#
# 1 0.007253 -0.001809 -0.006692 -0.003430 -0.000199 0.004924
# 2 -0.001809 0.010507 0.000494 0.010957 -0.000208 0.003811
# 3 -0.006692 0.000494 0.022520 0.011487 0.001822 -0.005175
# 4 -0.003430 0.010957 0.011487 0.038403 0.001105 0.005781
# 5 -0.000199 -0.000208 0.001822 0.001105 0.015405 -0.000179
# 6 0.004924 0.003811 -0.005175 0.005781 -0.000179 0.018752
#
#
# Mechanical properties :
#
#
# Convention : Reuss Voigt Hill
#
# Bulk Modulus (GPa) = 41.20760 92.06155 66.63458
# Shear Modulus (GPa) = 36.51216 60.90906 48.71061
#
# Velocity S-wave (km/s) = 3.65879 4.72563 4.22601
# Velocity P-wave (km/s) = 5.74084 7.97049 6.94572
#
# Compressibility (1/GPa) = 0.02426737
#
# Stress axis : x y z
#
# Youngs Moduli (GPa) = 137.87542 95.17381 44.40579
#
# Poissons Ratio (x) = 0.17213 0.29715
# Poissons Ratio (y) = 0.24936 -0.02194
# Poissons Ratio (z) = 0.92262 -0.04703
#
# Static dielectric constant tensor:
#      x y z
#    x 1.999760 -0.261560 -0.014730 
#    y -0.261560 1.865170 -0.014260 
#    z -0.014730 -0.014260 2.273520 
# 
# From -- ./inp_files/48105.got.cif
#   From: 2010.05.17/outbox.cif.g08.bks.cpg/sg2_25_cif.got.tgz:48105.got - 2010.06.03 11:33:40.
