data_PCOD9092843
_publ_section_title
;
Structure prediction by ZEFSAII (Michael W. Deem and Ramdas Pophale) SiO2 
 PCOD9092843
Probable space group: P -1
;
_chemical_formula_sum "Si O2"
_cell_formula_units_Z 16
_cell_length_a 14.965827
_cell_length_b 11.938856
_cell_length_c 8.139890
_cell_angle_alpha 107.469740
_cell_angle_beta 108.278224
_cell_angle_gamma 29.036549
_cell_volume 669.231473
_symmetry_space_group_name_H-M "P -1"
_symmetry_group_IT_number 2
_symmetry_cell_setting 'triclinic'
loop_
_space_group_symop_operation_xyz
x,y,z
-x,-y,-z
loop_
_atom_site_type_symbol
_atom_site_label
_atom_site_fract_x
_atom_site_fract_y
_atom_site_fract_z
Si Si1 0.758504 0.636324 0.388431
Si Si2 0.305065 0.401920 0.119134
Si Si3 0.817414 0.122833 0.394044
Si Si4 0.497788 0.586801 0.877685
Si Si5 0.360248 0.116478 0.224179
Si Si6 0.727199 0.130879 0.677101
Si Si7 0.051813 0.263660 0.140252
Si Si8 0.353839 0.448274 0.530354
O O1 0.721194 0.740947 0.587324
O O2 0.934716 0.465085 0.298236
O O3 0.770640 0.487237 0.385775
O O4 0.572325 0.857094 0.273400
O O5 0.419885 0.369406 0.056130
O O6 0.360224 0.210580 0.117776
O O7 0.320821 0.442023 0.325831
O O8 0.098231 0.615106 0.025423
O O9 0.717913 0.168353 0.199342
O O10 0.800981 0.049613 0.499217
O O11 0.675745 0.383002 0.420607
O O12 0.000000 0.000000 0.500000
O O13 0.650826 0.345112 0.755843
O O14 0.500000 0.500000 0.000000
O O15 0.219507 0.162188 0.125572
O O16 0.561769 0.213349 0.613180
O O17 0.866442 0.937392 0.808475
#
# Coordination Sequence:
#
# PCOD9092843 Si02
#       8
#     2   2   2   2   2   2   2   2
#     4  10  22  41  72  96 128 171 225 270 332 396
#     4  11  24  42  66  92 137 173 213 274 336 391
#     4  11  22  38  65  96 128 176 226 268 322 403
#     4  11  25  43  65  98 135 179 220 273 341 392
#     4  10  23  46  68  94 134 175 217 278 335 391
#     4  11  22  42  68  91 138 173 223 273 325 397
#     4  12  25  40  70 104 130 169 228 276 329 394
#     4  10  19  43  61  90 131 176 212 263 332 391
#
# _framework density 23.908021000000002
#
# number of rings (size 3 to 8) (size 9 to 14) (size 15 to 20)
#    0.000    1.250    3.750    2.250    5.250    2.000 
#    0.000    2.500    0.000    0.000    0.000    0.000 
#    0.000    0.000    0.000    0.000    0.000    0.000 
#
# Total GULP energy -89145.961409 kJ/mol
# GULP energy per Si atom -5571.622588 kJ/mol
# Density = 2.385360 g / cm^3
# Si number density = 23.908021 Si / 1000 Ang^3
#
#
#
# Elastic Constant Matrix: (Units=GPa)
#
#
# Indices 1 2 3 4 5 6 
#
# 1 160.8164 35.1561 57.3146 -33.3396 -10.0341 0.0339
# 2 35.1561 91.0729 36.0426 -27.9906 2.5449 -2.5445
# 3 57.3146 36.0426 138.5512 -57.2029 9.5446 11.0292
# 4 -33.3396 -27.9906 -57.2029 49.8806 1.6144 -6.8264
# 5 -10.0341 2.5449 9.5446 1.6144 38.9651 -7.7008
# 6 0.0339 -2.5445 11.0292 -6.8264 -7.7008 28.6909
#
#
#
# Elastic Compliance Matrix: (Units=1/GPa)
#
#
# Indices 1 2 3 4 5 6 
#
# 1 0.008038 -0.001585 -0.002602 0.001684 0.003155 0.002098
# 2 -0.001585 0.013904 -0.000301 0.006800 -0.000990 0.002703
# 3 -0.002602 -0.000301 0.015487 0.015515 -0.005849 -0.003856
# 4 0.001684 0.006800 0.015515 0.043441 -0.004887 0.003661
# 5 0.003155 -0.000990 -0.005849 -0.004887 0.029962 0.009036
# 6 0.002098 0.002703 -0.003856 0.003661 0.009036 0.039870
#
#
# Mechanical properties :
#
#
# Convention : Reuss Voigt Hill
#
# Bulk Modulus (GPa) = 35.14410 71.94079 53.54245
# Shear Modulus (GPa) = 29.55745 40.96911 35.26328
#
# Velocity S-wave (km/s) = 3.51992 4.14407 3.84468
# Velocity P-wave (km/s) = 5.59029 7.28380 6.49250
#
# Compressibility (1/GPa) = 0.02845428
#
# Stress axis : x y z
#
# Youngs Moduli (GPa) = 124.41571 71.92062 64.56867
#
# Poissons Ratio (x) = 0.11399 0.16798
# Poissons Ratio (y) = 0.19720 0.01943
# Poissons Ratio (z) = 0.32368 0.02164
#
# Static dielectric constant tensor:
#      x y z
#    x 1.986210 -0.083260 0.138830 
#    y -0.083260 2.211230 -0.074160 
#    z 0.138830 -0.074160 2.153020 
# 
# From -- ./inp_files/208061.got.cif
#   From: 2010.05.17/outbox.cif.g08.bks.cpg/sg2_105_cif.got.tgz:208061.got - 2010.06.03 11:33:40.
