data_PCOD9092184
_publ_section_title
;
Structure prediction by ZEFSAII (Michael W. Deem and Ramdas Pophale) SiO2 
 PCOD9092184
Probable space group: P -1
;
_chemical_formula_sum "Si O2"
_cell_formula_units_Z 16
_cell_length_a 18.878501
_cell_length_b 11.674081
_cell_length_c 7.685400
_cell_angle_alpha 69.237403
_cell_angle_beta 50.455107
_cell_angle_gamma 31.438856
_cell_volume 601.609126
_symmetry_space_group_name_H-M "P -1"
_symmetry_group_IT_number 2
_symmetry_cell_setting 'triclinic'
loop_
_space_group_symop_operation_xyz
x,y,z
-x,-y,-z
loop_
_atom_site_type_symbol
_atom_site_label
_atom_site_fract_x
_atom_site_fract_y
_atom_site_fract_z
Si Si1 0.013088 0.361670 0.722533
Si Si2 0.656454 0.878181 0.100227
Si Si3 0.501599 0.431111 0.822424
Si Si4 0.134234 0.738182 0.355115
Si Si5 0.299776 0.178193 0.550640
Si Si6 0.092390 0.762021 0.993254
Si Si7 0.498898 0.682717 0.502910
Si Si8 0.160418 0.093192 0.279478
O O1 0.102320 0.373220 0.674476
O O2 0.113350 0.220581 0.462007
O O3 0.795289 0.642208 0.887609
O O4 0.028035 0.216171 0.881207
O O5 0.702382 0.771748 0.276867
O O6 0.442397 0.102091 0.269655
O O7 0.714027 0.952162 0.987052
O O8 0.448522 0.631994 0.742980
O O9 0.519950 0.346191 0.649552
O O10 0.701911 0.177112 0.734034
O O11 0.345610 0.543867 0.123572
O O12 0.030006 0.738570 0.596570
O O13 0.000000 0.000000 0.500000
O O14 0.118669 0.722244 0.182125
O O15 0.398293 0.929639 0.533271
O O16 0.279971 0.549222 0.703898
O O17 0.000000 0.000000 0.000000
#
# Coordination Sequence:
#
# PCOD9092184 Si02
#       8
#     2   2   2   2   2   2   2   2
#     4  11  22  42  67  91 125 167 219 257 311 378
#     4  11  26  44  61  95 130 165 215 269 311 370
#     4  10  22  40  66  96 125 165 211 255 319 380
#     4  10  24  40  59  94 133 160 201 253 321 379
#     4  11  24  43  66  92 126 170 215 261 318 367
#     4  10  21  38  65  95 123 161 214 257 306 378
#     4  10  19  40  67  92 128 164 208 264 307 375
#     4  11  24  43  66  94 128 168 212 258 317 379
#
# _framework density 26.595341999999999
#
# number of rings (size 3 to 8) (size 9 to 14) (size 15 to 20)
#    0.000    1.500    2.500    2.250    5.250    2.000 
#    2.250    0.000    0.000    0.000    0.000    0.000 
#    0.000    0.000    0.000    0.000    0.000    0.000 
#
# Total GULP energy -89474.281668 kJ/mol
# GULP energy per Si atom -5592.142604 kJ/mol
# Density = 2.653481 g / cm^3
# Si number density = 26.595342 Si / 1000 Ang^3
#
#
#
# Elastic Constant Matrix: (Units=GPa)
#
#
# Indices 1 2 3 4 5 6 
#
# 1 101.9990 4.7782 38.9264 -2.6295 -19.3334 13.2723
# 2 4.7782 81.3150 27.5261 -5.4778 -11.9541 16.9714
# 3 38.9264 27.5261 121.1131 -4.3668 -39.4356 -1.8425
# 4 -2.6295 -5.4778 -4.3668 36.0163 9.8360 -10.5919
# 5 -19.3334 -11.9541 -39.4356 9.8360 47.9214 1.2881
# 6 13.2723 16.9714 -1.8425 -10.5919 1.2881 39.6878
#
#
#
# Elastic Compliance Matrix: (Units=1/GPa)
#
#
# Indices 1 2 3 4 5 6 
#
# 1 0.012356 0.002013 -0.003587 -0.001742 0.003047 -0.005723
# 2 0.002013 0.015233 -0.003597 -0.000764 0.002014 -0.007623
# 3 -0.003587 -0.003597 0.012982 -0.000680 0.008401 0.002886
# 4 -0.001742 -0.000764 -0.000680 0.032638 -0.008417 0.009861
# 5 0.003047 0.002014 0.008401 -0.008417 0.031368 -0.004755
# 6 -0.005723 -0.007623 0.002886 0.009861 -0.004755 0.033291
#
#
# Mechanical properties :
#
#
# Convention : Reuss Voigt Hill
#
# Bulk Modulus (GPa) = 33.08001 49.65427 41.36714
# Shear Modulus (GPa) = 31.58875 40.27152 35.93013
#
# Velocity S-wave (km/s) = 3.45012 3.89554 3.67957
# Velocity P-wave (km/s) = 5.32319 6.24055 5.80003
#
# Compressibility (1/GPa) = 0.03022973
#
# Stress axis : x y z
#
# Youngs Moduli (GPa) = 80.93384 65.64770 77.03144
#
# Poissons Ratio (x) = -0.13216 0.27627
# Poissons Ratio (y) = -0.16293 0.27707
# Poissons Ratio (z) = 0.29027 0.23613
#
# Static dielectric constant tensor:
#      x y z
#    x 2.061260 0.005070 -0.093460 
#    y 0.005070 2.108710 -0.067070 
#    z -0.093460 -0.067070 2.176480 
# 
# From -- ./inp_files/346078.got.cif
#   From: 2010.05.17/outbox.cif.g08.bks.cpg/sg2_174_cif.got.tgz:346078.got - 2010.06.03 11:33:40.
