data_PCOD9092867
_publ_section_title
;
Structure prediction by ZEFSAII (Michael W. Deem and Ramdas Pophale) SiO2 
 PCOD9092867
Probable space group: P -1
;
_chemical_formula_sum "Si O2"
_cell_formula_units_Z 15
_cell_length_a 8.401791
_cell_length_b 12.315524
_cell_length_c 7.610424
_cell_angle_alpha 54.351128
_cell_angle_beta 105.894629
_cell_angle_gamma 111.887787
_cell_volume 592.098628
_symmetry_space_group_name_H-M "P -1"
_symmetry_group_IT_number 2
_symmetry_cell_setting 'triclinic'
loop_
_space_group_symop_operation_xyz
x,y,z
-x,-y,-z
loop_
_atom_site_type_symbol
_atom_site_label
_atom_site_fract_x
_atom_site_fract_y
_atom_site_fract_z
Si Si1 0.039257 0.383840 0.822451
Si Si2 0.799832 0.161954 0.361158
Si Si3 0.509705 0.293909 0.045199
Si Si4 0.895241 0.623476 0.559870
Si Si5 0.415730 0.559649 0.721616
Si Si6 0.244077 0.004359 0.179980
Si Si7 0.500000 0.500000 0.500000
Si Si8 0.909819 0.071895 0.154020
O O1 0.028218 0.356014 0.635273
O O2 0.232358 0.480706 0.818040
O O3 0.919935 0.475986 0.764566
O O4 0.003024 0.235549 0.037579
O O5 0.683638 0.248282 0.149398
O O6 0.824490 0.044204 0.344897
O O7 0.979442 0.262120 0.388992
O O8 0.696387 0.092223 0.570015
O O9 0.483518 0.344361 0.188338
O O10 0.360068 0.161518 0.071927
O O11 0.500064 0.432419 0.801488
O O12 0.697161 0.615709 0.494725
O O13 0.400541 0.607461 0.477296
O O14 0.054998 0.000627 0.203451
O O15 0.224186 0.953636 0.022517
#
# Coordination Sequence:
#
# PCOD9092867 Si02
#       8
#     2   2   2   2   2   2   1   2
#     4  10  19  43  67  93 133 175 212 273 344 393
#     4  12  25  43  68 102 131 178 227 275 325 406
#     4  11  24  43  67  94 137 177 221 273 338 389
#     4  10  22  39  67 100 136 170 218 274 342 394
#     4  10  22  43  65 100 133 174 215 279 338 391
#     4  11  25  48  65  94 137 180 223 278 329 392
#     4  10  24  36  66 104 134 168 212 276 332 398
#     4  11  25  42  72  96 128 182 224 276 332 393
#
# _framework density 25.333615999999999
#
# number of rings (size 3 to 8) (size 9 to 14) (size 15 to 20)
#    0.000    1.333    4.000    0.800    3.733    1.067 
#    2.400    0.000    0.000    0.000    0.000    0.000 
#    0.000    0.000    0.000    0.000    0.000    0.000 
#
# Total GULP energy -83731.399045 kJ/mol
# GULP energy per Si atom -5582.093270 kJ/mol
# Density = 2.527596 g / cm^3
# Si number density = 25.333616 Si / 1000 Ang^3
#
#
#
# Elastic Constant Matrix: (Units=GPa)
#
#
# Indices 1 2 3 4 5 6 
#
# 1 81.3260 32.4279 9.6254 4.6809 13.3788 13.4530
# 2 32.4279 125.4325 27.8466 30.5639 -14.4506 7.2270
# 3 9.6254 27.8466 76.6210 11.1607 -4.2250 -0.4680
# 4 4.6809 30.5639 11.1607 43.6411 -8.9657 -0.9212
# 5 13.3788 -14.4506 -4.2250 -8.9657 32.2863 0.7789
# 6 13.4530 7.2270 -0.4680 -0.9212 0.7789 28.2210
#
#
#
# Elastic Compliance Matrix: (Units=1/GPa)
#
#
# Indices 1 2 3 4 5 6 
#
# 1 0.016935 -0.004795 -0.000895 -0.000258 -0.009193 -0.006615
# 2 -0.004795 0.011957 -0.002563 -0.006134 0.005328 -0.001166
# 3 -0.000895 -0.002563 0.014375 -0.001631 0.000622 0.001251
# 4 -0.000258 -0.006134 -0.001631 0.028749 0.005072 0.002465
# 5 -0.009193 0.005328 0.000622 0.005072 0.038605 0.002128
# 6 -0.006615 -0.001166 0.001251 0.002465 0.002128 0.038929
#
#
# Mechanical properties :
#
#
# Convention : Reuss Voigt Hill
#
# Bulk Modulus (GPa) = 37.36663 47.01993 42.19328
# Shear Modulus (GPa) = 28.57554 35.06167 31.81861
#
# Velocity S-wave (km/s) = 3.36217 3.72425 3.54783
# Velocity P-wave (km/s) = 5.46389 6.09048 5.78567
#
# Compressibility (1/GPa) = 0.02676184
#
# Stress axis : x y z
#
# Youngs Moduli (GPa) = 59.04842 83.63548 69.56715
#
# Poissons Ratio (x) = 0.40101 0.06224
# Poissons Ratio (y) = 0.28312 0.17830
# Poissons Ratio (z) = 0.05283 0.21435
#
# Static dielectric constant tensor:
#      x y z
#    x 2.027210 -0.027920 0.020000 
#    y -0.027920 1.967480 0.036230 
#    z 0.020000 0.036230 2.237390 
# 
# From -- ./inp_files/175413.got.cif
#   From: 2010.05.17/outbox.cif.g08.bks.cpg/sg2_88_cif.got.tgz:175413.got - 2010.06.03 11:33:40.
