data_PCOD9092138
_publ_section_title
;
Structure prediction by ZEFSAII (Michael W. Deem and Ramdas Pophale) SiO2 
 PCOD9092138
Probable space group: P -1
;
_chemical_formula_sum "Si O2"
_cell_formula_units_Z 14
_cell_length_a 11.606287
_cell_length_b 13.841881
_cell_length_c 11.500388
_cell_angle_alpha 144.639823
_cell_angle_beta 42.267731
_cell_angle_gamma 147.967433
_cell_volume 559.945746
_symmetry_space_group_name_H-M "P -1"
_symmetry_group_IT_number 2
_symmetry_cell_setting 'triclinic'
loop_
_space_group_symop_operation_xyz
x,y,z
-x,-y,-z
loop_
_atom_site_type_symbol
_atom_site_label
_atom_site_fract_x
_atom_site_fract_y
_atom_site_fract_z
Si Si1 0.129372 0.938592 0.186574
Si Si2 0.313814 0.773146 0.262007
Si Si3 0.955835 0.735213 0.350816
Si Si4 0.814787 0.831386 0.126534
Si Si5 0.386091 0.735589 0.436421
Si Si6 0.480211 0.662700 0.820485
Si Si7 0.167099 0.316361 0.282867
O O1 0.050078 0.075366 0.421021
O O2 0.379359 0.111286 0.129609
O O3 0.086013 0.798721 0.193025
O O4 0.978233 0.817807 0.067813
O O5 0.308583 0.715406 0.342576
O O6 0.087129 0.711755 0.324882
O O7 0.509974 0.031139 0.363164
O O8 0.377764 0.670137 0.022604
O O9 0.710451 0.527205 0.302586
O O10 0.597755 0.742340 0.272841
O O11 0.771498 0.721820 0.927444
O O12 0.938828 0.082848 0.251872
O O13 0.202003 0.533819 0.452850
O O14 0.660237 0.639177 0.706126
#
# Coordination Sequence:
#
# PCOD9092138 Si02
#       7
#     2   2   2   2   2   2   2
#     4  10  23  40  69  91 121 164 218 255 306 372
#     4  11  25  41  63  95 135 160 210 257 321 367
#     4  11  23  43  63  92 125 171 205 259 311 373
#     4  10  19  40  66  96 118 154 220 265 290 379
#     4  11  22  43  63  91 130 170 197 263 314 374
#     4  11  23  42  65  96 123 164 211 265 302 379
#     4  10  22  37  71  93 119 163 218 252 316 364
#
# _framework density 25.002421999999999
#
# number of rings (size 3 to 8) (size 9 to 14) (size 15 to 20)
#    0.000    1.429    2.857    2.143    4.000    0.571 
#    0.000    5.714    0.000    0.000    0.000    0.000 
#    0.000    0.000    0.000    0.000    0.000    0.000 
#
# Total GULP energy -78460.018736 kJ/mol
# GULP energy per Si atom -5604.287053 kJ/mol
# Density = 2.494552 g / cm^3
# Si number density = 25.002422 Si / 1000 Ang^3
#
#
#
# Elastic Constant Matrix: (Units=GPa)
#
#
# Indices 1 2 3 4 5 6 
#
# 1 102.5821 39.4399 20.0877 25.8081 29.9148 18.4050
# 2 39.4399 121.9368 7.8763 26.3377 7.0007 -3.4469
# 3 20.0877 7.8763 51.2552 8.0444 24.8433 3.4306
# 4 25.8081 26.3377 8.0444 32.4615 4.7651 3.6640
# 5 29.9148 7.0007 24.8433 4.7651 34.1894 1.4215
# 6 18.4050 -3.4469 3.4306 3.6640 1.4215 37.5989
#
#
#
# Elastic Compliance Matrix: (Units=1/GPa)
#
#
# Indices 1 2 3 4 5 6 
#
# 1 0.019466 -0.003644 0.003254 -0.009877 -0.016918 -0.008557
# 2 -0.003644 0.010770 -0.000443 -0.006413 0.002059 0.003358
# 3 0.003254 -0.000443 0.031367 -0.006056 -0.024581 -0.002976
# 4 -0.009877 -0.006413 -0.006056 0.044138 0.008197 0.000188
# 5 -0.016918 0.002059 -0.024581 0.008197 0.060031 0.007645
# 6 -0.008557 0.003358 -0.002976 0.000188 0.007645 0.031058
#
#
# Mechanical properties :
#
#
# Convention : Reuss Voigt Hill
#
# Bulk Modulus (GPa) = 16.68406 45.62020 31.15213
# Shear Modulus (GPa) = 22.88596 34.74131 28.81364
#
# Velocity S-wave (km/s) = 3.02876 3.73167 3.39843
# Velocity P-wave (km/s) = 4.34955 6.07067 5.28070
#
# Compressibility (1/GPa) = 0.05993744
#
# Stress axis : x y z
#
# Youngs Moduli (GPa) = 51.37223 92.85072 31.88042
#
# Poissons Ratio (x) = 0.33830 -0.10374
# Poissons Ratio (y) = 0.18718 0.01413
# Poissons Ratio (z) = -0.16717 0.04116
#
# Static dielectric constant tensor:
#      x y z
#    x 1.948340 -0.034690 -0.040550 
#    y -0.034690 1.977390 -0.002840 
#    z -0.040550 -0.002840 1.992250 
# 
# From -- ./inp_files/176953.got.cif
#   From: 2010.05.17/outbox.cif.g08.bks.cpg/sg2_89_cif.got.tgz:176953.got - 2010.06.03 11:33:40.
