data_PCOD9092098
_publ_section_title
;
Structure prediction by ZEFSAII (Michael W. Deem and Ramdas Pophale) SiO2 
 PCOD9092098
Probable space group: P -1
;
_chemical_formula_sum "Si O2"
_cell_formula_units_Z 16
_cell_length_a 13.505222
_cell_length_b 11.269834
_cell_length_c 8.246288
_cell_angle_alpha 100.959140
_cell_angle_beta 70.346314
_cell_angle_gamma 146.696130
_cell_volume 638.874008
_symmetry_space_group_name_H-M "P -1"
_symmetry_group_IT_number 2
_symmetry_cell_setting 'triclinic'
loop_
_space_group_symop_operation_xyz
x,y,z
-x,-y,-z
loop_
_atom_site_type_symbol
_atom_site_label
_atom_site_fract_x
_atom_site_fract_y
_atom_site_fract_z
Si Si1 0.966439 0.572775 0.169209
Si Si2 0.552259 0.701008 0.840775
Si Si3 0.370744 0.499012 0.239402
Si Si4 0.705388 0.940237 0.322877
Si Si5 0.055323 0.901027 0.080547
Si Si6 0.391677 0.976864 0.186309
Si Si7 0.042843 0.975026 0.636385
Si Si8 0.208912 0.712729 0.523222
O O1 0.930871 0.664982 0.125160
O O2 0.172232 0.780324 0.197670
O O3 0.805766 0.391689 0.344322
O O4 0.000000 0.500000 0.000000
O O5 0.556930 0.563263 0.747817
O O6 0.765479 0.918126 0.850495
O O7 0.521342 0.802719 0.798663
O O8 0.421811 0.565511 0.039398
O O9 0.143316 0.288008 0.314091
O O10 0.490377 0.711347 0.328184
O O11 0.766373 0.133893 0.367757
O O12 0.767211 0.921682 0.439807
O O13 0.842729 0.021712 0.126155
O O14 0.945011 0.914917 0.197221
O O15 0.369494 0.876792 0.337511
O O16 0.500000 0.000000 0.000000
O O17 0.000000 0.000000 0.500000
O O18 0.000000 0.500000 0.500000
#
# Coordination Sequence:
#
# PCOD9092098 Si02
#       8
#     2   2   2   2   2   2   2   2
#     4  10  19  40  66  89 123 170 217 266 329 381
#     4   8  17  37  64  83 126 165 209 260 323 373
#     4   9  20  40  63  92 124 170 207 265 317 380
#     4  11  22  41  69  92 128 172 219 261 327 393
#     4   9  19  39  64  90 125 171 216 261 316 395
#     4  10  22  40  61  91 125 169 216 267 328 389
#     4  11  25  39  62 101 133 166 213 267 324 388
#     4  10  23  39  67  93 127 173 215 273 330 389
#
# _framework density 25.044062
#
# number of rings (size 3 to 8) (size 9 to 14) (size 15 to 20)
#    0.000    2.250    1.250    1.125    7.000    2.500 
#    2.250    0.625    0.000    0.000    0.000    0.000 
#    0.000    0.000    0.000    0.000    0.000    0.000 
#
# Total GULP energy -89370.075528 kJ/mol
# GULP energy per Si atom -5585.629720 kJ/mol
# Density = 2.498706 g / cm^3
# Si number density = 25.044062 Si / 1000 Ang^3
#
#
#
# Elastic Constant Matrix: (Units=GPa)
#
#
# Indices 1 2 3 4 5 6 
#
# 1 65.2884 36.9242 33.2477 -5.3988 -1.2349 -19.3436
# 2 36.9242 130.7355 26.0540 0.7048 1.5069 -24.5110
# 3 33.2477 26.0540 134.3732 -19.2810 -5.5946 -22.6604
# 4 -5.3988 0.7048 -19.2810 39.3283 -7.0977 1.9982
# 5 -1.2349 1.5069 -5.5946 -7.0977 28.2551 -2.9725
# 6 -19.3436 -24.5110 -22.6604 1.9982 -2.9725 35.5721
#
#
#
# Elastic Compliance Matrix: (Units=1/GPa)
#
#
# Indices 1 2 3 4 5 6 
#
# 1 0.021426 -0.004180 -0.003051 0.001468 0.001648 0.006883
# 2 -0.004180 0.009701 -0.000342 -0.001244 -0.000637 0.004211
# 3 -0.003051 -0.000342 0.009843 0.004822 0.003508 0.004398
# 4 0.001468 -0.001244 0.004822 0.029481 0.008710 0.002085
# 5 0.001648 -0.000637 0.003508 0.008710 0.038955 0.005457
# 6 0.006883 0.004211 0.004398 0.002085 0.005457 0.037896
#
#
# Mechanical properties :
#
#
# Convention : Reuss Voigt Hill
#
# Bulk Modulus (GPa) = 38.72268 58.09432 48.40850
# Shear Modulus (GPa) = 29.23022 36.24250 32.73636
#
# Velocity S-wave (km/s) = 3.42007 3.80827 3.61938
# Velocity P-wave (km/s) = 5.57595 6.52567 6.06942
#
# Compressibility (1/GPa) = 0.02582466
#
# Stress axis : x y z
#
# Youngs Moduli (GPa) = 46.67199 103.08041 101.59747
#
# Poissons Ratio (x) = 0.43087 0.30997
# Poissons Ratio (y) = 0.19509 0.03472
# Poissons Ratio (z) = 0.14240 0.03523
#
# Static dielectric constant tensor:
#      x y z
#    x 3.267210 -0.532100 0.657030 
#    y -0.532100 2.144650 -0.231420 
#    z 0.657030 -0.231420 2.399150 
# 
# From -- ./inp_files/242044.got.cif
#   From: 2010.05.17/outbox.cif.g08.bks.cpg/sg2_122_cif.got.tgz:242044.got - 2010.06.03 11:33:40.
