data_PCOD9092301
_publ_section_title
;
Structure prediction by ZEFSAII (Michael W. Deem and Ramdas Pophale) SiO2 
 PCOD9092301
Probable space group: P -1
;
_chemical_formula_sum "Si O2"
_cell_formula_units_Z 12
_cell_length_a 14.747973
_cell_length_b 6.675998
_cell_length_c 12.053969
_cell_angle_alpha 92.782126
_cell_angle_beta 150.876937
_cell_angle_gamma 100.686415
_cell_volume 509.630999
_symmetry_space_group_name_H-M "P -1"
_symmetry_group_IT_number 2
_symmetry_cell_setting 'triclinic'
loop_
_space_group_symop_operation_xyz
x,y,z
-x,-y,-z
loop_
_atom_site_type_symbol
_atom_site_label
_atom_site_fract_x
_atom_site_fract_y
_atom_site_fract_z
Si Si1 0.224939 0.211025 0.719179
Si Si2 0.486540 0.102502 0.156549
Si Si3 0.165146 0.408574 0.202342
Si Si4 0.874305 0.592678 0.591484
Si Si5 0.635409 0.699018 0.773628
Si Si6 0.311572 0.606646 0.996836
O O1 0.214094 0.290583 0.586135
O O2 0.274530 0.430895 0.853697
O O3 0.387913 0.129045 0.936770
O O4 0.000000 0.000000 0.500000
O O5 0.710247 0.323838 0.413578
O O6 0.343112 0.121049 0.104691
O O7 0.478534 0.862992 0.156103
O O8 0.112525 0.315109 0.268091
O O9 0.406272 0.614999 0.470841
O O10 0.187701 0.248796 0.128617
O O11 0.000000 0.500000 0.000000
O O12 0.092502 0.611621 0.783092
O O13 0.629459 0.492045 0.834661
#
# Coordination Sequence:
#
# PCOD9092301 Si02
#       6
#     2   2   2   2   2   2
#     4  11  23  42  65  95 135 175 217 274 331 392
#     4  10  23  42  66  97 134 171 219 273 330 395
#     4  10  19  40  70  93 135 174 220 275 327 391
#     4  11  22  40  66  95 129 176 222 265 331 394
#     4   9  21  41  67  98 134 171 220 278 324 391
#     4  11  22  43  67  94 137 173 214 280 328 389
#
# _framework density 23.546448000000002
#
# number of rings (size 3 to 8) (size 9 to 14) (size 15 to 20)
#    0.000    1.667    3.333    1.000    0.000    0.667 
#    9.000    8.333    0.000    0.000    0.000    0.000 
#    0.000    0.000    0.000    0.000    0.000    0.000 
#
# Total GULP energy -67155.144178 kJ/mol
# GULP energy per Si atom -5596.262015 kJ/mol
# Density = 2.349286 g / cm^3
# Si number density = 23.546448 Si / 1000 Ang^3
#
#
#
# Elastic Constant Matrix: (Units=GPa)
#
#
# Indices 1 2 3 4 5 6 
#
# 1 143.4340 54.0525 46.3352 -26.3034 -20.8227 1.8880
# 2 54.0525 152.0127 54.4969 6.4536 -8.8998 0.4180
# 3 46.3352 54.4969 105.2855 -23.1721 -3.8274 -5.1067
# 4 -26.3034 6.4536 -23.1721 38.0372 3.9448 12.4993
# 5 -20.8227 -8.8998 -3.8274 3.9448 43.8710 -16.4907
# 6 1.8880 0.4180 -5.1067 12.4993 -16.4907 27.2299
#
#
#
# Elastic Compliance Matrix: (Units=1/GPa)
#
#
# Indices 1 2 3 4 5 6 
#
# 1 0.010497 -0.003537 -0.001100 0.008004 0.002249 -0.003192
# 2 -0.003537 0.010385 -0.005576 -0.009548 0.002701 0.005059
# 3 -0.001100 -0.005576 0.014965 0.010754 -0.002660 -0.003579
# 4 0.008004 -0.009548 0.010754 0.051097 -0.012955 -0.029692
# 5 0.002249 0.002701 -0.002660 -0.012955 0.035367 0.026669
# 6 -0.003192 0.005059 -0.003579 -0.029692 0.026669 0.065977
#
#
# Mechanical properties :
#
#
# Convention : Reuss Voigt Hill
#
# Bulk Modulus (GPa) = 64.85399 78.94459 71.89929
# Shear Modulus (GPa) = 23.38034 38.21747 30.79891
#
# Velocity S-wave (km/s) = 3.15452 4.03310 3.62056
# Velocity P-wave (km/s) = 6.39303 7.43558 6.93393
#
# Compressibility (1/GPa) = 0.01541925
#
# Stress axis : x y z
#
# Youngs Moduli (GPa) = 95.26918 96.29306 66.82285
#
# Poissons Ratio (x) = 0.34063 0.07349
# Poissons Ratio (y) = 0.33701 0.37263
# Poissons Ratio (z) = 0.10478 0.53696
#
# Static dielectric constant tensor:
#      x y z
#    x 1.979110 -0.016110 0.018800 
#    y -0.016110 1.849310 0.026300 
#    z 0.018800 0.026300 1.886220 
# 
# From -- ./inp_files/29496.got.cif
#   From: 2010.05.17/outbox.cif.g08.bks.cpg/sg2_15_cif.got.tgz:29496.got - 2010.06.03 11:33:40.
