data_PCOD9092296
_publ_section_title
;
Structure prediction by ZEFSAII (Michael W. Deem and Ramdas Pophale) SiO2 
 PCOD9092296
Probable space group: P -1
;
_chemical_formula_sum "Si O2"
_cell_formula_units_Z 14
_cell_length_a 8.421253
_cell_length_b 14.009484
_cell_length_c 8.141699
_cell_angle_alpha 41.872652
_cell_angle_beta 71.251379
_cell_angle_gamma 79.642169
_cell_volume 604.416409
_symmetry_space_group_name_H-M "P -1"
_symmetry_group_IT_number 2
_symmetry_cell_setting 'triclinic'
loop_
_space_group_symop_operation_xyz
x,y,z
-x,-y,-z
loop_
_atom_site_type_symbol
_atom_site_label
_atom_site_fract_x
_atom_site_fract_y
_atom_site_fract_z
Si Si1 0.021353 0.319417 0.382275
Si Si2 0.187498 0.475114 0.422204
Si Si3 0.577686 0.213510 0.419896
Si Si4 0.883264 0.035623 0.644989
Si Si5 0.748386 0.493244 0.157125
Si Si6 0.354597 0.214179 0.817330
Si Si7 0.474513 0.711437 0.011683
O O1 0.981782 0.151713 0.583888
O O2 0.845672 0.391285 0.375718
O O3 0.158860 0.378084 0.392315
O O4 0.103284 0.387604 0.100747
O O5 0.287111 0.371587 0.634936
O O6 0.289762 0.629167 0.174174
O O7 0.000000 0.500000 0.500000
O O8 0.725871 0.111662 0.526115
O O9 0.667409 0.376337 0.202888
O O10 0.449371 0.190189 0.645604
O O11 0.498728 0.202385 0.278514
O O12 0.000000 0.000000 0.500000
O O13 0.804347 0.898376 0.947181
O O14 0.596078 0.583320 0.135403
O O15 0.481804 0.205685 0.940062
#
# Coordination Sequence:
#
# PCOD9092296 Si02
#       7
#     2   2   2   2   2   2   2
#     4  10  22  41  70 100 144 185 233 293 357 418
#     4  12  26  41  71 113 143 181 239 305 365 423
#     4  11  24  45  75 103 138 190 243 294 357 422
#     4  11  27  48  69 102 149 197 239 290 360 431
#     4  10  19  40  70 105 134 179 232 297 355 414
#     4  12  27  46  73 107 148 190 241 291 353 442
#     4  12  24  44  74 107 146 179 240 301 367 420
#
# _framework density 23.162839999999999
#
# number of rings (size 3 to 8) (size 9 to 14) (size 15 to 20)
#    0.000    0.857    2.857    3.857    6.000    1.143 
#    0.000    1.429    0.000    0.000    0.000    0.000 
#    0.000    0.000    0.000    0.000    0.000    0.000 
#
# Total GULP energy -78257.592144 kJ/mol
# GULP energy per Si atom -5589.828010 kJ/mol
# Density = 2.311012 g / cm^3
# Si number density = 23.162840 Si / 1000 Ang^3
#
#
#
# Elastic Constant Matrix: (Units=GPa)
#
#
# Indices 1 2 3 4 5 6 
#
# 1 59.7984 20.4000 9.4534 27.9458 -9.8435 -5.7071
# 2 20.4000 64.3012 43.7847 21.9025 -3.5803 -7.7282
# 3 9.4534 43.7847 112.3922 19.0401 -27.9425 5.5391
# 4 27.9458 21.9025 19.0401 31.4412 5.8742 -0.1464
# 5 -9.8435 -3.5803 -27.9425 5.8742 45.8097 5.7858
# 6 -5.7071 -7.7282 5.5391 -0.1464 5.7858 61.8298
#
#
#
# Elastic Compliance Matrix: (Units=1/GPa)
#
#
# Indices 1 2 3 4 5 6 
#
# 1 0.039530 -0.004039 0.010344 -0.042299 0.019880 0.000257
# 2 -0.004039 0.026641 -0.009957 -0.008105 -0.004355 0.004238
# 3 0.010344 -0.009957 0.018694 -0.016470 0.015394 -0.003444
# 4 -0.042299 -0.008105 -0.016470 0.090885 -0.031386 -0.000290
# 5 0.019880 -0.004355 0.015394 -0.031386 0.039665 -0.003874
# 6 0.000257 0.004238 -0.003444 -0.000290 -0.003874 0.017397
#
#
# Mechanical properties :
#
#
# Convention : Reuss Voigt Hill
#
# Bulk Modulus (GPa) = 12.89321 42.64087 27.76704
# Shear Modulus (GPa) = 18.79913 38.67304 28.73608
#
# Velocity S-wave (km/s) = 2.85196 4.09053 3.52605
# Velocity P-wave (km/s) = 4.05257 6.38428 5.34707
#
# Compressibility (1/GPa) = 0.07756020
#
# Stress axis : x y z
#
# Youngs Moduli (GPa) = 25.29709 37.53583 53.49443
#
# Poissons Ratio (x) = 0.15161 -0.55335
# Poissons Ratio (y) = 0.10218 0.53267
# Poissons Ratio (z) = -0.26167 0.37376
#
# Static dielectric constant tensor:
#      x y z
#    x 1.902440 0.046430 0.026020 
#    y 0.046430 1.925540 0.070750 
#    z 0.026020 0.070750 1.891730 
# 
# From -- ./inp_files/198966.got.cif
#   From: 2010.05.17/outbox.cif.g08.bks.cpg/sg2_100_cif.got.tgz:198966.got - 2010.06.03 11:33:40.
