data_PCOD9092034
_publ_section_title
;
Structure prediction by ZEFSAII (Michael W. Deem and Ramdas Pophale) SiO2 
 PCOD9092034
Probable space group: P -1
;
_chemical_formula_sum "Si O2"
_cell_formula_units_Z 16
_cell_length_a 8.922004
_cell_length_b 10.955211
_cell_length_c 10.999546
_cell_angle_alpha 113.890288
_cell_angle_beta 68.323112
_cell_angle_gamma 141.897580
_cell_volume 604.131767
_symmetry_space_group_name_H-M "P -1"
_symmetry_group_IT_number 2
_symmetry_cell_setting 'triclinic'
loop_
_space_group_symop_operation_xyz
x,y,z
-x,-y,-z
loop_
_atom_site_type_symbol
_atom_site_label
_atom_site_fract_x
_atom_site_fract_y
_atom_site_fract_z
Si Si1 0.969931 0.813466 0.198587
Si Si2 0.207072 0.932797 0.850845
Si Si3 0.008940 0.598520 0.920442
Si Si4 0.615161 0.417340 0.546086
Si Si5 0.243052 0.212646 0.353412
Si Si6 0.934523 0.318515 0.657664
Si Si7 0.710074 0.993996 0.421307
Si Si8 0.713048 0.737814 0.033968
O O1 0.960470 0.722446 0.288599
O O2 0.788287 0.803830 0.180851
O O3 0.216485 0.054856 0.230040
O O4 0.932512 0.683048 0.050855
O O5 0.232763 0.810479 0.867267
O O6 0.239227 0.924825 0.696764
O O7 0.363707 0.158270 0.937965
O O8 0.933716 0.825239 0.914670
O O9 0.891501 0.431385 0.784978
O O10 0.000000 0.500000 0.000000
O O11 0.406515 0.298232 0.457661
O O12 0.650329 0.587426 0.660588
O O13 0.860187 0.535635 0.447771
O O14 0.523502 0.244417 0.589312
O O15 0.963200 0.072879 0.414177
O O16 0.712550 0.110342 0.570874
O O17 0.500000 0.500000 0.000000
#
# Coordination Sequence:
#
# PCOD9092034 Si02
#       8
#     2   2   2   2   2   2   2   2
#     4  10  19  40  65  89 127 163 201 260 314 366
#     4  10  22  40  63  91 123 166 204 252 319 368
#     4   9  21  44  65  82 122 169 214 257 303 362
#     4  10  22  33  57  93 131 163 202 247 305 378
#     4  10  20  34  58  93 127 161 197 248 318 369
#     4  10  22  39  61  90 124 167 213 248 303 361
#     4  11  21  37  59  92 129 159 198 258 312 373
#     4  10  22  40  63  95 129 160 203 258 314 374
#
# _framework density 26.484289
#
# number of rings (size 3 to 8) (size 9 to 14) (size 15 to 20)
#    0.000    2.000    2.500    0.375    3.500    3.500 
#    0.000    3.750    0.000    0.000    0.000    0.000 
#    0.000    0.000    0.000    0.000    0.000    0.000 
#
# Total GULP energy -89193.086787 kJ/mol
# GULP energy per Si atom -5574.567924 kJ/mol
# Density = 2.642401 g / cm^3
# Si number density = 26.484289 Si / 1000 Ang^3
#
#
#
# Elastic Constant Matrix: (Units=GPa)
#
#
# Indices 1 2 3 4 5 6 
#
# 1 55.8412 42.7324 33.8516 -5.4966 3.4284 -12.5072
# 2 42.7324 194.4680 68.4827 15.3471 6.8781 -25.4952
# 3 33.8516 68.4827 152.7308 13.1642 2.1979 -4.4367
# 4 -5.4966 15.3471 13.1642 59.5085 -7.6971 2.5258
# 5 3.4284 6.8781 2.1979 -7.6971 36.8906 -8.0153
# 6 -12.5072 -25.4952 -4.4367 2.5258 -8.0153 44.3734
#
#
#
# Elastic Compliance Matrix: (Units=1/GPa)
#
#
# Indices 1 2 3 4 5 6 
#
# 1 0.024503 -0.003765 -0.003970 0.003987 0.000404 0.004192
# 2 -0.003765 0.007293 -0.002173 -0.001956 -0.000658 0.002904
# 3 -0.003970 -0.002173 0.008509 -0.001678 -0.000408 -0.001495
# 4 0.003987 -0.001956 -0.001678 0.018569 0.003854 -0.000529
# 5 0.000404 -0.000658 -0.000408 0.003854 0.029047 0.004723
# 6 0.004192 0.002904 -0.001495 -0.000529 0.004723 0.026120
#
#
# Mechanical properties :
#
#
# Convention : Reuss Voigt Hill
#
# Bulk Modulus (GPa) = 48.81055 77.01925 62.91490
# Shear Modulus (GPa) = 35.53971 45.35274 40.44622
#
# Velocity S-wave (km/s) = 3.66719 4.14265 3.91215
# Velocity P-wave (km/s) = 6.03333 7.21293 6.64934
#
# Compressibility (1/GPa) = 0.02048737
#
# Stress axis : x y z
#
# Youngs Moduli (GPa) = 40.81178 137.11029 117.52384
#
# Poissons Ratio (x) = 0.51629 0.46658
# Poissons Ratio (y) = 0.15368 0.25541
# Poissons Ratio (z) = 0.16203 0.29797
#
# Static dielectric constant tensor:
#      x y z
#    x 2.345740 -0.151080 -0.159870 
#    y -0.151080 2.148440 0.050240 
#    z -0.159870 0.050240 1.971490 
# 
# From -- ./inp_files/428693.got.cif
#   From: 2010.05.17/outbox.cif.g08.bks.cpg/sg2_215_cif.got.tgz:428693.got - 2010.06.03 11:33:40.
