data_PCOD9092604
_publ_section_title
;
Structure prediction by ZEFSAII (Michael W. Deem and Ramdas Pophale) SiO2 
 PCOD9092604
Probable space group: P -1
;
_chemical_formula_sum "Si O2"
_cell_formula_units_Z 16
_cell_length_a 10.124475
_cell_length_b 11.482337
_cell_length_c 8.132879
_cell_angle_alpha 72.794368
_cell_angle_beta 67.173501
_cell_angle_gamma 61.184166
_cell_volume 756.554608
_symmetry_space_group_name_H-M "P -1"
_symmetry_group_IT_number 2
_symmetry_cell_setting 'triclinic'
loop_
_space_group_symop_operation_xyz
x,y,z
-x,-y,-z
loop_
_atom_site_type_symbol
_atom_site_label
_atom_site_fract_x
_atom_site_fract_y
_atom_site_fract_z
Si Si1 0.898278 0.954567 0.336430
Si Si2 0.236200 0.931127 0.304000
Si Si3 0.974194 0.448881 0.216000
Si Si4 0.954055 0.712886 0.198102
Si Si5 0.640745 0.452560 0.321502
Si Si6 0.513120 0.289272 0.914189
Si Si7 0.239723 0.196481 0.070774
Si Si8 0.762280 0.225566 0.110570
O O1 0.901499 0.815369 0.330985
O O2 0.074223 0.930274 0.315914
O O3 0.789006 0.019261 0.518187
O O4 0.840197 0.067220 0.175426
O O5 0.375754 0.788764 0.259089
O O6 0.267274 0.044468 0.143184
O O7 0.998215 0.556962 0.276033
O O8 0.799070 0.458406 0.313193
O O9 0.098371 0.294615 0.216316
O O10 0.000000 0.500000 0.000000
O O11 0.816704 0.760749 0.106887
O O12 0.101833 0.730769 0.036474
O O13 0.500000 0.500000 0.500000
O O14 0.582064 0.556895 0.154262
O O15 0.692810 0.306424 0.278165
O O16 0.389297 0.225279 0.026876
O O17 0.626879 0.265281 0.023783
#
# Coordination Sequence:
#
# PCOD9092604 Si02
#       8
#     2   2   2   2   2   2   2   2
#     4  11  23  40  64  95 127 170 212 272 324 378
#     4  11  23  40  62  96 132 162 215 271 330 369
#     4  10  19  41  70  90 122 174 216 251 315 393
#     4  11  19  40  70  89 119 172 225 249 307 397
#     4  12  24  42  67 100 133 166 208 275 329 369
#     4  12  24  40  64 101 129 165 217 267 320 381
#     4  11  21  42  69  89 127 173 220 259 312 393
#     4  12  22  42  68  94 127 171 222 258 315 390
#
# _framework density 21.148505
#
# number of rings (size 3 to 8) (size 9 to 14) (size 15 to 20)
#    0.000    0.750    7.500    2.625    0.000    1.000 
#    2.250    1.875    0.000    0.000    0.000    0.000 
#    0.000    0.000    0.000    0.000    0.000    0.000 
#
# Total GULP energy -89481.556809 kJ/mol
# GULP energy per Si atom -5592.597301 kJ/mol
# Density = 2.110037 g / cm^3
# Si number density = 21.148505 Si / 1000 Ang^3
#
#
#
# Elastic Constant Matrix: (Units=GPa)
#
#
# Indices 1 2 3 4 5 6 
#
# 1 93.5959 9.4193 20.2947 18.4699 -5.2331 12.9733
# 2 9.4193 76.9516 -0.2109 23.7816 13.9649 12.7156
# 3 20.2947 -0.2109 60.1151 25.8624 -6.6374 5.3684
# 4 18.4699 23.7816 25.8624 27.7350 -4.2547 3.7414
# 5 -5.2331 13.9649 -6.6374 -4.2547 28.9394 10.5482
# 6 12.9733 12.7156 5.3684 3.7414 10.5482 33.5122
#
#
#
# Elastic Compliance Matrix: (Units=1/GPa)
#
#
# Indices 1 2 3 4 5 6 
#
# 1 0.013209 0.001990 0.000553 -0.009954 0.002099 -0.005506
# 2 0.001990 0.030665 0.018063 -0.046048 -0.015094 -0.005407
# 3 0.000553 0.018063 0.038880 -0.052128 -0.005239 -0.005827
# 4 -0.009954 -0.046048 -0.052128 0.133827 0.025720 0.006639
# 5 0.002099 -0.015094 -0.005239 0.025720 0.049417 -0.012672
# 6 -0.005506 -0.005407 -0.005827 0.006639 -0.012672 0.038204
#
#
# Mechanical properties :
#
#
# Convention : Reuss Voigt Hill
#
# Bulk Modulus (GPa) = 8.06680 32.18542 20.12611
# Shear Modulus (GPa) = 16.43057 31.44796 23.93926
#
# Velocity S-wave (km/s) = 2.79034 3.86036 3.36811
# Velocity P-wave (km/s) = 3.76882 5.92635 4.96616
#
# Compressibility (1/GPa) = 0.12396493
#
# Stress axis : x y z
#
# Youngs Moduli (GPa) = 75.70693 32.61075 25.72043
#
# Poissons Ratio (x) = -0.06489 -0.01424
# Poissons Ratio (y) = -0.15065 -0.46458
# Poissons Ratio (z) = -0.04190 -0.58903
#
# Static dielectric constant tensor:
#      x y z
#    x 1.714950 0.009040 0.022440 
#    y 0.009040 1.773430 0.007200 
#    z 0.022440 0.007200 1.785640 
# 
# From -- ./inp_files/186504.got.cif
#   From: 2010.05.17/outbox.cif.g08.bks.cpg/sg2_94_cif.got.tgz:186504.got - 2010.06.03 11:33:40.
