data_PCOD9092455
_publ_section_title
;
Structure prediction by ZEFSAII (Michael W. Deem and Ramdas Pophale) SiO2 
 PCOD9092455
Probable space group: P -1
;
_chemical_formula_sum "Si O2"
_cell_formula_units_Z 14
_cell_length_a 7.373943
_cell_length_b 9.171223
_cell_length_c 9.705932
_cell_angle_alpha 99.557045
_cell_angle_beta 60.389684
_cell_angle_gamma 99.044114
_cell_volume 560.585291
_symmetry_space_group_name_H-M "P -1"
_symmetry_group_IT_number 2
_symmetry_cell_setting 'triclinic'
loop_
_space_group_symop_operation_xyz
x,y,z
-x,-y,-z
loop_
_atom_site_type_symbol
_atom_site_label
_atom_site_fract_x
_atom_site_fract_y
_atom_site_fract_z
Si Si1 0.245489 0.841966 0.795239
Si Si2 0.955540 0.846601 0.289296
Si Si3 0.931316 0.659001 0.512881
Si Si4 0.717806 0.098290 0.505321
Si Si5 0.532185 0.438982 0.321129
Si Si6 0.383815 0.258549 0.823970
Si Si7 0.224490 0.068365 0.068873
O O1 0.367182 0.891938 0.617380
O O2 0.285788 0.671605 0.772675
O O3 0.007894 0.880952 0.868142
O O4 0.313581 0.946398 0.913794
O O5 0.976333 0.697389 0.341659
O O6 0.827782 0.804413 0.190568
O O7 0.810498 0.940622 0.455363
O O8 0.162076 0.958184 0.203187
O O9 0.687670 0.656217 0.639513
O O10 0.000000 0.500000 0.500000
O O11 0.078319 0.782439 0.554429
O O12 0.566548 0.169256 0.677911
O O13 0.500000 0.500000 0.500000
O O14 0.569482 0.573856 0.221035
O O15 0.359893 0.217550 0.988288
#
# Coordination Sequence:
#
# PCOD9092455 Si02
#       7
#     2   2   2   2   2   2   2
#     4  10  19  41  65  95 125 160 218 254 321 367
#     4  11  22  41  65  93 124 170 215 258 315 370
#     4  12  24  42  60  94 136 160 213 266 319 374
#     4  11  22  37  66  96 124 167 209 273 311 365
#     4  12  23  37  65 100 120 171 209 270 312 365
#     4  12  20  38  66  99 122 158 218 262 312 371
#     4  10  22  41  66  99 125 165 210 271 308 374
#
# _framework density 24.973897999999998
#
# number of rings (size 3 to 8) (size 9 to 14) (size 15 to 20)
#    0.000    0.857    8.571    0.857    2.000    0.571 
#    0.000    0.714    3.143    6.857    0.000    0.000 
#    0.000    0.000    0.000    0.000    0.000    0.000 
#
# Total GULP energy -78154.798830 kJ/mol
# GULP energy per Si atom -5582.485631 kJ/mol
# Density = 2.491706 g / cm^3
# Si number density = 24.973898 Si / 1000 Ang^3
#
#
#
# Elastic Constant Matrix: (Units=GPa)
#
#
# Indices 1 2 3 4 5 6 
#
# 1 47.9278 22.6980 12.8195 -2.5559 0.1713 -11.5410
# 2 22.6980 148.9560 41.5644 -32.0922 -9.9417 -31.8042
# 3 12.8195 41.5644 112.7771 -29.9164 -6.1468 -20.7944
# 4 -2.5559 -32.0922 -29.9164 56.4527 -3.3870 5.0790
# 5 0.1713 -9.9417 -6.1468 -3.3870 19.4587 -3.4327
# 6 -11.5410 -31.8042 -20.7944 5.0790 -3.4327 36.5314
#
#
#
# Elastic Compliance Matrix: (Units=1/GPa)
#
#
# Indices 1 2 3 4 5 6 
#
# 1 0.023495 -0.002742 -0.001407 -0.001725 -0.001589 0.004325
# 2 -0.002742 0.010677 -0.000190 0.005570 0.007850 0.008284
# 3 -0.001407 -0.000190 0.012134 0.006070 0.005864 0.006004
# 4 -0.001725 0.005570 0.006070 0.024134 0.009921 0.005336
# 5 -0.001589 0.007850 0.005864 0.009921 0.061476 0.014067
# 6 0.004325 0.008284 0.006004 0.005336 0.014067 0.039949
#
#
# Mechanical properties :
#
#
# Convention : Reuss Voigt Hill
#
# Bulk Modulus (GPa) = 26.57639 51.53609 39.05624
# Shear Modulus (GPa) = 25.89512 37.99382 31.94447
#
# Velocity S-wave (km/s) = 3.22357 3.90467 3.58035
# Velocity P-wave (km/s) = 4.95176 6.40386 5.72404
#
# Compressibility (1/GPa) = 0.03762738
#
# Stress axis : x y z
#
# Youngs Moduli (GPa) = 42.56282 93.65806 82.41362
#
# Poissons Ratio (x) = 0.25679 0.11595
# Poissons Ratio (y) = 0.11670 0.01570
# Poissons Ratio (z) = 0.05988 0.01784
#
# Static dielectric constant tensor:
#      x y z
#    x 2.134670 0.044360 0.047540 
#    y 0.044360 1.988490 -0.081970 
#    z 0.047540 -0.081970 2.033770 
# 
# From -- ./inp_files/382509.got.cif
#   From: 2010.05.17/outbox.cif.g08.bks.cpg/sg2_192_cif.got.tgz:382509.got - 2010.06.03 11:33:40.
