data_PCOD9092041
_publ_section_title
;
Structure prediction by ZEFSAII (Michael W. Deem and Ramdas Pophale) SiO2 
 PCOD9092041
Probable space group: P -1
;
_chemical_formula_sum "Si O2"
_cell_formula_units_Z 12
_cell_length_a 7.987468
_cell_length_b 9.136220
_cell_length_c 11.688129
_cell_angle_alpha 90.746635
_cell_angle_beta 81.713393
_cell_angle_gamma 147.331836
_cell_volume 446.127136
_symmetry_space_group_name_H-M "P -1"
_symmetry_group_IT_number 2
_symmetry_cell_setting 'triclinic'
loop_
_space_group_symop_operation_xyz
x,y,z
-x,-y,-z
loop_
_atom_site_type_symbol
_atom_site_label
_atom_site_fract_x
_atom_site_fract_y
_atom_site_fract_z
Si Si1 0.417960 0.879152 0.851348
Si Si2 0.946277 0.138102 0.366918
Si Si3 0.830918 0.673457 0.417482
Si Si4 0.687982 0.237180 0.392238
Si Si5 0.330444 0.641969 0.072044
Si Si6 0.612764 0.672070 0.240381
O O1 0.475644 0.876963 0.715866
O O2 0.049575 0.669485 0.898755
O O3 0.639534 0.176783 0.868593
O O4 0.444969 0.762892 0.933826
O O5 0.974457 0.332302 0.344447
O O6 0.921665 0.095693 0.505167
O O7 0.290703 0.342928 0.290798
O O8 0.678008 0.865001 0.314709
O O9 0.500000 0.500000 0.500000
O O10 0.803178 0.478893 0.421489
O O11 0.864922 0.753486 0.284486
O O12 0.500000 0.000000 0.500000
O O13 0.554973 0.692137 0.118869
#
# Coordination Sequence:
#
# PCOD9092041 Si02
#       6
#     2   2   2   2   2   2
#     4  10  22  37  64  92 119 155 211 251 303 355
#     4  11  22  39  60  87 122 164 206 247 297 366
#     4  10  24  38  56  89 128 168 200 248 308 370
#     4  12  23  40  63  93 128 164 207 256 301 368
#     4  10  19  40  65  91 117 158 203 259 300 364
#     4  11  20  40  63  88 122 159 205 249 313 356
#
# _framework density 26.898164000000001
#
# number of rings (size 3 to 8) (size 9 to 14) (size 15 to 20)
#    0.000    1.333    3.333    3.000    0.000    2.667 
#    0.000    0.833    0.000    0.000    0.000   14.000 
#    0.000    0.000    0.000    0.333    0.000    0.000 
#
# Total GULP energy -67040.435439 kJ/mol
# GULP energy per Si atom -5586.702953 kJ/mol
# Density = 2.683694 g / cm^3
# Si number density = 26.898164 Si / 1000 Ang^3
#
#
#
# Elastic Constant Matrix: (Units=GPa)
#
#
# Indices 1 2 3 4 5 6 
#
# 1 93.6042 28.7334 20.5563 -0.8290 45.4525 -17.8642
# 2 28.7334 136.6667 20.8669 12.1071 5.6365 -9.5011
# 3 20.5563 20.8669 189.3230 -9.9759 62.1985 -1.5626
# 4 -0.8290 12.1071 -9.9759 37.5279 -5.1384 10.6924
# 5 45.4525 5.6365 62.1985 -5.1384 63.6577 1.8137
# 6 -17.8642 -9.5011 -1.5626 10.6924 1.8137 52.7858
#
#
#
# Elastic Compliance Matrix: (Units=1/GPa)
#
#
# Indices 1 2 3 4 5 6 
#
# 1 0.022416 -0.003820 0.004744 -0.002181 -0.020712 0.008192
# 2 -0.003820 0.008575 -0.001833 -0.003058 0.003493 0.000696
# 3 0.004744 -0.001833 0.008960 0.000939 -0.011955 0.001761
# 4 -0.002181 -0.003058 0.000939 0.030480 0.003586 -0.007558
# 5 -0.020712 0.003493 -0.011955 0.003586 0.042412 -0.008918
# 6 0.008192 0.000696 0.001761 -0.007558 -0.008918 0.023732
#
#
# Mechanical properties :
#
#
# Convention : Reuss Voigt Hill
#
# Bulk Modulus (GPa) = 26.22388 62.21191 44.21789
# Shear Modulus (GPa) = 33.08969 54.09009 43.58989
#
# Velocity S-wave (km/s) = 3.51120 4.48919 4.02998
# Velocity P-wave (km/s) = 5.11943 7.07456 6.17487
#
# Compressibility (1/GPa) = 0.03813318
#
# Stress axis : x y z
#
# Youngs Moduli (GPa) = 44.61188 116.61246 111.60194
#
# Poissons Ratio (x) = 0.44548 -0.52949
# Poissons Ratio (y) = 0.17042 0.20461
# Poissons Ratio (z) = -0.21166 0.21379
#
# Static dielectric constant tensor:
#      x y z
#    x 2.356860 0.044870 -0.039910 
#    y 0.044870 2.010900 -0.049480 
#    z -0.039910 -0.049480 2.176650 
# 
# From -- ./inp_files/382354.got.cif
#   From: 2010.05.17/outbox.cif.g08.bks.cpg/sg2_192_cif.got.tgz:382354.got - 2010.06.03 11:33:40.
