data_PCOD9092321
_publ_section_title
;
Structure prediction by ZEFSAII (Michael W. Deem and Ramdas Pophale) SiO2 
 PCOD9092321
Probable space group: P -1
;
_chemical_formula_sum "Si O2"
_cell_formula_units_Z 14
_cell_length_a 14.858647
_cell_length_b 7.376929
_cell_length_c 9.499858
_cell_angle_alpha 67.796354
_cell_angle_beta 141.398365
_cell_angle_gamma 116.927629
_cell_volume 578.687573
_symmetry_space_group_name_H-M "P -1"
_symmetry_group_IT_number 2
_symmetry_cell_setting 'triclinic'
loop_
_space_group_symop_operation_xyz
x,y,z
-x,-y,-z
loop_
_atom_site_type_symbol
_atom_site_label
_atom_site_fract_x
_atom_site_fract_y
_atom_site_fract_z
Si Si1 0.347676 0.911611 0.752383
Si Si2 0.606167 0.919174 0.552846
Si Si3 0.076297 0.738662 0.064518
Si Si4 0.329930 0.565920 0.339330
Si Si5 0.153481 0.454403 0.652905
Si Si6 0.162840 0.220763 0.445521
Si Si7 0.846586 0.731890 0.008772
O O1 0.280676 0.668838 0.750508
O O2 0.379834 0.973146 0.611165
O O3 0.225333 0.029821 0.614539
O O4 0.500000 0.000000 0.000000
O O5 0.500486 0.686401 0.485004
O O6 0.767663 0.901229 0.808707
O O7 0.500000 0.000000 0.500000
O O8 0.244655 0.726529 0.252809
O O9 0.000000 0.500000 0.000000
O O10 0.989411 0.843529 0.814431
O O11 0.011038 0.765341 0.131810
O O12 0.286093 0.377043 0.451226
O O13 0.246109 0.478169 0.118135
O O14 0.141650 0.347017 0.519207
O O15 0.000000 0.500000 0.500000
O O16 0.177001 0.300588 0.846447
#
# Coordination Sequence:
#
# PCOD9092321 Si02
#       7
#     2   2   2   2   2   2   2
#     4  12  28  46  68 103 143 180 232 286 345 413
#     4  12  25  42  64 103 131 176 235 285 329 414
#     4   8  16  38  69  93 121 174 223 272 335 406
#     4  10  19  40  72  90 131 179 224 276 350 406
#     4  12  26  46  70 104 140 180 230 288 346 410
#     4  10  22  43  70  97 137 183 224 283 348 405
#     4  10  21  41  68  93 130 177 224 272 348 401
#
# _framework density 24.192675000000001
#
# number of rings (size 3 to 8) (size 9 to 14) (size 15 to 20)
#    0.000    1.714    2.857    4.714    4.000    1.143 
#    2.571    1.429    0.000    0.000    0.000    0.000 
#    0.000    0.000    0.000    0.000    0.000    0.000 
#
# Total GULP energy -78322.887305 kJ/mol
# GULP energy per Si atom -5594.491950 kJ/mol
# Density = 2.413761 g / cm^3
# Si number density = 24.192675 Si / 1000 Ang^3
#
#
#
# Elastic Constant Matrix: (Units=GPa)
#
#
# Indices 1 2 3 4 5 6 
#
# 1 140.1971 33.4264 49.3657 14.7957 -16.0382 6.5954
# 2 33.4264 86.7060 17.4518 -5.8636 -6.3809 6.2442
# 3 49.3657 17.4518 125.6064 1.8907 -9.3540 18.3891
# 4 14.7957 -5.8636 1.8907 41.2500 2.6145 6.9339
# 5 -16.0382 -6.3809 -9.3540 2.6145 51.9106 3.3348
# 6 6.5954 6.2442 18.3891 6.9339 3.3348 57.2103
#
#
#
# Elastic Compliance Matrix: (Units=1/GPa)
#
#
# Indices 1 2 3 4 5 6 
#
# 1 0.009687 -0.003243 -0.003227 -0.004032 0.002175 0.000636
# 2 -0.003243 0.013213 -0.000374 0.003259 0.000479 -0.001371
# 3 -0.003227 -0.000374 0.009753 0.001092 0.000846 -0.002904
# 4 -0.004032 0.003259 0.001092 0.026784 -0.001780 -0.003384
# 5 0.002175 0.000479 0.000846 -0.001780 0.020336 -0.001545
# 6 0.000636 -0.001371 -0.002904 -0.003384 -0.001545 0.018989
#
#
# Mechanical properties :
#
#
# Convention : Reuss Voigt Hill
#
# Bulk Modulus (GPa) = 52.72902 61.44416 57.08659
# Shear Modulus (GPa) = 42.09741 46.89188 44.49465
#
# Velocity S-wave (km/s) = 4.17596 4.40735 4.29322
# Velocity P-wave (km/s) = 6.71523 7.16608 6.94431
#
# Compressibility (1/GPa) = 0.01896489
#
# Stress axis : x y z
#
# Youngs Moduli (GPa) = 103.23318 75.68202 102.52957
#
# Poissons Ratio (x) = 0.24547 0.33086
# Poissons Ratio (y) = 0.33482 0.03833
# Poissons Ratio (z) = 0.33313 0.02829
#
# Static dielectric constant tensor:
#      x y z
#    x 1.871330 -0.022670 0.039960 
#    y -0.022670 2.184030 0.056950 
#    z 0.039960 0.056950 2.005350 
# 
# From -- ./inp_files/295068.got.cif
#   From: 2010.05.17/outbox.cif.g08.bks.cpg/sg2_148_cif.got.tgz:295068.got - 2010.06.03 11:33:40.
