data_PCOD9092799
_publ_section_title
;
Structure prediction by ZEFSAII (Michael W. Deem and Ramdas Pophale) SiO2 
 PCOD9092799
Probable space group: P -1
;
_chemical_formula_sum "Si O2"
_cell_formula_units_Z 16
_cell_length_a 21.168796
_cell_length_b 23.849981
_cell_length_c 12.049956
_cell_angle_alpha 157.383403
_cell_angle_beta 155.438224
_cell_angle_gamma 17.178359
_cell_volume 670.283879
_symmetry_space_group_name_H-M "P -1"
_symmetry_group_IT_number 2
_symmetry_cell_setting 'triclinic'
loop_
_space_group_symop_operation_xyz
x,y,z
-x,-y,-z
loop_
_atom_site_type_symbol
_atom_site_label
_atom_site_fract_x
_atom_site_fract_y
_atom_site_fract_z
Si Si1 0.865825 0.331129 0.905294
Si Si2 0.006678 0.970333 0.138830
Si Si3 0.849074 0.823661 0.483776
Si Si4 0.706088 0.557555 0.627885
Si Si5 0.748773 0.623422 0.072017
Si Si6 0.406197 0.871833 0.535775
Si Si7 0.603549 0.502503 0.006735
Si Si8 0.735634 0.131930 0.213710
O O1 0.897570 0.421753 0.021525
O O2 0.712108 0.499614 0.066223
O O3 0.740863 0.271713 0.554524
O O4 0.096118 0.106095 0.905421
O O5 0.890289 0.960962 0.838997
O O6 0.153612 0.006922 0.410996
O O7 0.194746 0.730879 0.047766
O O8 0.831643 0.118302 0.225347
O O9 0.063910 0.614959 0.383865
O O10 0.636760 0.969916 0.331447
O O11 0.812517 0.748064 0.394400
O O12 0.744292 0.576655 0.850633
O O13 0.549618 0.770903 0.691976
O O14 0.585455 0.483703 0.298530
O O15 0.505074 0.765972 0.989146
O O16 0.516996 0.668712 0.267033
#
# Coordination Sequence:
#
# PCOD9092799 Si02
#       8
#     2   2   2   2   2   2   2   2
#     4  10  23  42  68  94 124 161 211 262 306 366
#     4  10  21  41  66  95 126 155 217 263 303 368
#     4  12  26  40  61  96 127 171 207 249 316 376
#     4  11  23  43  64  92 127 159 212 265 307 367
#     4  12  27  41  62  94 132 170 201 250 318 381
#     4  11  23  40  70  92 121 166 212 267 306 354
#     4  10  19  42  70  93 118 160 213 268 309 349
#     4  10  23  42  66  96 122 164 210 257 310 369
#
# _framework density 23.870484000000001
#
# number of rings (size 3 to 8) (size 9 to 14) (size 15 to 20)
#    0.000    1.250    3.750    1.875    5.250    2.000 
#    0.000    1.250    0.000    0.000    0.000    0.000 
#    0.000    0.000    0.000    0.000    0.000    0.000 
#
# Total GULP energy -89548.827040 kJ/mol
# GULP energy per Si atom -5596.801690 kJ/mol
# Density = 2.381615 g / cm^3
# Si number density = 23.870484 Si / 1000 Ang^3
#
#
#
# Elastic Constant Matrix: (Units=GPa)
#
#
# Indices 1 2 3 4 5 6 
#
# 1 94.5235 17.8600 -18.7332 15.5424 -8.1350 7.8229
# 2 17.8600 49.3562 -8.4060 4.6757 4.7043 8.2738
# 3 -18.7332 -8.4060 23.9543 9.8657 -14.3559 2.3003
# 4 15.5424 4.6757 9.8657 3.5875 15.2366 4.0521
# 5 -8.1350 4.7043 -14.3559 15.2366 28.3161 10.1176
# 6 7.8229 8.2738 2.3003 4.0521 10.1176 58.5528
#
#
#
# Elastic Compliance Matrix: (Units=1/GPa)
#
#
# Indices 1 2 3 4 5 6 
#
# 1 0.007710 -0.004218 -0.004780 0.013115 -0.006557 -0.000021
# 2 -0.004218 0.022762 0.002143 0.001194 -0.003775 -0.002167
# 3 -0.004780 0.002143 0.014922 0.037391 -0.014143 -0.000394
# 4 0.013115 0.001194 0.037391 -0.014562 0.033267 -0.008130
# 5 -0.006557 -0.003775 -0.014143 0.033267 0.009708 -0.002015
# 6 -0.000021 -0.002167 -0.000394 -0.008130 -0.002015 0.018314
#
#
# Mechanical properties :
#
#
# Convention : Reuss Voigt Hill
#
# Bulk Modulus (GPa) = 31.56140 16.58618 24.07379
# Shear Modulus (GPa) = 60.14987 29.89883 45.02435
#
# Velocity S-wave (km/s) = 5.02525 3.54297 4.34774
# Velocity P-wave (km/s) = 6.84993 4.86830 5.94230
#
# Compressibility (1/GPa) = 0.03168427
#
# Stress axis : x y z
#
# Youngs Moduli (GPa) = 129.70424 43.93247 67.01350
#
# Poissons Ratio (x) = 0.18531 0.32034
# Poissons Ratio (y) = 0.54709 -0.14362
# Poissons Ratio (z) = 0.62001 -0.09415
#
# Static dielectric constant tensor:
#      x y z
#    x 1.939470 0.054650 0.015660 
#    y 0.054650 1.890630 0.006290 
#    z 0.015660 0.006290 1.940670 
# 
# From -- ./inp_files/427637.got.cif
#   From: 2010.05.17/outbox.cif.g08.bks.cpg/sg2_214_cif.got.tgz:427637.got - 2010.06.03 11:33:40.
