data_PCOD9092767
_publ_section_title
;
Structure prediction by ZEFSAII (Michael W. Deem and Ramdas Pophale) SiO2 
 PCOD9092767
Probable space group: P -1
;
_chemical_formula_sum "Si O2"
_cell_formula_units_Z 16
_cell_length_a 7.799314
_cell_length_b 8.944174
_cell_length_c 15.534743
_cell_angle_alpha 116.672582
_cell_angle_beta 80.016098
_cell_angle_gamma 131.591501
_cell_volume 711.533276
_symmetry_space_group_name_H-M "P -1"
_symmetry_group_IT_number 2
_symmetry_cell_setting 'triclinic'
loop_
_space_group_symop_operation_xyz
x,y,z
-x,-y,-z
loop_
_atom_site_type_symbol
_atom_site_label
_atom_site_fract_x
_atom_site_fract_y
_atom_site_fract_z
Si Si1 0.406058 0.063961 0.097513
Si Si2 0.571441 0.506291 0.241197
Si Si3 0.548492 0.677502 0.609770
Si Si4 0.881215 0.202336 0.689169
Si Si5 0.776701 0.142187 0.195099
Si Si6 0.586914 0.322178 0.827100
Si Si7 0.955695 0.488425 0.400334
Si Si8 0.962833 0.785032 0.977541
O O1 0.473765 0.297690 0.133848
O O2 0.552683 0.113725 0.182217
O O3 0.127370 0.866652 0.067748
O O4 0.500000 0.000000 0.000000
O O5 0.442201 0.396779 0.315354
O O6 0.494844 0.630181 0.237881
O O7 0.849069 0.653109 0.267646
O O8 0.500000 0.500000 0.500000
O O9 0.310220 0.626366 0.612439
O O10 0.752279 0.940847 0.639512
O O11 0.743554 0.260311 0.769277
O O12 0.896513 0.285096 0.611051
O O13 0.942430 0.309386 0.300224
O O14 0.924165 0.235795 0.120194
O O15 0.651933 0.890564 0.162826
O O16 0.719761 0.533071 0.934963
O O17 0.000000 0.500000 0.500000
O O18 0.000000 0.000000 0.000000
#
# Coordination Sequence:
#
# PCOD9092767 Si02
#       8
#     2   2   2   2   2   2   2   2
#     4  10  19  42  68  89 139 180 218 290 336 395
#     4  11  24  44  67 102 139 179 233 287 337 418
#     4  11  26  45  68 100 136 179 234 286 349 415
#     4  11  23  47  70  97 141 185 228 283 355 406
#     4  11  23  45  66 101 141 177 235 283 341 423
#     4  12  24  42  74 101 137 187 228 282 354 410
#     4  11  24  42  71 102 137 181 230 285 342 416
#     4  11  23  41  68 101 138 179 230 287 340 404
#
# _framework density 22.486647999999999
#
# number of rings (size 3 to 8) (size 9 to 14) (size 15 to 20)
#    0.000    1.000    6.250    0.750    1.750    6.500 
#    2.250    0.000    0.000    0.000    0.000    0.000 
#    0.000    0.000    0.000    0.000    0.000    0.000 
#
# Total GULP energy -89269.171844 kJ/mol
# GULP energy per Si atom -5579.323240 kJ/mol
# Density = 2.243547 g / cm^3
# Si number density = 22.486648 Si / 1000 Ang^3
#
#
#
# Elastic Constant Matrix: (Units=GPa)
#
#
# Indices 1 2 3 4 5 6 
#
# 1 60.5157 11.9660 21.2894 3.9212 6.1418 -8.1567
# 2 11.9660 121.9039 27.2896 36.9014 4.6748 4.8554
# 3 21.2894 27.2896 99.7584 18.3580 -3.2029 -3.9630
# 4 3.9212 36.9014 18.3580 32.0588 -7.0661 -4.1149
# 5 6.1418 4.6748 -3.2029 -7.0661 25.3117 -4.5107
# 6 -8.1567 4.8554 -3.9630 -4.1149 -4.5107 23.7946
#
#
#
# Elastic Compliance Matrix: (Units=1/GPa)
#
#
# Indices 1 2 3 4 5 6 
#
# 1 0.019234 -0.001709 -0.003847 0.001874 -0.003244 0.006010
# 2 -0.001709 0.015551 -0.000782 -0.020644 -0.009986 -0.009352
# 3 -0.003847 -0.000782 0.012072 -0.005264 0.001165 0.000162
# 4 0.001874 -0.020644 -0.005264 0.065732 0.024608 0.020011
# 5 -0.003244 -0.009986 0.001165 0.024608 0.051866 0.015208
# 6 0.006010 -0.009352 0.000162 0.020011 0.015208 0.052365
#
#
# Mechanical properties :
#
#
# Convention : Reuss Voigt Hill
#
# Bulk Modulus (GPa) = 29.25801 44.80756 37.03278
# Shear Modulus (GPa) = 20.75625 31.00858 25.88241
#
# Velocity S-wave (km/s) = 3.04147 3.71749 3.39634
# Velocity P-wave (km/s) = 5.03722 6.19644 5.64665
#
# Compressibility (1/GPa) = 0.03417868
#
# Stress axis : x y z
#
# Youngs Moduli (GPa) = 51.99118 64.30591 82.83705
#
# Poissons Ratio (x) = 0.10990 0.31872
# Poissons Ratio (y) = 0.08886 0.06481
# Poissons Ratio (z) = 0.20004 0.05031
#
# Static dielectric constant tensor:
#      x y z
#    x 1.926280 -0.034940 -0.084340 
#    y -0.034940 1.909020 0.064110 
#    z -0.084340 0.064110 1.939740 
# 
# From -- ./inp_files/206592.got.cif
#   From: 2010.05.17/outbox.cif.g08.bks.cpg/sg2_104_cif.got.tgz:206592.got - 2010.06.03 11:33:40.
