data_PCOD9092086
_publ_section_title
;
Structure prediction by ZEFSAII (Michael W. Deem and Ramdas Pophale) SiO2 
 PCOD9092086
Probable space group: P -1
;
_chemical_formula_sum "Si O2"
_cell_formula_units_Z 16
_cell_length_a 19.501041
_cell_length_b 17.226661
_cell_length_c 6.708070
_cell_angle_alpha 63.165595
_cell_angle_beta 43.234995
_cell_angle_gamma 29.512557
_cell_volume 639.447805
_symmetry_space_group_name_H-M "P -1"
_symmetry_group_IT_number 2
_symmetry_cell_setting 'triclinic'
loop_
_space_group_symop_operation_xyz
x,y,z
-x,-y,-z
loop_
_atom_site_type_symbol
_atom_site_label
_atom_site_fract_x
_atom_site_fract_y
_atom_site_fract_z
Si Si1 0.484827 0.933959 0.381931
Si Si2 0.112985 0.852905 0.220810
Si Si3 0.907734 0.188760 0.135540
Si Si4 0.437679 0.417903 0.395029
Si Si5 0.209519 0.294822 0.634124
Si Si6 0.181592 0.072653 0.181900
Si Si7 0.142776 0.531222 0.613212
Si Si8 0.614424 0.131013 0.613396
O O1 0.367050 0.115215 0.376571
O O2 0.687037 0.794075 0.258432
O O3 0.514675 0.848884 0.232386
O O4 0.322765 0.004775 0.787571
O O5 0.973320 0.888142 0.588660
O O6 0.163652 0.774532 0.984696
O O7 0.341394 0.705798 0.995534
O O8 0.961286 0.052899 0.271013
O O9 0.735665 0.380412 0.389763
O O10 0.140486 0.055804 0.775255
O O11 0.337313 0.435186 0.412475
O O12 0.505574 0.302778 0.568122
O O13 0.191499 0.411682 0.506410
O O14 0.984134 0.418039 0.992341
O O15 0.019708 0.273514 0.363076
O O16 0.341462 0.915499 0.194584
#
# Coordination Sequence:
#
# PCOD9092086 Si02
#       8
#     2   2   2   2   2   2   2   2
#     4  10  19  40  66  86 119 166 201 247 318 362
#     4   9  20  36  56  90 130 161 200 253 300 363
#     4   9  18  36  58  86 127 167 201 248 305 356
#     4  11  20  37  65  90 119 171 208 241 309 371
#     4   9  19  37  64  83 118 164 197 253 316 360
#     4  10  22  40  61  91 128 156 198 262 305 357
#     4  10  20  38  60  88 121 157 203 258 307 358
#     4  10  21  40  63  92 125 161 208 251 299 371
#
# _framework density 25.021587
#
# number of rings (size 3 to 8) (size 9 to 14) (size 15 to 20)
#    0.000    2.250    1.250    2.625    0.000    0.500 
#    6.750   11.875    0.000    0.000    0.000    0.000 
#    0.000    0.000    0.000    0.000    0.000    0.000 
#
# Total GULP energy -89576.711390 kJ/mol
# GULP energy per Si atom -5598.544462 kJ/mol
# Density = 2.496464 g / cm^3
# Si number density = 25.021587 Si / 1000 Ang^3
#
#
#
# Elastic Constant Matrix: (Units=GPa)
#
#
# Indices 1 2 3 4 5 6 
#
# 1 102.8513 26.0884 30.7659 -3.1072 -21.1923 11.1468
# 2 26.0884 111.8700 37.8432 -4.9795 14.1184 3.2461
# 3 30.7659 37.8432 113.8528 -10.6453 -22.3017 -2.4567
# 4 -3.1072 -4.9795 -10.6453 37.2210 2.6859 -3.0227
# 5 -21.1923 14.1184 -22.3017 2.6859 43.3830 7.0553
# 6 11.1468 3.2461 -2.4567 -3.0227 7.0553 29.2965
#
#
#
# Elastic Compliance Matrix: (Units=1/GPa)
#
#
# Indices 1 2 3 4 5 6 
#
# 1 0.013409 -0.003700 -0.000968 -0.000820 0.008427 -0.006887
# 2 -0.003700 0.012473 -0.004726 0.000776 -0.008635 0.001789
# 3 -0.000968 -0.004726 0.012240 0.002308 0.007144 0.000436
# 4 -0.000820 0.000776 0.002308 0.027997 -0.001809 0.003744
# 5 0.008427 -0.008635 0.007144 -0.001809 0.035449 -0.010374
# 6 -0.006887 0.001789 0.000436 0.003744 -0.010374 0.039477
#
#
# Mechanical properties :
#
#
# Convention : Reuss Voigt Hill
#
# Bulk Modulus (GPa) = 51.72309 57.55214 54.63762
# Shear Modulus (GPa) = 30.07012 37.57186 33.82099
#
# Velocity S-wave (km/s) = 3.47041 3.87922 3.68050
# Velocity P-wave (km/s) = 6.06421 6.56623 6.32021
#
# Compressibility (1/GPa) = 0.01933372
#
# Stress axis : x y z
#
# Youngs Moduli (GPa) = 74.57737 80.17337 81.69679
#
# Poissons Ratio (x) = 0.29661 0.07910
# Poissons Ratio (y) = 0.27591 0.38613
# Poissons Ratio (z) = 0.07221 0.37893
#
# Static dielectric constant tensor:
#      x y z
#    x 2.010720 0.005230 0.009180 
#    y 0.005230 1.973500 0.005610 
#    z 0.009180 0.005610 1.982320 
# 
# From -- ./inp_files/348393.got.cif
#   From: 2010.05.17/outbox.cif.g08.bks.cpg/sg2_175_cif.got.tgz:348393.got - 2010.06.03 11:33:40.
