data_PCOD9092627
_publ_section_title
;
Structure prediction by ZEFSAII (Michael W. Deem and Ramdas Pophale) SiO2 
 PCOD9092627
Probable space group: P -1
;
_chemical_formula_sum "Si O2"
_cell_formula_units_Z 16
_cell_length_a 12.350474
_cell_length_b 9.687495
_cell_length_c 12.989646
_cell_angle_alpha 49.357630
_cell_angle_beta 122.897451
_cell_angle_gamma 83.916690
_cell_volume 685.507256
_symmetry_space_group_name_H-M "P -1"
_symmetry_group_IT_number 2
_symmetry_cell_setting 'triclinic'
loop_
_space_group_symop_operation_xyz
x,y,z
-x,-y,-z
loop_
_atom_site_type_symbol
_atom_site_label
_atom_site_fract_x
_atom_site_fract_y
_atom_site_fract_z
Si Si1 0.232584 0.199464 0.689840
Si Si2 0.499064 0.802014 0.366045
Si Si3 0.021265 0.885776 0.955874
Si Si4 0.893093 0.281402 0.262066
Si Si5 0.128468 0.391052 0.322556
Si Si6 0.329856 0.251094 0.926191
Si Si7 0.636589 0.378825 0.472104
Si Si8 0.714915 0.250392 0.005750
O O1 0.189090 0.036092 0.774201
O O2 0.118532 0.395104 0.440655
O O3 0.228754 0.320511 0.732244
O O4 0.449618 0.963594 0.880950
O O5 0.651588 0.789503 0.494526
O O6 0.602511 0.573311 0.443723
O O7 0.422545 0.746555 0.439903
O O8 0.332192 0.072615 0.089211
O O9 0.207563 0.763631 0.057168
O O10 0.028270 0.663072 0.085510
O O11 0.851913 0.130647 0.680497
O O12 0.000000 0.000000 0.000000
O O13 0.760344 0.498911 0.175906
O O14 0.767520 0.343960 0.072008
O O15 0.038565 0.289665 0.296762
O O16 0.000000 0.000000 0.500000
O O17 0.504622 0.550500 0.224056
#
# Coordination Sequence:
#
# PCOD9092627 Si02
#       8
#     2   2   2   2   2   2   2   2
#     4  10  23  44  77 105 139 187 252 317 359 431
#     4  10  19  41  71 105 141 181 238 315 353 433
#     4  12  25  43  79 111 146 190 244 314 370 428
#     4  12  28  48  68 105 156 201 240 299 372 450
#     4  11  23  45  69 106 149 191 240 303 369 431
#     4  10  23  43  72 106 140 189 250 301 377 426
#     4  11  21  41  73 108 146 183 241 299 379 424
#     4  12  26  48  69 112 150 189 249 303 366 448
#
# _framework density 23.340378999999999
#
# number of rings (size 3 to 8) (size 9 to 14) (size 15 to 20)
#    0.000    1.000    5.000    1.500    1.750    3.500 
#    4.500    1.250    0.000    0.000    0.000    0.000 
#    0.000    0.000    0.000    0.000    0.000    0.000 
#
# Total GULP energy -89564.407308 kJ/mol
# GULP energy per Si atom -5597.775457 kJ/mol
# Density = 2.328726 g / cm^3
# Si number density = 23.340379 Si / 1000 Ang^3
#
#
#
# Elastic Constant Matrix: (Units=GPa)
#
#
# Indices 1 2 3 4 5 6 
#
# 1 72.6023 13.2585 1.5439 -10.4404 -11.5257 16.1353
# 2 13.2585 98.2409 10.9980 2.1068 2.5419 6.3250
# 3 1.5439 10.9980 110.3734 -3.9120 -5.8765 1.4587
# 4 -10.4404 2.1068 -3.9120 38.3089 11.3751 0.3419
# 5 -11.5257 2.5419 -5.8765 11.3751 36.1963 -1.1548
# 6 16.1353 6.3250 1.4587 0.3419 -1.1548 35.1615
#
#
#
# Elastic Compliance Matrix: (Units=1/GPa)
#
#
# Indices 1 2 3 4 5 6 
#
# 1 0.016957 -0.002050 0.000417 0.003579 0.004253 -0.007325
# 2 -0.002050 0.010698 -0.001127 -0.000853 -0.001350 -0.000973
# 3 0.000417 -0.001127 0.009275 0.000682 0.001493 -0.000331
# 4 0.003579 -0.000853 0.000682 0.029607 -0.008060 -0.002070
# 5 0.004253 -0.001350 0.001493 -0.008060 0.031831 -0.000647
# 6 -0.007325 -0.000973 -0.000331 -0.002070 -0.000647 0.031989
#
#
# Mechanical properties :
#
#
# Convention : Reuss Voigt Hill
#
# Bulk Modulus (GPa) = 31.83707 36.97971 34.40839
# Shear Modulus (GPa) = 34.16557 38.96108 36.56333
#
# Velocity S-wave (km/s) = 3.83011 4.09009 3.96223
# Velocity P-wave (km/s) = 5.76451 6.17925 5.97548
#
# Compressibility (1/GPa) = 0.03140993
#
# Stress axis : x y z
#
# Youngs Moduli (GPa) = 58.97271 93.47767 107.82128
#
# Poissons Ratio (x) = 0.19167 -0.04498
# Poissons Ratio (y) = 0.12092 0.12146
# Poissons Ratio (z) = -0.02460 0.10531
#
# Static dielectric constant tensor:
#      x y z
#    x 1.919970 0.031850 0.025720 
#    y 0.031850 1.832250 0.024810 
#    z 0.025720 0.024810 1.907510 
# 
# From -- ./inp_files/529407.got.cif
#   From: 2010.05.17/outbox.cif.g08.bks.cpg/sg2_265_cif.got.tgz:529407.got - 2010.06.03 11:33:40.
