data_PCOD9092178
_publ_section_title
;
Structure prediction by ZEFSAII (Michael W. Deem and Ramdas Pophale) SiO2 
 PCOD9092178
Probable space group: P -1
;
_chemical_formula_sum "Si O2"
_cell_formula_units_Z 14
_cell_length_a 21.522296
_cell_length_b 11.991496
_cell_length_c 9.313254
_cell_angle_alpha 144.796389
_cell_angle_beta 131.154711
_cell_angle_gamma 28.533006
_cell_volume 646.092299
_symmetry_space_group_name_H-M "P -1"
_symmetry_group_IT_number 2
_symmetry_cell_setting 'triclinic'
loop_
_space_group_symop_operation_xyz
x,y,z
-x,-y,-z
loop_
_atom_site_type_symbol
_atom_site_label
_atom_site_fract_x
_atom_site_fract_y
_atom_site_fract_z
Si Si1 0.363834 0.417595 0.654994
Si Si2 0.728672 0.108737 0.201860
Si Si3 0.065062 0.321676 0.710004
Si Si4 0.869579 0.396781 0.370344
Si Si5 0.526581 0.147617 0.893795
Si Si6 0.893600 0.348531 0.022321
Si Si7 0.699394 0.373665 0.712707
O O1 0.284330 0.735530 0.793254
O O2 0.266010 0.446951 0.616543
O O3 0.464636 0.310040 0.814633
O O4 0.439655 0.141700 0.366359
O O5 0.652884 0.365932 0.484877
O O6 0.875668 0.821385 0.191211
O O7 0.656008 0.039085 0.002588
O O8 0.074442 0.523776 0.888121
O O9 0.925513 0.477527 0.627283
O O10 0.177648 0.995370 0.443883
O O11 0.861901 0.459166 0.255865
O O12 0.979792 0.026623 0.172748
O O13 0.415571 0.398388 0.106867
O O14 0.770884 0.448915 0.879937
#
# Coordination Sequence:
#
# PCOD9092178 Si02
#       7
#     2   2   2   2   2   2   2
#     4  11  25  42  63  90 130 167 203 251 315 371
#     4  10  24  41  62  96 126 160 208 256 307 371
#     4   9  22  38  64  97 117 160 205 259 311 353
#     4  10  21  40  63  95 122 161 209 254 305 369
#     4  11  23  44  62  90 125 170 209 250 307 364
#     4  10  19  40  67  91 125 157 211 258 303 363
#     4   9  21  40  64  94 119 160 212 253 302 359
#
# _framework density 21.668731000000001
#
# number of rings (size 3 to 8) (size 9 to 14) (size 15 to 20)
#    0.857    1.143    1.429    1.286    2.000    3.429 
#    2.571    1.429    0.000    0.000    0.000    0.000 
#    0.000    0.000    0.000    0.000    0.000    0.000 
#
# Total GULP energy -78189.535102 kJ/mol
# GULP energy per Si atom -5584.966793 kJ/mol
# Density = 2.161941 g / cm^3
# Si number density = 21.668731 Si / 1000 Ang^3
#
#
#
# Elastic Constant Matrix: (Units=GPa)
#
#
# Indices 1 2 3 4 5 6 
#
# 1 44.0197 9.2801 8.1507 7.2235 13.5506 6.3635
# 2 9.2801 38.5125 8.6841 0.1828 -0.5845 -2.8334
# 3 8.1507 8.6841 61.9767 -16.9405 1.9557 -7.7649
# 4 7.2235 0.1828 -16.9405 31.0795 -7.0089 7.1474
# 5 13.5506 -0.5845 1.9557 -7.0089 30.0528 5.6979
# 6 6.3635 -2.8334 -7.7649 7.1474 5.6979 39.7632
#
#
#
# Elastic Compliance Matrix: (Units=1/GPa)
#
#
# Indices 1 2 3 4 5 6 
#
# 1 0.033995 -0.006862 -0.007438 -0.015575 -0.018237 -0.001969
# 2 -0.006862 0.028474 -0.002897 0.000169 0.003491 0.002031
# 3 -0.007438 -0.002897 0.021460 0.014079 0.004814 0.001954
# 4 -0.015575 0.000169 0.014079 0.049140 0.018758 -0.006267
# 5 -0.018237 0.003491 0.004814 0.018758 0.046758 -0.005965
# 6 -0.001969 0.002031 0.001954 -0.006267 -0.005965 0.027972
#
#
# Mechanical properties :
#
#
# Convention : Reuss Voigt Hill
#
# Bulk Modulus (GPa) = 20.18731 21.85987 21.02359
# Shear Modulus (GPa) = 19.32703 28.07202 23.69953
#
# Velocity S-wave (km/s) = 2.98976 3.60322 3.31073
# Velocity P-wave (km/s) = 4.61029 5.23651 4.93335
#
# Compressibility (1/GPa) = 0.04953607
#
# Stress axis : x y z
#
# Youngs Moduli (GPa) = 29.41595 35.11982 46.59728
#
# Poissons Ratio (x) = 0.24100 0.34657
# Poissons Ratio (y) = 0.20186 0.13499
# Poissons Ratio (z) = 0.21879 0.10174
#
# Static dielectric constant tensor:
#      x y z
#    x 1.736020 -0.013250 -0.035260 
#    y -0.013250 1.790850 0.024030 
#    z -0.035260 0.024030 1.845480 
# 
# From -- ./inp_files/66394.got.cif
#   From: 2010.05.17/outbox.cif.g08.bks.cpg/sg2_34_cif.got.tgz:66394.got - 2010.06.03 11:33:40.
