data_PCOD9092745
_publ_section_title
;
Structure prediction by ZEFSAII (Michael W. Deem and Ramdas Pophale) SiO2 
 PCOD9092745
Probable space group: P -1
;
_chemical_formula_sum "Si O2"
_cell_formula_units_Z 16
_cell_length_a 12.804099
_cell_length_b 8.852968
_cell_length_c 6.940001
_cell_angle_alpha 73.215203
_cell_angle_beta 86.744506
_cell_angle_gamma 64.838481
_cell_volume 679.718105
_symmetry_space_group_name_H-M "P -1"
_symmetry_group_IT_number 2
_symmetry_cell_setting 'triclinic'
loop_
_space_group_symop_operation_xyz
x,y,z
-x,-y,-z
loop_
_atom_site_type_symbol
_atom_site_label
_atom_site_fract_x
_atom_site_fract_y
_atom_site_fract_z
Si Si1 0.441284 0.803874 0.636659
Si Si2 0.811343 0.055471 0.533629
Si Si3 0.364858 0.340550 0.048515
Si Si4 0.876102 0.993402 0.989730
Si Si5 0.982857 0.383434 0.880050
Si Si6 0.806184 0.691750 0.591283
Si Si7 0.393852 0.172043 0.707482
Si Si8 0.196826 0.719312 0.839700
O O1 0.319761 0.818382 0.566709
O O2 0.529250 0.666792 0.827535
O O3 0.512725 0.790200 0.438706
O O4 0.413988 0.983867 0.689386
O O5 0.871509 0.163552 0.379270
O O6 0.834104 0.860031 0.540811
O O7 0.833177 0.043557 0.760361
O O8 0.279104 0.301605 0.220696
O O9 0.400350 0.200874 0.922541
O O10 0.302378 0.530242 0.886029
O O11 0.784659 0.135429 0.086561
O O12 0.903725 0.793279 0.105184
O O13 0.000000 0.000000 0.000000
O O14 0.891162 0.325598 0.007406
O O15 0.918566 0.511605 0.666911
O O16 0.000000 0.500000 0.000000
O O17 0.732355 0.700521 0.407248
#
# Coordination Sequence:
#
# PCOD9092745 Si02
#       8
#     2   2   2   2   2   2   2   2
#     4   9  20  35  59  94 124 157 206 252 299 359
#     4  11  22  40  60  89 128 159 203 254 304 366
#     4  10  20  38  62  88 128 164 204 247 298 364
#     4  10  23  42  64  84 126 164 195 255 316 353
#     4  10  19  42  67  88 117 159 207 258 302 357
#     4   9  20  37  61  93 124 155 208 254 298 361
#     4   9  18  36  62  92 125 161 199 255 302 352
#     4  10  25  40  61  91 126 164 201 244 316 369
#
# _framework density 23.539166999999999
#
# number of rings (size 3 to 8) (size 9 to 14) (size 15 to 20)
#    0.000    2.250    1.250    1.125    0.000    9.500 
#    0.000    3.125    0.000    0.000    0.000    0.000 
#    0.000    0.000    0.000    0.000    0.000    0.000 
#
# Total GULP energy -89303.914488 kJ/mol
# GULP energy per Si atom -5581.494656 kJ/mol
# Density = 2.348559 g / cm^3
# Si number density = 23.539167 Si / 1000 Ang^3
#
#
#
# Elastic Constant Matrix: (Units=GPa)
#
#
# Indices 1 2 3 4 5 6 
#
# 1 36.1638 12.3270 41.4380 -0.9168 0.8361 -2.6370
# 2 12.3270 99.6095 23.0152 -21.6058 -1.4047 -11.4901
# 3 41.4380 23.0152 117.1756 -3.9343 3.0918 -14.7804
# 4 -0.9168 -21.6058 -3.9343 49.9701 1.3904 0.4549
# 5 0.8361 -1.4047 3.0918 1.3904 31.9380 -3.6255
# 6 -2.6370 -11.4901 -14.7804 0.4549 -3.6255 16.5692
#
#
#
# Elastic Compliance Matrix: (Units=1/GPa)
#
#
# Indices 1 2 3 4 5 6 
#
# 1 0.048517 -0.003554 -0.017866 -0.001931 -0.000840 -0.010811
# 2 -0.003554 0.012606 -0.000031 0.005269 0.001364 0.008302
# 3 -0.017866 -0.000031 0.016364 0.000835 0.000180 0.011748
# 4 -0.001931 0.005269 0.000835 0.022300 -0.000384 0.003396
# 5 -0.000840 0.001364 0.000180 -0.000384 0.032306 0.008052
# 6 -0.010811 0.008302 0.011748 0.003396 0.008052 0.076538
#
#
# Mechanical properties :
#
#
# Convention : Reuss Voigt Hill
#
# Bulk Modulus (GPa) = 28.91431 45.16768 37.04100
# Shear Modulus (GPa) = 19.00697 31.44002 25.22349
#
# Velocity S-wave (km/s) = 2.84467 3.65862 3.27701
# Velocity P-wave (km/s) = 4.80621 6.08911 5.48530
#
# Compressibility (1/GPa) = 0.03458495
#
# Stress axis : x y z
#
# Youngs Moduli (GPa) = 20.61135 79.32700 61.11127
#
# Poissons Ratio (x) = 0.28193 1.09180
# Poissons Ratio (y) = 0.07325 0.00190
# Poissons Ratio (z) = 0.36824 0.00246
#
# Static dielectric constant tensor:
#      x y z
#    x 2.028510 -0.031850 -0.066970 
#    y -0.031850 1.922140 -0.033920 
#    z -0.066970 -0.033920 1.936810 
# 
# From -- ./inp_files/90142.got.cif
#   From: 2010.05.17/outbox.cif.g08.bks.cpg/sg2_46_cif.got.tgz:90142.got - 2010.06.03 11:33:40.
