data_PCOD9092800
_publ_section_title
;
Structure prediction by ZEFSAII (Michael W. Deem and Ramdas Pophale) SiO2 
 PCOD9092800
Probable space group: P -1
;
_chemical_formula_sum "Si O2"
_cell_formula_units_Z 16
_cell_length_a 16.468366
_cell_length_b 11.906553
_cell_length_c 9.245110
_cell_angle_alpha 128.822258
_cell_angle_beta 54.862012
_cell_angle_gamma 153.578600
_cell_volume 627.925997
_symmetry_space_group_name_H-M "P -1"
_symmetry_group_IT_number 2
_symmetry_cell_setting 'triclinic'
loop_
_space_group_symop_operation_xyz
x,y,z
-x,-y,-z
loop_
_atom_site_type_symbol
_atom_site_label
_atom_site_fract_x
_atom_site_fract_y
_atom_site_fract_z
Si Si1 0.237869 0.197050 0.913614
Si Si2 0.853379 0.228404 0.346050
Si Si3 0.652192 0.646309 0.744532
Si Si4 0.259421 0.506022 0.970609
Si Si5 0.324918 0.036305 0.189671
Si Si6 0.191189 0.666597 0.808284
Si Si7 0.129519 0.295453 0.610516
Si Si8 0.396540 0.957127 0.331726
O O1 0.441576 0.410475 0.814868
O O2 0.186632 0.283472 0.959139
O O3 0.128392 0.918820 0.766627
O O4 0.247274 0.227215 0.101526
O O5 0.850060 0.262956 0.209730
O O6 0.660604 0.054017 0.463392
O O7 0.000000 0.500000 0.500000
O O8 0.713171 0.851572 0.742206
O O9 0.699159 0.559140 0.538547
O O10 0.472917 0.742987 0.905859
O O11 0.168162 0.386316 0.810005
O O12 0.267039 0.665368 0.177526
O O13 0.349879 0.028914 0.325202
O O14 0.196786 0.757172 0.026945
O O15 0.070580 0.377000 0.670363
O O16 0.397804 0.852789 0.733575
O O17 0.000000 0.000000 0.500000
#
# Coordination Sequence:
#
# PCOD9092800 Si02
#       8
#     2   2   2   2   2   2   2   2
#     4  10  23  43  65  91 128 165 216 264 316 380
#     4  12  28  42  62  96 132 172 210 261 326 387
#     4  10  23  41  67  94 124 170 213 264 319 373
#     4  10  22  40  64  98 122 158 218 266 316 373
#     4  10  19  42  70  93 120 159 221 275 308 365
#     4  11  22  46  66  92 127 167 221 263 310 386
#     4  12  26  40  62  96 133 171 206 260 327 386
#     4  11  22  42  72  94 122 169 219 272 314 368
#
# _framework density 25.480710999999999
#
# number of rings (size 3 to 8) (size 9 to 14) (size 15 to 20)
#    0.000    1.250    3.750    1.875    7.000    2.000 
#    0.000    2.500    0.000    0.000    0.000    0.000 
#    0.000    0.000    0.000    0.000    0.000    0.000 
#
# Total GULP energy -89591.507005 kJ/mol
# GULP energy per Si atom -5599.469188 kJ/mol
# Density = 2.542272 g / cm^3
# Si number density = 25.480711 Si / 1000 Ang^3
#
#
#
# Elastic Constant Matrix: (Units=GPa)
#
#
# Indices 1 2 3 4 5 6 
#
# 1 76.0038 27.0479 26.9962 -2.5184 -14.3126 -23.0471
# 2 27.0479 92.0548 27.1691 18.6837 -8.3855 -19.3575
# 3 26.9962 27.1691 109.4961 14.9373 -20.0828 -13.2126
# 4 -2.5184 18.6837 14.9373 46.7623 -1.5449 -10.6851
# 5 -14.3126 -8.3855 -20.0828 -1.5449 43.8585 2.3510
# 6 -23.0471 -19.3575 -13.2126 -10.6851 2.3510 51.7036
#
#
#
# Elastic Compliance Matrix: (Units=1/GPa)
#
#
# Indices 1 2 3 4 5 6 
#
# 1 0.018527 -0.003850 -0.002764 0.005145 0.003850 0.006999
# 2 -0.003850 0.013890 -0.001515 -0.004782 0.000425 0.002090
# 3 -0.002764 -0.001515 0.011344 -0.002968 0.003882 0.000310
# 4 0.005145 -0.004782 -0.002968 0.025675 0.000039 0.005049
# 5 0.003850 0.000425 0.003882 0.000039 0.025826 0.001701
# 6 0.006999 0.002090 0.000310 0.005049 0.001701 0.024289
#
#
# Mechanical properties :
#
#
# Convention : Reuss Voigt Hill
#
# Bulk Modulus (GPa) = 36.35755 48.88679 42.62217
# Shear Modulus (GPa) = 34.48845 41.55430 38.02137
#
# Velocity S-wave (km/s) = 3.68300 4.04272 3.86704
# Velocity P-wave (km/s) = 5.69084 6.40460 6.05824
#
# Compressibility (1/GPa) = 0.02750460
#
# Stress axis : x y z
#
# Youngs Moduli (GPa) = 53.97568 71.99438 88.14987
#
# Poissons Ratio (x) = 0.27716 0.24362
# Poissons Ratio (y) = 0.20779 0.13354
# Poissons Ratio (z) = 0.14917 0.10906
#
# Static dielectric constant tensor:
#      x y z
#    x 1.964960 0.066580 -0.020250 
#    y 0.066580 2.151230 -0.006110 
#    z -0.020250 -0.006110 1.896090 
# 
# From -- ./inp_files/206928.got.cif
#   From: 2010.05.17/outbox.cif.g08.bks.cpg/sg2_104_cif.got.tgz:206928.got - 2010.06.03 11:33:40.
