data_PCOD9092298
_publ_section_title
;
Structure prediction by ZEFSAII (Michael W. Deem and Ramdas Pophale) SiO2 
 PCOD9092298
Probable space group: P -1
;
_chemical_formula_sum "Si O2"
_cell_formula_units_Z 13
_cell_length_a 11.864791
_cell_length_b 11.268989
_cell_length_c 14.399196
_cell_angle_alpha 32.819576
_cell_angle_beta 40.091079
_cell_angle_gamma 63.847599
_cell_volume 547.828127
_symmetry_space_group_name_H-M "P -1"
_symmetry_group_IT_number 2
_symmetry_cell_setting 'triclinic'
loop_
_space_group_symop_operation_xyz
x,y,z
-x,-y,-z
loop_
_atom_site_type_symbol
_atom_site_label
_atom_site_fract_x
_atom_site_fract_y
_atom_site_fract_z
Si Si1 0.472849 0.033316 0.649855
Si Si2 0.109304 0.353856 0.552961
Si Si3 0.655048 0.577782 0.463825
Si Si4 0.000000 0.500000 0.000000
Si Si5 0.541989 0.661765 0.962142
Si Si6 0.784613 0.440298 0.025763
Si Si7 0.192024 0.233321 0.954929
O O1 0.369450 0.179121 0.658242
O O2 0.682120 0.263394 0.305577
O O3 0.313439 0.790081 0.839305
O O4 0.543825 0.913314 0.761732
O O5 0.162259 0.376196 0.613367
O O6 0.337529 0.490484 0.269886
O O7 0.000000 0.500000 0.500000
O O8 0.957192 0.058789 0.802153
O O9 0.415012 0.312213 0.808814
O O10 0.717031 0.582229 0.316068
O O11 0.978650 0.414710 0.182899
O O12 0.054186 0.279437 0.080450
O O13 0.722461 0.642524 0.909231
O O14 0.500000 0.500000 0.000000
#
# Coordination Sequence:
#
# PCOD9092298 Si02
#       7
#     2   2   2   1   2   2   2
#     4  10  19  40  70  89 129 185 221 268 344 402
#     4  12  25  44  69 101 138 178 231 286 335 413
#     4  11  23  47  67  97 137 184 221 284 354 398
#     4  12  22  40  66 102 136 172 230 280 336 410
#     4  10  22  38  66  99 130 176 226 272 341 397
#     4  10  21  38  66  97 134 183 217 282 341 398
#     4  11  26  41  72 100 133 184 231 278 347 412
#
# _framework density 23.730069
#
# number of rings (size 3 to 8) (size 9 to 14) (size 15 to 20)
#    0.000    1.231    3.077    2.308    4.308    3.077 
#    0.000    3.846    6.769    0.000    0.000    0.000 
#    0.000    0.000    0.000    0.000    0.000    0.000 
#
# Total GULP energy -72451.191143 kJ/mol
# GULP energy per Si atom -5573.168549 kJ/mol
# Density = 2.367606 g / cm^3
# Si number density = 23.730069 Si / 1000 Ang^3
#
#
#
# Elastic Constant Matrix: (Units=GPa)
#
#
# Indices 1 2 3 4 5 6 
#
# 1 156.0768 23.6002 28.6205 -34.1646 -9.7903 -17.7873
# 2 23.6002 49.7474 -7.4485 34.2712 -9.4545 2.8561
# 3 28.6205 -7.4485 39.0990 2.9551 -6.2928 10.9288
# 4 -34.1646 34.2712 2.9551 11.4052 5.4402 0.2120
# 5 -9.7903 -9.4545 -6.2928 5.4402 31.2383 -11.0257
# 6 -17.7873 2.8561 10.9288 0.2120 -11.0257 41.3062
#
#
#
# Elastic Compliance Matrix: (Units=1/GPa)
#
#
# Indices 1 2 3 4 5 6 
#
# 1 0.003868 0.006565 -0.000635 -0.010917 0.006049 0.003051
# 2 0.006565 0.000226 -0.007896 0.021776 -0.001730 0.004327
# 3 -0.000635 -0.007896 0.024761 0.017024 -0.003105 -0.007195
# 4 -0.010917 0.021776 0.017024 -0.017839 0.006577 -0.008864
# 5 0.006049 -0.001730 -0.003105 0.006577 0.036270 0.013194
# 6 0.003051 0.004327 -0.007195 -0.008864 0.013194 0.030695
#
#
# Mechanical properties :
#
#
# Convention : Reuss Voigt Hill
#
# Bulk Modulus (GPa) = 40.12214 37.16307 38.64261
# Shear Modulus (GPa) = 55.41827 30.13335 42.77581
#
# Velocity S-wave (km/s) = 4.83780 3.56734 4.25031
# Velocity P-wave (km/s) = 6.93903 5.71513 6.35660
#
# Compressibility (1/GPa) = 0.02492390
#
# Stress axis : x y z
#
# Youngs Moduli (GPa) = 258.51022 4417.01319 40.38550
#
# Poissons Ratio (x) = -28.99753 0.02564
# Poissons Ratio (y) = -1.69711 0.31889
# Poissons Ratio (z) = 0.16414 34.87720
#
# Static dielectric constant tensor:
#      x y z
#    x 2.195480 0.443650 -0.334910 
#    y 0.443650 1.945930 -0.485020 
#    z -0.334910 -0.485020 2.384830 
# 
# From -- ./inp_files/433325.got.cif
#   From: 2010.05.17/outbox.cif.g08.bks.cpg/sg2_217_cif.got.tgz:433325.got - 2010.06.03 11:33:40.
