data_PCOD9092127
_publ_section_title
;
Structure prediction by ZEFSAII (Michael W. Deem and Ramdas Pophale) SiO2 
 PCOD9092127
Probable space group: P -1
;
_chemical_formula_sum "Si O2"
_cell_formula_units_Z 16
_cell_length_a 8.670292
_cell_length_b 11.508519
_cell_length_c 17.106636
_cell_angle_alpha 147.961047
_cell_angle_beta 117.392367
_cell_angle_gamma 54.783192
_cell_volume 738.160415
_symmetry_space_group_name_H-M "P -1"
_symmetry_group_IT_number 2
_symmetry_cell_setting 'triclinic'
loop_
_space_group_symop_operation_xyz
x,y,z
-x,-y,-z
loop_
_atom_site_type_symbol
_atom_site_label
_atom_site_fract_x
_atom_site_fract_y
_atom_site_fract_z
Si Si1 0.153102 0.318121 0.090585
Si Si2 0.852196 0.225501 0.869152
Si Si3 0.189713 0.039744 0.084909
Si Si4 0.599352 0.719014 0.028867
Si Si5 0.166999 0.266753 0.371133
Si Si6 0.138407 0.744622 0.419764
Si Si7 0.447964 0.501598 0.581204
Si Si8 0.202763 0.951037 0.709509
O O1 0.258446 0.128190 0.073378
O O2 0.065751 0.564069 0.258269
O O3 0.287430 0.313661 0.046285
O O4 0.977248 0.260403 0.987926
O O5 0.004675 0.168140 0.802339
O O6 0.818783 0.984865 0.734802
O O7 0.680062 0.468219 0.948720
O O8 0.148325 0.234717 0.255511
O O9 0.374334 0.812820 0.023776
O O10 0.000000 0.000000 0.000000
O O11 0.653027 0.921727 0.200798
O O12 0.348924 0.319437 0.462710
O O13 0.000000 0.500000 0.500000
O O14 0.367587 0.595554 0.376709
O O15 0.149326 0.799653 0.545310
O O16 0.000000 0.000000 0.500000
O O17 0.500000 0.500000 0.500000
O O18 0.293280 0.775844 0.705417
#
# Coordination Sequence:
#
# PCOD9092127 Si02
#       8
#     2   2   2   2   2   2   2   2
#     4  11  23  43  70  99 135 174 223 286 335 397
#     4  11  23  43  69 102 135 177 220 279 345 399
#     4  12  25  45  64 101 135 176 224 279 338 396
#     4  11  24  43  71  99 135 177 229 274 336 408
#     4  12  25  45  71  97 139 181 227 274 332 413
#     4  11  21  36  63  99 131 162 222 277 326 373
#     4  10  21  39  66  94 122 174 227 261 316 399
#     4  10  19  40  66  94 127 172 228 266 320 408
#
# _framework density 21.675505999999999
#
# number of rings (size 3 to 8) (size 9 to 14) (size 15 to 20)
#    0.000    1.000    2.500    7.125    0.000    2.500 
#    2.250    0.000    0.000    2.250    0.000    0.000 
#    0.000    0.000    0.000    0.000    0.000    0.000 
#
# Total GULP energy -89190.856106 kJ/mol
# GULP energy per Si atom -5574.428507 kJ/mol
# Density = 2.162617 g / cm^3
# Si number density = 21.675506 Si / 1000 Ang^3
#
#
#
# Elastic Constant Matrix: (Units=GPa)
#
#
# Indices 1 2 3 4 5 6 
#
# 1 70.6060 35.1746 26.6955 10.8618 13.8782 -11.2879
# 2 35.1746 120.2664 48.5941 28.3320 -6.5053 -19.0640
# 3 26.6955 48.5941 133.0031 18.0892 10.5519 -11.5719
# 4 10.8618 28.3320 18.0892 35.9999 4.7278 -9.3776
# 5 13.8782 -6.5053 10.5519 4.7278 40.2069 -2.7880
# 6 -11.2879 -19.0640 -11.5719 -9.3776 -2.7880 28.5501
#
#
#
# Elastic Compliance Matrix: (Units=1/GPa)
#
#
# Indices 1 2 3 4 5 6 
#
# 1 0.018899 -0.005057 -0.001210 0.000604 -0.006878 0.003132
# 2 -0.005057 0.013783 -0.003123 -0.007476 0.005956 0.004065
# 3 -0.001210 -0.003123 0.009326 -0.001421 -0.002332 0.000522
# 4 0.000604 -0.007476 -0.001421 0.036442 -0.004903 0.006162
# 5 -0.006878 0.005956 -0.002332 -0.004903 0.029507 0.001584
# 6 0.003132 0.004065 0.000522 0.006162 0.001584 0.041369
#
#
# Mechanical properties :
#
#
# Convention : Reuss Voigt Hill
#
# Bulk Modulus (GPa) = 43.04819 60.53377 51.79098
# Shear Modulus (GPa) = 28.43337 35.17879 31.80608
#
# Velocity S-wave (km/s) = 3.62577 4.03299 3.83479
# Velocity P-wave (km/s) = 6.11815 7.04802 6.59948
#
# Compressibility (1/GPa) = 0.02322978
#
# Stress axis : x y z
#
# Youngs Moduli (GPa) = 52.91188 72.55157 107.22481
#
# Poissons Ratio (x) = 0.36686 0.12973
# Poissons Ratio (y) = 0.26755 0.33487
# Poissons Ratio (z) = 0.06402 0.22658
#
# Static dielectric constant tensor:
#      x y z
#    x 1.857230 0.010220 -0.065890 
#    y 0.010220 1.775870 -0.056940 
#    z -0.065890 -0.056940 1.714760 
# 
# From -- ./inp_files/560175.got.cif
#   From: 2010.05.17/outbox.cif.g08.bks.cpg/sg2_281_cif.got.tgz:560175.got - 2010.06.03 11:33:40.
