data_PCOD9092161
_publ_section_title
;
Structure prediction by ZEFSAII (Michael W. Deem and Ramdas Pophale) SiO2 
 PCOD9092161
Probable space group: P -1
;
_chemical_formula_sum "Si O2"
_cell_formula_units_Z 16
_cell_length_a 4.983271
_cell_length_b 7.652024
_cell_length_c 20.892939
_cell_angle_alpha 57.466938
_cell_angle_beta 107.848044
_cell_angle_gamma 106.922090
_cell_volume 631.389545
_symmetry_space_group_name_H-M "P -1"
_symmetry_group_IT_number 2
_symmetry_cell_setting 'triclinic'
loop_
_space_group_symop_operation_xyz
x,y,z
-x,-y,-z
loop_
_atom_site_type_symbol
_atom_site_label
_atom_site_fract_x
_atom_site_fract_y
_atom_site_fract_z
Si Si1 0.292910 0.849283 0.060436
Si Si2 0.178331 0.449040 0.962485
Si Si3 0.212057 0.739283 0.214779
Si Si4 0.343551 0.510785 0.829146
Si Si5 0.518363 0.286112 0.633607
Si Si6 0.075953 0.564948 0.583717
Si Si7 0.325588 0.912228 0.441970
Si Si8 0.446287 0.298545 0.309195
O O1 0.301281 0.883968 0.130930
O O2 0.414356 0.626128 0.107407
O O3 0.968280 0.786221 0.023190
O O4 0.500000 0.000000 0.000000
O O5 0.187431 0.565844 0.871361
O O6 0.500000 0.500000 0.000000
O O7 0.000000 0.500000 0.000000
O O8 0.326603 0.819850 0.276376
O O9 0.336066 0.520189 0.261994
O O10 0.877133 0.652891 0.197369
O O11 0.467744 0.708572 0.756844
O O12 0.231882 0.362153 0.622214
O O13 0.497063 0.164501 0.589038
O O14 0.750128 0.494563 0.593261
O O15 0.120439 0.716395 0.495937
O O16 0.264099 0.680701 0.632130
O O17 0.500000 0.000000 0.500000
O O18 0.225809 0.112248 0.360963
#
# Coordination Sequence:
#
# PCOD9092161 Si02
#       8
#     2   2   2   2   2   2   2   2
#     4  10  22  41  70 100 130 171 226 278 324 390
#     4  11  22  41  65  97 133 174 213 261 332 398
#     4   9  20  37  67  90 125 177 213 269 330 393
#     4  10  19  40  67  86 131 171 216 260 337 384
#     4  11  21  42  64  93 126 170 215 264 327 389
#     4  10  21  40  66  89 126 167 213 264 324 383
#     4  10  22  40  61  96 129 165 216 271 321 385
#     4   9  19  40  59  92 124 170 213 263 324 387
#
# _framework density 25.340933
#
# number of rings (size 3 to 8) (size 9 to 14) (size 15 to 20)
#    0.000    2.000    2.500    0.750    0.000    2.000 
#    6.750    4.375    0.000    0.000    0.000    0.000 
#    0.000    0.000    0.000    0.000    0.000    0.000 
#
# Total GULP energy -89364.827895 kJ/mol
# GULP energy per Si atom -5585.301743 kJ/mol
# Density = 2.528326 g / cm^3
# Si number density = 25.340933 Si / 1000 Ang^3
#
#
#
# Elastic Constant Matrix: (Units=GPa)
#
#
# Indices 1 2 3 4 5 6 
#
# 1 87.2075 6.0392 32.1573 8.5583 -11.0017 11.0397
# 2 6.0392 82.3387 52.1089 19.0429 -7.4727 7.3360
# 3 32.1573 52.1089 213.7077 4.4539 -37.3691 3.8698
# 4 8.5583 19.0429 4.4539 45.2371 1.1100 -3.4442
# 5 -11.0017 -7.4727 -37.3691 1.1100 43.0432 11.6814
# 6 11.0397 7.3360 3.8698 -3.4442 11.6814 27.8410
#
#
#
# Elastic Compliance Matrix: (Units=1/GPa)
#
#
# Indices 1 2 3 4 5 6 
#
# 1 0.014001 0.002100 -0.001490 -0.004161 0.005075 -0.008542
# 2 0.002100 0.016968 -0.003787 -0.007728 0.002201 -0.006657
# 3 -0.001490 -0.003787 0.006734 0.000980 0.005160 -0.001391
# 4 -0.004161 -0.007728 0.000980 0.026835 -0.004638 0.008816
# 5 0.005075 0.002201 0.005160 -0.004638 0.034493 -0.018356
# 6 -0.008542 -0.006657 -0.001391 0.008816 -0.018356 0.050045
#
#
# Mechanical properties :
#
#
# Convention : Reuss Voigt Hill
#
# Bulk Modulus (GPa) = 31.89919 62.65160 47.27539
# Shear Modulus (GPa) = 30.14266 42.75417 36.44841
#
# Velocity S-wave (km/s) = 3.45263 4.11196 3.79664
# Velocity P-wave (km/s) = 5.33943 6.87906 6.15756
#
# Compressibility (1/GPa) = 0.03134876
#
# Stress axis : x y z
#
# Youngs Moduli (GPa) = 71.42427 58.93613 148.50185
#
# Poissons Ratio (x) = -0.12377 0.22126
# Poissons Ratio (y) = -0.14999 0.56235
# Poissons Ratio (z) = 0.10642 0.22318
#
# Static dielectric constant tensor:
#      x y z
#    x 2.075630 -0.058010 0.033040 
#    y -0.058010 2.157510 -0.024400 
#    z 0.033040 -0.024400 2.050500 
# 
# From -- ./inp_files/581877.got.cif
#   From: 2010.05.17/outbox.cif.g08.bks.cpg/sg2_291_cif.got.tgz:581877.got - 2010.06.03 11:33:40.
