data_PCOD9092712
_publ_section_title
;
Structure prediction by ZEFSAII (Michael W. Deem and Ramdas Pophale) SiO2 
 PCOD9092712
Probable space group: P -1
;
_chemical_formula_sum "Si O2"
_cell_formula_units_Z 15
_cell_length_a 8.603166
_cell_length_b 7.961187
_cell_length_c 10.234213
_cell_angle_alpha 59.515459
_cell_angle_beta 84.797736
_cell_angle_gamma 86.915398
_cell_volume 601.546692
_symmetry_space_group_name_H-M "P -1"
_symmetry_group_IT_number 2
_symmetry_cell_setting 'triclinic'
loop_
_space_group_symop_operation_xyz
x,y,z
-x,-y,-z
loop_
_atom_site_type_symbol
_atom_site_label
_atom_site_fract_x
_atom_site_fract_y
_atom_site_fract_z
Si Si1 0.779504 0.844686 0.861734
Si Si2 0.756661 0.169082 0.227040
Si Si3 0.101317 0.532033 0.688736
Si Si4 0.998050 0.885991 0.407805
Si Si5 0.549783 0.621545 0.819425
Si Si6 0.447608 0.377891 0.681556
Si Si7 0.052517 0.784267 0.037805
Si Si8 0.500000 0.000000 0.000000
O O1 0.712640 0.718196 0.799578
O O2 0.918458 0.728044 0.966879
O O3 0.645484 0.889957 0.958639
O O4 0.862955 0.033082 0.723897
O O5 0.848943 0.323877 0.250834
O O6 0.577669 0.205511 0.256587
O O7 0.786223 0.210693 0.054357
O O8 0.835515 0.959335 0.328724
O O9 0.262243 0.420700 0.689174
O O10 0.035787 0.668137 0.526661
O O11 0.967791 0.376645 0.789894
O O12 0.000000 0.000000 0.500000
O O13 0.536910 0.486886 0.749639
O O14 0.500000 0.500000 0.000000
O O15 0.500000 0.500000 0.500000
O O16 0.480309 0.151883 0.808488
O O17 0.000000 0.000000 0.000000
#
# Coordination Sequence:
#
# PCOD9092712 Si02
#       8
#     2   2   2   2   2   2   2   1
#     4  11  23  42  68 100 143 189 241 299 369 446
#     4   9  21  39  67  99 132 180 237 289 358 441
#     4  10  19  42  65  92 138 179 237 295 360 434
#     4   9  20  41  67  95 135 183 233 303 363 427
#     4  11  22  43  73 106 143 193 244 294 372 453
#     4  11  24  43  71 110 150 191 245 308 375 438
#     4  11  23  40  66 102 134 182 246 298 357 429
#     4  12  22  42  70 102 156 188 242 308 374 428
#
# _framework density 24.935718000000001
#
# number of rings (size 3 to 8) (size 9 to 14) (size 15 to 20)
#    0.000    1.600    2.667    2.000    1.867    2.133 
#    0.000   17.333    0.000    0.000    0.000   11.200 
#    0.000    0.000    0.000    0.000    0.000    0.000 
#
# Total GULP energy -83689.960153 kJ/mol
# GULP energy per Si atom -5579.330677 kJ/mol
# Density = 2.487896 g / cm^3
# Si number density = 24.935718 Si / 1000 Ang^3
#
#
#
# Elastic Constant Matrix: (Units=GPa)
#
#
# Indices 1 2 3 4 5 6 
#
# 1 67.0984 26.3888 9.3413 -14.5368 16.9695 -4.0922
# 2 26.3888 75.9031 22.3159 -3.5789 7.7016 7.4564
# 3 9.3413 22.3159 171.7800 -22.2467 24.6524 -0.7134
# 4 -14.5368 -3.5789 -22.2467 51.4342 -14.3612 5.3658
# 5 16.9695 7.7016 24.6524 -14.3612 23.1855 4.5499
# 6 -4.0922 7.4564 -0.7134 5.3658 4.5499 38.1923
#
#
#
# Elastic Compliance Matrix: (Units=1/GPa)
#
#
# Indices 1 2 3 4 5 6 
#
# 1 0.022278 -0.007229 0.002324 0.001619 -0.016466 0.005576
# 2 -0.007229 0.016463 -0.002225 -0.000694 0.002590 -0.004241
# 3 0.002324 -0.002225 0.007344 0.001169 -0.008370 0.001654
# 4 0.001619 -0.000694 0.001169 0.024803 0.014115 -0.004835
# 5 -0.016466 0.002590 -0.008370 0.014115 0.074573 -0.013293
# 6 0.005576 -0.004241 0.001654 -0.004835 -0.013293 0.029903
#
#
# Mechanical properties :
#
#
# Convention : Reuss Voigt Hill
#
# Bulk Modulus (GPa) = 31.42270 47.87484 39.64877
# Shear Modulus (GPa) = 24.97100 39.67810 32.32455
#
# Velocity S-wave (km/s) = 3.16795 3.99333 3.60434
# Velocity P-wave (km/s) = 5.10000 6.36422 5.76686
#
# Compressibility (1/GPa) = 0.03182413
#
# Stress axis : x y z
#
# Youngs Moduli (GPa) = 44.88662 60.74139 136.17417
#
# Poissons Ratio (x) = 0.43911 -0.31641
# Poissons Ratio (y) = 0.32449 0.30297
# Poissons Ratio (z) = -0.10430 0.13514
#
# Static dielectric constant tensor:
#      x y z
#    x 1.971270 0.052010 -0.001870 
#    y 0.052010 2.032420 0.000130 
#    z -0.001870 0.000130 2.043330 
# 
# From -- ./inp_files/377616.got.cif
#   From: 2010.05.17/outbox.cif.g08.bks.cpg/sg2_189_cif.got.tgz:377616.got - 2010.06.03 11:33:40.
