data_PCOD9092215
_publ_section_title
;
Structure prediction by ZEFSAII (Michael W. Deem and Ramdas Pophale) SiO2 
 PCOD9092215
Probable space group: P -1
;
_chemical_formula_sum "Si O2"
_cell_formula_units_Z 14
_cell_length_a 6.906790
_cell_length_b 14.009495
_cell_length_c 7.666400
_cell_angle_alpha 65.954310
_cell_angle_beta 120.381365
_cell_angle_gamma 113.856233
_cell_volume 565.577338
_symmetry_space_group_name_H-M "P -1"
_symmetry_group_IT_number 2
_symmetry_cell_setting 'triclinic'
loop_
_space_group_symop_operation_xyz
x,y,z
-x,-y,-z
loop_
_atom_site_type_symbol
_atom_site_label
_atom_site_fract_x
_atom_site_fract_y
_atom_site_fract_z
Si Si1 0.710332 0.476376 0.222737
Si Si2 0.367833 0.867783 0.715305
Si Si3 0.501385 0.669784 0.434901
Si Si4 0.369005 0.094722 0.534302
Si Si5 0.975270 0.324344 0.884730
Si Si6 0.881397 0.889967 0.930353
Si Si7 0.028522 0.345735 0.281993
O O1 0.611926 0.396990 0.396046
O O2 0.884819 0.592392 0.254944
O O3 0.868502 0.419974 0.217921
O O4 0.500000 0.500000 0.000000
O O5 0.411617 0.886716 0.512773
O O6 0.611553 0.844381 0.904122
O O7 0.139074 0.774350 0.697712
O O8 0.352895 0.981709 0.703601
O O9 0.597415 0.797092 0.423529
O O10 0.729707 0.632000 0.521125
O O11 0.283305 0.661777 0.217459
O O12 0.158290 0.084625 0.309706
O O13 0.984649 0.203679 0.929448
O O14 0.096916 0.355822 0.102439
O O15 0.000000 0.000000 0.000000
#
# Coordination Sequence:
#
# PCOD9092215 Si02
#       7
#     2   2   2   2   2   2   2
#     4  12  24  49  75  94 137 186 221 282 346 400
#     4   9  19  37  67  93 129 181 222 271 340 387
#     4  12  25  46  68 101 138 181 227 276 343 409
#     4   9  18  41  64  96 133 178 227 269 335 398
#     4  12  26  43  67 106 138 174 233 283 333 411
#     4  10  19  40  67  97 136 178 226 274 333 405
#     4  12  24  47  68 102 140 175 226 286 340 398
#
# _framework density 24.753468000000002
#
# number of rings (size 3 to 8) (size 9 to 14) (size 15 to 20)
#    0.857    0.286    4.286    2.571    0.000    1.143 
#    7.714    1.429    0.000    0.000    0.000    0.000 
#    0.000    0.000    0.000    0.000    0.000    0.000 
#
# Total GULP energy -78300.058231 kJ/mol
# GULP energy per Si atom -5592.861302 kJ/mol
# Density = 2.469713 g / cm^3
# Si number density = 24.753468 Si / 1000 Ang^3
#
#
#
# Elastic Constant Matrix: (Units=GPa)
#
#
# Indices 1 2 3 4 5 6 
#
# 1 106.3021 45.6053 31.4399 -6.8560 27.1736 6.0179
# 2 45.6053 84.2073 36.0794 -4.6515 19.5956 14.3761
# 3 31.4399 36.0794 75.6179 8.1219 37.7522 2.9520
# 4 -6.8560 -4.6515 8.1219 44.9470 0.6769 13.1615
# 5 27.1736 19.5956 37.7522 0.6769 41.4831 7.8003
# 6 6.0179 14.3761 2.9520 13.1615 7.8003 41.4860
#
#
#
# Elastic Compliance Matrix: (Units=1/GPa)
#
#
# Indices 1 2 3 4 5 6 
#
# 1 0.013620 -0.006102 0.000363 0.001195 -0.006572 0.000969
# 2 -0.006102 0.019743 -0.009429 0.005015 0.004627 -0.007746
# 3 0.000363 -0.009429 0.030762 -0.008587 -0.025237 0.008495
# 4 0.001195 0.005015 -0.008587 0.027709 0.006332 -0.011282
# 5 -0.006572 0.004627 -0.025237 0.006332 0.051057 -0.010463
# 6 0.000969 -0.007746 0.008495 -0.011282 -0.010463 0.031590
#
#
# Mechanical properties :
#
#
# Convention : Reuss Voigt Hill
#
# Bulk Modulus (GPa) = 29.59497 54.70851 42.15174
# Shear Modulus (GPa) = 23.13962 35.78339 29.46151
#
# Velocity S-wave (km/s) = 3.06077 3.80622 3.45367
# Velocity P-wave (km/s) = 4.94701 6.43939 5.74189
#
# Compressibility (1/GPa) = 0.03378953
#
# Stress axis : x y z
#
# Youngs Moduli (GPa) = 73.42323 50.65079 32.50739
#
# Poissons Ratio (x) = 0.30908 -0.01182
# Poissons Ratio (y) = 0.44804 0.30651
# Poissons Ratio (z) = -0.02669 0.47759
#
# Static dielectric constant tensor:
#      x y z
#    x 1.982980 0.014690 0.018800 
#    y 0.014690 1.960160 -0.036780 
#    z 0.018800 -0.036780 2.000970 
# 
# From -- ./inp_files/394243.got.cif
#   From: 2010.05.17/outbox.cif.g08.bks.cpg/sg2_198_cif.got.tgz:394243.got - 2010.06.03 11:33:40.
