data_PCOD9092933
_publ_section_title
;
Structure prediction by ZEFSAII (Michael W. Deem and Ramdas Pophale) SiO2 
 PCOD9092933
Probable space group: P -1
;
_chemical_formula_sum "Si O2"
_cell_formula_units_Z 16
_cell_length_a 14.309820
_cell_length_b 8.987282
_cell_length_c 9.366672
_cell_angle_alpha 143.203129
_cell_angle_beta 105.075354
_cell_angle_gamma 80.016328
_cell_volume 695.437605
_symmetry_space_group_name_H-M "P -1"
_symmetry_group_IT_number 2
_symmetry_cell_setting 'triclinic'
loop_
_space_group_symop_operation_xyz
x,y,z
-x,-y,-z
loop_
_atom_site_type_symbol
_atom_site_label
_atom_site_fract_x
_atom_site_fract_y
_atom_site_fract_z
Si Si1 0.122834 0.736868 0.405615
Si Si2 0.998124 0.390141 0.254478
Si Si3 0.275795 0.429765 0.059102
Si Si4 0.590088 0.115855 0.537863
Si Si5 0.157251 0.046502 0.148140
Si Si6 0.733662 0.071355 0.158872
Si Si7 0.205992 0.147350 0.559761
Si Si8 0.545669 0.232039 0.290123
O O1 0.022779 0.592769 0.297614
O O2 0.168011 0.830869 0.647392
O O3 0.127750 0.961609 0.467849
O O4 0.201668 0.562054 0.234587
O O5 0.000000 0.500000 0.500000
O O6 0.088178 0.212425 0.154834
O O7 0.902866 0.215631 0.054135
O O8 0.223061 0.379314 0.848960
O O9 0.297190 0.175286 0.951916
O O10 0.372746 0.599125 0.198408
O O11 0.557489 0.120794 0.365934
O O12 0.500000 0.000000 0.500000
O O13 0.688764 0.973404 0.488760
O O14 0.178017 0.175922 0.407203
O O15 0.249202 0.997928 0.050491
O O16 0.654171 0.271934 0.300247
O O17 0.500000 0.500000 0.500000
O O18 0.500000 0.000000 0.000000
#
# Coordination Sequence:
#
# PCOD9092933 Si02
#       8
#     2   2   2   2   2   2   2   2
#     4  10  20  41  71  91 131 188 223 282 355 417
#     4  11  23  41  67 103 143 174 233 296 352 422
#     4  10  19  44  70  91 133 192 227 284 360 429
#     4  11  25  46  64  99 142 177 232 298 359 423
#     4  11  25  41  68 107 135 179 237 292 354 423
#     4  11  21  43  72  96 138 184 243 287 354 431
#     4  10  24  43  67  97 135 184 236 280 362 429
#     4  12  27  46  73 108 140 187 249 300 363 436
#
# _framework density 23.007095
#
# number of rings (size 3 to 8) (size 9 to 14) (size 15 to 20)
#    0.000    1.250    6.250    0.750    1.750    3.000 
#    0.000    1.250    0.000    0.000    0.000    0.000 
#    0.000    0.000    0.000    0.000    0.000    0.000 
#
# Total GULP energy -89438.888241 kJ/mol
# GULP energy per Si atom -5589.930515 kJ/mol
# Density = 2.295473 g / cm^3
# Si number density = 23.007095 Si / 1000 Ang^3
#
#
#
# Elastic Constant Matrix: (Units=GPa)
#
#
# Indices 1 2 3 4 5 6 
#
# 1 81.5297 55.5175 22.3069 13.1042 -8.4768 21.2605
# 2 55.5175 86.9008 42.8881 -10.1437 6.1710 13.1465
# 3 22.3069 42.8881 130.7625 -10.2074 2.7494 15.0301
# 4 13.1042 -10.1437 -10.2074 41.0972 3.3673 -2.6666
# 5 -8.4768 6.1710 2.7494 3.3673 34.1341 5.0718
# 6 21.2605 13.1465 15.0301 -2.6666 5.0718 48.6650
#
#
#
# Elastic Compliance Matrix: (Units=1/GPa)
#
#
# Indices 1 2 3 4 5 6 
#
# 1 0.040170 -0.028463 0.001947 -0.021804 0.019144 -0.013651
# 2 -0.028463 0.034543 -0.005596 0.017986 -0.015745 0.007458
# 3 0.001947 -0.005596 0.009405 0.000093 0.001078 -0.002351
# 4 -0.021804 0.017986 0.000093 0.037385 -0.013566 0.008101
# 5 0.019144 -0.015745 0.001078 -0.013566 0.039531 -0.009306
# 6 -0.013651 0.007458 -0.002351 0.008101 -0.009306 0.026638
#
#
# Mechanical properties :
#
#
# Convention : Reuss Voigt Hill
#
# Bulk Modulus (GPa) = 50.26704 60.06868 55.16786
# Shear Modulus (GPa) = 19.34041 36.67796 28.00918
#
# Velocity S-wave (km/s) = 2.90250 3.99708 3.49293
# Velocity P-wave (km/s) = 5.75575 6.88967 6.34808
#
# Compressibility (1/GPa) = 0.01989375
#
# Stress axis : x y z
#
# Youngs Moduli (GPa) = 24.89445 28.94978 106.32090
#
# Poissons Ratio (x) = 0.82401 -0.20706
# Poissons Ratio (y) = 0.70858 0.59498
# Poissons Ratio (z) = -0.04848 0.16200
#
# Static dielectric constant tensor:
#      x y z
#    x 1.914200 -0.049260 0.005930 
#    y -0.049260 1.861020 0.043890 
#    z 0.005930 0.043890 1.905600 
# 
# From -- ./inp_files/282970.got.cif
#   From: 2010.05.17/outbox.cif.g08.bks.cpg/sg2_142_cif.got.tgz:282970.got - 2010.06.03 11:33:40.
