data_PCOD9092509
_publ_section_title
;
Structure prediction by ZEFSAII (Michael W. Deem and Ramdas Pophale) SiO2 
 PCOD9092509
Probable space group: P -1
;
_chemical_formula_sum "Si O2"
_cell_formula_units_Z 16
_cell_length_a 6.697302
_cell_length_b 20.801792
_cell_length_c 8.229759
_cell_angle_alpha 137.943496
_cell_angle_beta 103.562598
_cell_angle_gamma 53.461138
_cell_volume 569.343539
_symmetry_space_group_name_H-M "P -1"
_symmetry_group_IT_number 2
_symmetry_cell_setting 'triclinic'
loop_
_space_group_symop_operation_xyz
x,y,z
-x,-y,-z
loop_
_atom_site_type_symbol
_atom_site_label
_atom_site_fract_x
_atom_site_fract_y
_atom_site_fract_z
Si Si1 0.842514 0.198695 0.592947
Si Si2 0.950263 0.835286 0.944785
Si Si3 0.863670 0.409118 0.952519
Si Si4 0.707488 0.056535 0.110488
Si Si5 0.256837 0.985897 0.474116
Si Si6 0.647758 0.591793 0.950333
Si Si7 0.522910 0.774021 0.907972
Si Si8 0.114194 0.579702 0.638678
O O1 0.680524 0.153025 0.415692
O O2 0.658188 0.280762 0.866399
O O3 0.141561 0.077196 0.468231
O O4 0.870820 0.293919 0.690948
O O5 0.752488 0.940689 0.241210
O O6 0.776141 0.925954 0.926896
O O7 0.040714 0.706041 0.785978
O O8 0.244447 0.798313 0.903173
O O9 0.689381 0.515834 0.980377
O O10 0.789849 0.442181 0.194696
O O11 0.143771 0.383162 0.946715
O O12 0.498157 0.150814 0.111500
O O13 0.000000 0.000000 0.000000
O O14 0.000000 0.000000 0.500000
O O15 0.502165 0.847798 0.201927
O O16 0.711886 0.516303 0.655701
O O17 0.803412 0.632580 0.685225
#
# Coordination Sequence:
#
# PCOD9092509 Si02
#       8
#     2   2   2   2   2   2   2   2
#     4  12  23  47  76  99 142 189 231 295 359 417
#     4  10  22  43  69 109 142 184 235 286 355 432
#     4  11  28  50  70 105 139 190 246 291 353 417
#     4  10  21  41  70 104 145 183 227 288 351 426
#     4  10  19  41  67 104 141 177 228 279 358 421
#     4  11  30  50  70 105 141 188 246 301 346 418
#     4  10  24  41  68 106 149 182 226 292 348 430
#     4  12  27  47  74 108 142 190 239 288 362 423
#
# _framework density 28.102540999999999
#
# number of rings (size 3 to 8) (size 9 to 14) (size 15 to 20)
#    0.000    1.250    5.000    0.750   10.500    2.500 
#    2.250    0.000    0.000    0.000    0.000    0.000 
#    0.000    0.000    0.000    0.000    0.000    0.000 
#
# Total GULP energy -89338.035105 kJ/mol
# GULP energy per Si atom -5583.627194 kJ/mol
# Density = 2.803858 g / cm^3
# Si number density = 28.102541 Si / 1000 Ang^3
#
#
#
# Elastic Constant Matrix: (Units=GPa)
#
#
# Indices 1 2 3 4 5 6 
#
# 1 80.0242 23.7493 12.0438 -1.7875 -5.0363 11.2338
# 2 23.7493 192.2585 25.1803 -7.9673 -0.5555 22.0167
# 3 12.0438 25.1803 172.4739 -2.9615 -30.7735 -10.7161
# 4 -1.7875 -7.9673 -2.9615 27.4076 -0.6299 0.8552
# 5 -5.0363 -0.5555 -30.7735 -0.6299 46.6622 15.0679
# 6 11.2338 22.0167 -10.7161 0.8552 15.0679 65.1970
#
#
#
# Elastic Compliance Matrix: (Units=1/GPa)
#
#
# Indices 1 2 3 4 5 6 
#
# 1 0.013428 -0.001281 -0.000561 0.000560 0.001849 -0.002408
# 2 -0.001281 0.005749 -0.000839 0.001556 0.000005 -0.001880
# 3 -0.000561 -0.000839 0.006755 0.000531 0.004228 0.000506
# 4 0.000560 0.001556 0.000531 0.037105 0.001361 -0.001336
# 5 0.001849 0.000005 0.004228 0.001361 0.026283 -0.005718
# 6 -0.002408 -0.001880 0.000506 -0.001336 -0.005718 0.017810
#
#
# Mechanical properties :
#
#
# Convention : Reuss Voigt Hill
#
# Bulk Modulus (GPa) = 48.61438 62.96705 55.79072
# Shear Modulus (GPa) = 41.89415 53.43890 47.66653
#
# Velocity S-wave (km/s) = 3.86523 4.36543 4.12292
# Velocity P-wave (km/s) = 6.10380 6.91839 6.52382
#
# Compressibility (1/GPa) = 0.02057005
#
# Stress axis : x y z
#
# Youngs Moduli (GPa) = 74.47286 173.93493 148.04853
#
# Poissons Ratio (x) = 0.22280 0.08300
# Poissons Ratio (y) = 0.09540 0.12423
# Poissons Ratio (z) = 0.04175 0.14596
#
# Static dielectric constant tensor:
#      x y z
#    x 2.433070 0.074190 0.240470 
#    y 0.074190 2.244100 -0.058500 
#    z 0.240470 -0.058500 2.357540 
# 
# From -- ./inp_files/222449.got.cif
#   From: 2010.05.17/outbox.cif.g08.bks.cpg/sg2_112_cif.got.tgz:222449.got - 2010.06.03 11:33:40.
