data_PCOD9092921
_publ_section_title
;
Structure prediction by ZEFSAII (Michael W. Deem and Ramdas Pophale) SiO2 
 PCOD9092921
Probable space group: P -1
;
_chemical_formula_sum "Si O2"
_cell_formula_units_Z 16
_cell_length_a 12.161196
_cell_length_b 14.666781
_cell_length_c 17.839131
_cell_angle_alpha 30.164876
_cell_angle_beta 29.464928
_cell_angle_gamma 48.211510
_cell_volume 736.886103
_symmetry_space_group_name_H-M "P -1"
_symmetry_group_IT_number 2
_symmetry_cell_setting 'triclinic'
loop_
_space_group_symop_operation_xyz
x,y,z
-x,-y,-z
loop_
_atom_site_type_symbol
_atom_site_label
_atom_site_fract_x
_atom_site_fract_y
_atom_site_fract_z
Si Si1 0.883325 0.857181 0.236558
Si Si2 0.008435 0.198753 0.318380
Si Si3 0.647732 0.300759 0.367601
Si Si4 0.803445 0.389153 0.050676
Si Si5 0.623712 0.706257 0.104967
Si Si6 0.024220 0.957633 0.793251
Si Si7 0.086452 0.546889 0.500841
Si Si8 0.656632 0.662330 0.731138
O O1 0.605214 0.828512 0.423266
O O2 0.905764 0.659625 0.334746
O O3 0.987709 0.918268 0.214376
O O4 0.000000 0.000000 0.000000
O O5 0.762749 0.185448 0.434333
O O6 0.057243 0.385569 0.210989
O O7 0.221019 0.249562 0.094933
O O8 0.000000 0.000000 0.500000
O O9 0.816518 0.374879 0.142920
O O10 0.617988 0.491890 0.285320
O O11 0.536978 0.358463 0.204408
O O12 0.889612 0.213053 0.102844
O O13 0.355172 0.692465 0.254154
O O14 0.774192 0.856978 0.970631
O O15 0.208641 0.100248 0.521425
O O16 0.881864 0.599207 0.626078
O O17 0.000000 0.500000 0.500000
O O18 0.500000 0.500000 0.000000
#
# Coordination Sequence:
#
# PCOD9092921 Si02
#       8
#     2   2   2   2   2   2   2   2
#     4  11  26  42  71  99 134 200 244 287 363 448
#     4  11  22  38  65 110 143 183 240 300 361 427
#     4  10  19  44  66  96 139 193 236 282 361 444
#     4  11  22  42  70 100 139 186 234 292 359 429
#     4  10  22  42  74  95 140 199 236 289 366 430
#     4  12  23  46  71 105 139 189 247 297 363 427
#     4  11  23  51  69  97 150 194 236 292 372 433
#     4  12  28  43  72 109 144 184 243 311 359 421
#
# _framework density 21.712990000000001
#
# number of rings (size 3 to 8) (size 9 to 14) (size 15 to 20)
#    0.000    1.000    5.000    2.625    3.500    2.500 
#    0.000    3.750    0.000    0.000    0.000    0.000 
#    0.000    0.000    0.000    0.000    0.000    0.000 
#
# Total GULP energy -89176.710899 kJ/mol
# GULP energy per Si atom -5573.544431 kJ/mol
# Density = 2.166357 g / cm^3
# Si number density = 21.712990 Si / 1000 Ang^3
#
#
#
# Elastic Constant Matrix: (Units=GPa)
#
#
# Indices 1 2 3 4 5 6 
#
# 1 117.8333 34.2624 71.6104 -1.7720 -26.1230 -24.2720
# 2 34.2624 99.8388 40.6256 -7.6878 -6.1113 -23.3958
# 3 71.6104 40.6256 120.8221 -13.8183 -0.6974 -10.9344
# 4 -1.7720 -7.6878 -13.8183 40.2419 -6.7345 -1.8615
# 5 -26.1230 -6.1113 -0.6974 -6.7345 48.7034 -6.2870
# 6 -24.2720 -23.3958 -10.9344 -1.8615 -6.2870 41.3911
#
#
#
# Elastic Compliance Matrix: (Units=1/GPa)
#
#
# Indices 1 2 3 4 5 6 
#
# 1 0.019874 0.001010 -0.011066 -0.000203 0.012035 0.011120
# 2 0.001010 0.013579 -0.004195 0.002142 0.003486 0.007785
# 3 -0.011066 -0.004195 0.016040 0.002870 -0.006544 -0.005488
# 4 -0.000203 0.002142 0.002870 0.027152 0.004439 0.003745
# 5 0.012035 0.003486 -0.006544 0.004439 0.029492 0.011979
# 6 0.011120 0.007785 -0.005488 0.003745 0.011979 0.035620
#
#
# Mechanical properties :
#
#
# Convention : Reuss Voigt Hill
#
# Bulk Modulus (GPa) = 47.64023 70.16567 58.90295
# Shear Modulus (GPa) = 28.20810 38.86701 33.53756
#
# Velocity S-wave (km/s) = 3.60826 4.23547 3.93438
# Velocity P-wave (km/s) = 6.27279 7.50361 6.91564
#
# Compressibility (1/GPa) = 0.02099066
#
# Stress axis : x y z
#
# Youngs Moduli (GPa) = 50.31766 73.64180 62.34587
#
# Poissons Ratio (x) = -0.07434 0.68991
# Poissons Ratio (y) = -0.05080 0.26152
# Poissons Ratio (z) = 0.55681 0.30890
#
# Static dielectric constant tensor:
#      x y z
#    x 1.823870 0.043380 -0.035680 
#    y 0.043380 1.948070 -0.110280 
#    z -0.035680 -0.110280 1.931790 
# 
# From -- ./inp_files/398635.got.cif
#   From: 2010.05.17/outbox.cif.g08.bks.cpg/sg2_200_cif.got.tgz:398635.got - 2010.06.03 11:33:40.
