data_PCOD9092110
_publ_section_title
;
Structure prediction by ZEFSAII (Michael W. Deem and Ramdas Pophale) SiO2 
 PCOD9092110
Probable space group: P -1
;
_chemical_formula_sum "Si O2"
_cell_formula_units_Z 16
_cell_length_a 14.181456
_cell_length_b 26.668140
_cell_length_c 8.990747
_cell_angle_alpha 140.628609
_cell_angle_beta 128.314833
_cell_angle_gamma 21.342400
_cell_volume 707.439511
_symmetry_space_group_name_H-M "P -1"
_symmetry_group_IT_number 2
_symmetry_cell_setting 'triclinic'
loop_
_space_group_symop_operation_xyz
x,y,z
-x,-y,-z
loop_
_atom_site_type_symbol
_atom_site_label
_atom_site_fract_x
_atom_site_fract_y
_atom_site_fract_z
Si Si1 0.219583 0.091820 0.779864
Si Si2 0.473730 0.885436 0.148072
Si Si3 0.702060 0.634743 0.553430
Si Si4 0.828092 0.408651 0.362955
Si Si5 0.310160 0.641714 0.277211
Si Si6 0.710175 0.135416 0.590984
Si Si7 0.870730 0.031788 0.808436
Si Si8 0.217926 0.198836 0.523290
O O1 0.968590 0.247468 0.764077
O O2 0.268969 0.971794 0.605781
O O3 0.510312 0.948246 0.659481
O O4 0.088174 0.214098 0.075470
O O5 0.746847 0.762066 0.214948
O O6 0.336408 0.909159 0.187512
O O7 0.262340 0.083843 0.361329
O O8 0.526815 0.804750 0.865750
O O9 0.745028 0.534574 0.473421
O O10 0.542714 0.702986 0.403897
O O11 0.000000 0.500000 0.500000
O O12 0.557047 0.510138 0.338970
O O13 0.938034 0.370452 0.542455
O O14 0.146990 0.823394 0.527673
O O15 0.500000 0.500000 0.000000
O O16 0.698291 0.177911 0.843901
O O17 0.000000 0.000000 0.500000
O O18 0.000000 0.000000 0.000000
#
# Coordination Sequence:
#
# PCOD9092110 Si02
#       8
#     2   2   2   2   2   2   2   2
#     4  10  19  40  66  91 127 175 224 262 325 402
#     4  11  24  43  69  92 132 179 228 268 331 404
#     4  12  25  41  62  98 135 168 220 276 338 395
#     4  11  22  37  63  96 131 167 215 282 335 380
#     4   9  19  36  60  90 124 162 209 268 322 379
#     4  11  22  41  68  97 128 178 226 267 326 407
#     4  11  22  43  70  97 132 178 228 276 329 400
#     4  11  22  41  67  94 128 177 224 269 329 404
#
# _framework density 22.616772999999998
#
# number of rings (size 3 to 8) (size 9 to 14) (size 15 to 20)
#    0.000    1.250    2.500    5.625    0.000    0.500 
#    2.250    0.625    0.000    0.000    0.000    0.000 
#    0.000    0.000    0.000    0.000    0.000    0.000 
#
# Total GULP energy -89259.221772 kJ/mol
# GULP energy per Si atom -5578.701361 kJ/mol
# Density = 2.256530 g / cm^3
# Si number density = 22.616773 Si / 1000 Ang^3
#
#
#
# Elastic Constant Matrix: (Units=GPa)
#
#
# Indices 1 2 3 4 5 6 
#
# 1 91.0435 29.0029 -17.4471 -5.1918 -2.7997 9.2553
# 2 29.0029 178.1481 10.4199 -45.3077 -5.1275 10.7595
# 3 -17.4471 10.4199 64.0662 -16.4430 -0.8225 13.9465
# 4 -5.1918 -45.3077 -16.4430 34.0062 -4.2672 -10.2497
# 5 -2.7997 -5.1275 -0.8225 -4.2672 22.9467 1.2403
# 6 9.2553 10.7595 13.9465 -10.2497 1.2403 34.9151
#
#
#
# Elastic Compliance Matrix: (Units=1/GPa)
#
#
# Indices 1 2 3 4 5 6 
#
# 1 0.013167 -0.001924 0.005149 0.000707 0.001753 -0.004809
# 2 -0.001924 0.009408 0.001316 0.013719 0.004414 0.000956
# 3 0.005149 0.001316 0.021277 0.011199 0.004153 -0.007129
# 4 0.000707 0.013719 0.011199 0.057169 0.013784 0.007405
# 5 0.001753 0.004414 0.004153 0.013784 0.047552 -0.001126
# 6 -0.004809 0.000956 -0.007129 0.007405 -0.001126 0.034682
#
#
# Mechanical properties :
#
#
# Convention : Reuss Voigt Hill
#
# Bulk Modulus (GPa) = 18.89180 41.91215 30.40197
# Shear Modulus (GPa) = 26.06639 39.12576 32.59608
#
# Velocity S-wave (km/s) = 3.39857 4.16377 3.80048
# Velocity P-wave (km/s) = 4.87560 6.45660 5.72098
#
# Compressibility (1/GPa) = 0.05293303
#
# Stress axis : x y z
#
# Youngs Moduli (GPa) = 75.95002 106.29252 46.99963
#
# Poissons Ratio (x) = 0.20451 -0.24202
# Poissons Ratio (y) = 0.14613 -0.06183
# Poissons Ratio (z) = -0.39110 -0.13983
#
# Static dielectric constant tensor:
#      x y z
#    x 1.744470 -0.057820 0.016270 
#    y -0.057820 1.886250 -0.032280 
#    z 0.016270 -0.032280 1.892970 
# 
# From -- ./inp_files/320762.got.cif
#   From: 2010.05.17/outbox.cif.g08.bks.cpg/sg2_161_cif.got.tgz:320762.got - 2010.06.03 11:33:40.
