data_PCOD9092581
_publ_section_title
;
Structure prediction by ZEFSAII (Michael W. Deem and Ramdas Pophale) SiO2 
 PCOD9092581
Probable space group: P -1
;
_chemical_formula_sum "Si O2"
_cell_formula_units_Z 16
_cell_length_a 11.988344
_cell_length_b 13.049233
_cell_length_c 12.795769
_cell_angle_alpha 83.770650
_cell_angle_beta 119.848360
_cell_angle_gamma 147.842777
_cell_volume 679.533870
_symmetry_space_group_name_H-M "P -1"
_symmetry_group_IT_number 2
_symmetry_cell_setting 'triclinic'
loop_
_space_group_symop_operation_xyz
x,y,z
-x,-y,-z
loop_
_atom_site_type_symbol
_atom_site_label
_atom_site_fract_x
_atom_site_fract_y
_atom_site_fract_z
Si Si1 0.564295 0.946087 0.105918
Si Si2 0.314013 0.036552 0.227415
Si Si3 0.536289 0.389201 0.381426
Si Si4 0.313480 0.543204 0.086340
Si Si5 0.761127 0.199915 0.370251
Si Si6 0.272832 0.511571 0.322733
Si Si7 0.165473 0.203461 0.631642
Si Si8 0.610939 0.941814 0.496820
O O1 0.552606 0.979978 0.214694
O O2 0.943212 0.205394 0.225270
O O3 0.360840 0.690478 0.040110
O O4 0.500000 0.000000 0.000000
O O5 0.303006 0.152173 0.221920
O O6 0.639230 0.227689 0.302885
O O7 0.325217 0.015332 0.356827
O O8 0.007736 0.754170 0.064801
O O9 0.483932 0.351728 0.486730
O O10 0.592322 0.544254 0.348830
O O11 0.872201 0.568438 0.505980
O O12 0.319373 0.552542 0.215402
O O13 0.632988 0.708362 0.196233
O O14 0.658641 0.085375 0.449005
O O15 0.276662 0.636289 0.343961
O O16 0.000000 0.000000 0.500000
O O17 0.891763 0.079182 0.558465
#
# Coordination Sequence:
#
# PCOD9092581 Si02
#       8
#     2   2   2   2   2   2   2   2
#     4  11  24  41  64 102 134 167 221 283 317 392
#     4  11  24  39  61 101 135 177 211 268 339 396
#     4   9  22  41  66 101 128 168 230 266 318 393
#     4  12  25  43  66  98 137 174 216 271 346 376
#     4  10  19  41  69  89 134 175 220 266 324 384
#     4  10  20  41  66  96 124 167 223 266 318 383
#     4  11  21  44  73  93 131 173 224 280 316 387
#     4  10  21  41  67  95 127 171 224 268 319 391
#
# _framework density 23.545553000000002
#
# number of rings (size 3 to 8) (size 9 to 14) (size 15 to 20)
#    0.000    1.500    2.500    3.000    1.750    2.500 
#   15.750    0.000    0.000    0.000    0.000    0.000 
#    0.000    0.000    0.000    0.000    0.000    0.000 
#
# Total GULP energy -89203.343581 kJ/mol
# GULP energy per Si atom -5575.208974 kJ/mol
# Density = 2.349196 g / cm^3
# Si number density = 23.545553 Si / 1000 Ang^3
#
#
#
# Elastic Constant Matrix: (Units=GPa)
#
#
# Indices 1 2 3 4 5 6 
#
# 1 71.3190 7.1279 24.6006 -0.2146 -1.6507 -16.4211
# 2 7.1279 118.2126 28.4189 -6.0950 -4.4648 -18.4914
# 3 24.6006 28.4189 98.0012 13.7158 -14.6868 -19.8080
# 4 -0.2146 -6.0950 13.7158 24.7436 -1.9341 -2.2007
# 5 -1.6507 -4.4648 -14.6868 -1.9341 23.5267 -3.4314
# 6 -16.4211 -18.4914 -19.8080 -2.2007 -3.4314 36.9563
#
#
#
# Elastic Compliance Matrix: (Units=1/GPa)
#
#
# Indices 1 2 3 4 5 6 
#
# 1 0.016587 0.000982 -0.003581 0.002936 0.000252 0.006141
# 2 0.000982 0.010013 -0.002693 0.004459 0.001295 0.004389
# 3 -0.003581 -0.002693 0.015546 -0.008087 0.009117 0.005759
# 4 0.002936 0.004459 -0.008087 0.046203 0.000088 0.001961
# 5 0.000252 0.001295 0.009117 0.000088 0.049968 0.010291
# 6 0.006141 0.004389 0.005759 0.001961 0.010291 0.036143
#
#
# Mechanical properties :
#
#
# Convention : Reuss Voigt Hill
#
# Bulk Modulus (GPa) = 31.68307 45.31417 38.49862
# Shear Modulus (GPa) = 25.56720 32.20434 28.88577
#
# Velocity S-wave (km/s) = 3.29882 3.70232 3.50638
# Velocity P-wave (km/s) = 5.29102 6.12889 5.72530
#
# Compressibility (1/GPa) = 0.03156260
#
# Stress axis : x y z
#
# Youngs Moduli (GPa) = 60.28816 99.87132 64.32568
#
# Poissons Ratio (x) = -0.09809 0.23032
# Poissons Ratio (y) = -0.05921 0.17324
# Poissons Ratio (z) = 0.21586 0.26897
#
# Static dielectric constant tensor:
#      x y z
#    x 1.964550 0.016460 0.040860 
#    y 0.016460 1.979200 0.061850 
#    z 0.040860 0.061850 1.933840 
# 
# From -- ./inp_files/519730.got.cif
#   From: 2010.05.17/outbox.cif.g08.bks.cpg/sg2_260_cif.got.tgz:519730.got - 2010.06.03 11:33:40.
