data_PCOD9092903
_publ_section_title
;
Structure prediction by ZEFSAII (Michael W. Deem and Ramdas Pophale) SiO2 
 PCOD9092903
Probable space group: P -1
;
_chemical_formula_sum "Si O2"
_cell_formula_units_Z 16
_cell_length_a 8.675060
_cell_length_b 11.440098
_cell_length_c 13.467744
_cell_angle_alpha 123.874861
_cell_angle_beta 44.535805
_cell_angle_gamma 96.401847
_cell_volume 678.102865
_symmetry_space_group_name_H-M "P -1"
_symmetry_group_IT_number 2
_symmetry_cell_setting 'triclinic'
loop_
_space_group_symop_operation_xyz
x,y,z
-x,-y,-z
loop_
_atom_site_type_symbol
_atom_site_label
_atom_site_fract_x
_atom_site_fract_y
_atom_site_fract_z
Si Si1 0.066121 0.911500 0.821847
Si Si2 0.404814 0.400820 0.593704
Si Si3 0.031546 0.791366 0.126076
Si Si4 0.944727 0.370802 0.769565
Si Si5 0.667086 0.670836 0.177283
Si Si6 0.916042 0.752196 0.663303
Si Si7 0.876471 0.148633 0.553581
Si Si8 0.581463 0.593315 0.706170
O O1 0.348470 0.764185 0.624320
O O2 0.900935 0.832375 0.816106
O O3 0.000000 0.000000 0.000000
O O4 0.047101 0.040494 0.810103
O O5 0.348127 0.382885 0.728744
O O6 0.467495 0.548138 0.640168
O O7 0.163814 0.410150 0.654103
O O8 0.334238 0.685457 0.931403
O O9 0.953002 0.776449 0.266994
O O10 0.886816 0.716818 0.095073
O O11 0.838069 0.310816 0.702714
O O12 0.747438 0.526520 0.994347
O O13 0.394007 0.815368 0.344301
O O14 0.703991 0.709007 0.707257
O O15 0.937767 0.869805 0.629585
O O16 0.184364 0.583016 0.456759
O O17 0.000000 0.000000 0.500000
#
# Coordination Sequence:
#
# PCOD9092903 Si02
#       8
#     2   2   2   2   2   2   2   2
#     4  11  25  44  63  97 137 182 226 274 339 415
#     4  10  20  43  72  94 135 174 229 281 339 396
#     4  11  22  41  68 100 132 178 221 278 343 396
#     4  11  22  39  72 103 133 174 230 280 339 406
#     4  11  21  43  69  97 139 176 225 285 336 396
#     4  10  23  46  69  97 138 179 225 283 342 394
#     4  12  25  41  65 106 142 182 219 279 348 409
#     4  10  19  43  74  94 131 185 223 279 338 397
#
# _framework density 23.595237000000001
#
# number of rings (size 3 to 8) (size 9 to 14) (size 15 to 20)
#    0.000    1.250    5.000    1.875    1.750    2.500 
#    9.000    3.125    0.000    0.000    0.000    0.000 
#    0.000    0.000    0.000    0.000    0.000    0.000 
#
# Total GULP energy -89412.335813 kJ/mol
# GULP energy per Si atom -5588.270988 kJ/mol
# Density = 2.354153 g / cm^3
# Si number density = 23.595237 Si / 1000 Ang^3
#
#
#
# Elastic Constant Matrix: (Units=GPa)
#
#
# Indices 1 2 3 4 5 6 
#
# 1 108.8708 54.3010 38.6875 -6.9581 1.2850 34.2856
# 2 54.3010 122.1874 43.6105 -3.7170 -9.7508 15.7279
# 3 38.6875 43.6105 90.6872 2.0844 10.0191 33.3845
# 4 -6.9581 -3.7170 2.0844 25.6980 12.5410 -7.9344
# 5 1.2850 -9.7508 10.0191 12.5410 51.6984 0.0208
# 6 34.2856 15.7279 33.3845 -7.9344 0.0208 38.5554
#
#
#
# Elastic Compliance Matrix: (Units=1/GPa)
#
#
# Indices 1 2 3 4 5 6 
#
# 1 0.015682 -0.005798 0.000746 0.000446 -0.001731 -0.012133
# 2 -0.005798 0.012472 -0.005866 0.000644 0.003475 0.005278
# 3 0.000746 -0.005866 0.020357 -0.005787 -0.003659 -0.017086
# 4 0.000446 0.000644 -0.005787 0.049316 -0.010737 0.014507
# 5 -0.001731 0.003475 -0.003659 -0.010737 0.023355 0.001068
# 6 -0.012133 0.005278 -0.017086 0.014507 0.001068 0.052352
#
#
# Mechanical properties :
#
#
# Convention : Reuss Voigt Hill
#
# Bulk Modulus (GPa) = 37.48923 66.10482 51.79703
# Shear Modulus (GPa) = 24.47848 35.53346 30.00597
#
# Velocity S-wave (km/s) = 3.22442 3.88488 3.56995
# Velocity P-wave (km/s) = 5.45760 6.94262 6.24442
#
# Compressibility (1/GPa) = 0.02667432
#
# Stress axis : x y z
#
# Youngs Moduli (GPa) = 63.76727 80.17938 49.12410
#
# Poissons Ratio (x) = 0.46490 -0.03664
# Poissons Ratio (y) = 0.36974 0.28816
# Poissons Ratio (z) = -0.04757 0.47032
#
# Static dielectric constant tensor:
#      x y z
#    x 1.912970 0.016170 0.062120 
#    y 0.016170 1.946240 -0.004340 
#    z 0.062120 -0.004340 1.901440 
# 
# From -- ./inp_files/500769.got.cif
#   From: 2010.05.17/outbox.cif.g08.bks.cpg/sg2_251_cif.got.tgz:500769.got - 2010.06.03 11:33:40.
