data_PCOD9092586
_publ_section_title
;
Structure prediction by ZEFSAII (Michael W. Deem and Ramdas Pophale) SiO2 
 PCOD9092586
Probable space group: P -1
;
_chemical_formula_sum "Si O2"
_cell_formula_units_Z 12
_cell_length_a 9.306104
_cell_length_b 18.143800
_cell_length_c 15.065792
_cell_angle_alpha 20.718435
_cell_angle_beta 38.842957
_cell_angle_gamma 50.352859
_cell_volume 515.418495
_symmetry_space_group_name_H-M "P -1"
_symmetry_group_IT_number 2
_symmetry_cell_setting 'triclinic'
loop_
_space_group_symop_operation_xyz
x,y,z
-x,-y,-z
loop_
_atom_site_type_symbol
_atom_site_label
_atom_site_fract_x
_atom_site_fract_y
_atom_site_fract_z
Si Si1 0.868847 0.116495 0.649979
Si Si2 0.583022 0.515307 0.181999
Si Si3 0.919251 0.377664 0.962206
Si Si4 0.678835 0.642917 0.331797
Si Si5 0.173103 0.817497 0.595700
Si Si6 0.549190 0.771230 0.742116
O O1 0.772069 0.036582 0.685585
O O2 0.900076 0.377735 0.355768
O O3 0.153706 0.152929 0.493520
O O4 0.700483 0.902510 0.031649
O O5 0.420291 0.471833 0.397507
O O6 0.621293 0.291331 0.384702
O O7 0.485500 0.634134 0.020006
O O8 0.876545 0.672282 0.882083
O O9 0.057116 0.348740 0.840525
O O10 0.854850 0.171129 0.297154
O O11 0.655664 0.382198 0.057914
O O12 0.500000 0.500000 0.500000
O O13 0.500000 0.000000 0.500000
#
# Coordination Sequence:
#
# PCOD9092586 Si02
#       6
#     2   2   2   2   2   2
#     4  11  23  43  67  95 131 165 218 262 317 378
#     4  10  21  41  63  95 132 163 213 266 314 377
#     4  12  22  41  69  95 126 172 215 261 319 374
#     4  12  25  40  66  99 131 166 209 270 324 371
#     4  10  19  41  69  93 122 171 217 263 308 376
#     4  11  23  42  68  94 126 174 216 259 311 388
#
# _framework density 23.282052
#
# number of rings (size 3 to 8) (size 9 to 14) (size 15 to 20)
#    0.000    1.000    8.333    0.500    0.000    5.333 
#    0.000    0.833    0.000    0.000    0.000    0.000 
#    0.000    0.000    0.000    0.000    0.000    0.000 
#
# Total GULP energy -66837.946567 kJ/mol
# GULP energy per Si atom -5569.828881 kJ/mol
# Density = 2.322906 g / cm^3
# Si number density = 23.282052 Si / 1000 Ang^3
#
#
#
# Elastic Constant Matrix: (Units=GPa)
#
#
# Indices 1 2 3 4 5 6 
#
# 1 113.9269 14.8343 33.6903 -4.4035 22.1062 -6.3424
# 2 14.8343 88.8315 5.2381 4.4391 9.7985 -5.0531
# 3 33.6903 5.2381 89.8420 1.7568 15.1472 19.1792
# 4 -4.4035 4.4391 1.7568 42.0551 5.3675 7.5093
# 5 22.1062 9.7985 15.1472 5.3675 38.4439 1.2394
# 6 -6.3424 -5.0531 19.1792 7.5093 1.2394 33.8807
#
#
#
# Elastic Compliance Matrix: (Units=1/GPa)
#
#
# Indices 1 2 3 4 5 6 
#
# 1 0.011442 -0.000926 -0.004358 0.001332 -0.004953 0.004356
# 2 -0.000926 0.011879 -0.000425 -0.001453 -0.002197 0.002241
# 3 -0.004358 -0.000425 0.015398 0.001101 -0.003293 -0.009719
# 4 0.001332 -0.001453 0.001101 0.025656 -0.004214 -0.006123
# 5 -0.004953 -0.002197 -0.003293 -0.004214 0.031293 0.000399
# 6 0.004356 0.002241 -0.009719 -0.006123 0.000399 0.037509
#
#
# Mechanical properties :
#
#
# Convention : Reuss Voigt Hill
#
# Bulk Modulus (GPa) = 36.62754 44.45841 40.54297
# Shear Modulus (GPa) = 32.53169 38.79848 35.66508
#
# Velocity S-wave (km/s) = 3.74208 4.08665 3.91816
# Velocity P-wave (km/s) = 5.86832 6.43464 6.15800
#
# Compressibility (1/GPa) = 0.02730186
#
# Stress axis : x y z
#
# Youngs Moduli (GPa) = 87.39860 84.17900 64.94315
#
# Poissons Ratio (x) = 0.07797 0.28300
# Poissons Ratio (y) = 0.08095 0.02759
# Poissons Ratio (z) = 0.38085 0.03577
#
# Static dielectric constant tensor:
#      x y z
#    x 1.880080 0.053780 -0.038870 
#    y 0.053780 2.060290 -0.072420 
#    z -0.038870 -0.072420 1.920600 
# 
# From -- ./inp_files/507791.got.cif
#   From: 2010.05.17/outbox.cif.g08.bks.cpg/sg2_254_cif.got.tgz:507791.got - 2010.06.03 11:33:40.
