data_PCOD9092371
_publ_section_title
;
Structure prediction by ZEFSAII (Michael W. Deem and Ramdas Pophale) SiO2 
 PCOD9092371
Probable space group: P -1
;
_chemical_formula_sum "Si O2"
_cell_formula_units_Z 16
_cell_length_a 13.720891
_cell_length_b 9.083361
_cell_length_c 11.082526
_cell_angle_alpha 83.572441
_cell_angle_beta 81.849497
_cell_angle_gamma 30.134623
_cell_volume 686.263924
_symmetry_space_group_name_H-M "P -1"
_symmetry_group_IT_number 2
_symmetry_cell_setting 'triclinic'
loop_
_space_group_symop_operation_xyz
x,y,z
-x,-y,-z
loop_
_atom_site_type_symbol
_atom_site_label
_atom_site_fract_x
_atom_site_fract_y
_atom_site_fract_z
Si Si1 0.213206 0.391136 0.515143
Si Si2 0.721192 0.023836 0.154697
Si Si3 0.454012 0.811222 0.596847
Si Si4 0.132447 0.486612 0.254555
Si Si5 0.880100 0.169183 0.701006
Si Si6 0.816683 0.067185 0.501952
Si Si7 0.058694 0.074285 0.047519
Si Si8 0.276448 0.247313 0.004721
O O1 0.300240 0.151088 0.604024
O O2 0.184509 0.360398 0.388491
O O3 0.001338 0.731830 0.549152
O O4 0.368085 0.324647 0.480724
O O5 0.546802 0.250008 0.259678
O O6 0.734939 0.860854 0.085315
O O7 0.908296 0.790144 0.230382
O O8 0.753729 0.109160 0.041677
O O9 0.351420 0.821322 0.528711
O O10 0.191627 0.583991 0.246703
O O11 0.222658 0.276481 0.149398
O O12 0.080502 0.965802 0.617690
O O13 0.760933 0.247115 0.605189
O O14 0.908833 0.009917 0.812447
O O15 0.881632 0.420833 0.030466
O O16 0.000000 0.000000 0.000000
O O17 0.500000 0.000000 0.000000
#
# Coordination Sequence:
#
# PCOD9092371 Si02
#       8
#     2   2   2   2   2   2   2   2
#     4  10  22  36  63  88 127 160 212 266 316 384
#     4  11  22  38  65  92 123 170 215 260 322 387
#     4  11  21  38  59  94 124 166 209 260 326 379
#     4  10  19  41  61  87 123 162 211 261 313 373
#     4  10  20  38  66  91 119 168 222 252 313 391
#     4  10  21  39  63  89 127 166 209 264 318 372
#     4  11  20  40  69  90 122 173 220 257 314 397
#     4  11  24  39  61  93 132 164 210 275 320 371
#
# _framework density 23.314646
#
# number of rings (size 3 to 8) (size 9 to 14) (size 15 to 20)
#    0.000    1.500    5.000    2.625    1.750    1.000 
#    0.000    6.250    5.500    0.000    0.000    0.000 
#    0.000    0.000    0.000    0.000    0.000    0.000 
#
# Total GULP energy -89303.860246 kJ/mol
# GULP energy per Si atom -5581.491265 kJ/mol
# Density = 2.326158 g / cm^3
# Si number density = 23.314646 Si / 1000 Ang^3
#
#
#
# Elastic Constant Matrix: (Units=GPa)
#
#
# Indices 1 2 3 4 5 6 
#
# 1 173.9839 19.7835 53.1537 9.1008 24.3396 -11.7679
# 2 19.7835 27.7702 -1.1753 15.7783 -0.9699 -2.8148
# 3 53.1537 -1.1753 107.9972 13.6585 6.8506 6.1608
# 4 9.1008 15.7783 13.6585 37.6779 11.3280 3.7608
# 5 24.3396 -0.9699 6.8506 11.3280 49.6880 -5.0225
# 6 -11.7679 -2.8148 6.1608 3.7608 -5.0225 43.3781
#
#
#
# Elastic Compliance Matrix: (Units=1/GPa)
#
#
# Indices 1 2 3 4 5 6 
#
# 1 0.008773 -0.009152 -0.004801 0.004728 -0.004739 0.001509
# 2 -0.009152 0.060868 0.007983 -0.030179 0.011888 0.004326
# 3 -0.004801 0.007983 0.012579 -0.007254 0.002257 -0.001681
# 4 0.004728 -0.030179 -0.007254 0.044974 -0.012665 -0.005011
# 5 -0.004739 0.011888 0.002257 -0.012665 0.025581 0.003225
# 6 0.001509 0.004326 -0.001681 -0.005011 0.003225 0.024790
#
#
# Mechanical properties :
#
#
# Convention : Reuss Voigt Hill
#
# Bulk Modulus (GPa) = 14.22880 50.36390 32.29635
# Shear Modulus (GPa) = 23.48163 42.01477 32.74820
#
# Velocity S-wave (km/s) = 3.17702 4.24969 3.75189
# Velocity P-wave (km/s) = 4.42427 6.76229 5.71414
#
# Compressibility (1/GPa) = 0.07027997
#
# Stress axis : x y z
#
# Youngs Moduli (GPa) = 113.98889 16.42901 79.49529
#
# Poissons Ratio (x) = 0.15036 0.38164
# Poissons Ratio (y) = 1.04321 -0.63458
# Poissons Ratio (z) = 0.54724 -0.13115
#
# Static dielectric constant tensor:
#      x y z
#    x 1.908480 -0.030470 -0.011310 
#    y -0.030470 2.034820 -0.062740 
#    z -0.011310 -0.062740 1.847080 
# 
# From -- ./inp_files/417361.got.cif
#   From: 2010.05.17/outbox.cif.g08.bks.cpg/sg2_209_cif.got.tgz:417361.got - 2010.06.03 11:33:40.
