data_PCOD9092153
_publ_section_title
;
Structure prediction by ZEFSAII (Michael W. Deem and Ramdas Pophale) SiO2 
 PCOD9092153
Probable space group: P -1
;
_chemical_formula_sum "Si O2"
_cell_formula_units_Z 16
_cell_length_a 8.839852
_cell_length_b 14.086808
_cell_length_c 10.072579
_cell_angle_alpha 37.659875
_cell_angle_beta 82.377960
_cell_angle_gamma 63.759426
_cell_volume 630.969845
_symmetry_space_group_name_H-M "P -1"
_symmetry_group_IT_number 2
_symmetry_cell_setting 'triclinic'
loop_
_space_group_symop_operation_xyz
x,y,z
-x,-y,-z
loop_
_atom_site_type_symbol
_atom_site_label
_atom_site_fract_x
_atom_site_fract_y
_atom_site_fract_z
Si Si1 0.706238 0.700314 0.857638
Si Si2 0.537698 0.229740 0.622855
Si Si3 0.210702 0.898024 0.032209
Si Si4 0.084067 0.898625 0.778708
Si Si5 0.839454 0.713077 0.384325
Si Si6 0.204678 0.191678 0.006268
Si Si7 0.996554 0.302923 0.350519
Si Si8 0.392689 0.715532 0.738939
O O1 0.704590 0.758037 0.945159
O O2 0.827299 0.745488 0.702424
O O3 0.513351 0.783765 0.717232
O O4 0.823456 0.474020 0.105499
O O5 0.320839 0.323728 0.546738
O O6 0.596264 0.275801 0.428973
O O7 0.631609 0.007195 0.848227
O O8 0.638890 0.245044 0.721538
O O9 0.218958 0.806870 0.991971
O O10 0.237452 0.067529 0.821737
O O11 0.000000 0.000000 0.000000
O O12 0.197923 0.831880 0.704987
O O13 0.939626 0.842099 0.869147
O O14 0.002521 0.882187 0.429924
O O15 0.981516 0.626055 0.586824
O O16 0.890963 0.688793 0.248996
O O17 0.500000 0.500000 0.000000
#
# Coordination Sequence:
#
# PCOD9092153 Si02
#       8
#     2   2   2   2   2   2   2   2
#     4  11  26  45  67 100 142 180 229 283 343 405
#     4  11  23  42  71  99 141 180 230 282 346 404
#     4  10  19  40  67 106 132 172 227 285 334 407
#     4  11  25  45  74 103 137 182 234 280 346 416
#     4  10  21  40  69 100 138 175 232 284 339 405
#     4  11  24  41  72 106 133 179 232 284 343 411
#     4  10  24  44  73  96 138 184 231 279 340 413
#     4  12  30  47  66 101 146 181 231 290 345 407
#
# _framework density 25.357786999999998
#
# number of rings (size 3 to 8) (size 9 to 14) (size 15 to 20)
#    0.000    1.250    3.750    2.250   10.500    2.500 
#    0.000    0.625    0.000    0.000    0.000    0.000 
#    0.000    0.000    0.000    0.000    0.000    0.000 
#
# Total GULP energy -89614.501137 kJ/mol
# GULP energy per Si atom -5600.906321 kJ/mol
# Density = 2.530007 g / cm^3
# Si number density = 25.357787 Si / 1000 Ang^3
#
#
#
# Elastic Constant Matrix: (Units=GPa)
#
#
# Indices 1 2 3 4 5 6 
#
# 1 130.0044 13.4072 31.9003 19.0633 8.0744 -9.9345
# 2 13.4072 62.4488 9.0852 22.0453 0.7518 8.8066
# 3 31.9003 9.0852 117.2632 33.5985 8.2713 4.6703
# 4 19.0633 22.0453 33.5985 41.9358 5.2382 7.9301
# 5 8.0744 0.7518 8.2713 5.2382 38.4411 16.9328
# 6 -9.9345 8.8066 4.6703 7.9301 16.9328 36.2597
#
#
#
# Elastic Compliance Matrix: (Units=1/GPa)
#
#
# Indices 1 2 3 4 5 6 
#
# 1 0.009269 -0.001516 -0.001588 -0.002714 -0.003573 0.005374
# 2 -0.001516 0.020648 0.002014 -0.011282 0.003069 -0.004655
# 3 -0.001588 0.002014 0.011597 -0.009530 -0.000951 0.000110
# 4 -0.002714 -0.011282 -0.009530 0.039685 -0.000206 -0.005359
# 5 -0.003573 0.003069 -0.000951 -0.000206 0.034776 -0.017797
# 6 0.005374 -0.004655 0.000110 -0.005359 -0.017797 0.039651
#
#
# Mechanical properties :
#
#
# Convention : Reuss Voigt Hill
#
# Bulk Modulus (GPa) = 25.42347 46.50022 35.96184
# Shear Modulus (GPa) = 29.25395 40.34890 34.80142
#
# Velocity S-wave (km/s) = 3.40022 3.99329 3.70863
# Velocity P-wave (km/s) = 5.04609 6.29597 5.70536
#
# Compressibility (1/GPa) = 0.03933373
#
# Stress axis : x y z
#
# Youngs Moduli (GPa) = 107.89042 48.43132 86.22746
#
# Poissons Ratio (x) = 0.07340 0.13697
# Poissons Ratio (y) = 0.16352 -0.17367
# Poissons Ratio (z) = 0.17138 -0.09754
#
# Static dielectric constant tensor:
#      x y z
#    x 2.007880 0.021050 0.051350 
#    y 0.021050 1.988910 -0.009800 
#    z 0.051350 -0.009800 2.053570 
# 
# From -- ./inp_files/199590.got.cif
#   From: 2010.05.17/outbox.cif.g08.bks.cpg/sg2_100_cif.got.tgz:199590.got - 2010.06.03 11:33:40.
