data_PCOD9092440
_publ_section_title
;
Structure prediction by ZEFSAII (Michael W. Deem and Ramdas Pophale) SiO2 
 PCOD9092440
Probable space group: P -1
;
_chemical_formula_sum "Si O2"
_cell_formula_units_Z 16
_cell_length_a 7.865054
_cell_length_b 17.133839
_cell_length_c 21.026346
_cell_angle_alpha 19.900295
_cell_angle_beta 117.199563
_cell_angle_gamma 126.112726
_cell_volume 728.974606
_symmetry_space_group_name_H-M "P -1"
_symmetry_group_IT_number 2
_symmetry_cell_setting 'triclinic'
loop_
_space_group_symop_operation_xyz
x,y,z
-x,-y,-z
loop_
_atom_site_type_symbol
_atom_site_label
_atom_site_fract_x
_atom_site_fract_y
_atom_site_fract_z
Si Si1 0.204980 0.967767 0.431382
Si Si2 0.011216 0.672743 0.309378
Si Si3 0.879589 0.181789 0.212257
Si Si4 0.867624 0.332846 0.853713
Si Si5 0.347445 0.064852 0.762629
Si Si6 0.429986 0.127684 0.484775
Si Si7 0.268169 0.534218 0.385337
Si Si8 0.223144 0.271285 0.881478
O O1 0.394741 0.976614 0.410777
O O2 0.023794 0.649578 0.651525
O O3 0.319908 0.078943 0.434080
O O4 0.071336 0.114832 0.278620
O O5 0.034524 0.502590 0.387460
O O6 0.000000 0.500000 0.500000
O O7 0.814579 0.702071 0.221208
O O8 0.208662 0.988748 0.105501
O O9 0.690585 0.068378 0.210817
O O10 0.753199 0.028496 0.372480
O O11 0.000000 0.500000 0.000000
O O12 0.675402 0.311951 0.789595
O O13 0.018914 0.236308 0.918113
O O14 0.771972 0.166821 0.028364
O O15 0.241124 0.249892 0.595451
O O16 0.578054 0.290732 0.663543
O O17 0.563065 0.447079 0.277427
#
# Coordination Sequence:
#
# PCOD9092440 Si02
#       8
#     2   2   2   2   2   2   2   2
#     4  10  22  45  70  94 131 181 217 277 342 391
#     4  10  20  36  60  90 130 169 211 274 327 387
#     4  12  26  43  66 103 137 173 225 282 341 398
#     4  10  19  41  65  86 129 176 215 271 333 394
#     4  11  23  39  61  95 127 169 225 271 328 398
#     4  10  23  44  70  96 132 177 230 274 331 411
#     4  10  22  38  58  92 126 176 220 263 332 390
#     4   9  21  38  60  94 125 168 221 265 331 389
#
# _framework density 21.948637999999999
#
# number of rings (size 3 to 8) (size 9 to 14) (size 15 to 20)
#    0.000    1.750    1.250    2.250    1.750    2.500 
#    4.500    0.000    0.000    0.000    0.000    0.000 
#    0.000    0.000    0.000    0.000    0.000    0.000 
#
# Total GULP energy -89180.701224 kJ/mol
# GULP energy per Si atom -5573.793827 kJ/mol
# Density = 2.189868 g / cm^3
# Si number density = 21.948638 Si / 1000 Ang^3
#
#
#
# Elastic Constant Matrix: (Units=GPa)
#
#
# Indices 1 2 3 4 5 6 
#
# 1 47.4056 4.9839 22.9564 0.1634 16.6074 0.4775
# 2 4.9839 131.0195 41.3577 -18.0831 9.0366 -12.8339
# 3 22.9564 41.3577 140.0081 -10.5174 26.5915 -4.1579
# 4 0.1634 -18.0831 -10.5174 53.4380 -4.9570 -3.9392
# 5 16.6074 9.0366 26.5915 -4.9570 30.9570 -3.2329
# 6 0.4775 -12.8339 -4.1579 -3.9392 -3.2329 25.4295
#
#
#
# Elastic Compliance Matrix: (Units=1/GPa)
#
#
# Indices 1 2 3 4 5 6 
#
# 1 0.026758 0.000019 -0.002126 -0.001919 -0.013135 -0.002808
# 2 0.000019 0.009266 -0.002439 0.003043 0.000368 0.004795
# 3 -0.002126 -0.002439 0.009411 0.000430 -0.006201 -0.000374
# 4 -0.001919 0.003043 0.000430 0.020559 0.003616 0.005287
# 5 -0.013135 0.000368 -0.006201 0.003616 0.045753 0.005795
# 6 -0.002808 0.004795 -0.000374 0.005287 0.005795 0.043292
#
#
# Mechanical properties :
#
#
# Convention : Reuss Voigt Hill
#
# Bulk Modulus (GPa) = 27.51546 50.78103 39.14824
# Shear Modulus (GPa) = 28.36965 38.57390 33.47177
#
# Velocity S-wave (km/s) = 3.59910 4.19676 3.90937
# Velocity P-wave (km/s) = 5.46213 6.83156 6.18487
#
# Compressibility (1/GPa) = 0.03634321
#
# Stress axis : x y z
#
# Youngs Moduli (GPa) = 37.37131 107.92117 106.26373
#
# Poissons Ratio (x) = -0.00208 0.22591
# Poissons Ratio (y) = -0.00072 0.25920
# Poissons Ratio (z) = 0.07945 0.26324
#
# Static dielectric constant tensor:
#      x y z
#    x 1.908470 0.053880 0.032300 
#    y 0.053880 1.872130 0.043900 
#    z 0.032300 0.043900 1.799960 
# 
# From -- ./inp_files/590899.got.cif
#   From: 2010.05.17/outbox.cif.g08.bks.cpg/sg2_296_cif.got.tgz:590899.got - 2010.06.03 11:33:40.
