data_PCOD9092521
_publ_section_title
;
Structure prediction by ZEFSAII (Michael W. Deem and Ramdas Pophale) SiO2 
 PCOD9092521
Probable space group: P -1
;
_chemical_formula_sum "Si O2"
_cell_formula_units_Z 16
_cell_length_a 14.828602
_cell_length_b 8.377702
_cell_length_c 14.284741
_cell_angle_alpha 73.875189
_cell_angle_beta 31.837811
_cell_angle_gamma 93.958006
_cell_volume 718.220606
_symmetry_space_group_name_H-M "P -1"
_symmetry_group_IT_number 2
_symmetry_cell_setting 'triclinic'
loop_
_space_group_symop_operation_xyz
x,y,z
-x,-y,-z
loop_
_atom_site_type_symbol
_atom_site_label
_atom_site_fract_x
_atom_site_fract_y
_atom_site_fract_z
Si Si1 0.660498 0.891956 0.364171
Si Si2 0.821531 0.427845 0.446215
Si Si3 0.531849 0.489175 0.259739
Si Si4 0.864520 0.762423 0.068676
Si Si5 0.206818 0.615833 0.731889
Si Si6 0.996706 0.673487 0.417284
Si Si7 0.416670 0.351029 0.185998
Si Si8 0.310485 0.950509 0.241659
O O1 0.579244 0.717239 0.544489
O O2 0.431396 0.825019 0.535986
O O3 0.775921 0.879981 0.172385
O O4 0.877549 0.099869 0.182895
O O5 0.622417 0.439906 0.613598
O O6 0.858539 0.385745 0.315921
O O7 0.018116 0.632413 0.295843
O O8 0.755657 0.236477 0.600952
O O9 0.561478 0.438164 0.136785
O O10 0.755740 0.668466 0.080468
O O11 0.758634 0.563888 0.263402
O O12 0.000000 0.500000 0.000000
O O13 0.780830 0.651230 0.608357
O O14 0.000000 0.500000 0.500000
O O15 0.137330 0.876421 0.324753
O O16 0.362959 0.138865 0.228171
O O17 0.500000 0.500000 0.000000
O O18 0.500000 0.000000 0.000000
#
# Coordination Sequence:
#
# PCOD9092521 Si02
#       8
#     2   2   2   2   2   2   2   2
#     4  10  20  40  68  95 127 171 232 265 334 406
#     4  10  20  41  65  93 131 170 219 270 340 402
#     4  10  19  41  67  93 130 170 221 282 328 396
#     4  10  20  40  68  91 130 172 223 278 326 401
#     4  11  22  40  61  96 139 176 210 279 330 396
#     4   9  20  41  67  91 126 164 210 279 328 398
#     4  11  23  42  65  94 128 170 220 269 338 404
#     4  11  23  44  65  96 130 171 219 280 341 408
#
# _framework density 22.277277000000002
#
# number of rings (size 3 to 8) (size 9 to 14) (size 15 to 20)
#    0.000    1.750    2.500    3.375    0.000    1.500 
#   27.000    0.000    0.000    0.000    0.000    0.000 
#    0.000    0.000    0.000    0.000    0.000    0.000 
#
# Total GULP energy -89114.730827 kJ/mol
# GULP energy per Si atom -5569.670677 kJ/mol
# Density = 2.222657 g / cm^3
# Si number density = 22.277277 Si / 1000 Ang^3
#
#
#
# Elastic Constant Matrix: (Units=GPa)
#
#
# Indices 1 2 3 4 5 6 
#
# 1 184.4246 58.5206 64.5789 -7.3500 -3.4625 56.1409
# 2 58.5206 82.2493 24.5636 -5.9381 -0.6121 39.3266
# 3 64.5789 24.5636 88.1768 3.9143 -9.1383 31.2632
# 4 -7.3500 -5.9381 3.9143 30.7138 3.9260 -5.7285
# 5 -3.4625 -0.6121 -9.1383 3.9260 40.4117 -2.0153
# 6 56.1409 39.3266 31.2632 -5.7285 -2.0153 46.7667
#
#
#
# Elastic Compliance Matrix: (Units=1/GPa)
#
#
# Indices 1 2 3 4 5 6 
#
# 1 0.009739 -0.002346 -0.004186 0.001220 -0.000605 -0.006796
# 2 -0.002346 0.020941 0.001384 0.000436 -0.000395 -0.015682
# 3 -0.004186 0.001384 0.017588 -0.005007 0.003710 -0.008350
# 4 0.001220 0.000436 -0.005007 0.035157 -0.004155 0.005643
# 5 -0.000605 -0.000395 0.003710 -0.004155 0.025889 -0.000814
# 6 -0.006796 -0.015682 -0.008350 0.005643 -0.000814 0.048967
#
#
# Mechanical properties :
#
#
# Convention : Reuss Voigt Hill
#
# Bulk Modulus (GPa) = 26.33490 72.24188 49.28839
# Shear Modulus (GPa) = 27.58885 37.39096 32.48991
#
# Velocity S-wave (km/s) = 3.52295 4.10132 3.82309
# Velocity P-wave (km/s) = 5.32873 7.41125 6.45453
#
# Compressibility (1/GPa) = 0.03797243
#
# Stress axis : x y z
#
# Youngs Moduli (GPa) = 102.68461 47.75420 56.85608
#
# Poissons Ratio (x) = 0.11201 0.23801
# Poissons Ratio (y) = 0.24086 -0.07870
# Poissons Ratio (z) = 0.42985 -0.06610
#
# Static dielectric constant tensor:
#      x y z
#    x -3.595270 -1.031880 2.649300 
#    y -1.031880 1.727370 0.503080 
#    z 2.649300 0.503080 0.468280 
# 
# From -- ./inp_files/529539.got.cif
#   From: 2010.05.17/outbox.cif.g08.bks.cpg/sg2_265_cif.got.tgz:529539.got - 2010.06.03 11:33:40.
