data_PCOD9092421
_publ_section_title
;
Structure prediction by ZEFSAII (Michael W. Deem and Ramdas Pophale) SiO2 
 PCOD9092421
Probable space group: P -1
;
_chemical_formula_sum "Si O2"
_cell_formula_units_Z 16
_cell_length_a 8.410939
_cell_length_b 12.289216
_cell_length_c 16.068500
_cell_angle_alpha 141.856133
_cell_angle_beta 129.921831
_cell_angle_gamma 50.897119
_cell_volume 758.386847
_symmetry_space_group_name_H-M "P -1"
_symmetry_group_IT_number 2
_symmetry_cell_setting 'triclinic'
loop_
_space_group_symop_operation_xyz
x,y,z
-x,-y,-z
loop_
_atom_site_type_symbol
_atom_site_label
_atom_site_fract_x
_atom_site_fract_y
_atom_site_fract_z
Si Si1 0.998993 0.261503 0.433653
Si Si2 0.213061 0.209934 0.073527
Si Si3 0.452264 0.053164 0.418090
Si Si4 0.339705 0.782478 0.839889
Si Si5 0.895895 0.054531 0.584180
Si Si6 0.480366 0.354141 0.835837
Si Si7 0.919841 0.326243 0.888082
Si Si8 0.926123 0.420072 0.253079
O O1 0.218635 0.187212 0.409687
O O2 0.973304 0.467110 0.578939
O O3 0.800973 0.231182 0.297156
O O4 0.051191 0.125056 0.447876
O O5 0.409521 0.281392 0.143136
O O6 0.101122 0.302224 0.176618
O O7 0.029107 0.241664 0.959927
O O8 0.302365 0.992028 0.982821
O O9 0.648462 0.139510 0.524279
O O10 0.500000 0.000000 0.500000
O O11 0.476522 0.862868 0.262461
O O12 0.229913 0.684014 0.814487
O O13 0.982592 0.193645 0.751577
O O14 0.000000 0.000000 0.500000
O O15 0.665231 0.362078 0.836614
O O16 0.242265 0.425471 0.763477
O O17 0.500000 0.500000 0.000000
O O18 0.000000 0.500000 0.000000
#
# Coordination Sequence:
#
# PCOD9092421 Si02
#       8
#     2   2   2   2   2   2   2   2
#     4  11  22  46  68  89 137 172 217 279 324 392
#     4  11  25  46  67  94 141 171 220 284 321 392
#     4  10  19  41  64  89 128 170 198 264 339 377
#     4  11  25  48  66  92 133 183 223 272 332 381
#     4  11  23  40  64  98 132 171 211 265 338 403
#     4  12  22  38  66  96 131 163 212 273 333 396
#     4  12  24  40  66  99 133 169 210 275 343 391
#     4  12  24  42  71 101 124 177 232 266 329 408
#
# _framework density 21.097414000000001
#
# number of rings (size 3 to 8) (size 9 to 14) (size 15 to 20)
#    0.000    0.750    7.500    1.500    3.500    0.500 
#    2.250    0.000    0.000    0.000    0.000    0.000 
#    0.000    0.000    0.000    0.000    0.000    0.000 
#
# Total GULP energy -89267.395852 kJ/mol
# GULP energy per Si atom -5579.212241 kJ/mol
# Density = 2.104940 g / cm^3
# Si number density = 21.097414 Si / 1000 Ang^3
#
#
#
# Elastic Constant Matrix: (Units=GPa)
#
#
# Indices 1 2 3 4 5 6 
#
# 1 114.4665 26.4261 51.1086 7.3432 -11.4553 -18.6741
# 2 26.4261 41.1973 31.2860 10.8603 -8.5736 -8.0432
# 3 51.1086 31.2860 156.0155 19.2105 -12.2057 -7.0805
# 4 7.3432 10.8603 19.2105 31.8012 -3.1696 9.9896
# 5 -11.4553 -8.5736 -12.2057 -3.1696 36.1858 0.3708
# 6 -18.6741 -8.0432 -7.0805 9.9896 0.3708 30.7383
#
#
#
# Elastic Compliance Matrix: (Units=1/GPa)
#
#
# Indices 1 2 3 4 5 6 
#
# 1 0.012066 -0.003707 -0.002558 -0.001777 0.001858 0.006326
# 2 -0.003707 0.035435 -0.003620 -0.011691 0.004875 0.009927
# 3 -0.002558 -0.003620 0.008484 -0.003379 0.000893 0.000540
# 4 -0.001777 -0.011691 -0.003379 0.043867 -0.000433 -0.019168
# 5 0.001858 0.004875 0.000893 -0.000433 0.029617 0.002394
# 6 0.006326 0.009927 0.000540 -0.019168 0.002394 0.045299
#
#
# Mechanical properties :
#
#
# Convention : Reuss Voigt Hill
#
# Bulk Modulus (GPa) = 27.61289 58.81340 43.21315
# Shear Modulus (GPa) = 24.20022 33.26897 28.73459
#
# Velocity S-wave (km/s) = 3.39052 3.97536 3.69453
# Velocity P-wave (km/s) = 5.33331 7.00063 6.22306
#
# Compressibility (1/GPa) = 0.03621497
#
# Stress axis : x y z
#
# Youngs Moduli (GPa) = 82.87636 28.22068 117.87003
#
# Poissons Ratio (x) = 0.10461 0.30152
# Poissons Ratio (y) = 0.30722 0.42669
# Poissons Ratio (z) = 0.21200 0.10216
#
# Static dielectric constant tensor:
#      x y z
#    x 1.788740 0.007570 0.030480 
#    y 0.007570 1.778950 0.012390 
#    z 0.030480 0.012390 1.778580 
# 
# From -- ./inp_files/501039.got.cif
#   From: 2010.05.17/outbox.cif.g08.bks.cpg/sg2_251_cif.got.tgz:501039.got - 2010.06.03 11:33:40.
