data_PCOD9092822
_publ_section_title
;
Structure prediction by ZEFSAII (Michael W. Deem and Ramdas Pophale) SiO2 
 PCOD9092822
Probable space group: P -1
;
_chemical_formula_sum "Si O2"
_cell_formula_units_Z 16
_cell_length_a 6.585736
_cell_length_b 9.324834
_cell_length_c 14.493456
_cell_angle_alpha 80.134094
_cell_angle_beta 103.949356
_cell_angle_gamma 68.142591
_cell_volume 767.292717
_symmetry_space_group_name_H-M "P -1"
_symmetry_group_IT_number 2
_symmetry_cell_setting 'triclinic'
loop_
_space_group_symop_operation_xyz
x,y,z
-x,-y,-z
loop_
_atom_site_type_symbol
_atom_site_label
_atom_site_fract_x
_atom_site_fract_y
_atom_site_fract_z
Si Si1 0.011072 0.029450 0.107592
Si Si2 0.900106 0.515143 0.589851
Si Si3 0.886271 0.356302 0.260931
Si Si4 0.446483 0.848301 0.490316
Si Si5 0.443969 0.649636 0.912744
Si Si6 0.873144 0.194795 0.680421
Si Si7 0.710038 0.783236 0.821295
Si Si8 0.221770 0.910441 0.645543
O O1 0.216016 0.083089 0.145606
O O2 0.771363 0.184181 0.095033
O O3 0.057570 0.881785 0.200792
O O4 0.000000 0.000000 0.000000
O O5 0.674729 0.685399 0.551322
O O6 0.832605 0.377026 0.636829
O O7 0.000000 0.500000 0.500000
O O8 0.095312 0.526110 0.675161
O O9 0.638169 0.407554 0.182730
O O10 0.927751 0.182339 0.325044
O O11 0.077471 0.329218 0.207198
O O12 0.340595 0.834806 0.381736
O O13 0.260288 0.870627 0.547106
O O14 0.500000 0.000000 0.500000
O O15 0.658079 0.688700 0.909128
O O16 0.500000 0.500000 0.000000
O O17 0.087084 0.090284 0.647720
O O18 0.475499 0.848328 0.727630
#
# Coordination Sequence:
#
# PCOD9092822 Si02
#       8
#     2   2   2   2   2   2   2   2
#     4  11  25  45  65  99 140 177 227 283 349 404
#     4  12  26  43  62 105 147 174 223 284 350 409
#     4  10  21  42  69  93 133 177 227 269 338 408
#     4  12  24  42  73  97 133 188 227 275 345 412
#     4  10  23  43  70  99 124 173 242 288 326 401
#     4  12  24  43  65 103 140 177 226 287 340 408
#     4  10  19  42  72  89 132 174 234 270 334 402
#     4  11  20  43  71  96 128 176 233 270 327 423
#
# _framework density 20.852539
#
# number of rings (size 3 to 8) (size 9 to 14) (size 15 to 20)
#    0.000    1.000    5.000    3.750    0.000    4.500 
#    4.500    0.000    0.000    0.000    0.000    0.000 
#    0.000    0.000    0.000    0.000    0.000    0.000 
#
# Total GULP energy -89314.334043 kJ/mol
# GULP energy per Si atom -5582.145878 kJ/mol
# Density = 2.080508 g / cm^3
# Si number density = 20.852539 Si / 1000 Ang^3
#
#
#
# Elastic Constant Matrix: (Units=GPa)
#
#
# Indices 1 2 3 4 5 6 
#
# 1 86.3469 34.9075 26.9434 -7.3308 -20.6560 17.4355
# 2 34.9075 113.1711 65.6007 -11.8985 -12.3739 23.1548
# 3 26.9434 65.6007 133.0458 3.8112 -15.4082 15.5880
# 4 -7.3308 -11.8985 3.8112 48.7879 6.3661 2.6519
# 5 -20.6560 -12.3739 -15.4082 6.3661 29.5837 7.0164
# 6 17.4355 23.1548 15.5880 2.6519 7.0164 29.3012
#
#
#
# Elastic Compliance Matrix: (Units=1/GPa)
#
#
# Indices 1 2 3 4 5 6 
#
# 1 0.018754 -0.001132 0.000239 0.001230 0.015874 -0.014305
# 2 -0.001132 0.015473 -0.005906 0.004067 0.004042 -0.009748
# 3 0.000239 -0.005906 0.011284 -0.002775 0.004730 -0.002359
# 4 0.001230 0.004067 -0.002775 0.022465 -0.002812 -0.003829
# 5 0.015874 0.004042 0.004730 -0.002812 0.056382 -0.028403
# 6 -0.014305 -0.009748 -0.002359 -0.003829 -0.028403 0.058746
#
#
# Mechanical properties :
#
#
# Convention : Reuss Voigt Hill
#
# Bulk Modulus (GPa) = 31.33483 65.27413 48.30448
# Shear Modulus (GPa) = 24.11497 35.20872 29.66185
#
# Velocity S-wave (km/s) = 3.40435 4.11355 3.77564
# Velocity P-wave (km/s) = 5.52380 7.34387 6.49787
#
# Compressibility (1/GPa) = 0.03191337
#
# Stress axis : x y z
#
# Youngs Moduli (GPa) = 53.32072 64.62933 88.62316
#
# Poissons Ratio (x) = 0.07314 -0.02120
# Poissons Ratio (y) = 0.06034 0.52344
# Poissons Ratio (z) = -0.01276 0.38172
#
# Static dielectric constant tensor:
#      x y z
#    x -6.889370 -6.028880 15.214250 
#    y -6.028880 -2.455650 10.592150 
#    z 15.214250 10.592150 -24.949630 
# 
# From -- ./inp_files/206611.got.cif
#   From: 2010.05.17/outbox.cif.g08.bks.cpg/sg2_104_cif.got.tgz:206611.got - 2010.06.03 11:33:40.
