data_PCOD9092553
_publ_section_title
;
Structure prediction by ZEFSAII (Michael W. Deem and Ramdas Pophale) SiO2 
 PCOD9092553
Probable space group: P -1
;
_chemical_formula_sum "Si O2"
_cell_formula_units_Z 16
_cell_length_a 11.735097
_cell_length_b 10.267476
_cell_length_c 7.667961
_cell_angle_alpha 117.294852
_cell_angle_beta 74.777188
_cell_angle_gamma 135.481656
_cell_volume 572.580044
_symmetry_space_group_name_H-M "P -1"
_symmetry_group_IT_number 2
_symmetry_cell_setting 'triclinic'
loop_
_space_group_symop_operation_xyz
x,y,z
-x,-y,-z
loop_
_atom_site_type_symbol
_atom_site_label
_atom_site_fract_x
_atom_site_fract_y
_atom_site_fract_z
Si Si1 0.703414 0.912246 0.456101
Si Si2 0.848564 0.736398 0.393397
Si Si3 0.182041 0.688532 0.215181
Si Si4 0.714958 0.118754 0.083143
Si Si5 0.510264 0.708119 0.752393
Si Si6 0.937105 0.723159 0.976088
Si Si7 0.110404 0.503734 0.593271
Si Si8 0.668220 0.717539 0.998479
O O1 0.830317 0.896174 0.470097
O O2 0.560130 0.771159 0.570635
O O3 0.677493 0.850112 0.227356
O O4 0.751761 0.124073 0.574810
O O5 0.666018 0.513650 0.294303
O O6 0.889833 0.673035 0.510768
O O7 0.947151 0.766508 0.203237
O O8 0.186848 0.521416 0.157284
O O9 0.987920 0.546180 0.219950
O O10 0.255149 0.792384 0.066448
O O11 0.722207 0.262547 0.300593
O O12 0.877979 0.158804 0.081818
O O13 0.553783 0.883901 0.969185
O O14 0.637379 0.710311 0.800247
O O15 0.836035 0.772577 0.976327
O O16 0.000000 0.500000 0.500000
O O17 0.500000 0.500000 0.000000
#
# Coordination Sequence:
#
# PCOD9092553 Si02
#       8
#     2   2   2   2   2   2   2   2
#     4  10  24  41  65  98 132 172 219 275 324 387
#     4  11  21  42  70  93 130 175 221 262 335 391
#     4  10  20  42  65  89 131 169 217 271 326 386
#     4  10  21  41  66  91 128 173 218 267 331 384
#     4  11  24  43  68  94 136 172 219 278 323 389
#     4  10  19  41  68  93 123 183 212 262 336 384
#     4  11  23  39  63  99 133 167 215 276 321 397
#     4  11  23  41  69  94 136 174 223 268 327 391
#
# _framework density 27.943691000000001
#
# number of rings (size 3 to 8) (size 9 to 14) (size 15 to 20)
#    0.000    1.500    5.000    1.125    1.750    3.500 
#    2.250    0.625    0.000    0.000    0.000    0.000 
#    0.000    0.000    0.000    0.000    0.000    0.000 
#
# Total GULP energy -89289.166992 kJ/mol
# GULP energy per Si atom -5580.572937 kJ/mol
# Density = 2.788009 g / cm^3
# Si number density = 27.943691 Si / 1000 Ang^3
#
#
#
# Elastic Constant Matrix: (Units=GPa)
#
#
# Indices 1 2 3 4 5 6 
#
# 1 109.1062 22.2697 30.2779 -16.6314 0.7862 4.0943
# 2 22.2697 98.3030 59.0772 8.9425 0.9971 -18.2683
# 3 30.2779 59.0772 147.9775 25.5985 -11.2620 -4.9544
# 4 -16.6314 8.9425 25.5985 51.5327 -12.0987 -7.3775
# 5 0.7862 0.9971 -11.2620 -12.0987 38.9094 -2.7960
# 6 4.0943 -18.2683 -4.9544 -7.3775 -2.7960 30.6852
#
#
#
# Elastic Compliance Matrix: (Units=1/GPa)
#
#
# Indices 1 2 3 4 5 6 
#
# 1 0.011018 -0.001829 -0.002395 0.004947 0.000547 -0.001707
# 2 -0.001829 0.015612 -0.005751 0.000496 -0.001254 0.008615
# 3 -0.002395 -0.005751 0.010433 -0.004961 0.001495 -0.002477
# 4 0.004947 0.000496 -0.004961 0.025807 0.006883 0.005666
# 5 0.000547 -0.001254 0.001495 0.006883 0.028559 0.003679
# 6 -0.001707 0.008615 -0.002477 0.005666 0.003679 0.039243
#
#
# Mechanical properties :
#
#
# Convention : Reuss Voigt Hill
#
# Bulk Modulus (GPa) = 58.44232 64.29293 61.36763
# Shear Modulus (GPa) = 31.98400 40.47625 36.23013
#
# Velocity S-wave (km/s) = 3.38685 3.81004 3.60466
# Velocity P-wave (km/s) = 6.02113 6.51254 6.27165
#
# Compressibility (1/GPa) = 0.01711089
#
# Stress axis : x y z
#
# Youngs Moduli (GPa) = 90.76313 64.05331 95.84818
#
# Poissons Ratio (x) = 0.11716 0.22960
# Poissons Ratio (y) = 0.16601 0.55126
# Poissons Ratio (z) = 0.21742 0.36840
#
# Static dielectric constant tensor:
#      x y z
#    x 2.347090 -0.123490 -0.061540 
#    y -0.123490 2.274270 0.109040 
#    z -0.061540 0.109040 2.217910 
# 
# From -- ./inp_files/260089.got.cif
#   From: 2010.05.17/outbox.cif.g08.bks.cpg/sg2_131_cif.got.tgz:260089.got - 2010.06.03 11:33:40.
