data_PCOD9092489
_publ_section_title
;
Structure prediction by ZEFSAII (Michael W. Deem and Ramdas Pophale) SiO2 
 PCOD9092489
Probable space group: P -1
;
_chemical_formula_sum "Si O2"
_cell_formula_units_Z 12
_cell_length_a 5.839884
_cell_length_b 16.682881
_cell_length_c 9.302325
_cell_angle_alpha 113.048639
_cell_angle_beta 78.175275
_cell_angle_gamma 53.193611
_cell_volume 535.906499
_symmetry_space_group_name_H-M "P -1"
_symmetry_group_IT_number 2
_symmetry_cell_setting 'triclinic'
loop_
_space_group_symop_operation_xyz
x,y,z
-x,-y,-z
loop_
_atom_site_type_symbol
_atom_site_label
_atom_site_fract_x
_atom_site_fract_y
_atom_site_fract_z
Si Si1 0.225606 0.025078 0.445397
Si Si2 0.525120 0.722491 0.916487
Si Si3 0.591173 0.888818 0.998907
Si Si4 0.150339 0.570737 0.959124
Si Si5 0.589547 0.401925 0.304253
Si Si6 0.234224 0.709126 0.204574
O O1 0.931513 0.183820 0.577510
O O2 0.500000 0.000000 0.500000
O O3 0.449241 0.941943 0.216186
O O4 0.000000 0.000000 0.500000
O O5 0.625544 0.626373 0.712398
O O6 0.853811 0.640130 0.926358
O O7 0.415953 0.845028 0.949621
O O8 0.237365 0.764877 0.095990
O O9 0.010769 0.748727 0.832973
O O10 0.500000 0.000000 0.000000
O O11 0.442272 0.541133 0.805588
O O12 0.366645 0.430444 0.898909
O O13 0.038795 0.673080 0.165091
O O14 0.500000 0.500000 0.500000
#
# Coordination Sequence:
#
# PCOD9092489 Si02
#       6
#     2   2   2   2   2   2
#     4  12  25  46  72 102 142 193 238 295 358 428
#     4  10  19  41  66  91 133 176 222 294 343 416
#     4  11  26  44  67 101 141 187 238 293 356 428
#     4   9  20  36  63  97 129 170 228 287 345 409
#     4  10  23  42  65  92 136 180 230 284 356 422
#     4  10  20  37  65  98 131 171 231 285 349 411
#
# _framework density 22.391964999999999
#
# number of rings (size 3 to 8) (size 9 to 14) (size 15 to 20)
#    0.000    1.667    1.667    3.500    2.333    3.333 
#    0.000    0.000    0.000    0.000    0.000    0.000 
#    0.000    0.000    0.000    0.000    0.000    0.000 
#
# Total GULP energy -66817.263608 kJ/mol
# GULP energy per Si atom -5568.105301 kJ/mol
# Density = 2.234100 g / cm^3
# Si number density = 22.391965 Si / 1000 Ang^3
#
#
#
# Elastic Constant Matrix: (Units=GPa)
#
#
# Indices 1 2 3 4 5 6 
#
# 1 109.6026 49.7792 57.9667 13.6217 26.1242 5.9198
# 2 49.7792 122.9887 42.7375 22.2009 2.9042 29.6877
# 3 57.9667 42.7375 157.4912 28.6045 35.8881 6.3428
# 4 13.6217 22.2009 28.6045 32.9865 7.5086 2.4562
# 5 26.1242 2.9042 35.8881 7.5086 41.3266 4.1492
# 6 5.9198 29.6877 6.3428 2.4562 4.1492 35.0400
#
#
#
# Elastic Compliance Matrix: (Units=1/GPa)
#
#
# Indices 1 2 3 4 5 6 
#
# 1 0.014521 -0.006071 -0.002489 0.001614 -0.007275 0.003889
# 2 -0.006071 0.015079 -0.001654 -0.006843 0.006638 -0.011757
# 3 -0.002489 -0.001654 0.010028 -0.005231 -0.006179 0.001105
# 4 0.001614 -0.006843 -0.005231 0.039291 -0.003551 0.004138
# 5 -0.007275 0.006638 -0.006179 -0.003551 0.035062 -0.007179
# 6 0.003889 -0.011757 0.001105 0.004138 -0.007179 0.038203
#
#
# Mechanical properties :
#
#
# Convention : Reuss Voigt Hill
#
# Bulk Modulus (GPa) = 52.08118 76.78325 64.43221
# Shear Modulus (GPa) = 27.93124 37.84389 32.88756
#
# Velocity S-wave (km/s) = 3.53565 4.11550 3.83655
# Velocity P-wave (km/s) = 6.32275 7.54640 6.96151
#
# Compressibility (1/GPa) = 0.01920080
#
# Stress axis : x y z
#
# Youngs Moduli (GPa) = 68.86658 66.31708 99.71884
#
# Poissons Ratio (x) = 0.40258 0.24824
# Poissons Ratio (y) = 0.41806 0.16490
# Poissons Ratio (z) = 0.17144 0.10967
#
# Static dielectric constant tensor:
#      x y z
#    x 2.121030 0.007660 -0.029280 
#    y 0.007660 1.830310 0.024070 
#    z -0.029280 0.024070 1.922310 
# 
# From -- ./inp_files/61539.got.cif
#   From: 2010.05.17/outbox.cif.g08.bks.cpg/sg2_31_cif.got.tgz:61539.got - 2010.06.03 11:33:40.
