data_PCOD9092128
_publ_section_title
;
Structure prediction by ZEFSAII (Michael W. Deem and Ramdas Pophale) SiO2 
 PCOD9092128
Probable space group: P -1
;
_chemical_formula_sum "Si O2"
_cell_formula_units_Z 16
_cell_length_a 8.121866
_cell_length_b 11.371811
_cell_length_c 13.037644
_cell_angle_alpha 32.527797
_cell_angle_beta 84.599332
_cell_angle_gamma 92.359992
_cell_volume 628.060994
_symmetry_space_group_name_H-M "P -1"
_symmetry_group_IT_number 2
_symmetry_cell_setting 'triclinic'
loop_
_space_group_symop_operation_xyz
x,y,z
-x,-y,-z
loop_
_atom_site_type_symbol
_atom_site_label
_atom_site_fract_x
_atom_site_fract_y
_atom_site_fract_z
Si Si1 0.308714 0.184896 0.479533
Si Si2 0.768235 0.326069 0.458480
Si Si3 0.927482 0.755677 0.388936
Si Si4 0.560598 0.526220 0.095412
Si Si5 0.551723 0.036617 0.182056
Si Si6 0.649470 0.685960 0.298449
Si Si7 0.014725 0.295564 0.292893
Si Si8 0.962899 0.734496 0.923604
O O1 0.229964 0.331833 0.459022
O O2 0.339596 0.994417 0.698028
O O3 0.163380 0.178429 0.406533
O O4 0.481942 0.296967 0.329609
O O5 0.626814 0.123551 0.658659
O O6 0.688753 0.548214 0.297046
O O7 0.923181 0.360044 0.505299
O O8 0.852099 0.242904 0.414639
O O9 0.834201 0.733369 0.304631
O O10 0.004082 0.019280 0.213017
O O11 0.763219 0.613871 0.021319
O O12 0.473012 0.715150 0.009521
O O13 0.500000 0.500000 0.000000
O O14 0.603089 0.922430 0.158578
O O15 0.500000 0.500000 0.500000
O O16 0.980822 0.251793 0.207929
O O17 0.060578 0.568000 0.097907
#
# Coordination Sequence:
#
# PCOD9092128 Si02
#       8
#     2   2   2   2   2   2   2   2
#     4  10  23  39  63  95 130 174 215 262 322 384
#     4  10  19  40  66  94 128 170 222 271 321 388
#     4  10  21  38  66  95 127 171 217 265 330 387
#     4  12  24  41  63  95 134 177 214 264 323 386
#     4  10  22  40  66  94 133 171 218 268 326 390
#     4   9  20  38  67  94 127 170 216 271 327 381
#     4  10  23  39  64  93 135 170 220 272 318 387
#     4  11  23  41  63  94 136 175 215 268 328 385
#
# _framework density 25.475231999999998
#
# number of rings (size 3 to 8) (size 9 to 14) (size 15 to 20)
#    0.000    1.750    2.500    1.125    3.500    3.500 
#    0.000    0.625    5.500    9.750    0.000    0.000 
#    0.000    0.000    0.000    0.000    0.000    0.000 
#
# Total GULP energy -89279.494307 kJ/mol
# GULP energy per Si atom -5579.968394 kJ/mol
# Density = 2.541725 g / cm^3
# Si number density = 25.475232 Si / 1000 Ang^3
#
#
#
# Elastic Constant Matrix: (Units=GPa)
#
#
# Indices 1 2 3 4 5 6 
#
# 1 143.0213 26.7870 27.5502 2.8612 -5.2635 0.8349
# 2 26.7870 62.7663 18.2447 -25.8552 -2.2994 -6.2858
# 3 27.5502 18.2447 85.6086 -5.4549 10.1459 -12.1469
# 4 2.8612 -25.8552 -5.4549 32.1473 -9.4964 12.9900
# 5 -5.2635 -2.2994 10.1459 -9.4964 44.3512 2.3044
# 6 0.8349 -6.2858 -12.1469 12.9900 2.3044 32.2429
#
#
#
# Elastic Compliance Matrix: (Units=1/GPa)
#
#
# Indices 1 2 3 4 5 6 
#
# 1 0.008449 -0.005240 -0.001917 -0.005370 0.000009 0.000200
# 2 -0.005240 0.032589 -0.005690 0.032409 0.009798 -0.009412
# 3 -0.001917 -0.005690 0.014849 -0.006666 -0.005743 0.007631
# 4 -0.005370 0.032409 -0.006666 0.073214 0.019645 -0.026955
# 5 0.000009 0.009798 -0.005743 0.019645 0.029109 -0.010249
# 6 0.000200 -0.009412 0.007631 -0.026955 -0.010249 0.043641
#
#
# Mechanical properties :
#
#
# Convention : Reuss Voigt Hill
#
# Bulk Modulus (GPa) = 33.12158 48.50666 40.81412
# Shear Modulus (GPa) = 21.04272 36.33591 28.68931
#
# Velocity S-wave (km/s) = 2.87715 3.78077 3.35948
# Velocity P-wave (km/s) = 4.90582 6.17584 5.57710
#
# Compressibility (1/GPa) = 0.03019179
#
# Stress axis : x y z
#
# Youngs Moduli (GPa) = 118.35181 30.68513 67.34284
#
# Poissons Ratio (x) = 0.16080 0.12911
# Poissons Ratio (y) = 0.62021 0.38321
# Poissons Ratio (z) = 0.22691 0.17461
#
# Static dielectric constant tensor:
#      x y z
#    x 2.089770 0.066090 0.033710 
#    y 0.066090 2.059780 -0.009770 
#    z 0.033710 -0.009770 2.078410 
# 
# From -- ./inp_files/499697.got.cif
#   From: 2010.05.17/outbox.cif.g08.bks.cpg/sg2_250_cif.got.tgz:499697.got - 2010.06.03 11:33:40.
