data_PCOD9092204
_publ_section_title
;
Structure prediction by ZEFSAII (Michael W. Deem and Ramdas Pophale) SiO2 
 PCOD9092204
Probable space group: P -1
;
_chemical_formula_sum "Si O2"
_cell_formula_units_Z 14
_cell_length_a 8.396753
_cell_length_b 8.406487
_cell_length_c 11.410778
_cell_angle_alpha 130.036253
_cell_angle_beta 79.634815
_cell_angle_gamma 87.872262
_cell_volume 593.995786
_symmetry_space_group_name_H-M "P -1"
_symmetry_group_IT_number 2
_symmetry_cell_setting 'triclinic'
loop_
_space_group_symop_operation_xyz
x,y,z
-x,-y,-z
loop_
_atom_site_type_symbol
_atom_site_label
_atom_site_fract_x
_atom_site_fract_y
_atom_site_fract_z
Si Si1 0.315772 0.903826 0.054871
Si Si2 0.363592 0.025125 0.849243
Si Si3 0.996269 0.317412 0.009495
Si Si4 0.896957 0.736992 0.621573
Si Si5 0.122522 0.962198 0.573494
Si Si6 0.545727 0.198633 0.518029
Si Si7 0.205202 0.364263 0.664085
O O1 0.483587 0.854883 0.087274
O O2 0.232287 0.150785 0.213209
O O3 0.168914 0.778136 0.040651
O O4 0.356260 0.893881 0.907467
O O5 0.412817 0.877562 0.657612
O O6 0.178791 0.170410 0.928911
O O7 0.937984 0.435781 0.197217
O O8 0.000000 0.500000 0.000000
O O9 0.803792 0.738695 0.510601
O O10 0.000000 0.500000 0.500000
O O11 0.030146 0.885766 0.657640
O O12 0.280093 0.777588 0.441032
O O13 0.179865 0.185202 0.676538
O O14 0.000000 0.000000 0.500000
O O15 0.393989 0.389726 0.653199
O O16 0.500000 0.000000 0.500000
#
# Coordination Sequence:
#
# PCOD9092204 Si02
#       7
#     2   2   2   2   2   2   2
#     4  11  25  46  70  98 145 191 223 278 354 419
#     4  11  24  45  71  96 143 188 227 277 355 415
#     4  12  25  45  69 104 140 183 231 288 348 408
#     4  11  21  40  65  96 127 171 229 276 324 399
#     4   9  20  38  63  94 129 170 209 280 342 386
#     4  10  19  40  67  96 129 170 225 282 329 397
#     4  10  21  40  63  97 131 165 226 273 331 398
#
# _framework density 23.569191
#
# number of rings (size 3 to 8) (size 9 to 14) (size 15 to 20)
#    0.000    1.429    1.429    4.714    0.000    1.714 
#   10.286    1.429    0.000    0.000    0.000    0.000 
#    0.000    0.000    0.000    0.000    0.000    0.000 
#
# Total GULP energy -78012.911611 kJ/mol
# GULP energy per Si atom -5572.350829 kJ/mol
# Density = 2.351555 g / cm^3
# Si number density = 23.569191 Si / 1000 Ang^3
#
#
#
# Elastic Constant Matrix: (Units=GPa)
#
#
# Indices 1 2 3 4 5 6 
#
# 1 198.4011 36.2836 41.6694 9.2255 -21.1585 -3.0637
# 2 36.2836 60.3536 30.6222 -7.2820 -1.4395 4.0243
# 3 41.6694 30.6222 115.5288 -8.5784 -28.9877 -2.3410
# 4 9.2255 -7.2820 -8.5784 24.2690 -2.8105 -1.2092
# 5 -21.1585 -1.4395 -28.9877 -2.8105 41.0507 0.7072
# 6 -3.0637 4.0243 -2.3410 -1.2092 0.7072 30.0505
#
#
#
# Elastic Compliance Matrix: (Units=1/GPa)
#
#
# Indices 1 2 3 4 5 6 
#
# 1 0.006349 -0.003750 -0.001000 -0.003597 0.002173 0.000876
# 2 -0.003750 0.022331 -0.005352 0.005542 -0.004490 -0.003461
# 3 -0.001000 -0.005352 0.012994 0.004461 0.008751 0.001601
# 4 -0.003597 0.005542 0.004461 0.046400 0.004650 0.000996
# 5 0.002173 -0.004490 0.008751 0.004650 0.031804 0.000943
# 6 0.000876 -0.003461 0.001601 0.000996 0.000943 0.033973
#
#
# Mechanical properties :
#
#
# Convention : Reuss Voigt Hill
#
# Bulk Modulus (GPa) = 46.57440 65.71487 56.14464
# Shear Modulus (GPa) = 27.59221 36.78794 32.19007
#
# Velocity S-wave (km/s) = 3.42525 3.95504 3.69964
# Velocity P-wave (km/s) = 5.95371 6.98561 6.49020
#
# Compressibility (1/GPa) = 0.02147102
#
# Stress axis : x y z
#
# Youngs Moduli (GPa) = 157.51482 44.78057 76.95659
#
# Poissons Ratio (x) = 0.16792 0.07695
# Poissons Ratio (y) = 0.59066 0.41185
# Poissons Ratio (z) = 0.15750 0.23966
#
# Static dielectric constant tensor:
#      x y z
#    x 2.005200 0.024150 0.039470 
#    y 0.024150 1.895320 -0.004000 
#    z 0.039470 -0.004000 2.028720 
# 
# From -- ./inp_files/380585.got.cif
#   From: 2010.05.17/outbox.cif.g08.bks.cpg/sg2_191_cif.got.tgz:380585.got - 2010.06.03 11:33:40.
