data_PCOD9092159
_publ_section_title
;
Structure prediction by ZEFSAII (Michael W. Deem and Ramdas Pophale) SiO2 
 PCOD9092159
Probable space group: P -1
;
_chemical_formula_sum "Si O2"
_cell_formula_units_Z 15
_cell_length_a 13.040936
_cell_length_b 15.083589
_cell_length_c 7.612163
_cell_angle_alpha 54.419735
_cell_angle_beta 68.489801
_cell_angle_gamma 29.400948
_cell_volume 559.744945
_symmetry_space_group_name_H-M "P -1"
_symmetry_group_IT_number 2
_symmetry_cell_setting 'triclinic'
loop_
_space_group_symop_operation_xyz
x,y,z
-x,-y,-z
loop_
_atom_site_type_symbol
_atom_site_label
_atom_site_fract_x
_atom_site_fract_y
_atom_site_fract_z
Si Si1 0.000000 0.000000 0.000000
Si Si2 0.511905 0.103196 0.776867
Si Si3 0.134038 0.294357 0.261266
Si Si4 0.748640 0.090120 0.772462
Si Si5 0.528345 0.463111 0.293082
Si Si6 0.084744 0.696294 0.769364
Si Si7 0.698095 0.176236 0.192105
Si Si8 0.316696 0.336152 0.298027
O O1 0.923230 0.959613 0.964211
O O2 0.038498 0.049242 0.730968
O O3 0.595486 0.116202 0.854154
O O4 0.324420 0.322176 0.521324
O O5 0.685348 0.920794 0.725269
O O6 0.500000 0.000000 0.000000
O O7 0.258086 0.262158 0.363413
O O8 0.960408 0.342978 0.323992
O O9 0.000000 0.500000 0.000000
O O10 0.583433 0.333924 0.563846
O O11 0.883768 0.946312 0.674259
O O12 0.702393 0.410976 0.245147
O O13 0.580566 0.341096 0.233083
O O14 0.303115 0.723751 0.082837
O O15 0.133912 0.570804 0.048815
O O16 0.549038 0.195820 0.244925
#
# Coordination Sequence:
#
# PCOD9092159 Si02
#       8
#     1   2   2   2   2   2   2   2
#     4  12  26  36  58  94 132 150 208 258 310 348
#     4  11  24  41  64  89 120 165 210 255 306 359
#     4   9  20  39  63  92 122 156 206 253 300 366
#     4  11  23  40  60  89 129 162 205 253 308 360
#     4  10  19  40  67  86 121 169 205 237 316 378
#     4   9  19  37  66  94 119 160 205 247 302 372
#     4  10  22  38  65  93 120 163 203 254 305 376
#     4  10  20  41  68  88 123 164 210 247 305 369
#
# _framework density 26.797922
#
# number of rings (size 3 to 8) (size 9 to 14) (size 15 to 20)
#    0.000    1.867    2.667    0.800    1.867    0.533 
#    2.400    6.000    2.933    0.000    0.000    0.000 
#    0.000    0.000    0.000    0.000    0.000    0.000 
#
# Total GULP energy -83527.843869 kJ/mol
# GULP energy per Si atom -5568.522925 kJ/mol
# Density = 2.673693 g / cm^3
# Si number density = 26.797922 Si / 1000 Ang^3
#
#
#
# Elastic Constant Matrix: (Units=GPa)
#
#
# Indices 1 2 3 4 5 6 
#
# 1 271.5118 30.1533 50.2272 1.1764 -5.4954 6.3558
# 2 30.1533 78.5157 12.8722 -9.1549 -4.1931 2.5771
# 3 50.2272 12.8722 137.3430 -16.7256 -15.6397 -3.9458
# 4 1.1764 -9.1549 -16.7256 43.4999 9.7679 5.8161
# 5 -5.4954 -4.1931 -15.6397 9.7679 43.7961 -3.6573
# 6 6.3558 2.5771 -3.9458 5.8161 -3.6573 28.4692
#
#
#
# Elastic Compliance Matrix: (Units=1/GPa)
#
#
# Indices 1 2 3 4 5 6 
#
# 1 0.004144 -0.001419 -0.001517 -0.000876 -0.000032 -0.000832
# 2 -0.001419 0.013756 -0.000436 0.002930 0.000200 -0.001562
# 3 -0.001517 -0.000436 0.008488 0.002505 0.002353 0.001345
# 4 -0.000876 0.002930 0.002505 0.026574 -0.005349 -0.005839
# 5 -0.000032 0.000200 0.002353 -0.005349 0.025270 0.004654
# 6 -0.000832 -0.001562 0.001345 -0.005839 0.004654 0.037430
#
#
# Mechanical properties :
#
#
# Convention : Reuss Voigt Hill
#
# Bulk Modulus (GPa) = 50.90227 74.87508 62.88868
# Shear Modulus (GPa) = 38.77372 49.42758 44.10065
#
# Velocity S-wave (km/s) = 3.80793 4.29937 4.06109
# Velocity P-wave (km/s) = 6.19434 7.25585 6.74601
#
# Compressibility (1/GPa) = 0.01964549
#
# Stress axis : x y z
#
# Youngs Moduli (GPa) = 241.31983 72.69384 117.81230
#
# Poissons Ratio (x) = 0.10317 0.17867
# Poissons Ratio (y) = 0.34249 0.05132
# Poissons Ratio (z) = 0.36598 0.03166
#
# Static dielectric constant tensor:
#      x y z
#    x 2.184880 -0.135990 0.119960 
#    y -0.135990 2.318530 0.051030 
#    z 0.119960 0.051030 2.454420 
# 
# From -- ./inp_files/271820.got.cif
#   From: 2010.05.17/outbox.cif.g08.bks.cpg/sg2_136_cif.got.tgz:271820.got - 2010.06.03 11:33:40.
