data_PCOD9092830
_publ_section_title
;
Structure prediction by ZEFSAII (Michael W. Deem and Ramdas Pophale) SiO2 
 PCOD9092830
Probable space group: P -1
;
_chemical_formula_sum "Si O2"
_cell_formula_units_Z 16
_cell_length_a 8.605139
_cell_length_b 7.737670
_cell_length_c 13.878854
_cell_angle_alpha 46.607207
_cell_angle_beta 103.687115
_cell_angle_gamma 99.689470
_cell_volume 652.420737
_symmetry_space_group_name_H-M "P -1"
_symmetry_group_IT_number 2
_symmetry_cell_setting 'triclinic'
loop_
_space_group_symop_operation_xyz
x,y,z
-x,-y,-z
loop_
_atom_site_type_symbol
_atom_site_label
_atom_site_fract_x
_atom_site_fract_y
_atom_site_fract_z
Si Si1 0.359207 0.671784 0.120414
Si Si2 0.112432 0.716187 0.910093
Si Si3 0.293866 0.193096 0.882904
Si Si4 0.224904 0.420538 0.379254
Si Si5 0.920377 0.149105 0.688261
Si Si6 0.269316 0.316984 0.624371
Si Si7 0.660466 0.151213 0.495159
Si Si8 0.118700 0.666161 0.707083
O O1 0.543594 0.668593 0.123311
O O2 0.317552 0.494046 0.268484
O O3 0.265873 0.641183 0.020138
O O4 0.302812 0.942513 0.034274
O O5 0.137298 0.741475 0.790665
O O6 0.009716 0.945107 0.839090
O O7 0.000000 0.500000 0.000000
O O8 0.314439 0.151940 0.784992
O O9 0.155636 0.382065 0.810425
O O10 0.170638 0.664337 0.330116
O O11 0.314887 0.286033 0.531370
O O12 0.060570 0.296327 0.370562
O O13 0.787617 0.046622 0.632839
O O14 0.074521 0.283450 0.609870
O O15 0.341442 0.574166 0.569062
O O16 0.759205 0.194744 0.395562
O O17 0.500000 0.000000 0.500000
#
# Coordination Sequence:
#
# PCOD9092830 Si02
#       8
#     2   2   2   2   2   2   2   2
#     4  11  24  42  62  99 130 173 228 277 326 401
#     4  12  26  39  62  99 134 173 229 273 323 397
#     4  10  23  43  67  88 135 174 219 280 335 392
#     4  11  20  40  75  96 122 171 234 268 330 398
#     4  11  21  42  69  96 133 175 222 275 323 406
#     4  10  19  42  73  95 124 178 220 270 328 410
#     4  10  21  41  67 103 134 167 221 282 345 393
#     4  11  22  42  67  92 131 179 217 275 337 396
#
# _framework density 24.524051
#
# number of rings (size 3 to 8) (size 9 to 14) (size 15 to 20)
#    0.000    1.250    6.250    0.750    1.750    4.500 
#    9.000    0.000    0.000    0.000    0.000    0.000 
#    0.000    0.000    0.000    0.000    0.000    0.000 
#
# Total GULP energy -89320.285222 kJ/mol
# GULP energy per Si atom -5582.517826 kJ/mol
# Density = 2.446823 g / cm^3
# Si number density = 24.524051 Si / 1000 Ang^3
#
#
#
# Elastic Constant Matrix: (Units=GPa)
#
#
# Indices 1 2 3 4 5 6 
#
# 1 55.5903 35.8573 17.4541 12.1993 -2.4443 40.5360
# 2 35.8573 111.7069 20.9620 18.5648 -0.9302 20.2362
# 3 17.4541 20.9620 87.3812 14.8190 5.4842 12.3112
# 4 12.1993 18.5648 14.8190 57.2813 3.8900 9.2325
# 5 -2.4443 -0.9302 5.4842 3.8900 40.9254 0.4645
# 6 40.5360 20.2362 12.3112 9.2325 0.4645 57.9797
#
#
#
# Elastic Compliance Matrix: (Units=1/GPa)
#
#
# Indices 1 2 3 4 5 6 
#
# 1 0.045253 -0.008611 -0.002967 -0.001839 0.003394 -0.027737
# 2 -0.008611 0.011830 -0.001111 -0.002115 0.000077 0.002463
# 3 -0.002967 -0.001111 0.012769 -0.002215 -0.001704 0.000117
# 4 -0.001839 -0.002115 -0.002215 0.019314 -0.001691 -0.000568
# 5 0.003394 0.000077 -0.001704 -0.001691 0.025051 -0.001969
# 6 -0.027737 0.002463 0.000117 -0.000568 -0.001969 0.035861
#
#
# Mechanical properties :
#
#
# Convention : Reuss Voigt Hill
#
# Bulk Modulus (GPa) = 22.48415 44.80280 33.64347
# Shear Modulus (GPa) = 26.27689 43.26427 34.77058
#
# Velocity S-wave (km/s) = 3.27689 4.20474 3.76947
# Velocity P-wave (km/s) = 4.84824 6.47161 5.71783
#
# Compressibility (1/GPa) = 0.04447578
#
# Stress axis : x y z
#
# Youngs Moduli (GPa) = 22.09797 84.52777 78.31252
#
# Poissons Ratio (x) = 0.72783 0.23233
# Poissons Ratio (y) = 0.19028 0.08702
# Poissons Ratio (z) = 0.06556 0.09393
#
# Static dielectric constant tensor:
#      x y z
#    x 1.931920 -0.001390 -0.002100 
#    y -0.001390 2.051830 -0.036760 
#    z -0.002100 -0.036760 1.918490 
# 
# From -- ./inp_files/492095.got.cif
#   From: 2010.05.17/outbox.cif.g08.bks.cpg/sg2_247_cif.got.tgz:492095.got - 2010.06.03 11:33:40.
