data_PCOD9092044
_publ_section_title
;
Structure prediction by ZEFSAII (Michael W. Deem and Ramdas Pophale) SiO2 
 PCOD9092044
Probable space group: P -1
;
_chemical_formula_sum "Si O2"
_cell_formula_units_Z 16
_cell_length_a 12.050433
_cell_length_b 7.824163
_cell_length_c 17.533255
_cell_angle_alpha 95.968361
_cell_angle_beta 114.844930
_cell_angle_gamma 139.838046
_cell_volume 665.029692
_symmetry_space_group_name_H-M "P -1"
_symmetry_group_IT_number 2
_symmetry_cell_setting 'triclinic'
loop_
_space_group_symop_operation_xyz
x,y,z
-x,-y,-z
loop_
_atom_site_type_symbol
_atom_site_label
_atom_site_fract_x
_atom_site_fract_y
_atom_site_fract_z
Si Si1 0.111384 0.669657 0.768779
Si Si2 0.148318 0.720954 0.475569
Si Si3 0.408608 0.231502 0.249284
Si Si4 0.110705 0.992228 0.286408
Si Si5 0.687491 0.276736 0.736956
Si Si6 0.476274 0.667121 0.979056
Si Si7 0.928333 0.226310 0.003853
Si Si8 0.998432 0.922948 0.410035
O O1 0.984684 0.322160 0.732946
O O2 0.017053 0.589113 0.652079
O O3 0.945692 0.588594 0.770936
O O4 0.418086 0.078149 0.908620
O O5 0.000000 0.500000 0.500000
O O6 0.093019 0.848280 0.447178
O O7 0.455072 0.057023 0.603766
O O8 0.676564 0.555630 0.288460
O O9 0.389806 0.012933 0.268500
O O10 0.365738 0.293447 0.315724
O O11 0.177902 0.003438 0.112426
O O12 0.839405 0.707275 0.150809
O O13 0.147005 0.148460 0.382113
O O14 0.811513 0.517326 0.861032
O O15 0.500000 0.500000 0.000000
O O16 0.679783 0.949950 0.978660
O O17 0.000000 0.500000 0.000000
O O18 0.000000 0.000000 0.500000
#
# Coordination Sequence:
#
# PCOD9092044 Si02
#       8
#     2   2   2   2   2   2   2   2
#     4   9  21  37  62  90 122 172 217 263 313 404
#     4  11  21  36  60  88 122 164 216 266 326 381
#     4  10  19  40  65  91 124 164 223 271 311 393
#     4  10  22  41  68  90 123 179 226 259 329 401
#     4   9  18  36  61  93 120 157 219 271 314 373
#     4  11  22  40  62 100 141 166 213 282 338 376
#     4   9  19  37  67  91 126 174 214 269 315 392
#     4  11  24  42  61  90 130 170 220 271 322 394
#
# _framework density 24.059075
#
# number of rings (size 3 to 8) (size 9 to 14) (size 15 to 20)
#    0.000    2.000    2.500    1.500    0.000    2.500 
#    4.500    0.625    0.000    0.000    0.000    0.000 
#    0.000    0.000    0.000    0.000    0.000    0.000 
#
# Total GULP energy -89072.786185 kJ/mol
# GULP energy per Si atom -5567.049137 kJ/mol
# Density = 2.400432 g / cm^3
# Si number density = 24.059075 Si / 1000 Ang^3
#
#
#
# Elastic Constant Matrix: (Units=GPa)
#
#
# Indices 1 2 3 4 5 6 
#
# 1 63.2246 26.2578 39.4217 -15.4535 -14.2667 26.6744
# 2 26.2578 56.6871 7.2210 -16.4268 -1.2341 8.8611
# 3 39.4217 7.2210 126.4883 -38.6829 -21.4614 20.2435
# 4 -15.4535 -16.4268 -38.6829 32.8108 11.1691 -10.5406
# 5 -14.2667 -1.2341 -21.4614 11.1691 36.6352 1.6307
# 6 26.6744 8.8611 20.2435 -10.5406 1.6307 16.2256
#
#
#
# Elastic Compliance Matrix: (Units=1/GPa)
#
#
# Indices 1 2 3 4 5 6 
#
# 1 0.236229 -0.075966 -0.018365 -0.131084 0.137465 -0.422925
# 2 -0.075966 0.046777 0.010026 0.055659 -0.044778 0.127490
# 3 -0.018365 0.010026 0.016107 0.023921 -0.005594 0.020723
# 4 -0.131084 0.055659 0.023921 0.135715 -0.087763 0.252242
# 5 0.137465 -0.044778 -0.005594 -0.087763 0.114510 -0.263078
# 6 -0.422925 0.127490 0.020723 0.252242 -0.263078 0.851733
#
#
# Mechanical properties :
#
#
# Convention : Reuss Voigt Hill
#
# Bulk Modulus (GPa) = 7.66273 43.57788 25.62031
# Shear Modulus (GPa) = 3.09946 28.70095 15.90021
#
# Velocity S-wave (km/s) = 1.13625 3.45764 2.57355
# Velocity P-wave (km/s) = 2.21660 5.83888 4.41621
#
# Compressibility (1/GPa) = 0.13050184
#
# Stress axis : x y z
#
# Youngs Moduli (GPa) = 4.23319 21.37808 62.08391
#
# Poissons Ratio (x) = 1.62401 1.14019
# Poissons Ratio (y) = 0.32158 -0.62245
# Poissons Ratio (z) = 0.07774 -0.21433
#
# Static dielectric constant tensor:
#      x y z
#    x 1.910250 0.019060 -0.060550 
#    y 0.019060 1.992510 0.157840 
#    z -0.060550 0.157840 2.640240 
# 
# From -- ./inp_files/566022.got.cif
#   From: 2010.05.17/outbox.cif.g08.bks.cpg/sg2_284_cif.got.tgz:566022.got - 2010.06.03 11:33:40.
