data_PCOD9092889
_publ_section_title
;
Structure prediction by ZEFSAII (Michael W. Deem and Ramdas Pophale) SiO2 
 PCOD9092889
Probable space group: P -1
;
_chemical_formula_sum "Si O2"
_cell_formula_units_Z 14
_cell_length_a 8.888374
_cell_length_b 10.169379
_cell_length_c 8.286653
_cell_angle_alpha 80.090794
_cell_angle_beta 54.546020
_cell_angle_gamma 104.288056
_cell_volume 542.073380
_symmetry_space_group_name_H-M "P -1"
_symmetry_group_IT_number 2
_symmetry_cell_setting 'triclinic'
loop_
_space_group_symop_operation_xyz
x,y,z
-x,-y,-z
loop_
_atom_site_type_symbol
_atom_site_label
_atom_site_fract_x
_atom_site_fract_y
_atom_site_fract_z
Si Si1 0.620779 0.672606 0.445774
Si Si2 0.071106 0.161006 0.070802
Si Si3 0.982171 0.141149 0.683366
Si Si4 0.817917 0.343529 0.627854
Si Si5 0.595336 0.959456 0.786951
Si Si6 0.315457 0.818753 0.579490
Si Si7 0.435894 0.333740 0.023438
O O1 0.500000 0.500000 0.500000
O O2 0.783142 0.733141 0.482867
O O3 0.459828 0.742037 0.556089
O O4 0.782121 0.756195 0.185601
O O5 0.207178 0.256839 0.115567
O O6 0.851425 0.164166 0.205427
O O7 0.954764 0.006190 0.848174
O O8 0.862077 0.243745 0.755924
O O9 0.842918 0.043840 0.640463
O O10 0.818704 0.286361 0.460493
O O11 0.000000 0.500000 0.500000
O O12 0.598736 0.343608 0.782001
O O13 0.536669 0.787606 0.856221
O O14 0.555626 0.029224 0.634290
O O15 0.500000 0.000000 0.000000
O O16 0.500000 0.500000 0.000000
#
# Coordination Sequence:
#
# PCOD9092889 Si02
#       7
#     2   2   2   2   2   2   2
#     4  12  26  47  70  97 141 186 231 295 349 409
#     4  11  25  45  69 102 134 183 239 279 347 423
#     4  10  23  41  73  99 135 187 233 279 344 419
#     4  11  21  39  69 102 139 180 223 290 358 397
#     4  10  19  43  71 104 132 184 230 282 345 411
#     4  11  23  43  71  95 139 178 233 285 341 419
#     4  11  22  38  67 109 142 171 230 294 345 408
#
# _framework density 25.82676
#
# number of rings (size 3 to 8) (size 9 to 14) (size 15 to 20)
#    0.000    1.143    4.286    3.000    0.000    7.429 
#    0.000    0.000    0.000    0.000    0.000    0.000 
#    0.000    0.000    0.000    0.000    0.000    0.000 
#
# Total GULP energy -78166.818526 kJ/mol
# GULP energy per Si atom -5583.344180 kJ/mol
# Density = 2.576798 g / cm^3
# Si number density = 25.826760 Si / 1000 Ang^3
#
#
#
# Elastic Constant Matrix: (Units=GPa)
#
#
# Indices 1 2 3 4 5 6 
#
# 1 153.2874 64.4097 55.7814 -2.7321 -41.3562 -7.4477
# 2 64.4097 213.1929 61.8943 -39.9398 -19.2743 -12.9347
# 3 55.7814 61.8943 126.6048 11.5926 -35.2243 -13.4172
# 4 -2.7321 -39.9398 11.5926 51.4644 -1.4445 -19.7953
# 5 -41.3562 -19.2743 -35.2243 -1.4445 51.8671 1.7315
# 6 -7.4477 -12.9347 -13.4172 -19.7953 1.7315 45.9191
#
#
#
# Elastic Compliance Matrix: (Units=1/GPa)
#
#
# Indices 1 2 3 4 5 6 
#
# 1 0.009463 -0.001972 -0.001553 -0.000477 0.005741 0.000103
# 2 -0.001972 0.008262 -0.003749 0.008979 -0.000959 0.004819
# 3 -0.001553 -0.003749 0.012494 -0.005787 0.005704 -0.000367
# 4 -0.000477 0.008979 -0.005787 0.033520 -0.000549 0.015232
# 5 0.005741 -0.000959 0.005704 -0.000549 0.027324 0.001061
# 6 0.000103 0.004819 -0.000367 0.015232 0.001061 0.029571
#
#
# Mechanical properties :
#
#
# Convention : Reuss Voigt Hill
#
# Bulk Modulus (GPa) = 63.81236 95.25063 79.53150
# Shear Modulus (GPa) = 35.61100 50.58345 43.09722
#
# Velocity S-wave (km/s) = 3.71730 4.43037 4.08941
# Velocity P-wave (km/s) = 6.57160 7.94554 7.29101
#
# Compressibility (1/GPa) = 0.01567094
#
# Stress axis : x y z
#
# Youngs Moduli (GPa) = 105.67514 121.02949 80.04100
#
# Poissons Ratio (x) = 0.23869 0.12433
# Poissons Ratio (y) = 0.20841 0.30004
# Poissons Ratio (z) = 0.16415 0.45368
#
# Static dielectric constant tensor:
#      x y z
#    x 1.491600 0.164040 -0.599900 
#    y 0.164040 2.031650 0.149540 
#    z -0.599900 0.149540 1.358700 
# 
# From -- ./inp_files/169116.got.cif
#   From: 2010.05.17/outbox.cif.g08.bks.cpg/sg2_85_cif.got.tgz:169116.got - 2010.06.03 11:33:40.
