data_PCOD9092346
_publ_section_title
;
Structure prediction by ZEFSAII (Michael W. Deem and Ramdas Pophale) SiO2 
 PCOD9092346
Probable space group: P -1
;
_chemical_formula_sum "Si O2"
_cell_formula_units_Z 16
_cell_length_a 11.170721
_cell_length_b 19.000035
_cell_length_c 15.656352
_cell_angle_alpha 155.303806
_cell_angle_beta 147.582324
_cell_angle_gamma 44.881686
_cell_volume 718.548575
_symmetry_space_group_name_H-M "P -1"
_symmetry_group_IT_number 2
_symmetry_cell_setting 'triclinic'
loop_
_space_group_symop_operation_xyz
x,y,z
-x,-y,-z
loop_
_atom_site_type_symbol
_atom_site_label
_atom_site_fract_x
_atom_site_fract_y
_atom_site_fract_z
Si Si1 0.879102 0.343478 0.873615
Si Si2 0.367889 0.878621 0.679903
Si Si3 0.791647 0.196600 0.231996
Si Si4 0.415236 0.782669 0.052478
Si Si5 0.065822 0.009507 0.448435
Si Si6 0.321950 0.592159 0.455708
Si Si7 0.486388 0.466104 0.853555
Si Si8 0.185830 0.082028 0.274253
O O1 0.738036 0.245278 0.599933
O O2 0.732015 0.461304 0.957564
O O3 0.915390 0.183325 0.776769
O O4 0.133507 0.463905 0.141346
O O5 0.454996 0.760004 0.668401
O O6 0.153804 0.933516 0.656615
O O7 0.566950 0.039870 0.945371
O O8 0.804501 0.346690 0.473265
O O9 0.023295 0.129630 0.301573
O O10 0.735802 0.256159 0.168731
O O11 0.686044 0.858550 0.274007
O O12 0.331951 0.941043 0.222210
O O13 0.392646 0.612324 0.909205
O O14 0.000000 0.000000 0.500000
O O15 0.500000 0.500000 0.500000
O O16 0.338491 0.265734 0.533728
O O17 0.500000 0.500000 0.000000
O O18 0.000000 0.000000 0.000000
#
# Coordination Sequence:
#
# PCOD9092346 Si02
#       8
#     2   2   2   2   2   2   2   2
#     4  11  22  44  69 100 137 181 232 290 349 416
#     4  11  23  44  72  96 138 191 232 280 350 429
#     4  11  23  45  67  98 140 184 228 287 356 416
#     4  11  23  45  75  98 136 189 231 289 349 417
#     4  10  19  40  75  99 127 177 240 278 340 417
#     4  12  27  40  62 110 146 174 232 294 354 412
#     4  12  26  45  71 104 136 179 247 290 343 412
#     4  10  23  47  68 100 139 182 235 284 351 416
#
# _framework density 22.267109999999999
#
# number of rings (size 3 to 8) (size 9 to 14) (size 15 to 20)
#    0.000    1.000    3.750    3.750    3.500    2.500 
#    6.750    0.000    0.000    0.000    0.000    0.000 
#    0.000    0.000    0.000    0.000    0.000    0.000 
#
# Total GULP energy -89425.734974 kJ/mol
# GULP energy per Si atom -5589.108436 kJ/mol
# Density = 2.221643 g / cm^3
# Si number density = 22.267110 Si / 1000 Ang^3
#
#
#
# Elastic Constant Matrix: (Units=GPa)
#
#
# Indices 1 2 3 4 5 6 
#
# 1 61.4407 51.2583 9.3793 4.8446 -9.4686 -15.1466
# 2 51.2583 162.0877 40.8633 31.9477 5.0884 -8.3316
# 3 9.3793 40.8633 99.8632 2.4074 0.8933 3.8902
# 4 4.8446 31.9477 2.4074 36.2424 -7.4985 5.1373
# 5 -9.4686 5.0884 0.8933 -7.4985 23.1438 0.6148
# 6 -15.1466 -8.3316 3.8902 5.1373 0.6148 42.5121
#
#
#
# Elastic Compliance Matrix: (Units=1/GPa)
#
#
# Indices 1 2 3 4 5 6 
#
# 1 0.029285 -0.011505 0.001331 0.008720 0.017105 0.006756
# 2 -0.011505 0.013811 -0.004183 -0.012898 -0.011780 0.000719
# 3 0.001331 -0.004183 0.011570 0.003456 0.002186 -0.001853
# 4 0.008720 -0.012898 0.003456 0.042471 0.020167 -0.005161
# 5 0.017105 -0.011780 0.002186 0.020167 0.059238 0.000292
# 6 0.006756 0.000719 -0.001853 -0.005161 0.000292 0.026860
#
#
# Mechanical properties :
#
#
# Convention : Reuss Voigt Hill
#
# Bulk Modulus (GPa) = 38.53212 58.48817 48.51014
# Shear Modulus (GPa) = 22.66555 35.17238 28.91897
#
# Velocity S-wave (km/s) = 3.19391 3.97869 3.60770
# Velocity P-wave (km/s) = 5.56268 6.88696 6.25994
#
# Compressibility (1/GPa) = 0.02595237
#
# Stress axis : x y z
#
# Youngs Moduli (GPa) = 34.14718 72.40439 86.43377
#
# Poissons Ratio (x) = 0.83301 -0.11503
# Poissons Ratio (y) = 0.39286 0.36152
# Poissons Ratio (z) = -0.04544 0.30284
#
# Static dielectric constant tensor:
#      x y z
#    x 1.866300 0.000770 -0.011110 
#    y 0.000770 1.852090 0.021280 
#    z -0.011110 0.021280 1.830680 
# 
# From -- ./inp_files/570830.got.cif
#   From: 2010.05.17/outbox.cif.g08.bks.cpg/sg2_286_cif.got.tgz:570830.got - 2010.06.03 11:33:40.
