data_PCOD9092481
_publ_section_title
;
Structure prediction by ZEFSAII (Michael W. Deem and Ramdas Pophale) SiO2 
 PCOD9092481
Probable space group: P -1
;
_chemical_formula_sum "Si O2"
_cell_formula_units_Z 16
_cell_length_a 21.853020
_cell_length_b 13.763103
_cell_length_c 18.798984
_cell_angle_alpha 22.654519
_cell_angle_beta 161.539679
_cell_angle_gamma 150.800129
_cell_volume 689.459465
_symmetry_space_group_name_H-M "P -1"
_symmetry_group_IT_number 2
_symmetry_cell_setting 'triclinic'
loop_
_space_group_symop_operation_xyz
x,y,z
-x,-y,-z
loop_
_atom_site_type_symbol
_atom_site_label
_atom_site_fract_x
_atom_site_fract_y
_atom_site_fract_z
Si Si1 0.899362 0.281616 0.635900
Si Si2 0.083886 0.413345 0.407486
Si Si3 0.252560 0.246388 0.210606
Si Si4 0.391542 0.199098 0.639841
Si Si5 0.491883 0.645292 0.120196
Si Si6 0.767980 0.405300 0.260470
Si Si7 0.408172 0.742945 0.325283
Si Si8 0.004520 0.014613 0.291916
O O1 0.871759 0.411339 0.593541
O O2 0.764021 0.402400 0.342749
O O3 0.116322 0.348706 0.804175
O O4 0.848539 0.990128 0.776395
O O5 0.280402 0.377139 0.606784
O O6 0.019503 0.154895 0.548593
O O7 0.915182 0.558851 0.080179
O O8 0.377934 0.413525 0.183009
O O9 0.406866 0.149136 0.503915
O O10 0.414039 0.442014 0.549186
O O11 0.548625 0.222474 0.734041
O O12 0.173904 0.210665 0.360536
O O13 0.419902 0.913893 0.890549
O O14 0.424976 0.638732 0.967535
O O15 0.912080 0.176306 0.547162
O O16 0.203218 0.866040 0.035681
#
# Coordination Sequence:
#
# PCOD9092481 Si02
#       8
#     2   2   2   2   2   2   2   2
#     4  10  21  40  63  88 126 163 209 251 299 353
#     4  11  23  40  64  87 128 169 200 248 310 360
#     4  12  24  41  58  93 129 159 200 264 299 359
#     4  10  21  43  67  92 121 157 207 255 302 370
#     4  11  22  40  62  89 126 164 201 250 314 362
#     4   9  20  40  65  91 122 163 205 256 295 362
#     4  11  24  39  69  94 118 159 209 254 306 362
#     4  10  19  41  66  90 121 162 201 252 305 364
#
# _framework density 23.206585
#
# number of rings (size 3 to 8) (size 9 to 14) (size 15 to 20)
#    0.000    1.500    5.000    2.250    0.000    3.500 
#    4.500    0.625    0.000    0.000    0.000    0.000 
#    0.000    0.000    0.000    0.000    0.000    0.000 
#
# Total GULP energy -89440.222203 kJ/mol
# GULP energy per Si atom -5590.013888 kJ/mol
# Density = 2.315377 g / cm^3
# Si number density = 23.206585 Si / 1000 Ang^3
#
#
#
# Elastic Constant Matrix: (Units=GPa)
#
#
# Indices 1 2 3 4 5 6 
#
# 1 45.0253 8.3740 19.8409 1.9864 -0.1091 10.6590
# 2 8.3740 101.2045 7.6022 -4.4435 5.6678 12.0744
# 3 19.8409 7.6022 86.1897 26.2699 13.4677 18.7604
# 4 1.9864 -4.4435 26.2699 44.4491 15.1982 -8.8152
# 5 -0.1091 5.6678 13.4677 15.1982 21.0791 6.8236
# 6 10.6590 12.0744 18.7604 -8.8152 6.8236 27.9972
#
#
#
# Elastic Compliance Matrix: (Units=1/GPa)
#
#
# Indices 1 2 3 4 5 6 
#
# 1 0.026978 -0.001391 -0.003835 -0.004612 0.009834 -0.010951
# 2 -0.001391 0.010573 -0.000050 0.001701 -0.003175 -0.002688
# 3 -0.003835 -0.000050 0.021776 -0.019025 0.006494 -0.020683
# 4 -0.004612 0.001701 -0.019025 0.057382 -0.043432 0.042424
# 5 0.009834 -0.003175 0.006494 -0.043432 0.089148 -0.042129
# 6 -0.010951 -0.002688 -0.020683 0.042424 -0.042129 0.078531
#
#
# Mechanical properties :
#
#
# Convention : Reuss Voigt Hill
#
# Bulk Modulus (GPa) = 20.50225 33.78374 27.14299
# Shear Modulus (GPa) = 16.06697 31.81189 23.93943
#
# Velocity S-wave (km/s) = 2.63410 3.70647 3.21531
# Velocity P-wave (km/s) = 4.25502 5.73643 5.05034
#
# Compressibility (1/GPa) = 0.04877513
#
# Stress axis : x y z
#
# Youngs Moduli (GPa) = 37.06721 94.58101 45.92300
#
# Poissons Ratio (x) = 0.13156 0.17611
# Poissons Ratio (y) = 0.05156 0.00229
# Poissons Ratio (z) = 0.14215 0.00471
#
# Static dielectric constant tensor:
#      x y z
#    x 1.893580 -0.003510 -0.077520 
#    y -0.003510 1.864570 -0.016260 
#    z -0.077520 -0.016260 1.902600 
# 
# From -- ./inp_files/602109.got.cif
#   From: 2010.05.17/outbox.cif.g08.bks.cpg/sg2_302_cif.got.tgz:602109.got - 2010.06.03 11:33:40.
