data_PCOD9092196
_publ_section_title
;
Structure prediction by ZEFSAII (Michael W. Deem and Ramdas Pophale) SiO2 
 PCOD9092196
Probable space group: P -1
;
_chemical_formula_sum "Si O2"
_cell_formula_units_Z 16
_cell_length_a 14.759139
_cell_length_b 8.068692
_cell_length_c 6.882049
_cell_angle_alpha 114.031776
_cell_angle_beta 103.634813
_cell_angle_gamma 104.355497
_cell_volume 670.593131
_symmetry_space_group_name_H-M "P -1"
_symmetry_group_IT_number 2
_symmetry_cell_setting 'triclinic'
loop_
_space_group_symop_operation_xyz
x,y,z
-x,-y,-z
loop_
_atom_site_type_symbol
_atom_site_label
_atom_site_fract_x
_atom_site_fract_y
_atom_site_fract_z
Si Si1 0.782092 0.030669 0.614383
Si Si2 0.975803 0.968501 0.695958
Si Si3 0.947634 0.649233 0.806383
Si Si4 0.722064 0.153519 0.253228
Si Si5 0.857932 0.412705 0.118661
Si Si6 0.253289 0.457429 0.150804
Si Si7 0.438828 0.807437 0.507911
Si Si8 0.363903 0.192570 0.261342
O O1 0.859720 0.930802 0.648467
O O2 0.777079 0.073157 0.406280
O O3 0.818504 0.229918 0.856654
O O4 0.678393 0.884196 0.582699
O O5 0.986529 0.774751 0.690231
O O6 0.000000 0.000000 0.500000
O O7 0.030965 0.166995 0.943676
O O8 0.828772 0.530770 0.726565
O O9 0.021351 0.531337 0.806667
O O10 0.631991 0.175202 0.343629
O O11 0.805468 0.327252 0.254925
O O12 0.665760 0.992984 0.985132
O O13 0.812854 0.567909 0.090756
O O14 0.353529 0.651610 0.256995
O O15 0.301921 0.311959 0.192326
O O16 0.516440 0.724151 0.604581
O O17 0.500000 0.000000 0.500000
#
# Coordination Sequence:
#
# PCOD9092196 Si02
#       8
#     2   2   2   2   2   2   2   2
#     4  10  19  40  67  94 132 177 220 269 329 398
#     4  10  20  36  66  99 134 177 223 265 331 401
#     4  10  22  40  64  97 141 178 216 272 331 396
#     4  11  22  44  73  97 127 179 232 266 333 419
#     4  10  22  42  66  96 137 180 217 263 334 411
#     4  12  24  45  66 102 143 173 217 288 338 382
#     4  12  24  48  73  93 132 183 225 278 345 398
#     4  11  24  42  69  99 131 169 227 285 330 387
#
# _framework density 23.859473000000001
#
# number of rings (size 3 to 8) (size 9 to 14) (size 15 to 20)
#    0.000    1.250    3.750    2.625    3.500    0.000 
#    4.500    1.875    0.000    0.000    0.000    0.000 
#    0.000    0.000    0.000    0.000    0.000    0.000 
#
# Total GULP energy -89329.564779 kJ/mol
# GULP energy per Si atom -5583.097799 kJ/mol
# Density = 2.380517 g / cm^3
# Si number density = 23.859473 Si / 1000 Ang^3
#
#
#
# Elastic Constant Matrix: (Units=GPa)
#
#
# Indices 1 2 3 4 5 6 
#
# 1 150.1790 46.0876 4.9198 -10.1429 22.7544 -0.7721
# 2 46.0876 93.6134 19.6410 -35.1036 -4.5686 10.9311
# 3 4.9198 19.6410 67.0348 -29.2750 -5.6502 2.1542
# 4 -10.1429 -35.1036 -29.2750 42.3835 4.3997 3.3160
# 5 22.7544 -4.5686 -5.6502 4.3997 32.4822 -14.0823
# 6 -0.7721 10.9311 2.1542 3.3160 -14.0823 42.3165
#
#
#
# Elastic Compliance Matrix: (Units=1/GPa)
#
#
# Indices 1 2 3 4 5 6 
#
# 1 0.009358 -0.005445 -0.000465 -0.001755 -0.007491 -0.000755
# 2 -0.005445 0.020170 0.002437 0.017348 0.002080 -0.006101
# 3 -0.000465 0.002437 0.021897 0.017151 0.000949 -0.002781
# 4 -0.001755 0.017348 0.017151 0.050771 -0.005007 -0.011031
# 5 -0.007491 0.002080 0.000949 -0.005007 0.043269 0.014069
# 6 -0.000755 -0.006101 -0.002781 -0.011031 0.014069 0.030882
#
#
# Mechanical properties :
#
#
# Convention : Reuss Voigt Hill
#
# Bulk Modulus (GPa) = 22.48210 50.23601 36.35906
# Shear Modulus (GPa) = 25.23732 39.44836 32.34284
#
# Velocity S-wave (km/s) = 3.25583 4.07057 3.68578
# Velocity P-wave (km/s) = 4.85563 6.57217 5.77800
#
# Compressibility (1/GPa) = 0.04447983
#
# Stress axis : x y z
#
# Youngs Moduli (GPa) = 106.86574 49.57737 45.66818
#
# Poissons Ratio (x) = 0.26994 0.02123
# Poissons Ratio (y) = 0.58186 -0.11130
# Poissons Ratio (z) = 0.04968 -0.12082
#
# Static dielectric constant tensor:
#      x y z
#    x 1.903310 -0.032880 0.023270 
#    y -0.032880 1.963170 0.012700 
#    z 0.023270 0.012700 1.949940 
# 
# From -- ./inp_files/90784.got.cif
#   From: 2010.05.17/outbox.cif.g08.bks.cpg/sg2_46_cif.got.tgz:90784.got - 2010.06.03 11:33:40.
