data_PCOD9092319
_publ_section_title
;
Structure prediction by ZEFSAII (Michael W. Deem and Ramdas Pophale) SiO2 
 PCOD9092319
Probable space group: P -1
;
_chemical_formula_sum "Si O2"
_cell_formula_units_Z 14
_cell_length_a 8.916378
_cell_length_b 7.124123
_cell_length_c 16.905813
_cell_angle_alpha 36.016190
_cell_angle_beta 56.449782
_cell_angle_gamma 53.555905
_cell_volume 502.018226
_symmetry_space_group_name_H-M "P -1"
_symmetry_group_IT_number 2
_symmetry_cell_setting 'triclinic'
loop_
_space_group_symop_operation_xyz
x,y,z
-x,-y,-z
loop_
_atom_site_type_symbol
_atom_site_label
_atom_site_fract_x
_atom_site_fract_y
_atom_site_fract_z
Si Si1 0.466446 0.794631 0.753791
Si Si2 0.599872 0.205766 0.458422
Si Si3 0.045937 0.258617 0.693164
Si Si4 0.538373 0.770423 0.172462
Si Si5 0.961866 0.092801 0.599220
Si Si6 0.942217 0.790617 0.986841
Si Si7 0.279396 0.355730 0.126464
O O1 0.508587 0.477017 0.792366
O O2 0.546371 0.662714 0.860645
O O3 0.558677 0.073053 0.599557
O O4 0.245139 0.980000 0.744040
O O5 0.532339 0.589599 0.320553
O O6 0.500000 0.000000 0.500000
O O7 0.819002 0.087631 0.415905
O O8 0.950754 0.230728 0.645764
O O9 0.088231 0.610778 0.551520
O O10 0.922454 0.154042 0.831500
O O11 0.377451 0.120232 0.104558
O O12 0.252186 0.215229 0.913348
O O13 0.845632 0.833773 0.723833
O O14 0.123833 0.682358 0.028601
O O15 0.000000 0.500000 0.000000
#
# Coordination Sequence:
#
# PCOD9092319 Si02
#       7
#     2   2   2   2   2   2   2
#     4  11  24  45  71 113 150 180 250 317 351 435
#     4  10  19  40  72 104 143 192 240 298 368 425
#     4  11  23  43  73 103 149 192 239 310 361 427
#     4  11  24  48  76 104 151 199 238 302 372 435
#     4  11  22  43  74 107 143 195 246 299 371 435
#     4  12  23  50  73 104 153 195 245 304 359 452
#     4  12  27  46  78 111 143 196 247 299 376 432
#
# _framework density 27.887433000000001
#
# number of rings (size 3 to 8) (size 9 to 14) (size 15 to 20)
#    0.000    0.857    7.143    0.857    6.000    4.000 
#    5.143    0.714    0.000    0.000    0.000    0.000 
#    0.000    0.000    0.000    0.000    0.000    0.000 
#
# Total GULP energy -78601.642944 kJ/mol
# GULP energy per Si atom -5614.403067 kJ/mol
# Density = 2.782396 g / cm^3
# Si number density = 27.887433 Si / 1000 Ang^3
#
#
#
# Elastic Constant Matrix: (Units=GPa)
#
#
# Indices 1 2 3 4 5 6 
#
# 1 103.1832 40.2158 52.8628 -8.7119 15.5595 -10.2764
# 2 40.2158 96.0230 39.6229 -9.2618 2.0359 -24.9452
# 3 52.8628 39.6229 236.9046 13.3853 2.6032 -5.8115
# 4 -8.7119 -9.2618 13.3853 45.8000 -4.8718 6.5434
# 5 15.5595 2.0359 2.6032 -4.8718 53.4110 2.3065
# 6 -10.2764 -24.9452 -5.8115 6.5434 2.3065 48.9330
#
#
#
# Elastic Compliance Matrix: (Units=1/GPa)
#
#
# Indices 1 2 3 4 5 6 
#
# 1 0.013240 -0.004275 -0.002305 0.001931 -0.003415 0.000230
# 2 -0.004275 0.014528 -0.001433 0.001746 0.000658 0.006074
# 3 -0.002305 -0.001433 0.005084 -0.002134 0.000298 -0.000339
# 4 0.001931 0.001746 -0.002134 0.023677 0.001730 -0.002206
# 5 -0.003415 0.000658 0.000298 0.001730 0.019901 -0.001516
# 6 0.000230 0.006074 -0.000339 -0.002206 -0.001516 0.023907
#
#
# Mechanical properties :
#
#
# Convention : Reuss Voigt Hill
#
# Bulk Modulus (GPa) = 59.43369 77.94597 68.68983
# Shear Modulus (GPa) = 40.99283 49.85610 45.42446
#
# Velocity S-wave (km/s) = 3.83814 4.23278 4.04028
# Velocity P-wave (km/s) = 6.40312 7.20413 6.81540
#
# Compressibility (1/GPa) = 0.01682547
#
# Stress axis : x y z
#
# Youngs Moduli (GPa) = 75.52960 68.83146 196.69213
#
# Poissons Ratio (x) = 0.29428 0.45342
# Poissons Ratio (y) = 0.32292 0.28181
# Poissons Ratio (z) = 0.17411 0.09862
#
# Static dielectric constant tensor:
#      x y z
#    x 2.156110 0.057420 -0.010250 
#    y 0.057420 2.142170 0.017510 
#    z -0.010250 0.017510 2.213930 
# 
# From -- ./inp_files/587695.got.cif
#   From: 2010.05.17/outbox.cif.g08.bks.cpg/sg2_294_cif.got.tgz:587695.got - 2010.06.03 11:33:40.
