data_PCOD9092251
_publ_section_title
;
Structure prediction by ZEFSAII (Michael W. Deem and Ramdas Pophale) SiO2 
 PCOD9092251
Probable space group: P -1
;
_chemical_formula_sum "Si O2"
_cell_formula_units_Z 16
_cell_length_a 13.543311
_cell_length_b 9.323528
_cell_length_c 8.982830
_cell_angle_alpha 84.679462
_cell_angle_beta 39.572335
_cell_angle_gamma 74.590054
_cell_volume 684.911952
_symmetry_space_group_name_H-M "P -1"
_symmetry_group_IT_number 2
_symmetry_cell_setting 'triclinic'
loop_
_space_group_symop_operation_xyz
x,y,z
-x,-y,-z
loop_
_atom_site_type_symbol
_atom_site_label
_atom_site_fract_x
_atom_site_fract_y
_atom_site_fract_z
Si Si1 0.506517 0.971097 0.249455
Si Si2 0.343484 0.512554 0.284000
Si Si3 0.281487 0.609859 0.684057
Si Si4 0.230709 0.209315 0.409360
Si Si5 0.289187 0.923231 0.778575
Si Si6 0.997291 0.647655 0.581130
Si Si7 0.723858 0.667409 0.118237
Si Si8 0.087980 0.215845 0.889899
O O1 0.389187 0.970575 0.525094
O O2 0.604106 0.793423 0.140895
O O3 0.387287 0.062117 0.253267
O O4 0.630631 0.056619 0.159685
O O5 0.354790 0.557750 0.439874
O O6 0.296213 0.355450 0.339643
O O7 0.181423 0.640028 0.398245
O O8 0.500000 0.500000 0.000000
O O9 0.302649 0.755240 0.730111
O O10 0.331598 0.472789 0.755978
O O11 0.084991 0.663891 0.887167
O O12 0.120341 0.218125 0.391583
O O13 0.113603 0.207476 0.684898
O O14 0.115034 0.053300 0.954304
O O15 0.000000 0.500000 0.500000
O O16 0.898807 0.628706 0.842427
O O17 0.760935 0.735842 0.223888
#
# Coordination Sequence:
#
# PCOD9092251 Si02
#       8
#     2   2   2   2   2   2   2   2
#     4   9  21  43  60  93 137 179 217 266 330 398
#     4  11  24  42  64  99 141 169 216 286 334 386
#     4  12  21  37  68 104 131 168 222 286 331 380
#     4  10  21  44  68  88 136 186 215 263 333 399
#     4   9  21  36  62  98 140 165 215 278 336 391
#     4  10  22  41  65  98 129 182 219 266 329 407
#     4  11  21  38  71 100 128 172 232 268 323 402
#     4  10  19  40  68  97 131 175 219 267 334 399
#
# _framework density 23.360666999999999
#
# number of rings (size 3 to 8) (size 9 to 14) (size 15 to 20)
#    0.000    1.750    2.500    3.000    0.000    3.000 
#    6.750    1.250    0.000    3.750    0.000    0.000 
#    0.000    0.000    0.000    0.000    0.000    0.000 
#
# Total GULP energy -89317.451471 kJ/mol
# GULP energy per Si atom -5582.340717 kJ/mol
# Density = 2.330750 g / cm^3
# Si number density = 23.360667 Si / 1000 Ang^3
#
#
#
# Elastic Constant Matrix: (Units=GPa)
#
#
# Indices 1 2 3 4 5 6 
#
# 1 127.8434 65.3537 32.8608 -7.6405 -13.8741 -32.5599
# 2 65.3537 138.4258 27.5137 2.4271 -4.8041 -12.5484
# 3 32.8608 27.5137 123.4428 4.3702 3.7614 -23.4484
# 4 -7.6405 2.4271 4.3702 19.4099 -2.4139 -7.2083
# 5 -13.8741 -4.8041 3.7614 -2.4139 23.3156 5.4270
# 6 -32.5599 -12.5484 -23.4484 -7.2083 5.4270 34.6580
#
#
#
# Elastic Compliance Matrix: (Units=1/GPa)
#
#
# Indices 1 2 3 4 5 6 
#
# 1 0.016492 -0.006302 -0.000948 0.013663 0.006741 0.014357
# 2 -0.006302 0.010117 -0.001102 -0.005079 -0.001109 -0.003886
# 3 -0.000948 -0.001102 0.009845 -0.000769 -0.003811 0.005809
# 4 0.013663 -0.005079 -0.000769 0.067386 0.008805 0.023114
# 5 0.006741 -0.001109 -0.003811 0.008805 0.048769 -0.002453
# 6 0.014357 -0.003886 0.005809 0.023114 -0.002453 0.050056
#
#
# Mechanical properties :
#
#
# Convention : Reuss Voigt Hill
#
# Bulk Modulus (GPa) = 50.62907 71.24093 60.93500
# Shear Modulus (GPa) = 22.12867 33.07562 27.60214
#
# Velocity S-wave (km/s) = 3.08110 3.76688 3.44112
# Velocity P-wave (km/s) = 5.86323 7.03431 6.47530
#
# Compressibility (1/GPa) = 0.01975150
#
# Stress axis : x y z
#
# Youngs Moduli (GPa) = 60.63616 98.84667 101.56958
#
# Poissons Ratio (x) = 0.62293 0.09624
# Poissons Ratio (y) = 0.38213 0.11191
# Poissons Ratio (z) = 0.05745 0.10891
#
# Static dielectric constant tensor:
#      x y z
#    x 1.673260 -0.071320 -0.241840 
#    y -0.071320 1.946050 0.002090 
#    z -0.241840 0.002090 1.752440 
# 
# From -- ./inp_files/298110.got.cif
#   From: 2010.05.17/outbox.cif.g08.bks.cpg/sg2_150_cif.got.tgz:298110.got - 2010.06.03 11:33:40.
