data_PCOD9092048
_publ_section_title
;
Structure prediction by ZEFSAII (Michael W. Deem and Ramdas Pophale) SiO2 
 PCOD9092048
Probable space group: P -1
;
_chemical_formula_sum "Si O2"
_cell_formula_units_Z 16
_cell_length_a 8.780957
_cell_length_b 14.758521
_cell_length_c 9.028311
_cell_angle_alpha 102.150906
_cell_angle_beta 94.840183
_cell_angle_gamma 40.748198
_cell_volume 741.414079
_symmetry_space_group_name_H-M "P -1"
_symmetry_group_IT_number 2
_symmetry_cell_setting 'triclinic'
loop_
_space_group_symop_operation_xyz
x,y,z
-x,-y,-z
loop_
_atom_site_type_symbol
_atom_site_label
_atom_site_fract_x
_atom_site_fract_y
_atom_site_fract_z
Si Si1 0.630281 0.108203 0.908841
Si Si2 0.731743 0.148849 0.495315
Si Si3 0.583194 0.866151 0.390001
Si Si4 0.947788 0.214393 0.061361
Si Si5 0.033818 0.569158 0.241233
Si Si6 0.454279 0.715704 0.788126
Si Si7 0.678727 0.278235 0.806337
Si Si8 0.135789 0.550074 0.896656
O O1 0.485243 0.114024 0.782721
O O2 0.716073 0.157220 0.835968
O O3 0.499650 0.220194 0.071543
O O4 0.838738 0.950721 0.937518
O O5 0.556574 0.150464 0.541388
O O6 0.679337 0.187294 0.333166
O O7 0.688953 0.261353 0.626417
O O8 0.000000 0.000000 0.500000
O O9 0.860168 0.718198 0.362330
O O10 0.500000 0.000000 0.500000
O O11 0.718820 0.276856 0.143496
O O12 0.980963 0.305903 0.135245
O O13 0.879102 0.243980 0.891824
O O14 0.296010 0.444040 0.281819
O O15 0.919665 0.518951 0.217782
O O16 0.055115 0.578409 0.070049
O O17 0.418331 0.431012 0.879696
#
# Coordination Sequence:
#
# PCOD9092048 Si02
#       8
#     2   2   2   2   2   2   2   2
#     4  10  19  41  67  95 129 169 218 272 315 382
#     4  11  23  43  66  94 135 178 211 269 343 385
#     4  11  25  46  67  94 133 176 222 267 332 400
#     4  11  22  37  68 104 126 165 231 277 306 387
#     4  11  22  43  67  92 131 179 212 271 335 396
#     4  11  22  40  69 100 130 173 224 267 329 389
#     4  10  19  40  65  91 135 169 212 263 332 384
#     4  11  21  41  69  96 131 170 220 269 329 388
#
# _framework density 21.580383000000001
#
# number of rings (size 3 to 8) (size 9 to 14) (size 15 to 20)
#    0.000    1.250    5.000    4.875    0.000    3.500 
#    2.250    2.500    0.000    0.000    0.000    0.000 
#    0.000    0.000    0.000    0.000    0.000    0.000 
#
# Total GULP energy -89416.959000 kJ/mol
# GULP energy per Si atom -5588.559937 kJ/mol
# Density = 2.153127 g / cm^3
# Si number density = 21.580383 Si / 1000 Ang^3
#
#
#
# Elastic Constant Matrix: (Units=GPa)
#
#
# Indices 1 2 3 4 5 6 
#
# 1 37.0085 33.7875 18.5318 6.4883 8.5443 3.8724
# 2 33.7875 120.5012 23.7017 28.3442 -2.0340 -7.4400
# 3 18.5318 23.7017 99.7172 6.2997 13.3909 2.1221
# 4 6.4883 28.3442 6.2997 39.3108 -2.6694 1.8582
# 5 8.5443 -2.0340 13.3909 -2.6694 19.5826 6.8340
# 6 3.8724 -7.4400 2.1221 1.8582 6.8340 34.9916
#
#
#
# Elastic Compliance Matrix: (Units=1/GPa)
#
#
# Indices 1 2 3 4 5 6 
#
# 1 0.044161 -0.012673 -0.002916 0.001362 -0.016951 -0.004167
# 2 -0.012673 0.014288 -0.001375 -0.007795 0.005546 0.003855
# 3 -0.002916 -0.001375 0.011943 -0.000986 -0.007456 0.000815
# 4 0.001362 -0.007795 -0.000986 0.031549 0.005114 -0.004423
# 5 -0.016951 0.005546 -0.007456 0.005114 0.068364 -0.010116
# 6 -0.004167 0.003855 0.000815 -0.004423 -0.010116 0.032020
#
#
# Mechanical properties :
#
#
# Convention : Reuss Voigt Hill
#
# Bulk Modulus (GPa) = 27.42355 45.47431 36.44893
# Shear Modulus (GPa) = 20.12818 30.85741 25.49280
#
# Velocity S-wave (km/s) = 3.05734 3.78548 3.44073
# Velocity P-wave (km/s) = 5.01979 6.34226 5.71938
#
# Compressibility (1/GPa) = 0.03646501
#
# Stress axis : x y z
#
# Youngs Moduli (GPa) = 22.64417 69.99040 83.72820
#
# Poissons Ratio (x) = 0.88696 0.24415
# Poissons Ratio (y) = 0.28696 0.11514
# Poissons Ratio (z) = 0.06603 0.09625
#
# Static dielectric constant tensor:
#      x y z
#    x 1.811540 0.002630 0.012220 
#    y 0.002630 1.779140 0.013500 
#    z 0.012220 0.013500 1.820980 
# 
# From -- ./inp_files/207777.got.cif
#   From: 2010.05.17/outbox.cif.g08.bks.cpg/sg2_104_cif.got.tgz:207777.got - 2010.06.03 11:33:40.
