data_PCOD9092825
_publ_section_title
;
Structure prediction by ZEFSAII (Michael W. Deem and Ramdas Pophale) SiO2 
 PCOD9092825
Probable space group: P -1
;
_chemical_formula_sum "Si O2"
_cell_formula_units_Z 12
_cell_length_a 18.380605
_cell_length_b 23.381995
_cell_length_c 7.287817
_cell_angle_alpha 39.542999
_cell_angle_beta 38.035611
_cell_angle_gamma 13.673753
_cell_volume 455.838638
_symmetry_space_group_name_H-M "P -1"
_symmetry_group_IT_number 2
_symmetry_cell_setting 'triclinic'
loop_
_space_group_symop_operation_xyz
x,y,z
-x,-y,-z
loop_
_atom_site_type_symbol
_atom_site_label
_atom_site_fract_x
_atom_site_fract_y
_atom_site_fract_z
Si Si1 0.811638 0.262012 0.348781
Si Si2 0.462308 0.310367 0.265159
Si Si3 0.706905 0.229555 0.303150
Si Si4 0.707907 0.966089 0.816076
Si Si5 0.234133 0.458608 0.944012
Si Si6 0.766951 0.743183 0.679319
O O1 0.500000 0.500000 0.500000
O O2 0.750839 0.289208 0.185098
O O3 0.075645 0.148787 0.161039
O O4 0.975996 0.053143 0.602202
O O5 0.616070 0.284450 0.134946
O O6 0.403990 0.357439 0.050362
O O7 0.111599 0.542369 0.473050
O O8 0.671214 0.074239 0.480768
O O9 0.438825 0.362369 0.618173
O O10 0.895440 0.747790 0.911737
O O11 0.361607 0.188818 0.031689
O O12 0.223728 0.359110 0.188705
O O13 0.500000 0.000000 0.500000
#
# Coordination Sequence:
#
# PCOD9092825 Si02
#       6
#     2   2   2   2   2   2
#     4  10  19  42  72  96 136 181 219 282 345 387
#     4  11  25  45  69 105 134 185 233 265 349 412
#     4  10  23  42  70 100 139 175 225 285 330 406
#     4  11  24  44  70 101 138 180 227 281 340 402
#     4  12  24  45  69 100 141 178 223 286 338 399
#     4  12  25  46  69 100 143 179 226 288 335 403
#
# _framework density 26.325104
#
# number of rings (size 3 to 8) (size 9 to 14) (size 15 to 20)
#    0.000    1.000    6.667    1.000    0.000    2.000 
#    0.000    8.333    0.000    0.000    0.000    0.000 
#    0.000    0.000    0.000    0.000    0.000    0.000 
#
# Total GULP energy -67294.588079 kJ/mol
# GULP energy per Si atom -5607.882340 kJ/mol
# Density = 2.626519 g / cm^3
# Si number density = 26.325104 Si / 1000 Ang^3
#
#
#
# Elastic Constant Matrix: (Units=GPa)
#
#
# Indices 1 2 3 4 5 6 
#
# 1 212.3900 70.9830 34.7903 -19.2991 3.0536 -3.3824
# 2 70.9830 130.7542 26.4584 -2.9751 -15.6358 36.0671
# 3 34.7903 26.4584 61.4407 -17.8371 0.7485 8.4996
# 4 -19.2991 -2.9751 -17.8371 66.3229 10.8149 -10.4551
# 5 3.0536 -15.6358 0.7485 10.8149 46.8556 -8.7609
# 6 -3.3824 36.0671 8.4996 -10.4551 -8.7609 51.8001
#
#
#
# Elastic Compliance Matrix: (Units=1/GPa)
#
#
# Indices 1 2 3 4 5 6 
#
# 1 0.006849 -0.004656 -0.001776 0.002239 -0.001714 0.004142
# 2 -0.004656 0.013827 -0.003140 -0.003735 0.004057 -0.009484
# 3 -0.001776 -0.003140 0.020235 0.005098 -0.002554 -0.000653
# 4 0.002239 -0.003735 0.005098 0.018482 -0.004838 0.004823
# 5 -0.001714 0.004057 -0.002554 -0.004838 0.024073 0.000578
# 6 0.004142 -0.009484 -0.000653 0.004823 0.000578 0.027357
#
#
# Mechanical properties :
#
#
# Convention : Reuss Voigt Hill
#
# Bulk Modulus (GPa) = 45.93748 74.33871 60.13809
# Shear Modulus (GPa) = 36.43746 51.15259 43.79502
#
# Velocity S-wave (km/s) = 3.72443 4.41286 4.08318
# Velocity P-wave (km/s) = 5.99859 7.36644 6.71742
#
# Compressibility (1/GPa) = 0.02176872
#
# Stress axis : x y z
#
# Youngs Moduli (GPa) = 146.00356 72.32335 49.41941
#
# Poissons Ratio (x) = 0.33670 0.08775
# Poissons Ratio (y) = 0.67972 0.15518
# Poissons Ratio (z) = 0.25924 0.22710
#
# Static dielectric constant tensor:
#      x y z
#    x 2.057780 -0.017210 -0.001680 
#    y -0.017210 2.038060 -0.008780 
#    z -0.001680 -0.008780 2.078190 
# 
# From -- ./inp_files/350181.got.cif
#   From: 2010.05.17/outbox.cif.g08.bks.cpg/sg2_176_cif.got.tgz:350181.got - 2010.06.03 11:33:40.
