data_PCOD9092451
_publ_section_title
;
Structure prediction by ZEFSAII (Michael W. Deem and Ramdas Pophale) SiO2 
 PCOD9092451
Probable space group: P -1
;
_chemical_formula_sum "Si O2"
_cell_formula_units_Z 14
_cell_length_a 8.268841
_cell_length_b 18.885863
_cell_length_c 12.129353
_cell_angle_alpha 140.655437
_cell_angle_beta 141.042810
_cell_angle_gamma 35.728109
_cell_volume 641.251926
_symmetry_space_group_name_H-M "P -1"
_symmetry_group_IT_number 2
_symmetry_cell_setting 'triclinic'
loop_
_space_group_symop_operation_xyz
x,y,z
-x,-y,-z
loop_
_atom_site_type_symbol
_atom_site_label
_atom_site_fract_x
_atom_site_fract_y
_atom_site_fract_z
Si Si1 0.361084 0.575190 0.132153
Si Si2 0.330995 0.210120 0.956574
Si Si3 0.648529 0.851092 0.357685
Si Si4 0.668989 0.231287 0.351939
Si Si5 0.694600 0.038174 0.318023
Si Si6 0.242163 0.511856 0.569067
Si Si7 0.337515 0.261055 0.552872
O O1 0.528550 0.483183 0.216534
O O2 0.464247 0.681641 0.319741
O O3 0.998348 0.654816 0.044164
O O4 0.500000 0.500000 0.000000
O O5 0.415022 0.169675 0.825471
O O6 0.298188 0.095217 0.856398
O O7 0.585648 0.216255 0.166355
O O8 0.568555 0.777728 0.318129
O O9 0.005532 0.790682 0.482863
O O10 0.500000 0.000000 0.500000
O O11 0.660212 0.123378 0.295306
O O12 0.426199 0.378621 0.438137
O O13 0.425618 0.134346 0.374138
O O14 0.000000 0.000000 0.500000
O O15 0.000000 0.500000 0.500000
O O16 0.019884 0.635067 0.523914
#
# Coordination Sequence:
#
# PCOD9092451 Si02
#       7
#     2   2   2   2   2   2   2
#     4  11  22  42  69 100 129 168 227 283 321 386
#     4  12  24  42  69  98 131 173 225 271 329 389
#     4  12  25  46  65  92 146 179 210 269 330 399
#     4  12  24  43  68  98 131 172 223 276 327 390
#     4  12  19  42  68  95 129 172 221 279 323 376
#     4  10  19  41  65  91 130 164 218 276 324 373
#     4  11  22  40  68  94 131 180 216 266 339 386
#
# _framework density 21.832294000000001
#
# number of rings (size 3 to 8) (size 9 to 14) (size 15 to 20)
#    0.000    0.571    8.571    2.143    0.000    1.143 
#    2.571    1.429    0.000    0.000    0.000    0.000 
#    0.000    0.000    0.000    0.000    0.000    0.000 
#
# Total GULP energy -78266.965335 kJ/mol
# GULP energy per Si atom -5590.497524 kJ/mol
# Density = 2.178260 g / cm^3
# Si number density = 21.832294 Si / 1000 Ang^3
#
#
#
# Elastic Constant Matrix: (Units=GPa)
#
#
# Indices 1 2 3 4 5 6 
#
# 1 47.9415 5.2571 2.5104 -8.6317 -24.1320 6.1809
# 2 5.2571 112.2297 14.5298 -5.3664 -20.8293 -7.0705
# 3 2.5104 14.5298 105.2538 -17.0181 -37.2993 1.2986
# 4 -8.6317 -5.3664 -17.0181 26.0773 3.9549 -14.3658
# 5 -24.1320 -20.8293 -37.2993 3.9549 37.8554 -2.4523
# 6 6.1809 -7.0705 1.2986 -14.3658 -2.4523 27.3760
#
#
#
# Elastic Compliance Matrix: (Units=1/GPa)
#
#
# Indices 1 2 3 4 5 6 
#
# 1 0.051502 0.007248 0.022589 0.030283 0.056570 0.010131
# 2 0.007248 0.011821 0.005401 0.010368 0.015884 0.008024
# 3 0.022589 0.005401 0.027539 0.027362 0.042500 0.013154
# 4 0.030283 0.010368 0.027362 0.085330 0.045868 0.043430
# 5 0.056570 0.015884 0.042500 0.045868 0.109806 0.023220
# 6 0.010131 0.008024 0.013154 0.043430 0.023220 0.060560
#
#
# Mechanical properties :
#
#
# Convention : Reuss Voigt Hill
#
# Bulk Modulus (GPa) = 6.19806 34.44662 20.32234
# Shear Modulus (GPa) = 15.15793 34.47026 24.81410
#
# Velocity S-wave (km/s) = 2.63780 3.97780 3.37497
# Velocity P-wave (km/s) = 3.48172 6.07530 4.95135
#
# Compressibility (1/GPa) = 0.16134085
#
# Stress axis : x y z
#
# Youngs Moduli (GPa) = 19.41654 84.59766 36.31179
#
# Poissons Ratio (x) = -0.61320 -0.82026
# Poissons Ratio (y) = -0.14074 -0.19614
# Poissons Ratio (z) = -0.43861 -0.45695
#
# Static dielectric constant tensor:
#      x y z
#    x 1.816760 0.036620 -0.015170 
#    y 0.036620 1.822160 -0.007290 
#    z -0.015170 -0.007290 1.783090 
# 
# From -- ./inp_files/252939.got.cif
#   From: 2010.05.17/outbox.cif.g08.bks.cpg/sg2_127_cif.got.tgz:252939.got - 2010.06.03 11:33:40.
