data_PCOD9092816
_publ_section_title
;
Structure prediction by ZEFSAII (Michael W. Deem and Ramdas Pophale) SiO2 
 PCOD9092816
Probable space group: P -1
;
_chemical_formula_sum "Si O2"
_cell_formula_units_Z 16
_cell_length_a 12.290305
_cell_length_b 8.482117
_cell_length_c 15.775645
_cell_angle_alpha 49.246541
_cell_angle_beta 52.997491
_cell_angle_gamma 91.722500
_cell_volume 711.359436
_symmetry_space_group_name_H-M "P -1"
_symmetry_group_IT_number 2
_symmetry_cell_setting 'triclinic'
loop_
_space_group_symop_operation_xyz
x,y,z
-x,-y,-z
loop_
_atom_site_type_symbol
_atom_site_label
_atom_site_fract_x
_atom_site_fract_y
_atom_site_fract_z
Si Si1 0.050540 0.344042 0.982596
Si Si2 0.600955 0.431968 0.327888
Si Si3 0.972311 0.694009 0.490340
Si Si4 0.780866 0.724604 0.416672
Si Si5 0.606572 0.823929 0.812854
Si Si6 0.795398 0.065500 0.053430
Si Si7 0.654451 0.198673 0.931319
Si Si8 0.564550 0.141416 0.611925
O O1 0.272378 0.521197 0.824177
O O2 0.000000 0.500000 0.000000
O O3 0.995200 0.310167 0.920731
O O4 0.919203 0.017698 0.193969
O O5 0.398713 0.329335 0.448677
O O6 0.578618 0.227838 0.478808
O O7 0.732716 0.759780 0.187437
O O8 0.892183 0.759237 0.433349
O O9 0.819933 0.511600 0.701545
O O10 0.000000 0.500000 0.500000
O O11 0.177859 0.973464 0.330047
O O12 0.700355 0.442110 0.499096
O O13 0.608795 0.947720 0.678770
O O14 0.500000 0.500000 0.000000
O O15 0.481934 0.851520 0.916449
O O16 0.646297 0.021878 0.200430
O O17 0.761386 0.122161 0.955495
O O18 0.500000 0.000000 0.000000
#
# Coordination Sequence:
#
# PCOD9092816 Si02
#       8
#     2   2   2   2   2   2   2   2
#     4  12  27  42  64 104 145 179 228 287 361 426
#     4  11  22  41  73  97 130 186 228 288 356 410
#     4  12  24  42  74 105 138 187 242 292 346 428
#     4  11  23  44  67 103 137 177 239 291 338 431
#     4  11  26  45  68 103 148 186 232 306 361 413
#     4  10  21  41  70 100 136 175 234 293 341 425
#     4  11  23  43  71 107 141 181 242 293 358 426
#     4  10  19  42  71  96 135 178 238 288 347 419
#
# _framework density 22.492144
#
# number of rings (size 3 to 8) (size 9 to 14) (size 15 to 20)
#    0.000    1.000    5.000    2.625    3.500    4.000 
#    2.250    0.000    0.000    0.000    0.000    0.000 
#    0.000    0.000    0.000    0.000    0.000    0.000 
#
# Total GULP energy -89425.746202 kJ/mol
# GULP energy per Si atom -5589.109138 kJ/mol
# Density = 2.244095 g / cm^3
# Si number density = 22.492144 Si / 1000 Ang^3
#
#
#
# Elastic Constant Matrix: (Units=GPa)
#
#
# Indices 1 2 3 4 5 6 
#
# 1 165.7474 33.7289 59.8496 -12.6109 3.8661 -19.1093
# 2 33.7289 24.6845 22.0525 3.0766 -1.5215 -14.3234
# 3 59.8496 22.0525 115.3869 -5.6402 -12.4136 -11.0961
# 4 -12.6109 3.0766 -5.6402 37.0911 -10.1386 -1.9655
# 5 3.8661 -1.5215 -12.4136 -10.1386 41.4278 0.2470
# 6 -19.1093 -14.3234 -11.0961 -1.9655 0.2470 20.4531
#
#
#
# Elastic Compliance Matrix: (Units=1/GPa)
#
#
# Indices 1 2 3 4 5 6 
#
# 1 0.009604 -0.011084 -0.002839 0.003392 -0.001324 0.000013
# 2 -0.011084 0.092293 -0.007738 -0.010184 -0.000680 0.049109
# 3 -0.002839 -0.007738 0.012074 0.002603 0.004244 -0.001322
# 4 0.003392 -0.010184 0.002603 0.031506 0.007797 0.000383
# 5 -0.001324 -0.000680 0.004244 0.007797 0.027411 0.001008
# 6 0.000013 0.049109 -0.001322 0.000383 0.001008 0.082603
#
#
# Mechanical properties :
#
#
# Convention : Reuss Voigt Hill
#
# Bulk Modulus (GPa) = 14.15429 59.67565 36.91497
# Shear Modulus (GPa) = 15.51043 32.47360 23.99202
#
# Velocity S-wave (km/s) = 2.62886 3.80383 3.26956
# Velocity P-wave (km/s) = 3.93969 6.77359 5.54088
#
# Compressibility (1/GPa) = 0.07064997
#
# Stress axis : x y z
#
# Youngs Moduli (GPa) = 104.11967 10.83504 82.82010
#
# Poissons Ratio (x) = 0.12010 0.23509
# Poissons Ratio (y) = 1.15410 0.64086
# Poissons Ratio (z) = 0.29555 0.08384
#
# Static dielectric constant tensor:
#      x y z
#    x 1.844970 -0.008670 -0.013550 
#    y -0.008670 1.872990 0.000570 
#    z -0.013550 0.000570 1.785170 
# 
# From -- ./inp_files/188158.got.cif
#   From: 2010.05.17/outbox.cif.g08.bks.cpg/sg2_95_cif.got.tgz:188158.got - 2010.06.03 11:33:40.
