data_PCOD9092669
_publ_section_title
;
Structure prediction by ZEFSAII (Michael W. Deem and Ramdas Pophale) SiO2 
 PCOD9092669
Probable space group: P -1
;
_chemical_formula_sum "Si O2"
_cell_formula_units_Z 14
_cell_length_a 10.793044
_cell_length_b 7.459129
_cell_length_c 8.887033
_cell_angle_alpha 93.082188
_cell_angle_beta 74.188138
_cell_angle_gamma 129.802715
_cell_volume 521.767436
_symmetry_space_group_name_H-M "P -1"
_symmetry_group_IT_number 2
_symmetry_cell_setting 'triclinic'
loop_
_space_group_symop_operation_xyz
x,y,z
-x,-y,-z
loop_
_atom_site_type_symbol
_atom_site_label
_atom_site_fract_x
_atom_site_fract_y
_atom_site_fract_z
Si Si1 0.306477 0.938444 0.414662
Si Si2 0.167276 0.231652 0.827882
Si Si3 0.227178 0.743346 0.106297
Si Si4 0.472585 0.133220 0.813316
Si Si5 0.829242 0.848177 0.830172
Si Si6 0.952240 0.248600 0.269256
Si Si7 0.469125 0.412562 0.285725
O O1 0.471584 0.965962 0.332256
O O2 0.354689 0.193014 0.427777
O O3 0.217658 0.832099 0.276494
O O4 0.172263 0.765397 0.576864
O O5 0.341072 0.483670 0.739415
O O6 0.155897 0.009770 0.780123
O O7 0.175723 0.237621 0.005053
O O8 0.988265 0.130301 0.812112
O O9 0.054499 0.475723 0.139612
O O10 0.384853 0.752109 0.096016
O O11 0.300817 0.920382 0.948597
O O12 0.501381 0.349244 0.732816
O O13 0.641326 0.726333 0.835218
O O14 0.903181 0.750122 0.699653
#
# Coordination Sequence:
#
# PCOD9092669 Si02
#       7
#     2   2   2   2   2   2   2
#     4  10  23  35  68  94 125 175 203 257 330 373
#     4   9  22  35  64  95 125 166 212 266 313 367
#     4   9  19  37  60  89 129 160 209 266 304 364
#     4   9  21  37  58 101 121 157 223 261 300 379
#     4   9  20  37  60  93 128 159 211 270 299 373
#     4  10  19  42  59  88 141 162 200 274 314 372
#     4  12  22  39  73  91 125 169 216 256 323 380
#
# _framework density 26.831876999999999
#
# number of rings (size 3 to 8) (size 9 to 14) (size 15 to 20)
#    1.714    0.571    1.429    0.857    6.000    1.143 
#    0.000    1.429    3.143    0.000    0.000    0.000 
#    0.000    0.000    0.000    0.000    0.000    0.000 
#
# Total GULP energy -77937.965059 kJ/mol
# GULP energy per Si atom -5566.997504 kJ/mol
# Density = 2.677081 g / cm^3
# Si number density = 26.831877 Si / 1000 Ang^3
#
#
#
# Elastic Constant Matrix: (Units=GPa)
#
#
# Indices 1 2 3 4 5 6 
#
# 1 69.6254 52.3144 40.8338 -6.4548 -3.4881 21.1905
# 2 52.3144 171.9332 60.7564 -29.4282 -10.3775 17.5159
# 3 40.8338 60.7564 121.8251 -16.5180 -30.7998 5.4528
# 4 -6.4548 -29.4282 -16.5180 38.8296 4.3406 -0.2852
# 5 -3.4881 -10.3775 -30.7998 4.3406 24.0146 1.8847
# 6 21.1905 17.5159 5.4528 -0.2852 1.8847 57.6766
#
#
#
# Elastic Compliance Matrix: (Units=1/GPa)
#
#
# Indices 1 2 3 4 5 6 
#
# 1 0.023603 -0.004714 -0.007374 -0.002027 -0.007204 -0.006318
# 2 -0.004714 0.008987 -0.002350 0.005098 -0.000679 -0.000728
# 3 -0.007374 -0.002350 0.016917 0.002059 0.019143 0.001208
# 4 -0.002027 0.005098 0.002059 0.030246 -0.000853 -0.000821
# 5 -0.007204 -0.000679 0.019143 -0.000853 0.065093 -0.001088
# 6 -0.006318 -0.000728 0.001208 -0.000821 -0.001088 0.019797
#
#
# Mechanical properties :
#
#
# Convention : Reuss Voigt Hill
#
# Bulk Modulus (GPa) = 48.46931 74.57698 61.52314
# Shear Modulus (GPa) = 24.95086 38.06945 31.51015
#
# Velocity S-wave (km/s) = 3.05273 3.77080 3.43060
# Velocity P-wave (km/s) = 5.52529 6.84201 6.21860
#
# Compressibility (1/GPa) = 0.02063161
#
# Stress axis : x y z
#
# Youngs Moduli (GPa) = 42.36731 111.27640 59.11381
#
# Poissons Ratio (x) = 0.52459 0.43588
# Poissons Ratio (y) = 0.19973 0.13889
# Poissons Ratio (z) = 0.31240 0.26145
#
# Static dielectric constant tensor:
#      x y z
#    x 2.372900 -0.025740 -0.114830 
#    y -0.025740 2.097200 0.048190 
#    z -0.114830 0.048190 2.085480 
# 
# From -- ./inp_files/295767.got.cif
#   From: 2010.05.17/outbox.cif.g08.bks.cpg/sg2_148_cif.got.tgz:295767.got - 2010.06.03 11:33:40.
