data_PCOD9092595
_publ_section_title
;
Structure prediction by ZEFSAII (Michael W. Deem and Ramdas Pophale) SiO2 
 PCOD9092595
Probable space group: P -1
;
_chemical_formula_sum "Si O2"
_cell_formula_units_Z 16
_cell_length_a 13.970157
_cell_length_b 12.083797
_cell_length_c 8.944640
_cell_angle_alpha 115.927524
_cell_angle_beta 55.835372
_cell_angle_gamma 150.852624
_cell_volume 603.193460
_symmetry_space_group_name_H-M "P -1"
_symmetry_group_IT_number 2
_symmetry_cell_setting 'triclinic'
loop_
_space_group_symop_operation_xyz
x,y,z
-x,-y,-z
loop_
_atom_site_type_symbol
_atom_site_label
_atom_site_fract_x
_atom_site_fract_y
_atom_site_fract_z
Si Si1 0.883292 0.179129 0.557820
Si Si2 0.982992 0.994630 0.333718
Si Si3 0.368839 0.507410 0.628279
Si Si4 0.715153 0.424012 0.010395
Si Si5 0.147723 0.797275 0.043095
Si Si6 0.548182 0.073639 0.722207
Si Si7 0.627125 0.362995 0.617286
Si Si8 0.404181 0.274092 0.011979
O O1 0.886447 0.218459 0.757016
O O2 0.698401 0.090777 0.588469
O O3 0.121376 0.422307 0.429741
O O4 0.863302 0.016954 0.435293
O O5 0.851314 0.753045 0.267499
O O6 0.000000 0.000000 0.500000
O O7 0.222301 0.207570 0.179632
O O8 0.500000 0.500000 0.500000
O O9 0.445580 0.681475 0.776548
O O10 0.347875 0.558025 0.521766
O O11 0.640558 0.472806 0.998985
O O12 0.938776 0.602427 0.005357
O O13 0.665647 0.262222 0.858489
O O14 0.282258 0.039405 0.024989
O O15 0.312369 0.839313 0.863516
O O16 0.541450 0.154076 0.628324
O O17 0.464766 0.313813 0.810487
#
# Coordination Sequence:
#
# PCOD9092595 Si02
#       8
#     2   2   2   2   2   2   2   2
#     4  12  22  42  69 102 135 192 229 282 340 419
#     4  12  21  42  70 100 142 176 232 280 342 419
#     4  12  24  42  72 108 137 178 232 287 349 416
#     4  10  20  41  72  99 135 176 234 286 339 403
#     4  10  19  41  69  98 136 178 235 289 326 412
#     4  10  26  43  72 100 137 186 236 279 352 400
#     4  10  22  44  69  98 144 177 226 292 348 407
#     4  10  22  41  71 104 136 182 223 285 358 409
#
# _framework density 26.525486000000001
#
# number of rings (size 3 to 8) (size 9 to 14) (size 15 to 20)
#    0.000    1.500    5.000    1.500    1.750    1.000 
#    2.250    5.625    0.000    6.750    0.000    0.000 
#    0.000    0.000    0.000    0.000    0.000    0.000 
#
# Total GULP energy -89294.161303 kJ/mol
# GULP energy per Si atom -5580.885081 kJ/mol
# Density = 2.646511 g / cm^3
# Si number density = 26.525486 Si / 1000 Ang^3
#
#
#
# Elastic Constant Matrix: (Units=GPa)
#
#
# Indices 1 2 3 4 5 6 
#
# 1 161.4639 54.1343 85.8441 3.4381 -31.8231 5.3303
# 2 54.1343 106.6539 45.2534 -1.1913 0.5965 8.2697
# 3 85.8441 45.2534 129.8110 -23.3046 -37.7941 -7.4564
# 4 3.4381 -1.1913 -23.3046 39.6040 4.5079 0.5219
# 5 -31.8231 0.5965 -37.7941 4.5079 48.0434 -4.8040
# 6 5.3303 8.2697 -7.4564 0.5219 -4.8040 48.0076
#
#
#
# Elastic Compliance Matrix: (Units=1/GPa)
#
#
# Indices 1 2 3 4 5 6 
#
# 1 0.011509 -0.002853 -0.006937 -0.005438 0.002557 -0.001549
# 2 -0.002853 0.013214 -0.004982 -0.001541 -0.006161 -0.003333
# 3 -0.006937 -0.004982 0.019176 0.010512 0.010116 0.005505
# 4 -0.005438 -0.001541 0.010512 0.031608 0.001957 0.002354
# 5 0.002557 -0.006161 0.010116 0.001957 0.030901 0.005420
# 6 -0.001549 -0.003333 0.005505 0.002354 0.005420 0.022948
#
#
# Mechanical properties :
#
#
# Convention : Reuss Voigt Hill
#
# Bulk Modulus (GPa) = 69.65910 85.37694 77.51802
# Shear Modulus (GPa) = 30.54659 41.31079 35.92869
#
# Velocity S-wave (km/s) = 3.39720 3.95067 3.68434
# Velocity P-wave (km/s) = 6.45803 7.28471 6.88379
#
# Compressibility (1/GPa) = 0.01435563
#
# Stress axis : x y z
#
# Youngs Moduli (GPa) = 86.88956 75.67913 52.14763
#
# Poissons Ratio (x) = 0.21593 0.36174
# Poissons Ratio (y) = 0.24791 0.25978
# Poissons Ratio (z) = 0.60274 0.37700
#
# Static dielectric constant tensor:
#      x y z
#    x 2.133620 0.050050 -0.041410 
#    y 0.050050 2.226630 0.032960 
#    z -0.041410 0.032960 2.199160 
# 
# From -- ./inp_files/426308.got.cif
#   From: 2010.05.17/outbox.cif.g08.bks.cpg/sg2_214_cif.got.tgz:426308.got - 2010.06.03 11:33:40.
