data_PCOD9092688
_publ_section_title
;
Structure prediction by ZEFSAII (Michael W. Deem and Ramdas Pophale) SiO2 
 PCOD9092688
Probable space group: P -1
;
_chemical_formula_sum "Si O2"
_cell_formula_units_Z 16
_cell_length_a 8.358958
_cell_length_b 7.519071
_cell_length_c 18.090110
_cell_angle_alpha 135.776563
_cell_angle_beta 66.528601
_cell_angle_gamma 122.646066
_cell_volume 667.592285
_symmetry_space_group_name_H-M "P -1"
_symmetry_group_IT_number 2
_symmetry_cell_setting 'triclinic'
loop_
_space_group_symop_operation_xyz
x,y,z
-x,-y,-z
loop_
_atom_site_type_symbol
_atom_site_label
_atom_site_fract_x
_atom_site_fract_y
_atom_site_fract_z
Si Si1 0.215496 0.539872 0.470131
Si Si2 0.107373 0.175152 0.243055
Si Si3 0.842506 0.595800 0.088566
Si Si4 0.479153 0.043979 0.647794
Si Si5 0.786096 0.884242 0.037208
Si Si6 0.233626 0.707994 0.730092
Si Si7 0.442574 0.343652 0.132416
Si Si8 0.217766 0.195932 0.511081
O O1 0.221903 0.372355 0.346686
O O2 0.335589 0.866110 0.557230
O O3 0.257435 0.386514 0.487092
O O4 0.000000 0.500000 0.500000
O O5 0.266679 0.136154 0.150818
O O6 0.975328 0.313563 0.267363
O O7 0.952928 0.867592 0.200489
O O8 0.777908 0.716326 0.063880
O O9 0.655941 0.362963 0.089327
O O10 0.000000 0.500000 0.000000
O O11 0.384258 0.899615 0.699602
O O12 0.663600 0.989173 0.576561
O O13 0.523510 0.361263 0.748657
O O14 0.740039 0.140921 0.151688
O O15 0.645575 0.699213 0.946152
O O16 0.000000 0.000000 0.000000
O O17 0.257482 0.417849 0.636197
O O18 0.000000 0.000000 0.500000
#
# Coordination Sequence:
#
# PCOD9092688 Si02
#       8
#     2   2   2   2   2   2   2   2
#     4  11  21  42  66  92 134 178 212 271 338 386
#     4  11  22  43  67  95 136 176 216 274 328 400
#     4  11  25  46  64 100 137 168 226 283 324 395
#     4  11  23  40  69  96 132 173 226 272 330 395
#     4  11  22  43  74  96 130 182 223 270 336 399
#     4  10  19  42  63  94 137 165 221 275 319 389
#     4  12  23  44  72  96 131 183 223 268 340 398
#     4  11  24  42  64 101 134 173 224 281 321 393
#
# _framework density 23.966723000000002
#
# number of rings (size 3 to 8) (size 9 to 14) (size 15 to 20)
#    0.000    1.000    7.500    2.625    0.000    2.000 
#    4.500    0.000    0.000    0.000    0.000    0.000 
#    0.000    0.000    0.000    0.000    0.000    0.000 
#
# Total GULP energy -89451.397572 kJ/mol
# GULP energy per Si atom -5590.712348 kJ/mol
# Density = 2.391217 g / cm^3
# Si number density = 23.966723 Si / 1000 Ang^3
#
#
#
# Elastic Constant Matrix: (Units=GPa)
#
#
# Indices 1 2 3 4 5 6 
#
# 1 82.7732 25.2200 55.3302 -5.2956 -1.5314 30.8485
# 2 25.2200 80.8740 19.7592 -16.6876 6.3498 33.5051
# 3 55.3302 19.7592 171.5876 -8.3362 7.1539 14.7080
# 4 -5.2956 -16.6876 -8.3362 38.7770 13.5234 -3.3483
# 5 -1.5314 6.3498 7.1539 13.5234 52.3842 -10.2070
# 6 30.8485 33.5051 14.7080 -3.3483 -10.2070 46.5185
#
#
#
# Elastic Compliance Matrix: (Units=1/GPa)
#
#
# Indices 1 2 3 4 5 6 
#
# 1 0.020142 0.000460 -0.005382 0.001236 -0.001431 -0.012212
# 2 0.000460 0.022720 -0.000309 0.011416 -0.009103 -0.017747
# 3 -0.005382 -0.000309 0.007612 0.001313 -0.001264 0.001202
# 4 0.001236 0.011416 0.001313 0.034624 -0.012351 -0.009675
# 5 -0.001431 -0.009103 -0.001264 -0.012351 0.025991 0.012719
# 6 -0.012212 -0.017747 0.001202 -0.009675 0.012719 0.044092
#
#
# Mechanical properties :
#
#
# Convention : Reuss Voigt Hill
#
# Bulk Modulus (GPa) = 24.99159 59.53927 42.26543
# Shear Modulus (GPa) = 27.93600 43.19764 35.56682
#
# Velocity S-wave (km/s) = 3.41782 4.25007 3.85646
# Velocity P-wave (km/s) = 5.10152 6.99861 6.12397
#
# Compressibility (1/GPa) = 0.04001346
#
# Stress axis : x y z
#
# Youngs Moduli (GPa) = 49.64689 44.01464 131.36505
#
# Poissons Ratio (x) = -0.02027 0.70695
# Poissons Ratio (y) = -0.02286 0.04064
# Poissons Ratio (z) = 0.26718 0.01362
#
# Static dielectric constant tensor:
#      x y z
#    x 1.505910 1.032110 -1.308050 
#    y 1.032110 -0.629210 3.198620 
#    z -1.308050 3.198620 -2.009830 
# 
# From -- ./inp_files/329631.got.cif
#   From: 2010.05.17/outbox.cif.g08.bks.cpg/sg2_165_cif.got.tgz:329631.got - 2010.06.03 11:33:40.
