data_PCOD9092876
_publ_section_title
;
Structure prediction by ZEFSAII (Michael W. Deem and Ramdas Pophale) SiO2 
 PCOD9092876
Probable space group: P -1
;
_chemical_formula_sum "Si O2"
_cell_formula_units_Z 16
_cell_length_a 11.151004
_cell_length_b 9.311189
_cell_length_c 14.384689
_cell_angle_alpha 32.432626
_cell_angle_beta 108.370309
_cell_angle_gamma 107.822831
_cell_volume 757.822268
_symmetry_space_group_name_H-M "P -1"
_symmetry_group_IT_number 2
_symmetry_cell_setting 'triclinic'
loop_
_space_group_symop_operation_xyz
x,y,z
-x,-y,-z
loop_
_atom_site_type_symbol
_atom_site_label
_atom_site_fract_x
_atom_site_fract_y
_atom_site_fract_z
Si Si1 0.565970 0.964710 0.770850
Si Si2 0.023162 0.165774 0.510419
Si Si3 0.938518 0.953625 0.108073
Si Si4 0.788785 0.455492 0.372699
Si Si5 0.175133 0.663137 0.349305
Si Si6 0.499729 0.734467 0.584267
Si Si7 0.610129 0.452972 0.928168
Si Si8 0.113463 0.725049 0.913119
O O1 0.695627 0.140910 0.739155
O O2 0.490461 0.169305 0.574281
O O3 0.595357 0.719543 0.842220
O O4 0.484270 0.800551 0.920462
O O5 0.117903 0.442052 0.381221
O O6 0.887203 0.254266 0.466150
O O7 0.082831 0.966900 0.705971
O O8 0.000000 0.000000 0.500000
O O9 0.824810 0.734818 0.181134
O O10 0.056926 0.834410 0.253992
O O11 0.888586 0.183851 0.030486
O O12 0.000000 0.000000 0.000000
O O13 0.807893 0.498640 0.463549
O O14 0.642966 0.380086 0.370071
O O15 0.587634 0.538457 0.768278
O O16 0.500000 0.000000 0.500000
O O17 0.751652 0.376350 0.020928
O O18 0.000000 0.500000 0.000000
#
# Coordination Sequence:
#
# PCOD9092876 Si02
#       8
#     2   2   2   2   2   2   2   2
#     4   9  20  40  70  95 127 184 229 264 335 410
#     4  11  24  40  64  99 130 172 224 281 335 396
#     4  11  23  39  65  96 126 175 221 270 332 405
#     4  10  20  42  69  86 126 178 223 273 324 400
#     4  10  19  43  69  88 126 177 229 269 325 406
#     4   9  20  37  66  94 123 172 225 269 318 401
#     4  10  22  41  65 102 137 170 222 286 332 400
#     4  12  26  43  63  97 143 168 212 290 347 384
#
# _framework density 21.113128
#
# number of rings (size 3 to 8) (size 9 to 14) (size 15 to 20)
#    0.000    1.750    2.500    1.500    8.750    3.000 
#    0.000    1.250    2.750    0.000    0.000    0.000 
#    0.000    0.000    0.000    0.000    0.000    0.000 
#
# Total GULP energy -89131.864221 kJ/mol
# GULP energy per Si atom -5570.741514 kJ/mol
# Density = 2.106507 g / cm^3
# Si number density = 21.113128 Si / 1000 Ang^3
#
#
#
# Elastic Constant Matrix: (Units=GPa)
#
#
# Indices 1 2 3 4 5 6 
#
# 1 57.6489 21.0341 37.3162 -8.2484 -6.0027 10.2021
# 2 21.0341 82.2396 22.4720 -7.7162 -7.8712 0.0645
# 3 37.3162 22.4720 90.6925 -6.4385 -15.6935 4.5258
# 4 -8.2484 -7.7162 -6.4385 17.7871 5.5875 -3.6759
# 5 -6.0027 -7.8712 -15.6935 5.5875 37.1907 -2.0572
# 6 10.2021 0.0645 4.5258 -3.6759 -2.0572 29.1475
#
#
#
# Elastic Compliance Matrix: (Units=1/GPa)
#
#
# Indices 1 2 3 4 5 6 
#
# 1 0.027022 -0.003838 -0.009676 0.006460 -0.001906 -0.007267
# 2 -0.003838 0.014031 -0.001516 0.003801 0.001256 0.002116
# 3 -0.009676 -0.001516 0.016161 -0.000657 0.005100 0.001158
# 4 0.006460 0.003801 -0.000657 0.064181 -0.007775 0.005378
# 5 -0.001906 0.001256 0.005100 -0.007775 0.030223 0.001025
# 6 -0.007267 0.002116 0.001158 0.005378 0.001025 0.037418
#
#
# Mechanical properties :
#
#
# Convention : Reuss Voigt Hill
#
# Bulk Modulus (GPa) = 36.82660 43.58063 40.20362
# Shear Modulus (GPa) = 21.91572 26.80899 24.36235
#
# Velocity S-wave (km/s) = 3.22532 3.56726 3.40059
# Velocity P-wave (km/s) = 5.59916 6.13624 5.87384
#
# Compressibility (1/GPa) = 0.02715428
#
# Stress axis : x y z
#
# Youngs Moduli (GPa) = 37.00710 71.27292 61.87683
#
# Poissons Ratio (x) = 0.27354 0.59872
# Poissons Ratio (y) = 0.14203 0.09379
# Poissons Ratio (z) = 0.35808 0.10803
#
# Static dielectric constant tensor:
#      x y z
#    x 1.712040 0.014530 0.023320 
#    y 0.014530 1.792980 0.064010 
#    z 0.023320 0.064010 1.973890 
# 
# From -- ./inp_files/514853.got.cif
#   From: 2010.05.17/outbox.cif.g08.bks.cpg/sg2_258_cif.got.tgz:514853.got - 2010.06.03 11:33:40.
