data_PCOD9092384
_publ_section_title
;
Structure prediction by ZEFSAII (Michael W. Deem and Ramdas Pophale) SiO2 
 PCOD9092384
Probable space group: P -1
;
_chemical_formula_sum "Si O2"
_cell_formula_units_Z 16
_cell_length_a 20.192224
_cell_length_b 12.454826
_cell_length_c 15.827269
_cell_angle_alpha 153.395880
_cell_angle_beta 28.442180
_cell_angle_gamma 156.380970
_cell_volume 672.948160
_symmetry_space_group_name_H-M "P -1"
_symmetry_group_IT_number 2
_symmetry_cell_setting 'triclinic'
loop_
_space_group_symop_operation_xyz
x,y,z
-x,-y,-z
loop_
_atom_site_type_symbol
_atom_site_label
_atom_site_fract_x
_atom_site_fract_y
_atom_site_fract_z
Si Si1 0.397609 0.301848 0.646385
Si Si2 0.801087 0.843492 0.084372
Si Si3 0.870589 0.644972 0.210142
Si Si4 0.202769 0.912936 0.448869
Si Si5 0.536234 0.179222 0.169427
Si Si6 0.770479 0.825995 0.909764
Si Si7 0.173572 0.582848 0.541392
Si Si8 0.270400 0.690914 0.700149
O O1 0.456896 0.539927 0.672561
O O2 0.559053 0.298088 0.480223
O O3 0.332812 0.393750 0.862273
O O4 0.227996 0.997130 0.578608
O O5 0.748863 0.071154 0.312426
O O6 0.780746 0.761377 0.950932
O O7 0.000000 0.000000 0.000000
O O8 0.727223 0.336611 0.104718
O O9 0.863858 0.530520 0.230804
O O10 0.806275 0.852181 0.430353
O O11 0.044918 0.871408 0.119316
O O12 0.021136 0.600202 0.408508
O O13 0.381532 0.974715 0.264972
O O14 0.500000 0.000000 0.000000
O O15 0.737350 0.554748 0.699729
O O16 0.663305 0.962328 0.120795
O O17 0.177028 0.555174 0.619091
#
# Coordination Sequence:
#
# PCOD9092384 Si02
#       8
#     2   2   2   2   2   2   2   2
#     4  11  23  44  64  93 127 175 207 261 322 377
#     4  11  24  44  69  90 129 169 217 257 318 380
#     4  10  19  41  62  90 130 171 206 261 322 376
#     4  10  20  40  64  89 130 159 211 271 317 365
#     4  11  22  35  64  96 130 158 213 270 322 370
#     4  10  24  41  62  94 132 169 212 263 313 377
#     4  10  25  42  64  98 125 168 215 264 312 377
#     4  11  22  42  65  93 132 172 210 257 327 375
#
# _framework density 23.775979
#
# number of rings (size 3 to 8) (size 9 to 14) (size 15 to 20)
#    0.000    1.500    2.500    3.375    5.250    7.000 
#    0.000    1.250    0.000    0.000    0.000    0.000 
#    0.000    0.000    0.000    0.000    0.000    0.000 
#
# Total GULP energy -89315.285864 kJ/mol
# GULP energy per Si atom -5582.205366 kJ/mol
# Density = 2.372186 g / cm^3
# Si number density = 23.775979 Si / 1000 Ang^3
#
#
#
# Elastic Constant Matrix: (Units=GPa)
#
#
# Indices 1 2 3 4 5 6 
#
# 1 96.0036 16.7092 25.5912 -9.4914 21.5505 -15.8221
# 2 16.7092 50.4730 19.8193 -17.1725 9.9621 -5.8687
# 3 25.5912 19.8193 107.0884 2.3665 18.3634 -8.3504
# 4 -9.4914 -17.1725 2.3665 41.6483 2.1117 9.5463
# 5 21.5505 9.9621 18.3634 2.1117 42.0408 -8.3390
# 6 -15.8221 -5.8687 -8.3504 9.5463 -8.3390 33.6879
#
#
#
# Elastic Compliance Matrix: (Units=1/GPa)
#
#
# Indices 1 2 3 4 5 6 
#
# 1 0.013048 -0.001631 -0.001727 0.001802 -0.004906 0.003691
# 2 -0.001631 0.026564 -0.004119 0.011391 -0.004531 -0.001509
# 3 -0.001727 -0.004119 0.011129 -0.002920 -0.002571 0.001421
# 4 0.001802 0.011391 -0.002920 0.031439 -0.005549 -0.008176
# 5 -0.004906 -0.004531 -0.002571 -0.005549 0.029813 0.005221
# 6 0.003691 -0.001509 0.001421 -0.008176 0.005221 0.035116
#
#
# Mechanical properties :
#
#
# Convention : Reuss Voigt Hill
#
# Bulk Modulus (GPa) = 27.94222 41.97828 34.96025
# Shear Modulus (GPa) = 28.73671 36.23841 32.48756
#
# Velocity S-wave (km/s) = 3.48033 3.90829 3.70050
# Velocity P-wave (km/s) = 5.28470 6.16931 5.74406
#
# Compressibility (1/GPa) = 0.03578814
#
# Stress axis : x y z
#
# Youngs Moduli (GPa) = 76.63835 37.64440 89.85212
#
# Poissons Ratio (x) = 0.06139 0.15518
# Poissons Ratio (y) = 0.12499 0.37011
# Poissons Ratio (z) = 0.13236 0.15506
#
# Static dielectric constant tensor:
#      x y z
#    x 1.909400 0.027360 -0.013480 
#    y 0.027360 2.062550 0.033340 
#    z -0.013480 0.033340 1.976810 
# 
# From -- ./inp_files/454363.got.cif
#   From: 2010.05.17/outbox.cif.g08.bks.cpg/sg2_228_cif.got.tgz:454363.got - 2010.06.03 11:33:40.
