data_PCOD9092459
_publ_section_title
;
Structure prediction by ZEFSAII (Michael W. Deem and Ramdas Pophale) SiO2 
 PCOD9092459
Probable space group: P -1
;
_chemical_formula_sum "Si O2"
_cell_formula_units_Z 16
_cell_length_a 13.029576
_cell_length_b 22.248821
_cell_length_c 9.480146
_cell_angle_alpha 34.489273
_cell_angle_beta 115.502398
_cell_angle_gamma 142.552947
_cell_volume 718.986393
_symmetry_space_group_name_H-M "P -1"
_symmetry_group_IT_number 2
_symmetry_cell_setting 'triclinic'
loop_
_space_group_symop_operation_xyz
x,y,z
-x,-y,-z
loop_
_atom_site_type_symbol
_atom_site_label
_atom_site_fract_x
_atom_site_fract_y
_atom_site_fract_z
Si Si1 0.646788 0.668705 0.883517
Si Si2 0.042217 0.751185 0.364405
Si Si3 0.395115 0.116576 0.098257
Si Si4 0.626570 0.006111 0.388026
Si Si5 0.749113 0.332668 0.701872
Si Si6 0.930455 0.106192 0.189265
Si Si7 0.543112 0.425177 0.751927
Si Si8 0.326790 0.783084 0.403809
O O1 0.823975 0.727805 0.938029
O O2 0.792810 0.888109 0.501795
O O3 0.500000 0.500000 0.000000
O O4 0.502879 0.592331 0.077984
O O5 0.117051 0.688737 0.502127
O O6 0.790742 0.575713 0.596366
O O7 0.210924 0.935504 0.224666
O O8 0.079091 0.835094 0.072896
O O9 0.398651 0.032134 0.388234
O O10 0.627968 0.316774 0.763561
O O11 0.372412 0.205679 0.002449
O O12 0.414419 0.803803 0.559336
O O13 0.821961 0.090676 0.277308
O O14 0.657803 0.151233 0.072264
O O15 0.692787 0.318236 0.535218
O O16 0.000000 0.500000 0.500000
O O17 0.500000 0.500000 0.500000
O O18 0.500000 0.000000 0.000000
#
# Coordination Sequence:
#
# PCOD9092459 Si02
#       8
#     2   2   2   2   2   2   2   2
#     4  11  27  48  70 100 133 179 237 286 351 406
#     4  12  24  43  74  98 138 185 221 279 352 403
#     4  12  26  44  69 102 141 184 226 282 353 397
#     4  11  22  44  67  98 145 175 225 282 336 412
#     4  11  22  41  69 101 136 183 232 273 338 412
#     4  11  23  46  73  98 137 182 224 288 346 413
#     4  12  28  48  66 104 138 170 239 296 332 416
#     4  10  19  41  65  96 136 176 221 264 328 415
#
# _framework density 22.253550000000001
#
# number of rings (size 3 to 8) (size 9 to 14) (size 15 to 20)
#    0.000    0.750    7.500    1.125    3.500    0.500 
#    4.500    1.250    0.000    0.000    0.000    0.000 
#    0.000    0.000    0.000    0.000    0.000    0.000 
#
# Total GULP energy -89283.517314 kJ/mol
# GULP energy per Si atom -5580.219832 kJ/mol
# Density = 2.220290 g / cm^3
# Si number density = 22.253550 Si / 1000 Ang^3
#
#
#
# Elastic Constant Matrix: (Units=GPa)
#
#
# Indices 1 2 3 4 5 6 
#
# 1 126.8568 55.9725 26.8647 2.5432 -29.9865 -8.5531
# 2 55.9725 149.3084 49.8245 12.5813 -29.1559 -19.3191
# 3 26.8647 49.8245 54.0642 13.7186 -16.2190 -7.1267
# 4 2.5432 12.5813 13.7186 26.7265 -2.4815 -3.4007
# 5 -29.9865 -29.1559 -16.2190 -2.4815 44.7114 -2.1743
# 6 -8.5531 -19.3191 -7.1267 -3.4007 -2.1743 46.6315
#
#
#
# Elastic Compliance Matrix: (Units=1/GPa)
#
#
# Indices 1 2 3 4 5 6 
#
# 1 0.010533 -0.002366 -0.001838 0.001649 0.004996 0.001024
# 2 -0.002366 0.011191 -0.007708 -0.000405 0.003045 0.003137
# 3 -0.001838 -0.007708 0.030803 -0.011540 0.004300 0.000536
# 4 0.001649 -0.000405 -0.011540 0.043484 -0.000857 0.001502
# 5 0.004996 0.003045 0.004300 -0.000857 0.029415 0.004144
# 6 0.001024 0.003137 0.000536 0.001502 0.004144 0.023317
#
#
# Mechanical properties :
#
#
# Convention : Reuss Voigt Hill
#
# Bulk Modulus (GPa) = 34.84123 66.17254 50.50688
# Shear Modulus (GPa) = 27.45196 36.78506 32.11851
#
# Velocity S-wave (km/s) = 3.51607 4.07012 3.80320
# Velocity P-wave (km/s) = 5.67223 7.20334 6.48314
#
# Compressibility (1/GPa) = 0.02870163
#
# Stress axis : x y z
#
# Youngs Moduli (GPa) = 94.93913 89.35400 32.46481
#
# Poissons Ratio (x) = 0.21143 0.05967
# Poissons Ratio (y) = 0.22464 0.25025
# Poissons Ratio (z) = 0.17451 0.68878
#
# Static dielectric constant tensor:
#      x y z
#    x 1.631510 -0.270630 0.100520 
#    y -0.270630 1.689090 -0.020310 
#    z 0.100520 -0.020310 1.838710 
# 
# From -- ./inp_files/282765.got.cif
#   From: 2010.05.17/outbox.cif.g08.bks.cpg/sg2_142_cif.got.tgz:282765.got - 2010.06.03 11:33:40.
