data_PCOD9092206
_publ_section_title
;
Structure prediction by ZEFSAII (Michael W. Deem and Ramdas Pophale) SiO2 
 PCOD9092206
Probable space group: P -1
;
_chemical_formula_sum "Si O2"
_cell_formula_units_Z 16
_cell_length_a 9.295482
_cell_length_b 11.514931
_cell_length_c 8.412696
_cell_angle_alpha 88.168895
_cell_angle_beta 76.736919
_cell_angle_gamma 117.885820
_cell_volume 764.461655
_symmetry_space_group_name_H-M "P -1"
_symmetry_group_IT_number 2
_symmetry_cell_setting 'triclinic'
loop_
_space_group_symop_operation_xyz
x,y,z
-x,-y,-z
loop_
_atom_site_type_symbol
_atom_site_label
_atom_site_fract_x
_atom_site_fract_y
_atom_site_fract_z
Si Si1 0.655584 0.326460 0.065440
Si Si2 0.156945 0.838322 0.918576
Si Si3 0.305123 0.444129 0.496731
Si Si4 0.790757 0.613112 0.122035
Si Si5 0.908158 0.001145 0.859569
Si Si6 0.695386 0.788612 0.681301
Si Si7 0.757843 0.930028 0.353665
Si Si8 0.490753 0.681763 0.229064
O O1 0.748136 0.246488 0.100808
O O2 0.769361 0.484825 0.039676
O O3 0.499838 0.295411 0.221720
O O4 0.580781 0.285167 0.910126
O O5 0.198660 0.931109 0.747345
O O6 0.205460 0.935859 0.056246
O O7 0.958914 0.737517 0.007038
O O8 0.500000 0.500000 0.500000
O O9 0.200865 0.410891 0.688695
O O10 0.253863 0.312365 0.411329
O O11 0.333671 0.566588 0.372234
O O12 0.623777 0.630677 0.145557
O O13 0.072096 0.083326 0.705974
O O14 0.799830 0.861622 0.807544
O O15 0.000000 0.000000 0.000000
O O16 0.717211 0.905029 0.549776
O O17 0.605465 0.810028 0.302574
#
# Coordination Sequence:
#
# PCOD9092206 Si02
#       8
#     2   2   2   2   2   2   2   2
#     4  12  25  38  63  99 126 171 216 260 325 376
#     4  11  25  42  60  89 142 171 202 266 320 384
#     4  10  19  40  67  97 118 157 219 280 307 358
#     4  11  21  43  67  90 124 170 218 267 314 375
#     4  10  22  39  62  91 125 164 211 259 312 375
#     4  12  22  38  67  96 126 164 219 264 316 374
#     4  11  22  41  65  93 123 172 213 261 317 377
#     4  11  21  39  68  95 122 163 218 269 311 372
#
# _framework density 20.929760999999999
#
# number of rings (size 3 to 8) (size 9 to 14) (size 15 to 20)
#    0.000    1.000    6.250    2.625    1.750    2.500 
#    0.000    1.875    0.000    0.000    0.000    0.000 
#    0.000    0.000    0.000    0.000    0.000    0.000 
#
# Total GULP energy -89297.192131 kJ/mol
# GULP energy per Si atom -5581.074508 kJ/mol
# Density = 2.088212 g / cm^3
# Si number density = 20.929761 Si / 1000 Ang^3
#
#
#
# Elastic Constant Matrix: (Units=GPa)
#
#
# Indices 1 2 3 4 5 6 
#
# 1 42.1120 28.6624 14.4662 -3.9760 9.7166 -10.6754
# 2 28.6624 118.3955 31.1750 -4.6016 6.2283 9.4638
# 3 14.4662 31.1750 62.8766 -23.2277 9.3532 3.2948
# 4 -3.9760 -4.6016 -23.2277 52.7064 -0.1285 4.3813
# 5 9.7166 6.2283 9.3532 -0.1285 11.6681 -6.2846
# 6 -10.6754 9.4638 3.2948 4.3813 -6.2846 18.0340
#
#
#
# Elastic Compliance Matrix: (Units=1/GPa)
#
#
# Indices 1 2 3 4 5 6 
#
# 1 0.042155 -0.010676 -0.005455 -0.002579 -0.009515 0.028864
# 2 -0.010676 0.013038 -0.002641 0.000322 -0.003471 -0.013967
# 3 -0.005455 -0.002641 0.028643 0.013576 -0.027633 -0.020005
# 4 -0.002579 0.000322 0.013576 0.026131 -0.017589 -0.016654
# 5 -0.009515 -0.003471 -0.027633 -0.017589 0.148228 0.057167
# 6 0.028864 -0.013967 -0.020005 -0.016654 0.057167 0.107489
#
#
# Mechanical properties :
#
#
# Convention : Reuss Voigt Hill
#
# Bulk Modulus (GPa) = 21.60219 41.33236 31.46727
# Shear Modulus (GPa) = 11.94288 26.42040 19.18164
#
# Velocity S-wave (km/s) = 2.39135 3.55679 3.03062
# Velocity P-wave (km/s) = 4.23892 6.05464 5.22624
#
# Compressibility (1/GPa) = 0.04629161
#
# Stress axis : x y z
#
# Youngs Moduli (GPa) = 23.72179 76.70055 34.91265
#
# Poissons Ratio (x) = 0.81884 0.19046
# Poissons Ratio (y) = 0.25325 0.09220
# Poissons Ratio (z) = 0.12941 0.20257
#
# Static dielectric constant tensor:
#      x y z
#    x 1.762330 -0.007210 -0.006190 
#    y -0.007210 1.807650 -0.013190 
#    z -0.006190 -0.013190 1.822470 
# 
# From -- ./inp_files/179006.got.cif
#   From: 2010.05.17/outbox.cif.g08.bks.cpg/sg2_90_cif.got.tgz:179006.got - 2010.06.03 11:33:40.
