data_PCOD9092829
_publ_section_title
;
Structure prediction by ZEFSAII (Michael W. Deem and Ramdas Pophale) SiO2 
 PCOD9092829
Probable space group: P -1
;
_chemical_formula_sum "Si O2"
_cell_formula_units_Z 16
_cell_length_a 9.499122
_cell_length_b 15.572388
_cell_length_c 9.595192
_cell_angle_alpha 77.396774
_cell_angle_beta 68.801468
_cell_angle_gamma 31.882227
_cell_volume 687.471075
_symmetry_space_group_name_H-M "P -1"
_symmetry_group_IT_number 2
_symmetry_cell_setting 'triclinic'
loop_
_space_group_symop_operation_xyz
x,y,z
-x,-y,-z
loop_
_atom_site_type_symbol
_atom_site_label
_atom_site_fract_x
_atom_site_fract_y
_atom_site_fract_z
Si Si1 0.510045 0.601633 0.685405
Si Si2 0.338936 0.786646 0.059475
Si Si3 0.920041 0.029554 0.359564
Si Si4 0.932642 0.430027 0.350530
Si Si5 0.512287 0.081957 0.381663
Si Si6 0.960376 0.299091 0.114494
Si Si7 0.850094 0.930834 0.053487
Si Si8 0.910233 0.462820 0.845262
O O1 0.263537 0.797452 0.692443
O O2 0.354287 0.587993 0.790250
O O3 0.736476 0.515468 0.753659
O O4 0.673633 0.523863 0.505809
O O5 0.170604 0.788236 0.047651
O O6 0.670959 0.614387 0.986316
O O7 0.204836 0.869124 0.227987
O O8 0.264605 0.913326 0.962594
O O9 0.721666 0.044500 0.397573
O O10 0.000000 0.000000 0.500000
O O11 0.216415 0.277808 0.394889
O O12 0.905839 0.544724 0.269050
O O13 0.996414 0.338680 0.225027
O O14 0.500000 0.000000 0.500000
O O15 0.652951 0.985381 0.219374
O O16 0.023661 0.326033 0.944262
O O17 0.150395 0.119772 0.073779
#
# Coordination Sequence:
#
# PCOD9092829 Si02
#       8
#     2   2   2   2   2   2   2   2
#     4  12  25  47  73 102 143 191 237 292 356 424
#     4  10  19  42  73  93 134 175 239 285 345 406
#     4  11  25  44  73 103 134 185 239 289 350 422
#     4  12  28  47  66 107 155 184 227 301 365 418
#     4  11  26  44  69 101 141 186 228 290 363 417
#     4  12  27  43  73 108 140 187 249 287 345 426
#     4  10  20  43  69  96 131 180 235 289 336 415
#     4  12  24  47  73 103 139 195 236 291 359 420
#
# _framework density 23.273705
#
# number of rings (size 3 to 8) (size 9 to 14) (size 15 to 20)
#    0.000    0.750    5.000    2.250    5.250    1.500 
#    2.250    0.000    0.000    0.000    0.000    0.000 
#    0.000    0.000    0.000    0.000    0.000    0.000 
#
# Total GULP energy -89442.975224 kJ/mol
# GULP energy per Si atom -5590.185952 kJ/mol
# Density = 2.322073 g / cm^3
# Si number density = 23.273705 Si / 1000 Ang^3
#
#
#
# Elastic Constant Matrix: (Units=GPa)
#
#
# Indices 1 2 3 4 5 6 
#
# 1 71.5155 5.5698 48.4295 -3.2615 -1.6205 9.3744
# 2 5.5698 39.0634 10.4483 3.7099 -6.4139 6.2777
# 3 48.4295 10.4483 114.8702 -4.3830 -7.5564 8.9203
# 4 -3.2615 3.7099 -4.3830 30.2307 5.9605 -2.5645
# 5 -1.6205 -6.4139 -7.5564 5.9605 50.2835 -4.6198
# 6 9.3744 6.2777 8.9203 -2.5645 -4.6198 18.4264
#
#
#
# Elastic Compliance Matrix: (Units=1/GPa)
#
#
# Indices 1 2 3 4 5 6 
#
# 1 0.020358 0.000071 -0.008128 0.000690 -0.001250 -0.006664
# 2 0.000071 0.028517 -0.001934 -0.005136 0.003155 -0.008739
# 3 -0.008128 -0.001934 0.012484 0.000866 0.001188 -0.000831
# 4 0.000690 -0.005136 0.000866 0.035151 -0.004227 0.004812
# 5 -0.001250 0.003155 0.001188 -0.004227 0.021272 0.003731
# 6 -0.006664 -0.008739 -0.000831 0.004812 0.003731 0.062645
#
#
# Mechanical properties :
#
#
# Convention : Reuss Voigt Hill
#
# Bulk Modulus (GPa) = 24.16727 39.37159 31.76943
# Shear Modulus (GPa) = 23.34266 30.52157 26.93211
#
# Velocity S-wave (km/s) = 3.17039 3.62528 3.40544
# Velocity P-wave (km/s) = 4.87938 5.87171 5.39840
#
# Compressibility (1/GPa) = 0.04137828
#
# Stress axis : x y z
#
# Youngs Moduli (GPa) = 49.11999 35.06722 80.10332
#
# Poissons Ratio (x) = -0.00250 0.65108
# Poissons Ratio (y) = -0.00350 0.15489
# Poissons Ratio (z) = 0.39925 0.06781
#
# Static dielectric constant tensor:
#      x y z
#    x 1.872360 -0.015810 -0.021320 
#    y -0.015810 1.948490 -0.020130 
#    z -0.021320 -0.020130 1.951330 
# 
# From -- ./inp_files/206800.got.cif
#   From: 2010.05.17/outbox.cif.g08.bks.cpg/sg2_104_cif.got.tgz:206800.got - 2010.06.03 11:33:40.
