data_PCOD9092074
_publ_section_title
;
Structure prediction by ZEFSAII (Michael W. Deem and Ramdas Pophale) SiO2 
 PCOD9092074
Probable space group: P -1
;
_chemical_formula_sum "Si O2"
_cell_formula_units_Z 14
_cell_length_a 8.455246
_cell_length_b 14.572470
_cell_length_c 7.329564
_cell_angle_alpha 143.014530
_cell_angle_beta 95.853012
_cell_angle_gamma 93.027477
_cell_volume 526.707264
_symmetry_space_group_name_H-M "P -1"
_symmetry_group_IT_number 2
_symmetry_cell_setting 'triclinic'
loop_
_space_group_symop_operation_xyz
x,y,z
-x,-y,-z
loop_
_atom_site_type_symbol
_atom_site_label
_atom_site_fract_x
_atom_site_fract_y
_atom_site_fract_z
Si Si1 0.845531 0.941199 0.133893
Si Si2 0.934365 0.537145 0.857563
Si Si3 0.405380 0.587904 0.262501
Si Si4 0.839809 0.326078 0.172785
Si Si5 0.659462 0.600295 0.578065
Si Si6 0.215885 0.009869 0.230697
Si Si7 0.434429 0.906241 0.656307
O O1 0.039323 0.013804 0.305800
O O2 0.699632 0.010506 0.315069
O O3 0.797409 0.755654 0.882174
O O4 0.822123 0.970412 0.958440
O O5 0.929808 0.403220 0.491098
O O6 0.048630 0.681974 0.001421
O O7 0.743817 0.534215 0.856412
O O8 0.000000 0.500000 0.000000
O O9 0.555001 0.674754 0.540056
O O10 0.336129 0.729781 0.403592
O O11 0.500000 0.500000 0.000000
O O12 0.738853 0.454624 0.304420
O O13 0.752981 0.158790 0.972447
O O14 0.500000 0.500000 0.500000
O O15 0.398228 0.112964 0.454603
O O16 0.500000 0.000000 0.000000
#
# Coordination Sequence:
#
# PCOD9092074 Si02
#       7
#     2   2   2   2   2   2   2
#     4  10  20  35  64  98 133 181 233 292 349 416
#     4  11  23  42  63 100 145 183 227 297 359 420
#     4  12  25  43  67 105 143 184 232 299 367 421
#     4  11  23  41  72 108 136 184 248 294 352 431
#     4  12  22  39  68 107 138 180 242 298 348 430
#     4  10  20  37  63 102 132 174 242 290 344 429
#     4  10  19  40  65  97 134 182 241 286 344 437
#
# _framework density 26.580231000000001
#
# number of rings (size 3 to 8) (size 9 to 14) (size 15 to 20)
#    0.000    1.143    4.286    5.143    0.000    1.143 
#    2.571    0.000    0.000   10.286    0.000    0.000 
#    0.000    0.000    0.000    0.000    0.000    0.000 
#
# Total GULP energy -78003.679576 kJ/mol
# GULP energy per Si atom -5571.691398 kJ/mol
# Density = 2.651973 g / cm^3
# Si number density = 26.580231 Si / 1000 Ang^3
#
#
#
# Elastic Constant Matrix: (Units=GPa)
#
#
# Indices 1 2 3 4 5 6 
#
# 1 235.2063 41.1420 21.7010 3.4973 0.3012 9.5581
# 2 41.1420 132.8036 39.2103 25.0176 -4.4901 14.2340
# 3 21.7010 39.2103 54.5855 15.5229 -5.8399 5.4412
# 4 3.4973 25.0176 15.5229 50.1341 -9.6799 -1.2111
# 5 0.3012 -4.4901 -5.8399 -9.6799 38.5945 6.5441
# 6 9.5581 14.2340 5.4412 -1.2111 6.5441 59.9008
#
#
#
# Elastic Compliance Matrix: (Units=1/GPa)
#
#
# Indices 1 2 3 4 5 6 
#
# 1 0.004563 -0.001159 -0.001128 0.000574 -0.000142 -0.000323
# 2 -0.001159 0.010467 -0.005937 -0.003389 -0.000215 -0.001808
# 3 -0.001128 -0.005937 0.024543 -0.004166 0.002149 -0.000958
# 4 0.000574 -0.003389 -0.004166 0.023834 0.004770 0.001053
# 5 -0.000142 -0.000215 0.002149 0.004770 0.027930 -0.003076
# 6 -0.000323 -0.001808 -0.000958 0.001053 -0.003076 0.017620
#
#
# Mechanical properties :
#
#
# Convention : Reuss Voigt Hill
#
# Bulk Modulus (GPa) = 43.24187 69.63356 56.43771
# Shear Modulus (GPa) = 37.56227 51.09535 44.32881
#
# Velocity S-wave (km/s) = 3.76329 4.38917 4.08822
# Velocity P-wave (km/s) = 5.93185 7.20699 6.60029
#
# Compressibility (1/GPa) = 0.02312573
#
# Stress axis : x y z
#
# Youngs Moduli (GPa) = 219.14695 95.54060 40.74485
#
# Poissons Ratio (x) = 0.11073 0.04595
# Poissons Ratio (y) = 0.25398 0.24189
# Poissons Ratio (z) = 0.24717 0.56720
#
# Static dielectric constant tensor:
#      x y z
#    x 2.103080 -0.030270 0.013330 
#    y -0.030270 2.623780 -0.241560 
#    z 0.013330 -0.241560 2.111580 
# 
# From -- ./inp_files/209376.got.cif
#   From: 2010.05.17/outbox.cif.g08.bks.cpg/sg2_105_cif.got.tgz:209376.got - 2010.06.03 11:33:40.
