data_PCOD9092460
_publ_section_title
;
Structure prediction by ZEFSAII (Michael W. Deem and Ramdas Pophale) SiO2 
 PCOD9092460
Probable space group: P -1
;
_chemical_formula_sum "Si O2"
_cell_formula_units_Z 12
_cell_length_a 11.415834
_cell_length_b 16.108761
_cell_length_c 7.110970
_cell_angle_alpha 94.930873
_cell_angle_beta 88.797341
_cell_angle_gamma 157.058582
_cell_volume 502.101921
_symmetry_space_group_name_H-M "P -1"
_symmetry_group_IT_number 2
_symmetry_cell_setting 'triclinic'
loop_
_space_group_symop_operation_xyz
x,y,z
-x,-y,-z
loop_
_atom_site_type_symbol
_atom_site_label
_atom_site_fract_x
_atom_site_fract_y
_atom_site_fract_z
Si Si1 0.918472 0.505330 0.331196
Si Si2 0.200446 0.252353 0.175034
Si Si3 0.617325 0.753434 0.547614
Si Si4 0.704710 0.957719 0.844039
Si Si5 0.428476 0.584270 0.134911
Si Si6 0.800455 0.203933 0.904964
O O1 0.730680 0.461202 0.411244
O O2 0.000000 0.500000 0.500000
O O3 0.189077 0.718582 0.238690
O O4 0.660120 0.287664 0.177160
O O5 0.353025 0.443037 0.192796
O O6 0.377109 0.305767 0.036446
O O7 0.243195 0.238795 0.371663
O O8 0.871440 0.047921 0.051355
O O9 0.599268 0.744849 0.323871
O O10 0.779550 0.937190 0.681836
O O11 0.817151 0.121308 0.804263
O O12 0.108873 0.415829 0.056227
O O13 0.500000 0.000000 0.000000
#
# Coordination Sequence:
#
# PCOD9092460 Si02
#       6
#     2   2   2   2   2   2
#     4  10  24  46  66  97 142 176 227 287 333 403
#     4  10  19  41  65  96 144 169 230 272 344 408
#     4  10  21  40  65  98 136 176 221 282 338 396
#     4   9  23  41  68 100 132 181 221 285 335 406
#     4  10  21  38  67 102 131 184 219 283 339 402
#     4  11  24  45  70  99 137 184 229 279 344 406
#
# _framework density 23.899529000000001
#
# number of rings (size 3 to 8) (size 9 to 14) (size 15 to 20)
#    1.000    1.000    1.667    1.000    2.333    2.000 
#    3.000    1.667    0.000    0.000    0.000    0.000 
#    0.000    0.000    0.000    0.000    0.000    0.000 
#
# Total GULP energy -67081.502229 kJ/mol
# GULP energy per Si atom -5590.125186 kJ/mol
# Density = 2.384513 g / cm^3
# Si number density = 23.899529 Si / 1000 Ang^3
#
#
#
# Elastic Constant Matrix: (Units=GPa)
#
#
# Indices 1 2 3 4 5 6 
#
# 1 70.6130 32.3136 38.9150 -4.5783 33.8670 -7.4447
# 2 32.3136 106.8057 47.5347 -13.8436 30.0897 4.6856
# 3 38.9150 47.5347 102.8274 -6.2033 26.0345 -9.3064
# 4 -4.5783 -13.8436 -6.2033 32.4528 -4.3324 -1.0267
# 5 33.8670 30.0897 26.0345 -4.3324 37.2382 -3.4669
# 6 -7.4447 4.6856 -9.3064 -1.0267 -3.4669 39.6859
#
#
#
# Elastic Compliance Matrix: (Units=1/GPa)
#
#
# Indices 1 2 3 4 5 6 
#
# 1 0.027162 -0.000345 -0.004599 0.000074 -0.020994 0.002226
# 2 -0.000345 0.014437 -0.004586 0.004057 -0.007994 -0.003438
# 3 -0.004599 -0.004586 0.014313 -0.000026 -0.001854 0.002873
# 4 0.000074 0.004057 -0.000026 0.032631 0.000508 0.000417
# 5 -0.020994 -0.007994 -0.001854 0.000508 0.053882 0.001291
# 6 0.002226 -0.003438 0.002873 0.000417 0.001291 0.026818
#
#
# Mechanical properties :
#
#
# Convention : Reuss Voigt Hill
#
# Bulk Modulus (GPa) = 27.13457 57.53028 42.33242
# Shear Modulus (GPa) = 24.92676 32.64091 28.78383
#
# Velocity S-wave (km/s) = 3.23303 3.69962 3.47417
# Velocity P-wave (km/s) = 5.03139 6.50950 5.81758
#
# Compressibility (1/GPa) = 0.03685336
#
# Stress axis : x y z
#
# Youngs Moduli (GPa) = 36.81586 69.26749 69.86472
#
# Poissons Ratio (x) = 0.02387 0.32131
# Poissons Ratio (y) = 0.01269 0.32038
# Poissons Ratio (z) = 0.16932 0.31765
#
# Static dielectric constant tensor:
#      x y z
#    x 1.961300 0.030300 -0.039950 
#    y 0.030300 1.920850 -0.010910 
#    z -0.039950 -0.010910 1.880780 
# 
# From -- ./inp_files/100228.got.cif
#   From: 2010.05.17/outbox.cif.g08.bks.cpg/sg2_51_cif.got.tgz:100228.got - 2010.06.03 11:33:40.
