data_PCOD9092278
_publ_section_title
;
Structure prediction by ZEFSAII (Michael W. Deem and Ramdas Pophale) SiO2 
 PCOD9092278
Probable space group: P -1
;
_chemical_formula_sum "Si O2"
_cell_formula_units_Z 16
_cell_length_a 14.000557
_cell_length_b 11.689472
_cell_length_c 11.576745
_cell_angle_alpha 58.071715
_cell_angle_beta 31.924113
_cell_angle_gamma 73.178736
_cell_volume 794.806597
_symmetry_space_group_name_H-M "P -1"
_symmetry_group_IT_number 2
_symmetry_cell_setting 'triclinic'
loop_
_space_group_symop_operation_xyz
x,y,z
-x,-y,-z
loop_
_atom_site_type_symbol
_atom_site_label
_atom_site_fract_x
_atom_site_fract_y
_atom_site_fract_z
Si Si1 0.711465 0.808984 0.461158
Si Si2 0.290320 0.115712 0.831752
Si Si3 0.879844 0.344922 0.262009
Si Si4 0.744310 0.323596 0.991573
Si Si5 0.722542 0.125159 0.336964
Si Si6 0.850397 0.639385 0.809775
Si Si7 0.532576 0.634174 0.308877
Si Si8 0.989170 0.204783 0.663628
O O1 0.756123 0.816292 0.274801
O O2 0.844769 0.751282 0.433191
O O3 0.749159 0.974285 0.371209
O O4 0.485790 0.720058 0.760105
O O5 0.494332 0.094223 0.608101
O O6 0.332243 0.227016 0.833651
O O7 0.131763 0.963769 0.106161
O O8 0.837558 0.220848 0.274484
O O9 0.672461 0.349547 0.509415
O O10 0.998720 0.322437 0.260235
O O11 0.000000 0.500000 0.000000
O O12 0.835838 0.486905 0.851773
O O13 0.844097 0.289120 0.794707
O O14 0.773591 0.220421 0.117841
O O15 0.916776 0.756386 0.578636
O O16 0.643176 0.618165 0.089715
O O17 0.500000 0.500000 0.500000
#
# Coordination Sequence:
#
# PCOD9092278 Si02
#       8
#     2   2   2   2   2   2   2   2
#     4  11  22  39  69  95 122 166 218 268 317 367
#     4  10  21  41  65  96 129 164 213 270 311 373
#     4  11  22  41  68  96 121 166 214 263 317 376
#     4  11  22  44  65  91 132 162 216 273 310 374
#     4  10  19  40  69  96 122 157 220 273 313 365
#     4  12  27  43  62  96 134 172 209 259 322 384
#     4  11  23  42  68  96 128 162 217 271 313 373
#     4  12  26  40  63  97 130 174 213 253 323 384
#
# _framework density 20.130685
#
# number of rings (size 3 to 8) (size 9 to 14) (size 15 to 20)
#    0.000    1.000    5.000    3.000    1.750    4.000 
#    0.000    1.250    0.000    0.000    0.000    0.000 
#    0.000    0.000    0.000    0.000    0.000    0.000 
#
# Total GULP energy -89542.154107 kJ/mol
# GULP energy per Si atom -5596.384632 kJ/mol
# Density = 2.008487 g / cm^3
# Si number density = 20.130685 Si / 1000 Ang^3
#
#
#
# Elastic Constant Matrix: (Units=GPa)
#
#
# Indices 1 2 3 4 5 6 
#
# 1 84.2636 -1.7124 53.9901 -3.3536 -7.4896 2.7281
# 2 -1.7124 33.3751 10.3132 6.5737 -5.0467 7.1152
# 3 53.9901 10.3132 104.3607 12.1500 6.7232 8.3775
# 4 -3.3536 6.5737 12.1500 24.2744 10.4716 -6.0414
# 5 -7.4896 -5.0467 6.7232 10.4716 33.8797 -1.2254
# 6 2.7281 7.1152 8.3775 -6.0414 -1.2254 17.4308
#
#
#
# Elastic Compliance Matrix: (Units=1/GPa)
#
#
# Indices 1 2 3 4 5 6 
#
# 1 0.020552 0.003584 -0.012448 0.006668 0.005632 0.004010
# 2 0.003584 0.041907 -0.002585 -0.020909 0.013188 -0.022745
# 3 -0.012448 -0.002585 0.018641 -0.011264 -0.003721 -0.010121
# 4 0.006668 -0.020909 -0.011264 0.071063 -0.020063 0.036125
# 5 0.005632 0.013188 -0.003721 -0.020063 0.039352 -0.008664
# 6 0.004010 -0.022745 -0.010121 0.036125 -0.008664 0.082802
#
#
# Mechanical properties :
#
#
# Convention : Reuss Voigt Hill
#
# Bulk Modulus (GPa) = 17.18132 38.57572 27.87852
# Shear Modulus (GPa) = 15.79211 25.74421 20.76816
#
# Velocity S-wave (km/s) = 2.80389 3.57999 3.21544
# Velocity P-wave (km/s) = 4.36301 6.02434 5.25968
#
# Compressibility (1/GPa) = 0.05820275
#
# Stress axis : x y z
#
# Youngs Moduli (GPa) = 48.65719 23.86259 53.64580
#
# Poissons Ratio (x) = -0.08553 0.66776
# Poissons Ratio (y) = -0.17440 0.13868
# Poissons Ratio (z) = 0.60566 0.06169
#
# Static dielectric constant tensor:
#      x y z
#    x 1.689510 -0.004300 -0.020130 
#    y -0.004300 1.712560 0.025310 
#    z -0.020130 0.025310 1.709130 
# 
# From -- ./inp_files/405759.got.cif
#   From: 2010.05.17/outbox.cif.g08.bks.cpg/sg2_203_cif.got.tgz:405759.got - 2010.06.03 11:33:40.
