data_PCOD9092429
_publ_section_title
;
Structure prediction by ZEFSAII (Michael W. Deem and Ramdas Pophale) SiO2 
 PCOD9092429
Probable space group: P -1
;
_chemical_formula_sum "Si O2"
_cell_formula_units_Z 15
_cell_length_a 9.082415
_cell_length_b 11.800132
_cell_length_c 8.318822
_cell_angle_alpha 120.269740
_cell_angle_beta 110.471178
_cell_angle_gamma 85.345864
_cell_volume 716.372757
_symmetry_space_group_name_H-M "P -1"
_symmetry_group_IT_number 2
_symmetry_cell_setting 'triclinic'
loop_
_space_group_symop_operation_xyz
x,y,z
-x,-y,-z
loop_
_atom_site_type_symbol
_atom_site_label
_atom_site_fract_x
_atom_site_fract_y
_atom_site_fract_z
Si Si1 0.767914 0.719548 0.102259
Si Si2 0.452702 0.562836 0.855626
Si Si3 0.024353 0.142997 0.194112
Si Si4 0.381983 0.881093 0.441348
Si Si5 0.000000 0.500000 0.000000
Si Si6 0.335589 0.281912 0.561652
Si Si7 0.187404 0.705916 0.994814
Si Si8 0.144518 0.984866 0.665585
O O1 0.918159 0.639835 0.088026
O O2 0.719126 0.736243 0.284229
O O3 0.801810 0.866089 0.147674
O O4 0.617663 0.633009 0.901252
O O5 0.359335 0.437524 0.641683
O O6 0.500000 0.500000 0.000000
O O7 0.335587 0.671191 0.921238
O O8 0.922846 0.117950 0.299692
O O9 0.203101 0.195668 0.346457
O O10 0.950737 0.249799 0.134582
O O11 0.000000 0.000000 0.000000
O O12 0.493773 0.767458 0.433276
O O13 0.251915 0.824762 0.221876
O O14 0.289318 0.931080 0.591298
O O15 0.500000 0.000000 0.500000
O O16 0.131438 0.575147 0.981101
O O17 0.000000 0.000000 0.500000
#
# Coordination Sequence:
#
# PCOD9092429 Si02
#       8
#     2   2   2   2   1   2   2   2
#     4  11  20  39  67  99 127 170 229 274 318 401
#     4  10  19  41  64  94 127 175 221 272 327 398
#     4  12  27  45  63 100 144 176 217 290 342 388
#     4  12  21  40  72  97 126 183 228 268 332 409
#     4  12  22  38  68 100 124 174 224 270 338 400
#     4  11  21  42  66  93 137 176 221 273 334 402
#     4  12  24  41  70  98 135 173 226 278 342 394
#     4  12  23  41  69 100 136 179 231 275 334 411
#
# _framework density 20.938818000000001
#
# number of rings (size 3 to 8) (size 9 to 14) (size 15 to 20)
#    0.000    0.533    8.000    3.200    0.000    0.533 
#    0.000    7.333    0.000    4.800    0.000    0.000 
#    0.000    0.000    0.000    0.000    0.000    0.000 
#
# Total GULP energy -83617.549356 kJ/mol
# GULP energy per Si atom -5574.503290 kJ/mol
# Density = 2.089116 g / cm^3
# Si number density = 20.938818 Si / 1000 Ang^3
#
#
#
# Elastic Constant Matrix: (Units=GPa)
#
#
# Indices 1 2 3 4 5 6 
#
# 1 101.1153 2.1508 14.4645 -1.8682 -7.5819 -15.7619
# 2 2.1508 49.1037 12.0493 11.3749 -1.6211 7.3874
# 3 14.4645 12.0493 69.8554 11.3232 14.9557 9.0809
# 4 -1.8682 11.3749 11.3232 29.5682 -3.0574 3.9512
# 5 -7.5819 -1.6211 14.9557 -3.0574 28.7046 18.3456
# 6 -15.7619 7.3874 9.0809 3.9512 18.3456 46.2685
#
#
#
# Elastic Compliance Matrix: (Units=1/GPa)
#
#
# Indices 1 2 3 4 5 6 
#
# 1 0.011190 -0.000485 -0.003645 0.002167 0.002992 0.003234
# 2 -0.000485 0.023668 -0.003433 -0.006617 0.005386 -0.004841
# 3 -0.003645 -0.003433 0.019567 -0.007926 -0.013033 0.001311
# 4 0.002167 -0.006617 -0.007926 0.041418 0.011866 -0.004892
# 5 0.002992 0.005386 -0.013033 0.011866 0.057458 -0.021079
# 6 0.003234 -0.004841 0.001311 -0.004892 -0.021079 0.032006
#
#
# Mechanical properties :
#
#
# Convention : Reuss Voigt Hill
#
# Bulk Modulus (GPa) = 25.44740 30.82263 28.13502
# Shear Modulus (GPa) = 23.41546 33.66890 28.54218
#
# Velocity S-wave (km/s) = 3.34770 4.01429 3.69605
# Velocity P-wave (km/s) = 5.20791 6.01983 5.62853
#
# Compressibility (1/GPa) = 0.03929674
#
# Stress axis : x y z
#
# Youngs Moduli (GPa) = 89.36596 42.25160 51.10635
#
# Poissons Ratio (x) = 0.02050 0.18631
# Poissons Ratio (y) = 0.04337 0.17546
# Poissons Ratio (z) = 0.32578 0.14506
#
# Static dielectric constant tensor:
#      x y z
#    x 1.742130 0.008460 -0.012970 
#    y 0.008460 1.753950 0.022250 
#    z -0.012970 0.022250 1.798780 
# 
# From -- ./inp_files/190403.got.cif
#   From: 2010.05.17/outbox.cif.g08.bks.cpg/sg2_96_cif.got.tgz:190403.got - 2010.06.03 11:33:40.
