data_PCOD9092508
_publ_section_title
;
Structure prediction by ZEFSAII (Michael W. Deem and Ramdas Pophale) SiO2 
 PCOD9092508
Probable space group: P -1
;
_chemical_formula_sum "Si O2"
_cell_formula_units_Z 16
_cell_length_a 8.779862
_cell_length_b 16.992891
_cell_length_c 12.003941
_cell_angle_alpha 49.071159
_cell_angle_beta 62.361661
_cell_angle_gamma 31.979849
_cell_volume 697.508161
_symmetry_space_group_name_H-M "P -1"
_symmetry_group_IT_number 2
_symmetry_cell_setting 'triclinic'
loop_
_space_group_symop_operation_xyz
x,y,z
-x,-y,-z
loop_
_atom_site_type_symbol
_atom_site_label
_atom_site_fract_x
_atom_site_fract_y
_atom_site_fract_z
Si Si1 0.431997 0.648396 0.430065
Si Si2 0.095835 0.434859 0.743667
Si Si3 0.237507 0.708820 0.869031
Si Si4 0.331472 0.323148 0.003793
Si Si5 0.500422 0.187691 0.304179
Si Si6 0.011462 0.875440 0.565632
Si Si7 0.156092 0.816149 0.141408
Si Si8 0.162165 0.173454 0.913225
O O1 0.500000 0.500000 0.500000
O O2 0.708004 0.589189 0.378980
O O3 0.208966 0.793979 0.275002
O O4 0.283268 0.726636 0.527356
O O5 0.036397 0.353041 0.785048
O O6 0.819780 0.638837 0.691207
O O7 0.277793 0.310189 0.908845
O O8 0.366435 0.761179 0.779771
O O9 0.074167 0.773668 0.746002
O O10 0.500000 0.500000 0.000000
O O11 0.004245 0.809299 0.951609
O O12 0.476022 0.183610 0.182865
O O13 0.534618 0.325301 0.903626
O O14 0.000000 0.500000 0.000000
O O15 0.714525 0.008305 0.469697
O O16 0.000000 0.000000 0.500000
O O17 0.944706 0.828371 0.161995
O O18 0.000000 0.000000 0.000000
O O19 0.500000 0.000000 0.000000
#
# Coordination Sequence:
#
# PCOD9092508 Si02
#       8
#     2   2   2   2   2   2   2   2
#     4  11  26  48  72 104 145 192 239 295 374 435
#     4  10  23  41  70 108 141 191 244 301 356 438
#     4  11  23  42  69 101 138 186 242 293 361 436
#     4   9  18  35  66  97 131 178 231 283 340 419
#     4  10  19  41  67 101 142 186 234 296 365 422
#     4  10  25  43  72 102 141 189 238 296 364 432
#     4  11  23  42  71  97 141 187 231 295 359 425
#     4  12  25  41  70 110 142 183 253 302 357 430
#
# _framework density 22.938801000000002
#
# number of rings (size 3 to 8) (size 9 to 14) (size 15 to 20)
#    0.000    1.500    2.500    2.250    7.000    0.000 
#    4.500    3.750    0.000    0.000    0.000    0.000 
#    0.000    0.000    0.000    0.000    0.000    0.000 
#
# Total GULP energy -89353.947349 kJ/mol
# GULP energy per Si atom -5584.621709 kJ/mol
# Density = 2.288659 g / cm^3
# Si number density = 22.938801 Si / 1000 Ang^3
#
#
#
# Elastic Constant Matrix: (Units=GPa)
#
#
# Indices 1 2 3 4 5 6 
#
# 1 66.7358 6.9740 -9.7331 3.8552 -2.4271 0.0635
# 2 6.9740 72.9641 -8.7831 4.4310 3.6066 -5.2694
# 3 -9.7331 -8.7831 69.9138 -14.9769 15.0985 1.4451
# 4 3.8552 4.4310 -14.9769 30.4224 1.7087 5.1719
# 5 -2.4271 3.6066 15.0985 1.7087 20.9049 -9.7549
# 6 0.0635 -5.2694 1.4451 5.1719 -9.7549 36.0865
#
#
#
# Elastic Compliance Matrix: (Units=1/GPa)
#
#
# Indices 1 2 3 4 5 6 
#
# 1 0.015442 -0.001267 0.001508 -0.001123 0.001100 0.000186
# 2 -0.001267 0.014406 0.002210 -0.000844 -0.003619 0.001160
# 3 0.001508 0.002210 0.022347 0.013073 -0.021236 -0.008189
# 4 -0.001123 -0.000844 0.013073 0.042596 -0.018376 -0.011717
# 5 0.001100 -0.003619 -0.021236 -0.018376 0.076449 0.023619
# 6 0.000186 0.001160 -0.008189 -0.011717 0.023619 0.036272
#
#
# Mechanical properties :
#
#
# Convention : Reuss Voigt Hill
#
# Bulk Modulus (GPa) = 17.51378 20.72550 19.11964
# Shear Modulus (GPa) = 22.55897 32.22649 27.39273
#
# Velocity S-wave (km/s) = 3.13939 3.75225 3.45942
# Velocity P-wave (km/s) = 4.55989 5.27516 4.93051
#
# Compressibility (1/GPa) = 0.05709789
#
# Stress axis : x y z
#
# Youngs Moduli (GPa) = 64.76009 69.41353 44.74906
#
# Poissons Ratio (x) = 0.08796 -0.06750
# Poissons Ratio (y) = 0.08206 -0.09890
# Poissons Ratio (z) = -0.09769 -0.15342
#
# Static dielectric constant tensor:
#      x y z
#    x 2.036480 -0.138720 0.061920 
#    y -0.138720 1.950760 -0.073480 
#    z 0.061920 -0.073480 1.927520 
# 
# From -- ./inp_files/402969.got.cif
#   From: 2010.05.17/outbox.cif.g08.bks.cpg/sg2_202_cif.got.tgz:402969.got - 2010.06.03 11:33:40.
