data_PCOD9092252
_publ_section_title
;
Structure prediction by ZEFSAII (Michael W. Deem and Ramdas Pophale) SiO2 
 PCOD9092252
Probable space group: P -1
;
_chemical_formula_sum "Si O2"
_cell_formula_units_Z 16
_cell_length_a 9.686324
_cell_length_b 7.961752
_cell_length_c 10.561862
_cell_angle_alpha 53.598524
_cell_angle_beta 91.562648
_cell_angle_gamma 102.751523
_cell_volume 633.824642
_symmetry_space_group_name_H-M "P -1"
_symmetry_group_IT_number 2
_symmetry_cell_setting 'triclinic'
loop_
_space_group_symop_operation_xyz
x,y,z
-x,-y,-z
loop_
_atom_site_type_symbol
_atom_site_label
_atom_site_fract_x
_atom_site_fract_y
_atom_site_fract_z
Si Si1 0.913790 0.749955 0.456460
Si Si2 0.891873 0.694380 0.009570
Si Si3 0.703222 0.333185 0.763392
Si Si4 0.141851 0.555581 0.647125
Si Si5 0.557539 0.306030 0.525142
Si Si6 0.638696 0.432028 0.988036
Si Si7 0.186026 0.006302 0.933340
Si Si8 0.704430 0.019118 0.304885
O O1 0.803243 0.555441 0.614305
O O2 0.907472 0.652520 0.355508
O O3 0.069325 0.739630 0.511490
O O4 0.849688 0.957057 0.381673
O O5 0.913515 0.499371 0.186274
O O6 0.805704 0.798120 0.061698
O O7 0.790494 0.612493 0.925869
O O8 0.037012 0.880753 0.917787
O O9 0.620916 0.217994 0.690684
O O10 0.615280 0.370767 0.867338
O O11 0.792494 0.180905 0.891851
O O12 0.312257 0.627660 0.599112
O O13 0.500000 0.500000 0.500000
O O14 0.423068 0.126559 0.552608
O O15 0.500000 0.500000 0.000000
O O16 0.672515 0.245198 0.163420
O O17 0.300540 0.076938 0.795331
#
# Coordination Sequence:
#
# PCOD9092252 Si02
#       8
#     2   2   2   2   2   2   2   2
#     4  10  19  40  68  98 130 164 232 273 335 378
#     4  11  22  42  66 101 131 172 222 276 332 390
#     4  10  22  40  66  96 130 178 218 280 328 394
#     4  10  20  36  69 102 131 165 219 293 319 379
#     4  11  21  37  70 101 135 173 226 279 324 391
#     4  11  29  44  62  95 146 181 214 271 343 410
#     4  10  22  39  73  96 126 169 230 279 319 389
#     4  11  23  43  66  98 130 180 220 272 335 396
#
# _framework density 25.243576000000001
#
# number of rings (size 3 to 8) (size 9 to 14) (size 15 to 20)
#    0.000    1.500    5.000    0.000    5.250    3.000 
#    0.000    3.125    0.000    0.000    0.000    0.000 
#    0.000    0.000    0.000    0.000    0.000    0.000 
#
# Total GULP energy -89257.744419 kJ/mol
# GULP energy per Si atom -5578.609026 kJ/mol
# Density = 2.518612 g / cm^3
# Si number density = 25.243576 Si / 1000 Ang^3
#
#
#
# Elastic Constant Matrix: (Units=GPa)
#
#
# Indices 1 2 3 4 5 6 
#
# 1 105.3172 11.8502 13.5646 -12.8904 2.6488 -9.6472
# 2 11.8502 49.2140 4.8015 -0.5768 9.7133 -3.1387
# 3 13.5646 4.8015 54.6022 -3.3820 -5.0574 -9.0557
# 4 -12.8904 -0.5768 -3.3820 31.3859 -6.2183 8.7823
# 5 2.6488 9.7133 -5.0574 -6.2183 33.9566 -12.7731
# 6 -9.6472 -3.1387 -9.0557 8.7823 -12.7731 22.0453
#
#
#
# Elastic Compliance Matrix: (Units=1/GPa)
#
#
# Indices 1 2 3 4 5 6 
#
# 1 0.010659 -0.002463 -0.001562 0.003589 0.001459 0.003088
# 2 -0.002463 0.022567 -0.002728 -0.001651 -0.008110 -0.003027
# 3 -0.001562 -0.002728 0.021993 -0.000247 0.009161 0.013369
# 4 0.003589 -0.001651 -0.000247 0.037161 0.002373 -0.012195
# 5 0.001459 -0.008110 0.009161 0.002373 0.043885 0.027729
# 6 0.003088 -0.003027 0.013369 -0.012195 0.027729 0.072697
#
#
# Mechanical properties :
#
#
# Convention : Reuss Voigt Hill
#
# Bulk Modulus (GPa) = 23.97363 29.95177 26.96270
# Shear Modulus (GPa) = 21.15308 29.40536 25.27922
#
# Velocity S-wave (km/s) = 2.89789 3.41671 3.16794
# Velocity P-wave (km/s) = 4.55133 5.23986 4.90768
#
# Compressibility (1/GPa) = 0.04171250
#
# Stress axis : x y z
#
# Youngs Moduli (GPa) = 93.81845 44.31242 45.47002
#
# Poissons Ratio (x) = 0.10915 0.07101
# Poissons Ratio (y) = 0.23109 0.12404
# Poissons Ratio (z) = 0.14652 0.12089
#
# Static dielectric constant tensor:
#      x y z
#    x 2.046720 0.025550 0.062820 
#    y 0.025550 2.045190 -0.063610 
#    z 0.062820 -0.063610 2.068470 
# 
# From -- ./inp_files/381090.got.cif
#   From: 2010.05.17/outbox.cif.g08.bks.cpg/sg2_191_cif.got.tgz:381090.got - 2010.06.03 11:33:40.
