data_PCOD9092269
_publ_section_title
;
Structure prediction by ZEFSAII (Michael W. Deem and Ramdas Pophale) SiO2 
 PCOD9092269
Probable space group: P -1
;
_chemical_formula_sum "Si O2"
_cell_formula_units_Z 16
_cell_length_a 11.446757
_cell_length_b 12.972440
_cell_length_c 11.542995
_cell_angle_alpha 100.988857
_cell_angle_beta 39.910126
_cell_angle_gamma 67.831305
_cell_volume 600.091371
_symmetry_space_group_name_H-M "P -1"
_symmetry_group_IT_number 2
_symmetry_cell_setting 'triclinic'
loop_
_space_group_symop_operation_xyz
x,y,z
-x,-y,-z
loop_
_atom_site_type_symbol
_atom_site_label
_atom_site_fract_x
_atom_site_fract_y
_atom_site_fract_z
Si Si1 0.896063 0.241857 0.871061
Si Si2 0.442492 0.949994 0.728988
Si Si3 0.222717 0.719167 0.288123
Si Si4 0.731044 0.636389 0.894053
Si Si5 0.505570 0.565864 0.392565
Si Si6 0.747576 0.773644 0.702275
Si Si7 0.133587 0.315102 0.976605
Si Si8 0.224612 0.913597 0.688070
O O1 0.203844 0.175646 0.616056
O O2 0.884900 0.198577 0.742637
O O3 0.943314 0.124967 0.900163
O O4 0.577912 0.458972 0.203253
O O5 0.501765 0.903576 0.809649
O O6 0.324662 0.904176 0.738604
O O7 0.203105 0.161094 0.925505
O O8 0.928690 0.798323 0.589842
O O9 0.500000 0.500000 0.000000
O O10 0.411016 0.727047 0.200521
O O11 0.631907 0.773206 0.906938
O O12 0.968436 0.439873 0.608850
O O13 0.929081 0.591903 0.838659
O O14 0.500000 0.500000 0.500000
O O15 0.230376 0.786088 0.640139
O O16 0.845172 0.464334 0.136837
O O17 0.473188 0.191273 0.641675
#
# Coordination Sequence:
#
# PCOD9092269 Si02
#       8
#     2   2   2   2   2   2   2   2
#     4  10  21  42  63  96 131 163 223 269 322 391
#     4  10  19  40  69  90 126 171 217 272 329 379
#     4   9  20  37  65  88 126 178 212 268 324 384
#     4  10  21  38  62  93 128 170 223 263 328 394
#     4  12  26  39  63 101 131 169 212 268 333 398
#     4   9  20  37  60  91 124 176 214 269 329 382
#     4  11  22  41  65  96 125 165 225 267 320 403
#     4  11  22  41  70  92 127 176 212 273 331 377
#
# _framework density 26.662604999999999
#
# number of rings (size 3 to 8) (size 9 to 14) (size 15 to 20)
#    0.000    1.750    2.500    1.875    5.250    5.000 
#    2.250    5.625    0.000    0.000    0.000    0.000 
#    0.000    0.000    0.000    0.000    0.000    0.000 
#
# Total GULP energy -89654.188282 kJ/mol
# GULP energy per Si atom -5603.386768 kJ/mol
# Density = 2.660192 g / cm^3
# Si number density = 26.662605 Si / 1000 Ang^3
#
#
#
# Elastic Constant Matrix: (Units=GPa)
#
#
# Indices 1 2 3 4 5 6 
#
# 1 76.9378 24.0471 13.2337 7.5647 2.7633 -0.9073
# 2 24.0471 139.2460 35.1645 0.8003 -0.5130 -8.2272
# 3 13.2337 35.1645 52.8307 10.4562 9.4613 11.7602
# 4 7.5647 0.8003 10.4562 39.1676 -2.0154 -1.2286
# 5 2.7633 -0.5130 9.4613 -2.0154 31.1807 2.6278
# 6 -0.9073 -8.2272 11.7602 -1.2286 2.6278 37.5095
#
#
#
# Elastic Compliance Matrix: (Units=1/GPa)
#
#
# Indices 1 2 3 4 5 6 
#
# 1 0.014174 -0.001981 -0.001707 -0.002277 -0.000955 0.000436
# 2 -0.001981 0.009808 -0.008009 0.002593 0.002554 0.004520
# 3 -0.001707 -0.008009 0.030375 -0.008413 -0.008816 -0.010979
# 4 -0.002277 0.002593 -0.008413 0.028505 0.004321 0.003783
# 5 -0.000955 0.002554 -0.008816 0.004321 0.035069 0.000986
# 6 0.000436 0.004520 -0.010979 0.003783 0.000986 0.031159
#
#
# Mechanical properties :
#
#
# Convention : Reuss Voigt Hill
#
# Bulk Modulus (GPa) = 32.29776 45.98946 39.14361
# Shear Modulus (GPa) = 27.35175 34.67616 31.01395
#
# Velocity S-wave (km/s) = 3.20636 3.61023 3.41427
# Velocity P-wave (km/s) = 5.08404 5.88766 5.50054
#
# Compressibility (1/GPa) = 0.03096190
#
# Stress axis : x y z
#
# Youngs Moduli (GPa) = 70.55325 101.96040 32.92231
#
# Poissons Ratio (x) = 0.20202 0.05620
# Poissons Ratio (y) = 0.13979 0.26366
# Poissons Ratio (z) = 0.12044 0.81656
#
# Static dielectric constant tensor:
#      x y z
#    x 2.079850 0.035800 -0.042470 
#    y 0.035800 2.094380 -0.048120 
#    z -0.042470 -0.048120 2.109220 
# 
# From -- ./inp_files/202606.got.cif
#   From: 2010.05.17/outbox.cif.g08.bks.cpg/sg2_102_cif.got.tgz:202606.got - 2010.06.03 11:33:40.
