data_PCOD9092752
_publ_section_title
;
Structure prediction by ZEFSAII (Michael W. Deem and Ramdas Pophale) SiO2 
 PCOD9092752
Probable space group: P -1
;
_chemical_formula_sum "Si O2"
_cell_formula_units_Z 16
_cell_length_a 14.264398
_cell_length_b 14.704499
_cell_length_c 8.971614
_cell_angle_alpha 98.538230
_cell_angle_beta 49.432122
_cell_angle_gamma 138.368865
_cell_volume 705.818431
_symmetry_space_group_name_H-M "P -1"
_symmetry_group_IT_number 2
_symmetry_cell_setting 'triclinic'
loop_
_space_group_symop_operation_xyz
x,y,z
-x,-y,-z
loop_
_atom_site_type_symbol
_atom_site_label
_atom_site_fract_x
_atom_site_fract_y
_atom_site_fract_z
Si Si1 0.219988 0.585042 0.365332
Si Si2 0.796183 0.874832 0.378724
Si Si3 0.572036 0.098689 0.202502
Si Si4 0.065040 0.888734 0.936399
Si Si5 0.314028 0.077261 0.240512
Si Si6 0.334181 0.483434 0.647229
Si Si7 0.625076 0.194549 0.489849
Si Si8 0.975356 0.710874 0.378031
O O1 0.237395 0.634885 0.527956
O O2 0.147179 0.431750 0.404967
O O3 0.000000 0.500000 0.500000
O O4 0.476999 0.770468 0.062140
O O5 0.759088 0.876995 0.587771
O O6 0.521748 0.685125 0.544633
O O7 0.952724 0.886103 0.175582
O O8 0.927457 0.045353 0.203313
O O9 0.436349 0.087330 0.240201
O O10 0.699185 0.221561 0.250315
O O11 0.382491 0.900318 0.418387
O O12 0.777795 0.181235 0.910851
O O13 0.898710 0.690257 0.049522
O O14 0.337505 0.036553 0.736081
O O15 0.076626 0.872666 0.370228
O O16 0.500000 0.500000 0.500000
O O17 0.220141 0.412219 0.583940
#
# Coordination Sequence:
#
# PCOD9092752 Si02
#       8
#     2   2   2   2   2   2   2   2
#     4  12  25  40  64  95 141 178 215 266 340 394
#     4  10  23  39  69  95 127 171 225 268 323 389
#     4  11  22  39  68  96 131 176 220 267 323 399
#     4  10  19  42  67  93 124 170 219 279 321 375
#     4  12  24  45  62 102 140 173 215 272 334 401
#     4  10  22  42  67  96 126 170 227 274 319 384
#     4  11  22  40  66  99 127 174 229 270 324 397
#     4  12  24  41  68  95 139 178 212 274 337 388
#
# _framework density 22.66872
#
# number of rings (size 3 to 8) (size 9 to 14) (size 15 to 20)
#    0.000    1.000    5.000    1.875    0.000    2.500 
#    0.000    5.625    0.000   10.500    0.000    0.000 
#    0.000    0.000    0.000    0.000    0.000    0.000 
#
# Total GULP energy -89483.964907 kJ/mol
# GULP energy per Si atom -5592.747807 kJ/mol
# Density = 2.261712 g / cm^3
# Si number density = 22.668720 Si / 1000 Ang^3
#
#
#
# Elastic Constant Matrix: (Units=GPa)
#
#
# Indices 1 2 3 4 5 6 
#
# 1 61.8222 -3.1572 9.0622 -9.8648 9.6269 -5.5080
# 2 -3.1572 93.6580 39.4524 -0.5590 5.1872 15.1711
# 3 9.0622 39.4524 41.2326 3.4060 4.8762 -5.3598
# 4 -9.8648 -0.5590 3.4060 37.8078 -7.8380 2.8831
# 5 9.6269 5.1872 4.8762 -7.8380 37.0710 -6.9619
# 6 -5.5080 15.1711 -5.3598 2.8831 -6.9619 22.6843
#
#
#
# Elastic Compliance Matrix: (Units=1/GPa)
#
#
# Indices 1 2 3 4 5 6 
#
# 1 0.019118 0.005708 -0.010096 0.005430 -0.003937 -0.003459
# 2 0.005708 0.030169 -0.033774 0.006073 -0.005464 -0.029219
# 3 -0.010096 -0.033774 0.064182 -0.011038 0.003676 0.037832
# 4 0.005430 0.006073 -0.011038 0.030413 0.004129 -0.007950
# 5 -0.003937 -0.005464 0.003676 0.004129 0.031541 0.012722
# 6 -0.003459 -0.029219 0.037832 -0.007950 0.012722 0.076639
#
#
# Mechanical properties :
#
#
# Convention : Reuss Voigt Hill
#
# Bulk Modulus (GPa) = 26.92172 31.93642 29.42907
# Shear Modulus (GPa) = 14.67274 29.60297 22.13786
#
# Velocity S-wave (km/s) = 2.54691 3.61764 3.12842
# Velocity P-wave (km/s) = 4.53331 5.61860 5.10488
#
# Compressibility (1/GPa) = 0.03714473
#
# Stress axis : x y z
#
# Youngs Moduli (GPa) = 52.30621 33.14713 15.58059
#
# Poissons Ratio (x) = -0.18921 0.15730
# Poissons Ratio (y) = -0.29857 0.52622
# Poissons Ratio (z) = 0.52809 1.11952
#
# Static dielectric constant tensor:
#      x y z
#    x 1.864730 -0.014900 0.028270 
#    y -0.014900 1.893510 -0.010260 
#    z 0.028270 -0.010260 1.851870 
# 
# From -- ./inp_files/315392.got.cif
#   From: 2010.05.17/outbox.cif.g08.bks.cpg/sg2_158_cif.got.tgz:315392.got - 2010.06.03 11:33:40.
