data_PCOD9092947
_publ_section_title
;
Structure prediction by ZEFSAII (Michael W. Deem and Ramdas Pophale) SiO2 
 PCOD9092947
Probable space group: P -1
;
_chemical_formula_sum "Si O2"
_cell_formula_units_Z 12
_cell_length_a 5.157915
_cell_length_b 15.721549
_cell_length_c 11.256253
_cell_angle_alpha 126.283115
_cell_angle_beta 90.581538
_cell_angle_gamma 66.424208
_cell_volume 641.891009
_symmetry_space_group_name_H-M "P -1"
_symmetry_group_IT_number 2
_symmetry_cell_setting 'triclinic'
loop_
_space_group_symop_operation_xyz
x,y,z
-x,-y,-z
loop_
_atom_site_type_symbol
_atom_site_label
_atom_site_fract_x
_atom_site_fract_y
_atom_site_fract_z
Si Si1 0.040272 0.650231 0.064845
Si Si2 0.299167 0.480719 0.140954
Si Si3 0.781973 0.184027 0.147055
Si Si4 0.238743 0.007494 0.168521
Si Si5 0.110105 0.110028 0.851113
Si Si6 0.699007 0.544343 0.606249
O O1 0.353910 0.574884 0.934949
O O2 0.803433 0.616063 0.979925
O O3 0.112000 0.598250 0.155540
O O4 0.932663 0.791112 0.164352
O O5 0.245120 0.503088 0.297981
O O6 0.493646 0.310602 0.267425
O O7 0.697186 0.082115 0.019692
O O8 0.996117 0.135827 0.221990
O O9 0.973198 0.185738 0.035966
O O10 0.547689 0.985342 0.202360
O O11 0.081176 0.958205 0.218884
O O12 0.500000 0.500000 0.500000
O O13 0.000000 0.500000 0.500000
#
# Coordination Sequence:
#
# PCOD9092947 Si02
#       6
#     2   2   2   2   2   2
#     4  10  18  31  58  73 104 132 165 241 259 300
#     4  10  20  35  48  77 101 140 183 204 266 302
#     4   9  20  32  49  73 107 128 178 205 263 308
#     4   9  19  28  53  73 104 127 160 232 261 303
#     4  10  16  29  49  79  97 124 157 215 284 296
#     4  12  25  35  52  74 112 155 171 201 248 327
#
# _framework density 18.694761
#
# number of rings (size 3 to 8) (size 9 to 14) (size 15 to 20)
#    1.000    1.000    1.667    3.500    2.333    0.000 
#    0.000    0.000    0.000    0.000    0.000    7.000 
#    0.000    0.000    0.000    0.000    0.000    0.000 
#
# Total GULP energy -66905.742030 kJ/mol
# GULP energy per Si atom -5575.478502 kJ/mol
# Density = 1.865221 g / cm^3
# Si number density = 18.694761 Si / 1000 Ang^3
#
#
#
# Elastic Constant Matrix: (Units=GPa)
#
#
# Indices 1 2 3 4 5 6 
#
# 1 81.1921 11.3955 26.3185 -0.9235 -21.5462 -1.9369
# 2 11.3955 99.9239 31.2309 -20.6365 -8.8329 4.5684
# 3 26.3185 31.2309 45.0860 -19.7886 -12.4046 -3.9309
# 4 -0.9235 -20.6365 -19.7886 22.3969 -2.0686 -2.6049
# 5 -21.5462 -8.8329 -12.4046 -2.0686 20.2697 0.2138
# 6 -1.9369 4.5684 -3.9309 -2.6049 0.2138 20.6880
#
#
#
# Elastic Compliance Matrix: (Units=1/GPa)
#
#
# Indices 1 2 3 4 5 6 
#
# 1 0.019406 0.001203 -0.012329 -0.008026 0.012809 -0.001934
# 2 0.001203 0.013850 -0.006105 0.007447 0.004373 -0.003213
# 3 -0.012329 -0.006105 0.074019 0.065155 0.035949 0.022090
# 4 -0.008026 0.007447 0.065155 0.115812 0.046152 0.024089
# 5 0.012809 0.004373 0.035949 0.046152 0.091439 0.011930
# 6 -0.001934 -0.003213 0.022090 0.024089 0.011930 0.055973
#
#
# Mechanical properties :
#
#
# Convention : Reuss Voigt Hill
#
# Bulk Modulus (GPa) = 13.73351 40.45464 27.09407
# Shear Modulus (GPa) = 11.64880 23.15472 17.40176
#
# Velocity S-wave (km/s) = 2.49891 3.52315 3.05427
# Velocity P-wave (km/s) = 3.96084 6.18358 5.19254
#
# Compressibility (1/GPa) = 0.07281460
#
# Stress axis : x y z
#
# Youngs Moduli (GPa) = 51.53172 72.20322 13.51007
#
# Poissons Ratio (x) = -0.08689 0.16656
# Poissons Ratio (y) = -0.06201 0.08247
# Poissons Ratio (z) = 0.63531 0.44077
#
# Static dielectric constant tensor:
#      x y z
#    x 1.657760 0.022740 0.001650 
#    y 0.022740 1.693710 -0.007220 
#    z 0.001650 -0.007220 1.613780 
# 
# From -- ./inp_files/34492.got.cif
#   From: 2010.05.17/outbox.cif.g08.bks.cpg/sg2_18_cif.got.tgz:34492.got - 2010.06.03 11:33:40.
