data_PCOD9092115
_publ_section_title
;
Structure prediction by ZEFSAII (Michael W. Deem and Ramdas Pophale) SiO2 
 PCOD9092115
Probable space group: P -1
;
_chemical_formula_sum "Si O2"
_cell_formula_units_Z 14
_cell_length_a 7.913038
_cell_length_b 11.897213
_cell_length_c 10.271772
_cell_angle_alpha 137.641665
_cell_angle_beta 111.553827
_cell_angle_gamma 89.644325
_cell_volume 549.012385
_symmetry_space_group_name_H-M "P -1"
_symmetry_group_IT_number 2
_symmetry_cell_setting 'triclinic'
loop_
_space_group_symop_operation_xyz
x,y,z
-x,-y,-z
loop_
_atom_site_type_symbol
_atom_site_label
_atom_site_fract_x
_atom_site_fract_y
_atom_site_fract_z
Si Si1 0.629630 0.981374 0.810185
Si Si2 0.432116 0.221868 0.637916
Si Si3 0.732171 0.039112 0.168985
Si Si4 0.276887 0.529265 0.854851
Si Si5 0.967811 0.663707 0.878231
Si Si6 0.767209 0.426881 0.410671
Si Si7 0.035332 0.946109 0.323574
O O1 0.546419 0.814534 0.539969
O O2 0.442958 0.033091 0.833837
O O3 0.838039 0.156109 0.972047
O O4 0.688251 0.932829 0.927525
O O5 0.313618 0.349796 0.734201
O O6 0.274525 0.015733 0.451255
O O7 0.606327 0.315801 0.871416
O O8 0.725517 0.230278 0.290106
O O9 0.939709 0.046583 0.285179
O O10 0.335651 0.574205 0.757029
O O11 0.052299 0.510816 0.792362
O O12 0.925502 0.737370 0.064973
O O13 0.781765 0.574370 0.651287
O O14 0.000000 0.500000 0.500000
O O15 0.000000 0.000000 0.500000
#
# Coordination Sequence:
#
# PCOD9092115 Si02
#       7
#     2   2   2   2   2   2   2
#     4  10  23  40  66  94 123 171 204 267 307 374
#     4  10  24  41  65  91 128 169 207 255 319 375
#     4  11  23  42  62  97 130 160 213 260 314 364
#     4  10  21  41  66  90 123 166 213 253 306 378
#     4  10  22  41  69  90 122 172 210 255 317 370
#     4  10  19  40  66  92 120 166 208 257 304 377
#     4  11  26  40  63  96 127 163 209 264 309 379
#
# _framework density 25.500335
#
# number of rings (size 3 to 8) (size 9 to 14) (size 15 to 20)
#    0.000    1.714    2.857    1.714    6.000    2.286 
#    5.143    2.143    0.000    0.000    0.000    0.000 
#    0.000    0.000    0.000    0.000    0.000    0.000 
#
# Total GULP energy -78043.373986 kJ/mol
# GULP energy per Si atom -5574.526713 kJ/mol
# Density = 2.544229 g / cm^3
# Si number density = 25.500335 Si / 1000 Ang^3
#
#
#
# Elastic Constant Matrix: (Units=GPa)
#
#
# Indices 1 2 3 4 5 6 
#
# 1 34.8546 -2.2516 22.6039 -6.4104 -5.1519 -0.8106
# 2 -2.2516 43.5250 22.6262 -3.1054 -0.4924 -12.1447
# 3 22.6039 22.6262 264.0943 -38.2027 -22.6275 -7.5722
# 4 -6.4104 -3.1054 -38.2027 43.6245 -3.2790 -2.0496
# 5 -5.1519 -0.4924 -22.6275 -3.2790 51.1169 -0.7167
# 6 -0.8106 -12.1447 -7.5722 -2.0496 -0.7167 22.4896
#
#
#
# Elastic Compliance Matrix: (Units=1/GPa)
#
#
# Indices 1 2 3 4 5 6 
#
# 1 0.031427 0.003847 -0.002262 0.003228 0.002450 0.002821
# 2 0.003847 0.028567 -0.002139 0.001431 0.000018 0.014976
# 3 -0.002262 -0.002139 0.004969 0.004075 0.002225 0.000879
# 4 0.003228 0.001431 0.004075 0.027597 0.003982 0.004903
# 5 0.002450 0.000018 0.002225 0.003982 0.021077 0.001882
# 6 0.002821 0.014976 0.000879 0.004903 0.001882 0.053457
#
#
# Mechanical properties :
#
#
# Convention : Reuss Voigt Hill
#
# Bulk Modulus (GPa) = 15.66046 47.60345 31.63196
# Shear Modulus (GPa) = 26.38710 43.41257 34.89984
#
# Velocity S-wave (km/s) = 3.22028 4.13053 3.70348
# Velocity P-wave (km/s) = 4.47007 6.43868 5.54248
#
# Compressibility (1/GPa) = 0.06385508
#
# Stress axis : x y z
#
# Youngs Moduli (GPa) = 31.81954 35.00524 201.26341
#
# Poissons Ratio (x) = -0.13465 0.45519
# Poissons Ratio (y) = -0.12240 0.43047
# Poissons Ratio (z) = 0.07197 0.07487
#
# Static dielectric constant tensor:
#      x y z
#    x 2.130770 0.092300 -0.027140 
#    y 0.092300 2.062920 0.007530 
#    z -0.027140 0.007530 2.163040 
# 
# From -- ./inp_files/173491.got.cif
#   From: 2010.05.17/outbox.cif.g08.bks.cpg/sg2_87_cif.got.tgz:173491.got - 2010.06.03 11:33:40.
