data_PCOD9092129
_publ_section_title
;
Structure prediction by ZEFSAII (Michael W. Deem and Ramdas Pophale) SiO2 
 PCOD9092129
Probable space group: P -1
;
_chemical_formula_sum "Si O2"
_cell_formula_units_Z 14
_cell_length_a 6.552375
_cell_length_b 8.200452
_cell_length_c 17.251572
_cell_angle_alpha 100.218765
_cell_angle_beta 124.207262
_cell_angle_gamma 113.985885
_cell_volume 590.743089
_symmetry_space_group_name_H-M "P -1"
_symmetry_group_IT_number 2
_symmetry_cell_setting 'triclinic'
loop_
_space_group_symop_operation_xyz
x,y,z
-x,-y,-z
loop_
_atom_site_type_symbol
_atom_site_label
_atom_site_fract_x
_atom_site_fract_y
_atom_site_fract_z
Si Si1 0.641205 0.576116 0.952704
Si Si2 0.307696 0.675522 0.487130
Si Si3 0.353753 0.592514 0.216741
Si Si4 0.316227 0.790959 0.889849
Si Si5 0.238916 0.004950 0.113849
Si Si6 0.353806 0.081770 0.574835
Si Si7 0.412371 0.620760 0.668192
O O1 0.601580 0.421561 0.865730
O O2 0.460917 0.667956 0.895691
O O3 0.500000 0.500000 0.000000
O O4 0.012550 0.757513 0.061109
O O5 0.465159 0.746685 0.442162
O O6 0.464385 0.640622 0.588639
O O7 0.942133 0.467070 0.394921
O O8 0.334938 0.879138 0.536502
O O9 0.452276 0.804261 0.295175
O O10 0.576640 0.553179 0.304581
O O11 0.012521 0.385850 0.155320
O O12 0.420748 0.907742 0.839058
O O13 0.500000 0.000000 0.000000
O O14 0.317045 0.156759 0.214489
O O15 0.000000 0.000000 0.000000
O O16 0.000000 0.000000 0.500000
#
# Coordination Sequence:
#
# PCOD9092129 Si02
#       7
#     2   2   2   2   2   2   2
#     4  11  25  43  64  98 141 170 218 271 328 398
#     4  10  25  45  68  97 132 171 221 288 321 387
#     4  12  23  41  70  96 132 179 217 272 333 396
#     4  11  21  41  68  92 127 178 217 265 323 385
#     4  10  19  40  66  94 129 172 211 264 324 391
#     4  11  24  44  66  95 135 172 219 269 344 390
#     4  11  21  44  71  95 128 173 224 272 331 380
#
# _framework density 23.698965000000001
#
# number of rings (size 3 to 8) (size 9 to 14) (size 15 to 20)
#    0.000    1.143    5.714    1.714    0.000    3.429 
#    5.143    0.000    0.000    0.000    0.000    0.000 
#    0.000    0.000    0.000    0.000    0.000    0.000 
#
# Total GULP energy -78063.336679 kJ/mol
# GULP energy per Si atom -5575.952620 kJ/mol
# Density = 2.364503 g / cm^3
# Si number density = 23.698965 Si / 1000 Ang^3
#
#
#
# Elastic Constant Matrix: (Units=GPa)
#
#
# Indices 1 2 3 4 5 6 
#
# 1 107.5536 19.9489 39.0651 7.5663 -23.0720 23.5933
# 2 19.9489 47.5168 24.2375 4.0876 -14.1573 19.3582
# 3 39.0651 24.2375 140.7994 20.7669 -29.9532 8.0929
# 4 7.5663 4.0876 20.7669 32.2222 -5.5418 -3.4920
# 5 -23.0720 -14.1573 -29.9532 -5.5418 38.2073 2.3804
# 6 23.5933 19.3582 8.0929 -3.4920 2.3804 49.2413
#
#
#
# Elastic Compliance Matrix: (Units=1/GPa)
#
#
# Indices 1 2 3 4 5 6 
#
# 1 0.012781 0.000157 -0.001544 -0.001557 0.006736 -0.006368
# 2 0.000157 0.030232 -0.002076 -0.002121 0.010125 -0.012259
# 3 -0.001544 -0.002076 0.009763 -0.004826 0.005292 -0.000646
# 4 -0.001557 -0.002121 -0.004826 0.035189 -0.000711 0.004903
# 5 0.006736 0.010125 0.005292 -0.000711 0.038661 -0.009997
# 6 -0.006368 -0.012259 -0.000646 0.004903 -0.009997 0.029116
#
#
# Mechanical properties :
#
#
# Convention : Reuss Voigt Hill
#
# Bulk Modulus (GPa) = 21.81074 51.37475 36.59274
# Shear Modulus (GPa) = 28.09756 38.10872 33.10314
#
# Velocity S-wave (km/s) = 3.44699 4.01438 3.74146
# Velocity P-wave (km/s) = 5.00655 6.57359 5.84285
#
# Compressibility (1/GPa) = 0.04584896
#
# Stress axis : x y z
#
# Youngs Moduli (GPa) = 78.24132 33.07771 102.42742
#
# Poissons Ratio (x) = -0.00520 0.15819
# Poissons Ratio (y) = -0.01230 0.21267
# Poissons Ratio (z) = 0.12084 0.06868
#
# Static dielectric constant tensor:
#      x y z
#    x 1.999640 0.015920 0.023390 
#    y 0.015920 1.932010 0.000630 
#    z 0.023390 0.000630 1.913290 
# 
# From -- ./inp_files/548252.got.cif
#   From: 2010.05.17/outbox.cif.g08.bks.cpg/sg2_275_cif.got.tgz:548252.got - 2010.06.03 11:33:40.
