data_PCOD9092003
_publ_section_title
;
Structure prediction by ZEFSAII (Michael W. Deem and Ramdas Pophale) SiO2 
 PCOD9092003
Probable space group: P -1
;
_chemical_formula_sum "Si O2"
_cell_formula_units_Z 14
_cell_length_a 8.333728
_cell_length_b 11.510609
_cell_length_c 10.306403
_cell_angle_alpha 42.463130
_cell_angle_beta 114.528234
_cell_angle_gamma 110.948805
_cell_volume 605.102967
_symmetry_space_group_name_H-M "P -1"
_symmetry_group_IT_number 2
_symmetry_cell_setting 'triclinic'
loop_
_space_group_symop_operation_xyz
x,y,z
-x,-y,-z
loop_
_atom_site_type_symbol
_atom_site_label
_atom_site_fract_x
_atom_site_fract_y
_atom_site_fract_z
Si Si1 0.418264 0.359540 0.692148
Si Si2 0.237663 0.804315 0.439246
Si Si3 0.106353 0.278706 0.291978
Si Si4 0.930861 0.007564 0.283691
Si Si5 0.270852 0.834805 0.132836
Si Si6 0.520744 0.575531 0.802422
Si Si7 0.062356 0.459777 0.383289
O O1 0.500000 0.500000 0.500000
O O2 0.542335 0.206175 0.833368
O O3 0.451085 0.438363 0.780931
O O4 0.214331 0.351498 0.588386
O O5 0.286667 0.881341 0.251087
O O6 0.411817 0.744648 0.613816
O O7 0.114485 0.620443 0.539641
O O8 0.116286 0.929925 0.371828
O O9 0.276815 0.370538 0.207204
O O10 0.031933 0.404967 0.268125
O O11 0.971054 0.191950 0.214450
O O12 0.157731 0.119452 0.532144
O O13 0.821331 0.033176 0.096854
O O14 0.138722 0.657667 0.239720
O O15 0.500000 0.500000 0.000000
#
# Coordination Sequence:
#
# PCOD9092003 Si02
#       7
#     2   2   2   2   2   2   2
#     4  10  19  40  64  96 123 164 211 274 313 364
#     4  11  23  41  61 100 133 165 208 272 316 382
#     4  10  22  46  59  91 134 168 216 260 315 384
#     4  10  25  40  64  92 135 176 204 254 330 387
#     4  11  20  39  70  92 125 166 220 258 318 382
#     4  12  25  40  68  98 127 165 219 272 323 366
#     4  10  20  38  71  90 127 164 217 272 311 361
#
# _framework density 23.136557
#
# number of rings (size 3 to 8) (size 9 to 14) (size 15 to 20)
#    0.000    1.429    5.714    0.857    2.000    4.571 
#    0.000    7.857    0.000    0.000    0.000    0.000 
#    0.000    0.000    0.000    0.000    0.000    0.000 
#
# Total GULP energy -78261.175506 kJ/mol
# GULP energy per Si atom -5590.083965 kJ/mol
# Density = 2.308390 g / cm^3
# Si number density = 23.136557 Si / 1000 Ang^3
#
#
#
# Elastic Constant Matrix: (Units=GPa)
#
#
# Indices 1 2 3 4 5 6 
#
# 1 75.6034 2.7352 26.1239 12.6209 -20.0631 -18.7354
# 2 2.7352 68.4879 17.9430 12.4535 -16.1677 -14.6256
# 3 26.1239 17.9430 144.3053 25.3552 -19.5639 -21.4247
# 4 12.6209 12.4535 25.3552 35.6013 -12.1317 -6.6533
# 5 -20.0631 -16.1677 -19.5639 -12.1317 23.5134 2.8615
# 6 -18.7354 -14.6256 -21.4247 -6.6533 2.8615 33.9994
#
#
#
# Elastic Compliance Matrix: (Units=1/GPa)
#
#
# Indices 1 2 3 4 5 6 
#
# 1 0.022240 0.007293 0.000173 -0.000443 0.022259 0.013542
# 2 0.007293 0.021502 0.000673 -0.001860 0.019182 0.011714
# 3 0.000173 0.000673 0.008956 -0.003918 0.005456 0.004802
# 4 -0.000443 -0.001860 -0.003918 0.036862 0.013792 0.002539
# 5 0.022259 0.019182 0.005456 0.013792 0.083983 0.019586
# 6 0.013542 0.011714 0.004802 0.002539 0.019586 0.043788
#
#
# Mechanical properties :
#
#
# Convention : Reuss Voigt Hill
#
# Bulk Modulus (GPa) = 14.49792 42.44456 28.47124
# Shear Modulus (GPa) = 22.31711 34.72912 28.52311
#
# Velocity S-wave (km/s) = 3.10914 3.87854 3.51496
# Velocity P-wave (km/s) = 4.37823 6.20020 5.36709
#
# Compressibility (1/GPa) = 0.06897541
#
# Stress axis : x y z
#
# Youngs Moduli (GPa) = 44.96436 46.50829 111.65819
#
# Poissons Ratio (x) = -0.33920 -0.01932
# Poissons Ratio (y) = -0.32794 -0.07511
# Poissons Ratio (z) = -0.00778 -0.03129
#
# Static dielectric constant tensor:
#      x y z
#    x 1.834100 0.004750 0.033870 
#    y 0.004750 1.954000 -0.016440 
#    z 0.033870 -0.016440 1.850120 
# 
# From -- ./inp_files/174530.got.cif
#   From: 2010.05.17/outbox.cif.g08.bks.cpg/sg2_88_cif.got.tgz:174530.got - 2010.06.03 11:33:40.
