data_PCOD9092602
_publ_section_title
;
Structure prediction by ZEFSAII (Michael W. Deem and Ramdas Pophale) SiO2 
 PCOD9092602
Probable space group: P -1
;
_chemical_formula_sum "Si O2"
_cell_formula_units_Z 14
_cell_length_a 20.463572
_cell_length_b 10.813028
_cell_length_c 9.134129
_cell_angle_alpha 39.469307
_cell_angle_beta 138.684099
_cell_angle_gamma 152.489634
_cell_volume 578.069533
_symmetry_space_group_name_H-M "P -1"
_symmetry_group_IT_number 2
_symmetry_cell_setting 'triclinic'
loop_
_space_group_symop_operation_xyz
x,y,z
-x,-y,-z
loop_
_atom_site_type_symbol
_atom_site_label
_atom_site_fract_x
_atom_site_fract_y
_atom_site_fract_z
Si Si1 0.778663 0.779900 0.246186
Si Si2 0.194739 0.543954 0.057584
Si Si3 0.247352 0.886317 0.284952
Si Si4 0.810482 0.145701 0.452983
Si Si5 0.449978 0.749378 0.446590
Si Si6 0.000000 0.500000 0.000000
Si Si7 0.500000 0.500000 0.500000
Si Si8 0.957268 0.075326 0.561917
O O1 0.654164 0.488501 0.387292
O O2 0.885232 0.033459 0.319590
O O3 0.887271 0.797620 0.323570
O O4 0.715028 0.857145 0.968297
O O5 0.356658 0.782142 0.180478
O O6 0.140499 0.245001 0.250175
O O7 0.081783 0.498102 0.007257
O O8 0.197131 0.646157 0.810527
O O9 0.182595 0.850084 0.365814
O O10 0.393054 0.973752 0.478068
O O11 0.132214 0.626629 0.221627
O O12 0.663045 0.825948 0.447196
O O13 0.937666 0.211835 0.524427
O O14 0.479585 0.626510 0.487021
#
# Coordination Sequence:
#
# PCOD9092602 Si02
#       8
#     2   2   2   2   2   1   1   2
#     4  10  19  41  70 104 143 184 240 296 354 438
#     4  11  24  44  75 104 149 189 240 299 369 429
#     4  11  25  43  70 108 146 192 248 291 368 432
#     4  11  24  43  73 109 148 189 240 306 365 437
#     4  10  23  43  74 111 142 190 244 293 372 433
#     4  12  26  46  68 102 148 194 242 304 348 426
#     4  10  20  40  68 102 144 182 228 298 364 424
#     4  10  21  43  73 108 138 193 244 295 371 429
#
# _framework density 24.218537999999999
#
# number of rings (size 3 to 8) (size 9 to 14) (size 15 to 20)
#    0.000    1.429    4.286    1.286    4.000    4.000 
#    0.000    2.857    3.143    0.000    0.000    0.000 
#    0.000    0.000    0.000    0.000    0.000    0.000 
#
# Total GULP energy -77966.730898 kJ/mol
# GULP energy per Si atom -5569.052207 kJ/mol
# Density = 2.416342 g / cm^3
# Si number density = 24.218538 Si / 1000 Ang^3
#
#
#
# Elastic Constant Matrix: (Units=GPa)
#
#
# Indices 1 2 3 4 5 6 
#
# 1 76.9503 23.1722 27.5300 -8.7358 -5.6130 28.4045
# 2 23.1722 106.5629 11.1880 27.6651 5.7426 4.6240
# 3 27.5300 11.1880 83.8462 10.4659 1.4979 -20.3675
# 4 -8.7358 27.6651 10.4659 25.9049 3.7968 4.4091
# 5 -5.6130 5.7426 1.4979 3.7968 37.2878 11.5151
# 6 28.4045 4.6240 -20.3675 4.4091 11.5151 23.7927
#
#
#
# Elastic Compliance Matrix: (Units=1/GPa)
#
#
# Indices 1 2 3 4 5 6 
#
# 1 -0.014303 0.006395 0.017235 -0.023645 -0.014369 0.041922
# 2 0.006395 0.010142 -0.007554 -0.003358 0.005663 -0.018190
# 3 0.017235 -0.007554 -0.002550 0.018387 0.011304 -0.030168
# 4 -0.023645 -0.003358 0.018387 0.021259 -0.021761 0.051212
# 5 -0.014369 0.005663 0.011304 -0.021761 0.019227 0.020457
# 6 0.041922 -0.018190 -0.030168 0.051212 0.020457 -0.049700
#
#
# Mechanical properties :
#
#
# Convention : Reuss Voigt Hill
#
# Bulk Modulus (GPa) = 39.30691 43.45998 41.38345
# Shear Modulus (GPa) = -126.27892 31.09502 -47.59195
#
# Velocity S-wave (km/s) = -7.22874 3.58709 -4.43776
# Velocity P-wave (km/s) = 7.30804 5.92791 3.02220
#
# Compressibility (1/GPa) = 0.02544082
#
# Stress axis : x y z
#
# Youngs Moduli (GPa) = -69.91401 98.59522 -392.19148
#
# Poissons Ratio (x) = -0.63047 6.75934
# Poissons Ratio (y) = 0.44707 -2.96246
# Poissons Ratio (z) = 1.20495 0.74475
#
# Static dielectric constant tensor:
#      x y z
#    x 1.882910 0.085400 -0.054160 
#    y 0.085400 2.133570 -0.097120 
#    z -0.054160 -0.097120 1.968540 
# 
# From -- ./inp_files/345021.got.cif
#   From: 2010.05.17/outbox.cif.g08.bks.cpg/sg2_173_cif.got.tgz:345021.got - 2010.06.03 11:33:40.
