data_PCOD9092971
_publ_section_title
;
Structure prediction by ZEFSAII (Michael W. Deem and Ramdas Pophale) SiO2 
 PCOD9092971
Probable space group: P -1
;
_chemical_formula_sum "Si O2"
_cell_formula_units_Z 16
_cell_length_a 12.776748
_cell_length_b 10.563202
_cell_length_c 27.000962
_cell_angle_alpha 35.870675
_cell_angle_beta 161.350010
_cell_angle_gamma 143.327329
_cell_volume 671.325920
_symmetry_space_group_name_H-M "P -1"
_symmetry_group_IT_number 2
_symmetry_cell_setting 'triclinic'
loop_
_space_group_symop_operation_xyz
x,y,z
-x,-y,-z
loop_
_atom_site_type_symbol
_atom_site_label
_atom_site_fract_x
_atom_site_fract_y
_atom_site_fract_z
Si Si1 0.965219 0.355723 0.579716
Si Si2 0.817740 0.841628 0.012921
Si Si3 0.305778 0.090586 0.956217
Si Si4 0.966600 0.481755 0.338615
Si Si5 0.030012 0.617280 0.732274
Si Si6 0.089592 0.281304 0.163193
Si Si7 0.401300 0.413373 0.167426
Si Si8 0.906003 0.860335 0.689580
O O1 0.839960 0.456285 0.542796
O O2 0.347825 0.374921 0.764927
O O3 0.850201 0.105580 0.592756
O O4 0.000000 0.500000 0.500000
O O5 0.836991 0.974275 0.031978
O O6 0.961015 0.617254 0.161737
O O7 0.418504 0.742676 0.858971
O O8 0.000000 0.000000 0.000000
O O9 0.166666 0.306800 0.809706
O O10 0.189970 0.920676 0.914577
O O11 0.701875 0.145779 0.123157
O O12 0.121652 0.396804 0.386551
O O13 0.620812 0.328802 0.250804
O O14 0.840085 0.756445 0.639504
O O15 0.335890 0.269056 0.232248
O O16 0.255473 0.265875 0.294660
O O17 0.930363 0.500383 0.022922
#
# Coordination Sequence:
#
# PCOD9092971 Si02
#       8
#     2   2   2   2   2   2   2   2
#     4  10  20  36  54  71  96 138 185 217 248 305
#     4   9  19  28  46  75 110 144 164 199 257 325
#     4  10  16  29  50  73 102 137 167 197 264 315
#     4   9  17  35  51  71 102 133 170 210 254 313
#     4   9  20  32  47  74 108 138 170 209 259 319
#     4  11  17  28  50  82 103 129 159 220 261 313
#     4   9  20  28  50  78 107 125 171 211 263 307
#     4  11  18  33  50  74 106 136 171 210 265 308
#
# _framework density 23.833431999999998
#
# number of rings (size 3 to 8) (size 9 to 14) (size 15 to 20)
#    0.750    1.500    3.750    1.125    1.750    1.000 
#    0.000    1.250    0.000    0.000    0.000    0.875 
#    0.000    0.000    0.000    0.000    0.000    0.000 
#
# Total GULP energy -89111.380527 kJ/mol
# GULP energy per Si atom -5569.461283 kJ/mol
# Density = 2.377919 g / cm^3
# Si number density = 23.833432 Si / 1000 Ang^3
#
#
#
# Elastic Constant Matrix: (Units=GPa)
#
#
# Indices 1 2 3 4 5 6 
#
# 1 244.6355 49.6321 31.9464 -11.8981 -48.2259 -7.1398
# 2 49.6321 58.4556 11.9300 -2.8247 -14.5862 1.3078
# 3 31.9464 11.9300 33.1060 1.8042 -23.8955 -1.1112
# 4 -11.8981 -2.8247 1.8042 20.4243 4.9085 -8.1605
# 5 -48.2259 -14.5862 -23.8955 4.9085 31.5266 -4.7288
# 6 -7.1398 1.3078 -1.1112 -8.1605 -4.7288 47.4455
#
#
#
# Elastic Compliance Matrix: (Units=1/GPa)
#
#
# Indices 1 2 3 4 5 6 
#
# 1 0.006739 -0.003542 0.002451 0.001667 0.010647 0.002517
# 2 -0.003542 0.021243 -0.002696 0.000216 0.002195 -0.000926
# 3 0.002451 -0.002696 0.076255 -0.018934 0.064051 0.005356
# 4 0.001667 0.000216 -0.018934 0.059616 -0.019771 0.008085
# 5 0.010647 0.002195 0.064051 -0.019771 0.102119 0.009819
# 6 0.002517 -0.000926 0.005356 0.008085 0.009819 0.023976
#
#
# Mechanical properties :
#
#
# Convention : Reuss Voigt Hill
#
# Bulk Modulus (GPa) = 10.34507 58.13490 34.23998
# Shear Modulus (GPa) = 15.16329 36.05851 25.61090
#
# Velocity S-wave (km/s) = 2.52508 3.89387 3.28163
# Velocity P-wave (km/s) = 3.58488 6.68292 5.36250
#
# Compressibility (1/GPa) = 0.09666445
#
# Stress axis : x y z
#
# Youngs Moduli (GPa) = 148.37917 47.07418 13.11386
#
# Poissons Ratio (x) = 0.16672 -0.03214
# Poissons Ratio (y) = 0.52550 0.03536
# Poissons Ratio (z) = -0.36369 0.12692
#
# Static dielectric constant tensor:
#      x y z
#    x 2.034080 0.069730 0.010990 
#    y 0.069730 2.040360 0.082710 
#    z 0.010990 0.082710 1.902590 
# 
# From -- ./inp_files/618357.got.cif
#   From: 2010.05.17/outbox.cif.g08.bks.cpg/sg2_310_cif.got.tgz:618357.got - 2010.06.03 11:33:40.
