data_PCOD9092300
_publ_section_title
;
Structure prediction by ZEFSAII (Michael W. Deem and Ramdas Pophale) SiO2 
 PCOD9092300
Probable space group: P -1
;
_chemical_formula_sum "Si O2"
_cell_formula_units_Z 16
_cell_length_a 13.711115
_cell_length_b 5.054156
_cell_length_c 13.974185
_cell_angle_alpha 77.872687
_cell_angle_beta 128.083807
_cell_angle_gamma 74.240496
_cell_volume 635.934216
_symmetry_space_group_name_H-M "P -1"
_symmetry_group_IT_number 2
_symmetry_cell_setting 'triclinic'
loop_
_space_group_symop_operation_xyz
x,y,z
-x,-y,-z
loop_
_atom_site_type_symbol
_atom_site_label
_atom_site_fract_x
_atom_site_fract_y
_atom_site_fract_z
Si Si1 0.061678 0.650678 0.096733
Si Si2 0.613595 0.179976 0.875058
Si Si3 0.180590 0.411866 0.562306
Si Si4 0.618617 0.542992 0.685470
Si Si5 0.039741 0.414081 0.296491
Si Si6 0.750903 0.449473 0.069997
Si Si7 0.303805 0.685172 0.744763
Si Si8 0.648899 0.790693 0.494120
O O1 0.232947 0.471705 0.201237
O O2 0.020071 0.652935 0.181895
O O3 0.000000 0.500000 0.000000
O O4 0.000000 0.000000 0.000000
O O5 0.618466 0.255733 0.760042
O O6 0.457918 0.433344 0.808663
O O7 0.725555 0.257853 0.988050
O O8 0.665661 0.818995 0.958871
O O9 0.041958 0.510876 0.401653
O O10 0.179791 0.635098 0.626370
O O11 0.294365 0.400211 0.554353
O O12 0.251999 0.051384 0.669137
O O13 0.615545 0.595303 0.565460
O O14 0.486363 0.862210 0.623335
O O15 0.212499 0.166571 0.402942
O O16 0.918005 0.333643 0.205283
O O17 0.685560 0.401178 0.131290
#
# Coordination Sequence:
#
# PCOD9092300 Si02
#       8
#     2   2   2   2   2   2   2   2
#     4  11  23  41  63  95 133 172 208 258 316 388
#     4  12  24  42  65  97 129 170 219 265 318 398
#     4  10  23  44  67  93 132 163 216 280 314 378
#     4  10  19  40  70  93 131 169 213 255 332 374
#     4   9  22  44  62  97 131 165 219 267 319 385
#     4  12  26  42  66  94 131 175 215 267 328 384
#     4  12  24  44  67  94 128 172 219 274 326 372
#     4   8  19  43  64 100 126 169 210 274 309 389
#
# _framework density 25.159832000000002
#
# number of rings (size 3 to 8) (size 9 to 14) (size 15 to 20)
#    0.750    0.750    1.250    3.750    0.000    3.000 
#    0.000    1.875    0.000    0.000    0.000    0.000 
#    0.000    0.000    0.000    0.000    0.000    0.000 
#
# Total GULP energy -89501.494537 kJ/mol
# GULP energy per Si atom -5593.843409 kJ/mol
# Density = 2.510257 g / cm^3
# Si number density = 25.159832 Si / 1000 Ang^3
#
#
#
# Elastic Constant Matrix: (Units=GPa)
#
#
# Indices 1 2 3 4 5 6 
#
# 1 91.8862 -0.5016 34.2411 -8.8743 6.9278 11.6540
# 2 -0.5016 96.5262 45.8775 -7.7183 -6.1498 20.8154
# 3 34.2411 45.8775 126.6338 -3.0194 -6.3725 14.7994
# 4 -8.8743 -7.7183 -3.0194 25.6836 7.8710 0.5077
# 5 6.9278 -6.1498 -6.3725 7.8710 68.5671 -6.3992
# 6 11.6540 20.8154 14.7994 0.5077 -6.3992 27.1187
#
#
#
# Elastic Compliance Matrix: (Units=1/GPa)
#
#
# Indices 1 2 3 4 5 6 
#
# 1 0.014485 0.004285 -0.004537 0.006841 -0.003021 -0.007879
# 2 0.004285 0.015877 -0.005489 0.006233 -0.001304 -0.011457
# 3 -0.004537 -0.005489 0.011067 -0.002326 0.001306 0.000475
# 4 0.006841 0.006233 -0.002326 0.045014 -0.006336 -0.008792
# 5 -0.003021 -0.001304 0.001306 -0.006336 0.016136 0.005513
# 6 -0.007879 -0.011457 0.000475 -0.008792 0.005513 0.050261
#
#
# Mechanical properties :
#
#
# Convention : Reuss Voigt Hill
#
# Bulk Modulus (GPa) = 33.39187 52.69782 43.04484
# Shear Modulus (GPa) = 28.68555 39.96916 34.32735
#
# Velocity S-wave (km/s) = 3.38025 3.99006 3.69775
# Velocity P-wave (km/s) = 5.34186 6.49755 5.94784
#
# Compressibility (1/GPa) = 0.02994741
#
# Stress axis : x y z
#
# Youngs Moduli (GPa) = 69.03670 62.98488 90.35970
#
# Poissons Ratio (x) = -0.26991 0.40999
# Poissons Ratio (y) = -0.29585 0.49596
# Poissons Ratio (z) = 0.31324 0.34571
#
# Static dielectric constant tensor:
#      x y z
#    x 2.028060 -0.022180 0.013270 
#    y -0.022180 1.910910 0.042990 
#    z 0.013270 0.042990 2.055320 
# 
# From -- ./inp_files/525263.got.cif
#   From: 2010.05.17/outbox.cif.g08.bks.cpg/sg2_263_cif.got.tgz:525263.got - 2010.06.03 11:33:40.
