data_PCOD9092700
_publ_section_title
;
Structure prediction by ZEFSAII (Michael W. Deem and Ramdas Pophale) SiO2 
 PCOD9092700
Probable space group: P -1
;
_chemical_formula_sum "Si O2"
_cell_formula_units_Z 16
_cell_length_a 11.695194
_cell_length_b 9.135001
_cell_length_c 9.582408
_cell_angle_alpha 54.415870
_cell_angle_beta 58.989858
_cell_angle_gamma 48.808133
_cell_volume 611.777910
_symmetry_space_group_name_H-M "P -1"
_symmetry_group_IT_number 2
_symmetry_cell_setting 'triclinic'
loop_
_space_group_symop_operation_xyz
x,y,z
-x,-y,-z
loop_
_atom_site_type_symbol
_atom_site_label
_atom_site_fract_x
_atom_site_fract_y
_atom_site_fract_z
Si Si1 0.389034 0.402084 0.647853
Si Si2 0.524542 0.364944 0.852143
Si Si3 0.949604 0.231130 0.837573
Si Si4 0.949236 0.004376 0.367936
Si Si5 0.667125 0.985421 0.602106
Si Si6 0.621505 0.628119 0.779872
Si Si7 0.107233 0.405735 0.842884
Si Si8 0.793947 0.925939 0.851067
O O1 0.500000 0.500000 0.500000
O O2 0.386985 0.403580 0.816816
O O3 0.206709 0.506695 0.666017
O O4 0.496983 0.170407 0.645489
O O5 0.544703 0.563883 0.743135
O O6 0.680481 0.174293 0.794432
O O7 0.495731 0.297262 0.057756
O O8 0.767545 0.405693 0.861513
O O9 0.987086 0.191631 0.670191
O O10 0.029744 0.343021 0.804343
O O11 0.000000 0.000000 0.000000
O O12 0.767981 0.084299 0.430114
O O13 0.000000 0.000000 0.500000
O O14 0.034068 0.122451 0.193501
O O15 0.662978 0.803475 0.620200
O O16 0.764009 0.868377 0.748565
O O17 0.243395 0.185306 0.942874
O O18 0.000000 0.500000 0.000000
#
# Coordination Sequence:
#
# PCOD9092700 Si02
#       8
#     2   2   2   2   2   2   2   2
#     4  11  26  45  64  97 140 188 229 282 354 420
#     4  10  21  41  69  90 133 176 228 284 344 410
#     4  12  24  43  69 106 144 179 233 295 351 420
#     4  10  22  41  67  95 135 182 226 281 351 417
#     4  10  23  40  67  93 133 181 232 287 344 416
#     4  11  22  40  66 104 126 174 233 292 343 415
#     4  12  25  41  70 102 141 184 230 288 355 421
#     4  10  19  42  64  95 128 178 230 277 344 418
#
# _framework density 26.153283999999999
#
# number of rings (size 3 to 8) (size 9 to 14) (size 15 to 20)
#    0.000    1.250    2.500    3.000    1.750    5.500 
#    4.500    1.250    0.000    0.000    0.000    0.000 
#    0.000    0.000    0.000    0.000    0.000    0.000 
#
# Total GULP energy -89289.230543 kJ/mol
# GULP energy per Si atom -5580.576909 kJ/mol
# Density = 2.609376 g / cm^3
# Si number density = 26.153284 Si / 1000 Ang^3
#
#
#
# Elastic Constant Matrix: (Units=GPa)
#
#
# Indices 1 2 3 4 5 6 
#
# 1 149.9999 57.5481 49.6580 -2.5208 -31.0178 37.0654
# 2 57.5481 135.9243 38.0559 5.8799 -16.3409 20.6725
# 3 49.6580 38.0559 80.1645 5.8924 -34.6527 7.1079
# 4 -2.5208 5.8799 5.8924 34.2147 -0.8766 -1.2495
# 5 -31.0178 -16.3409 -34.6527 -0.8766 54.4800 1.3499
# 6 37.0654 20.6725 7.1079 -1.2495 1.3499 47.5941
#
#
#
# Elastic Compliance Matrix: (Units=1/GPa)
#
#
# Indices 1 2 3 4 5 6 
#
# 1 0.011423 -0.002258 -0.003955 0.001732 0.003521 -0.007379
# 2 -0.002258 0.009456 -0.002947 -0.001362 -0.000298 -0.001936
# 3 -0.003955 -0.002947 0.020805 -0.003079 0.010026 0.000888
# 4 0.001732 -0.001362 -0.003079 0.030115 -0.000909 0.000519
# 5 0.003521 -0.000298 0.010026 -0.000909 0.026755 -0.004893
# 6 -0.007379 -0.001936 0.000888 0.000519 -0.004893 0.027618
#
#
# Mechanical properties :
#
#
# Convention : Reuss Voigt Hill
#
# Bulk Modulus (GPa) = 42.80223 72.95696 57.87960
# Shear Modulus (GPa) = 32.83458 41.97954 37.40706
#
# Velocity S-wave (km/s) = 3.54710 4.01076 3.78603
# Velocity P-wave (km/s) = 5.75998 7.02885 6.42581
#
# Compressibility (1/GPa) = 0.02336327
#
# Stress axis : x y z
#
# Youngs Moduli (GPa) = 87.54322 105.75574 48.06635
#
# Poissons Ratio (x) = 0.23884 0.19008
# Poissons Ratio (y) = 0.19771 0.14165
# Poissons Ratio (z) = 0.34620 0.31166
#
# Static dielectric constant tensor:
#      x y z
#    x 2.039310 0.014570 -0.037790 
#    y 0.014570 2.099740 -0.023280 
#    z -0.037790 -0.023280 2.218730 
# 
# From -- ./inp_files/416445.got.cif
#   From: 2010.05.17/outbox.cif.g08.bks.cpg/sg2_209_cif.got.tgz:416445.got - 2010.06.03 11:33:40.
