data_PCOD9092622
_publ_section_title
;
Structure prediction by ZEFSAII (Michael W. Deem and Ramdas Pophale) SiO2 
 PCOD9092622
Probable space group: P -1
;
_chemical_formula_sum "Si O2"
_cell_formula_units_Z 14
_cell_length_a 9.399580
_cell_length_b 9.817162
_cell_length_c 13.945940
_cell_angle_alpha 131.861132
_cell_angle_beta 54.070150
_cell_angle_gamma 135.872537
_cell_volume 652.737820
_symmetry_space_group_name_H-M "P -1"
_symmetry_group_IT_number 2
_symmetry_cell_setting 'triclinic'
loop_
_space_group_symop_operation_xyz
x,y,z
-x,-y,-z
loop_
_atom_site_type_symbol
_atom_site_label
_atom_site_fract_x
_atom_site_fract_y
_atom_site_fract_z
Si Si1 0.808614 0.507632 0.532490
Si Si2 0.145387 0.199584 0.106212
Si Si3 0.465134 0.179959 0.647128
Si Si4 0.052046 0.622758 0.138225
Si Si5 0.500675 0.792226 0.124226
Si Si6 0.976524 0.979814 0.720099
Si Si7 0.190994 0.699956 0.753878
O O1 0.622965 0.401995 0.633498
O O2 0.732124 0.366301 0.400207
O O3 0.000000 0.500000 0.500000
O O4 0.890613 0.755520 0.592601
O O5 0.125994 0.101486 0.172498
O O6 0.023746 0.322624 0.208314
O O7 0.371886 0.303133 0.019315
O O8 0.000000 0.000000 0.000000
O O9 0.507019 0.209129 0.757826
O O10 0.500000 0.000000 0.500000
O O11 0.224620 0.096933 0.689457
O O12 0.273245 0.676462 0.114931
O O13 0.875124 0.464163 0.209378
O O14 0.067293 0.848739 0.226015
O O15 0.000000 0.500000 0.000000
O O16 0.640802 0.051985 0.167171
#
# Coordination Sequence:
#
# PCOD9092622 Si02
#       7
#     2   2   2   2   2   2   2
#     4  12  22  42  73 107 141 178 234 298 348 415
#     4  10  19  41  71 102 135 180 240 293 335 408
#     4  12  22  43  76 108 136 185 239 287 352 421
#     4  12  30  48  67 104 150 190 233 292 363 421
#     4  11  24  44  78 102 144 186 238 294 355 416
#     4  12  26  46  69 105 148 182 235 299 347 418
#     4  11  23  45  72 105 143 181 237 297 348 422
#
# _framework density 21.448122999999999
#
# number of rings (size 3 to 8) (size 9 to 14) (size 15 to 20)
#    0.000    0.571    7.143    2.571    0.000    5.714 
#    0.000    1.429    0.000    0.000    0.000    0.000 
#    0.000    0.000    0.000    0.000    0.000    0.000 
#
# Total GULP energy -78341.863398 kJ/mol
# GULP energy per Si atom -5595.847386 kJ/mol
# Density = 2.139931 g / cm^3
# Si number density = 21.448123 Si / 1000 Ang^3
#
#
#
# Elastic Constant Matrix: (Units=GPa)
#
#
# Indices 1 2 3 4 5 6 
#
# 1 58.2705 15.4501 19.3040 -14.6107 -6.7882 17.0431
# 2 15.4501 133.5154 21.6549 -17.7194 -4.4665 -2.1692
# 3 19.3040 21.6549 89.2783 -21.0878 -5.1425 0.6242
# 4 -14.6107 -17.7194 -21.0878 44.0635 -1.4682 1.3118
# 5 -6.7882 -4.4665 -5.1425 -1.4682 24.0114 -0.7810
# 6 17.0431 -2.1692 0.6242 1.3118 -0.7810 42.7750
#
#
#
# Elastic Compliance Matrix: (Units=1/GPa)
#
#
# Indices 1 2 3 4 5 6 
#
# 1 0.023522 -0.001374 -0.002846 0.006363 0.005865 -0.009488
# 2 -0.001374 0.008184 -0.001083 0.002325 0.001074 0.000927
# 3 -0.002846 -0.001083 0.013401 0.005085 0.002200 0.000768
# 4 0.006363 0.002325 0.005085 0.028435 0.004953 -0.003273
# 5 0.005865 0.001074 0.002200 0.004953 0.044225 -0.001659
# 6 -0.009488 0.000927 0.000768 -0.003273 -0.001659 0.027264
#
#
# Mechanical properties :
#
#
# Convention : Reuss Voigt Hill
#
# Bulk Modulus (GPa) = 28.98386 43.76468 36.37427
# Shear Modulus (GPa) = 29.91519 37.14698 33.53108
#
# Velocity S-wave (km/s) = 3.73871 4.16618 3.95822
# Velocity P-wave (km/s) = 5.67275 6.60242 6.15516
#
# Compressibility (1/GPa) = 0.03450196
#
# Stress axis : x y z
#
# Youngs Moduli (GPa) = 42.51291 122.18890 74.61901
#
# Poissons Ratio (x) = 0.16787 0.21234
# Poissons Ratio (y) = 0.05841 0.08084
# Poissons Ratio (z) = 0.12098 0.13238
#
# Static dielectric constant tensor:
#      x y z
#    x 1.740770 0.008880 0.005480 
#    y 0.008880 1.762970 -0.123630 
#    z 0.005480 -0.123630 1.375160 
# 
# From -- ./inp_files/184636.got.cif
#   From: 2010.05.17/outbox.cif.g08.bks.cpg/sg2_93_cif.got.tgz:184636.got - 2010.06.03 11:33:40.
