data_PCOD9092882
_publ_section_title
;
Structure prediction by ZEFSAII (Michael W. Deem and Ramdas Pophale) SiO2 
 PCOD9092882
Probable space group: P -1
;
_chemical_formula_sum "Si O2"
_cell_formula_units_Z 12
_cell_length_a 9.177825
_cell_length_b 12.009845
_cell_length_c 9.038814
_cell_angle_alpha 58.476380
_cell_angle_beta 133.867936
_cell_angle_gamma 141.776924
_cell_volume 443.890791
_symmetry_space_group_name_H-M "P -1"
_symmetry_group_IT_number 2
_symmetry_cell_setting 'triclinic'
loop_
_space_group_symop_operation_xyz
x,y,z
-x,-y,-z
loop_
_atom_site_type_symbol
_atom_site_label
_atom_site_fract_x
_atom_site_fract_y
_atom_site_fract_z
Si Si1 0.410306 0.311483 0.088320
Si Si2 0.256021 0.783091 0.478320
Si Si3 0.239066 0.214245 0.345830
Si Si4 0.778984 0.372104 0.731598
Si Si5 0.872414 0.135306 0.405299
Si Si6 0.392560 0.751375 0.980325
O O1 0.632128 0.304089 0.316219
O O2 0.191666 0.215296 0.137555
O O3 0.500000 0.500000 0.000000
O O4 0.381062 0.234058 0.958414
O O5 0.172756 0.714038 0.301665
O O6 0.039055 0.747163 0.465927
O O7 0.500000 0.000000 0.500000
O O8 0.562677 0.378160 0.502170
O O9 0.062818 0.217407 0.336563
O O10 0.608952 0.103701 0.185948
O O11 0.609454 0.254536 0.840957
O O12 0.181878 0.036419 0.464007
O O13 0.916785 0.442678 0.139368
#
# Coordination Sequence:
#
# PCOD9092882 Si02
#       6
#     2   2   2   2   2   2
#     4  10  22  40  67  93 131 167 216 272 319 378
#     4  10  19  43  70  92 126 174 216 260 322 388
#     4  10  22  41  67  97 129 170 218 264 325 385
#     4  10  22  42  64  99 127 173 215 267 322 386
#     4  10  21  41  68  95 130 171 213 270 319 390
#     4  10  24  41  64  95 134 171 215 267 322 386
#
# _framework density 27.033678999999999
#
# number of rings (size 3 to 8) (size 9 to 14) (size 15 to 20)
#    0.000    2.000    3.333    0.000    4.667    7.333 
#    6.000    0.000    0.000    5.000    0.000    0.000 
#    0.000    0.000    0.000    0.000    0.000    0.000 
#
# Total GULP energy -67094.987060 kJ/mol
# GULP energy per Si atom -5591.248922 kJ/mol
# Density = 2.697215 g / cm^3
# Si number density = 27.033679 Si / 1000 Ang^3
#
#
#
# Elastic Constant Matrix: (Units=GPa)
#
#
# Indices 1 2 3 4 5 6 
#
# 1 222.6640 58.2775 63.8109 -7.8364 -56.9027 -39.1174
# 2 58.2775 128.8967 51.7846 -14.9146 -14.8108 -18.7456
# 3 63.8109 51.7846 99.7612 -23.2030 -19.9876 -10.7161
# 4 -7.8364 -14.9146 -23.2030 44.6216 1.3414 -4.1076
# 5 -56.9027 -14.8108 -19.9876 1.3414 72.3040 -0.7348
# 6 -39.1174 -18.7456 -10.7161 -4.1076 -0.7348 51.3068
#
#
#
# Elastic Compliance Matrix: (Units=1/GPa)
#
#
# Indices 1 2 3 4 5 6 
#
# 1 0.007795 -0.001055 -0.002909 -0.000191 0.005169 0.005009
# 2 -0.001055 0.010396 -0.004139 0.001339 0.000153 0.002239
# 3 -0.002909 -0.004139 0.015713 0.006250 0.001091 0.000068
# 4 -0.000191 0.001339 0.006250 0.026380 0.001401 0.003781
# 5 0.005169 0.000153 0.001091 0.001401 0.018252 0.004598
# 6 0.005009 0.002239 0.000068 0.003781 0.004598 0.024510
#
#
# Mechanical properties :
#
#
# Convention : Reuss Voigt Hill
#
# Bulk Modulus (GPa) = 56.50631 88.78532 72.64581
# Shear Modulus (GPa) = 39.95151 52.14306 46.04729
#
# Velocity S-wave (km/s) = 3.84844 4.39660 4.13162
# Velocity P-wave (km/s) = 6.37926 7.66076 7.04919
#
# Compressibility (1/GPa) = 0.01769714
#
# Stress axis : x y z
#
# Youngs Moduli (GPa) = 128.28664 96.18899 63.64350
#
# Poissons Ratio (x) = 0.10152 0.18513
# Poissons Ratio (y) = 0.13540 0.26342
# Poissons Ratio (z) = 0.37317 0.39813
#
# Static dielectric constant tensor:
#      x y z
#    x 2.193650 0.050560 -0.033480 
#    y 0.050560 2.125040 0.040640 
#    z -0.033480 0.040640 2.174120 
# 
# From -- ./inp_files/176876.got.cif
#   From: 2010.05.17/outbox.cif.g08.bks.cpg/sg2_89_cif.got.tgz:176876.got - 2010.06.03 11:33:40.
