data_PCOD9092083
_publ_section_title
;
Structure prediction by ZEFSAII (Michael W. Deem and Ramdas Pophale) SiO2 
 PCOD9092083
Probable space group: P -1
;
_chemical_formula_sum "Si O2"
_cell_formula_units_Z 16
_cell_length_a 9.473030
_cell_length_b 12.105884
_cell_length_c 9.418434
_cell_angle_alpha 46.377263
_cell_angle_beta 112.678573
_cell_angle_gamma 90.171395
_cell_volume 663.144433
_symmetry_space_group_name_H-M "P -1"
_symmetry_group_IT_number 2
_symmetry_cell_setting 'triclinic'
loop_
_space_group_symop_operation_xyz
x,y,z
-x,-y,-z
loop_
_atom_site_type_symbol
_atom_site_label
_atom_site_fract_x
_atom_site_fract_y
_atom_site_fract_z
Si Si1 0.746120 0.518467 0.597006
Si Si2 0.879491 0.923930 0.643741
Si Si3 0.277746 0.989076 0.046053
Si Si4 0.746287 0.208507 0.056316
Si Si5 0.595660 0.584430 0.171901
Si Si6 0.884109 0.698482 0.117651
Si Si7 0.340128 0.784891 0.521052
Si Si8 0.613275 0.853623 0.430314
O O1 0.732463 0.371519 0.816047
O O2 0.632194 0.561224 0.375836
O O3 0.692869 0.682427 0.526378
O O4 0.936137 0.449585 0.678103
O O5 0.797148 0.103634 0.523446
O O6 0.242226 0.094319 0.506475
O O7 0.874563 0.803184 0.878889
O O8 0.073561 0.861968 0.739322
O O9 0.150448 0.170442 0.882213
O O10 0.536668 0.021995 0.835544
O O11 0.257856 0.926051 0.940756
O O12 0.265482 0.852989 0.274292
O O13 0.587504 0.275021 0.037521
O O14 0.737281 0.634367 0.117764
O O15 0.610081 0.408489 0.275457
O O16 0.506183 0.825353 0.545734
#
# Coordination Sequence:
#
# PCOD9092083 Si02
#       8
#     2   2   2   2   2   2   2   2
#     4  11  20  38  62  89 115 162 198 244 286 356
#     4  10  23  39  63  90 115 158 200 246 285 354
#     4   9  19  38  60  89 114 159 195 246 284 353
#     4  11  20  36  64  91 116 151 209 243 286 343
#     4  12  20  40  58  95 120 154 190 252 307 341
#     4  10  25  34  58  94 126 147 192 253 305 341
#     4   9  19  35  66  82 113 157 201 239 283 351
#     4  10  19  40  66  83 115 159 211 229 287 356
#
# _framework density 24.127473999999999
#
# number of rings (size 3 to 8) (size 9 to 14) (size 15 to 20)
#    0.750    1.000    3.750    1.125    1.750    4.000 
#    0.000    0.625    0.000    1.500    0.000    0.000 
#    0.000    0.000    0.000    0.000    0.000    0.000 
#
# Total GULP energy -89633.279417 kJ/mol
# GULP energy per Si atom -5602.079964 kJ/mol
# Density = 2.407256 g / cm^3
# Si number density = 24.127474 Si / 1000 Ang^3
#
#
#
# Elastic Constant Matrix: (Units=GPa)
#
#
# Indices 1 2 3 4 5 6 
#
# 1 180.4588 39.4858 45.4675 -12.0907 40.3014 7.3732
# 2 39.4858 78.2797 23.7723 -3.4562 17.4343 0.1151
# 3 45.4675 23.7723 91.7271 5.2410 21.6974 -9.3968
# 4 -12.0907 -3.4562 5.2410 28.1291 -4.2820 5.4020
# 5 40.3014 17.4343 21.6974 -4.2820 46.0676 -4.3841
# 6 7.3732 0.1151 -9.3968 5.4020 -4.3841 31.9306
#
#
#
# Elastic Compliance Matrix: (Units=1/GPa)
#
#
# Indices 1 2 3 4 5 6 
#
# 1 0.008318 -0.001944 -0.003058 0.003928 -0.005134 -0.004183
# 2 -0.001944 0.015197 -0.002463 0.001234 -0.002865 -0.000933
# 3 -0.003058 -0.002463 0.014767 -0.005958 -0.003368 0.005606
# 4 0.003928 0.001234 -0.005958 0.040555 0.001789 -0.009280
# 5 -0.005134 -0.002865 -0.003368 0.001789 0.029410 0.003940
# 6 -0.004183 -0.000933 0.005606 -0.009280 0.003940 0.036048
#
#
# Mechanical properties :
#
#
# Convention : Reuss Voigt Hill
#
# Bulk Modulus (GPa) = 42.82274 63.10186 52.96230
# Shear Modulus (GPa) = 29.93829 37.34146 33.63987
#
# Velocity S-wave (km/s) = 3.52637 3.93832 3.73802
# Velocity P-wave (km/s) = 5.86238 6.84768 6.37410
#
# Compressibility (1/GPa) = 0.02335208
#
# Stress axis : x y z
#
# Youngs Moduli (GPa) = 120.22393 65.80133 67.71639
#
# Poissons Ratio (x) = 0.12793 0.20706
# Poissons Ratio (y) = 0.23373 0.16681
# Poissons Ratio (z) = 0.36761 0.16209
#
# Static dielectric constant tensor:
#      x y z
#    x 1.941130 0.007090 -0.066580 
#    y 0.007090 1.857450 0.036110 
#    z -0.066580 0.036110 1.958410 
# 
# From -- ./inp_files/506567.got.cif
#   From: 2010.05.17/outbox.cif.g08.bks.cpg/sg2_254_cif.got.tgz:506567.got - 2010.06.03 11:33:40.
