data_PCOD9092093
_publ_section_title
;
Structure prediction by ZEFSAII (Michael W. Deem and Ramdas Pophale) SiO2 
 PCOD9092093
Probable space group: P -1
;
_chemical_formula_sum "Si O2"
_cell_formula_units_Z 15
_cell_length_a 7.401068
_cell_length_b 22.408410
_cell_length_c 9.943526
_cell_angle_alpha 31.894112
_cell_angle_beta 45.751125
_cell_angle_gamma 54.661965
_cell_volume 623.697829
_symmetry_space_group_name_H-M "P -1"
_symmetry_group_IT_number 2
_symmetry_cell_setting 'triclinic'
loop_
_space_group_symop_operation_xyz
x,y,z
-x,-y,-z
loop_
_atom_site_type_symbol
_atom_site_label
_atom_site_fract_x
_atom_site_fract_y
_atom_site_fract_z
Si Si1 0.596720 0.599233 0.359232
Si Si2 0.500000 0.500000 0.000000
Si Si3 0.159675 0.678141 0.614592
Si Si4 0.136804 0.303762 0.525880
Si Si5 0.398449 0.802731 0.921966
Si Si6 0.262923 0.933904 0.000210
Si Si7 0.140015 0.651806 0.984544
Si Si8 0.539387 0.142535 0.521769
O O1 0.500000 0.500000 0.500000
O O2 0.394848 0.617279 0.545068
O O3 0.588079 0.714903 0.054580
O O4 0.877379 0.600388 0.268174
O O5 0.725067 0.592144 0.675338
O O6 0.391740 0.587245 0.010158
O O7 0.131863 0.629919 0.868918
O O8 0.941957 0.659758 0.653930
O O9 0.212769 0.813226 0.328991
O O10 0.322759 0.201076 0.608231
O O11 0.876810 0.262959 0.811175
O O12 0.356079 0.900581 0.866174
O O13 0.489200 0.838467 0.660228
O O14 0.478495 0.009291 0.819278
O O15 0.000000 0.000000 0.000000
O O16 0.203304 0.785293 0.717574
#
# Coordination Sequence:
#
# PCOD9092093 Si02
#       8
#     2   1   2   2   2   2   2   2
#     4  10  22  40  61  87 119 158 200 241 294 357
#     4  10  22  38  60  88 120 156 198 246 298 346
#     4  10  22  40  62  87 121 158 200 242 293 360
#     4   9  19  38  59  89 118 153 202 245 293 348
#     4  10  21  37  64  88 117 153 205 244 291 355
#     4  10  19  40  66  88 113 155 204 246 296 352
#     4  11  24  39  58  88 127 155 197 244 299 354
#     4  11  21  37  60  91 118 154 195 251 296 347
#
# _framework density 24.05011
#
# number of rings (size 3 to 8) (size 9 to 14) (size 15 to 20)
#    0.000    2.133    2.667    2.800    0.000    6.933 
#    0.000    6.667    0.000    0.000    0.000    0.000 
#    0.000    0.000    0.000    0.000    0.000    0.000 
#
# Total GULP energy -83622.676012 kJ/mol
# GULP energy per Si atom -5574.845067 kJ/mol
# Density = 2.399537 g / cm^3
# Si number density = 24.050110 Si / 1000 Ang^3
#
#
#
# Elastic Constant Matrix: (Units=GPa)
#
#
# Indices 1 2 3 4 5 6 
#
# 1 57.9923 16.1988 31.7193 -4.0275 -17.5291 -0.8921
# 2 16.1988 108.9870 44.3400 -16.8175 -12.3529 -8.5913
# 3 31.7193 44.3400 82.2901 -16.1601 -32.3646 4.9795
# 4 -4.0275 -16.8175 -16.1601 39.6996 14.2889 -7.7081
# 5 -17.5291 -12.3529 -32.3646 14.2889 60.7983 4.9675
# 6 -0.8921 -8.5913 4.9795 -7.7081 4.9675 34.5565
#
#
#
# Elastic Compliance Matrix: (Units=1/GPa)
#
#
# Indices 1 2 3 4 5 6 
#
# 1 0.022267 0.000062 -0.008038 -0.001676 0.002464 0.001020
# 2 0.000062 0.013149 -0.007728 0.004644 -0.002994 0.005851
# 3 -0.008038 -0.007728 0.023523 0.000990 0.008940 -0.006583
# 4 -0.001676 0.004644 0.000990 0.031752 -0.007217 0.009089
# 5 0.002464 -0.002994 0.008940 -0.007217 0.023574 -0.006968
# 6 0.001020 0.005851 -0.006583 0.009089 -0.006968 0.034396
#
#
# Mechanical properties :
#
#
# Convention : Reuss Voigt Hill
#
# Bulk Modulus (GPa) = 36.32380 48.19840 42.26110
# Shear Modulus (GPa) = 26.42041 37.47828 31.94934
#
# Velocity S-wave (km/s) = 3.31804 3.95187 3.64874
# Velocity P-wave (km/s) = 5.46035 6.39588 5.94654
#
# Compressibility (1/GPa) = 0.02753016
#
# Stress axis : x y z
#
# Youngs Moduli (GPa) = 44.90962 76.05221 42.51083
#
# Poissons Ratio (x) = -0.00470 0.34170
# Poissons Ratio (y) = -0.00277 0.32854
# Poissons Ratio (z) = 0.36098 0.58776
#
# Static dielectric constant tensor:
#      x y z
#    x 1.725540 0.150380 0.130150 
#    y 0.150380 1.822320 -0.111660 
#    z 0.130150 -0.111660 1.926190 
# 
# From -- ./inp_files/267613.got.cif
#   From: 2010.05.17/outbox.cif.g08.bks.cpg/sg2_134_cif.got.tgz:267613.got - 2010.06.03 11:33:40.
