data_PCOD9092541
_publ_section_title
;
Structure prediction by ZEFSAII (Michael W. Deem and Ramdas Pophale) SiO2 
 PCOD9092541
Probable space group: P -1
;
_chemical_formula_sum "Si O2"
_cell_formula_units_Z 16
_cell_length_a 8.279852
_cell_length_b 9.334132
_cell_length_c 20.039967
_cell_angle_alpha 139.581135
_cell_angle_beta 61.781540
_cell_angle_gamma 130.600844
_cell_volume 761.639053
_symmetry_space_group_name_H-M "P -1"
_symmetry_group_IT_number 2
_symmetry_cell_setting 'triclinic'
loop_
_space_group_symop_operation_xyz
x,y,z
-x,-y,-z
loop_
_atom_site_type_symbol
_atom_site_label
_atom_site_fract_x
_atom_site_fract_y
_atom_site_fract_z
Si Si1 0.700372 0.129388 0.456652
Si Si2 0.725727 0.365796 0.091494
Si Si3 0.897508 0.946121 0.245423
Si Si4 0.727565 0.903046 0.975261
Si Si5 0.263409 0.514424 0.721506
Si Si6 0.315291 0.374400 0.393051
Si Si7 0.031307 0.061672 0.438931
Si Si8 0.916080 0.139991 0.162758
O O1 0.709697 0.378170 0.513137
O O2 0.500000 0.000000 0.500000
O O3 0.723972 0.962829 0.333683
O O4 0.901626 0.196382 0.488102
O O5 0.870765 0.664291 0.151536
O O6 0.523624 0.242789 0.038975
O O7 0.643003 0.353504 0.179040
O O8 0.820316 0.177401 0.015151
O O9 0.870535 0.016885 0.200688
O O10 0.127661 0.162779 0.306520
O O11 0.839580 0.761921 0.869609
O O12 0.788315 0.951927 0.058633
O O13 0.454014 0.539534 0.649213
O O14 0.089689 0.222607 0.668897
O O15 0.146837 0.643398 0.753435
O O16 0.264179 0.233461 0.424491
O O17 0.000000 0.000000 0.500000
#
# Coordination Sequence:
#
# PCOD9092541 Si02
#       8
#     2   2   2   2   2   2   2   2
#     4  11  22  42  64  90 128 171 209 254 309 369
#     4  10  19  41  68  89 121 163 213 251 317 381
#     4  11  22  38  63  97 119 162 216 257 301 381
#     4   9  21  42  64  87 123 169 194 267 328 368
#     4  11  22  42  61  90 130 166 213 252 309 379
#     4  11  23  42  64  89 130 171 211 254 307 370
#     4  11  24  39  60  94 125 169 210 261 313 364
#     4  10  23  39  60  92 126 161 205 262 321 369
#
# _framework density 21.007325000000002
#
# number of rings (size 3 to 8) (size 9 to 14) (size 15 to 20)
#    0.000    1.500    3.750    2.250    3.500    2.500 
#    2.250    0.000    0.000    0.000    0.000    0.000 
#    0.000    0.000    0.000    0.000    0.000    0.000 
#
# Total GULP energy -89294.123304 kJ/mol
# GULP energy per Si atom -5580.882706 kJ/mol
# Density = 2.095951 g / cm^3
# Si number density = 21.007325 Si / 1000 Ang^3
#
#
#
# Elastic Constant Matrix: (Units=GPa)
#
#
# Indices 1 2 3 4 5 6 
#
# 1 59.3934 15.9600 19.7853 -4.7241 -7.1285 -22.6497
# 2 15.9600 104.5599 17.6620 1.6062 -3.2121 -23.1959
# 3 19.7853 17.6620 49.7340 10.5704 -9.6181 -12.6417
# 4 -4.7241 1.6062 10.5704 38.8500 -6.3862 4.5595
# 5 -7.1285 -3.2121 -9.6181 -6.3862 38.6270 -0.8172
# 6 -22.6497 -23.1959 -12.6417 4.5595 -0.8172 31.3056
#
#
#
# Elastic Compliance Matrix: (Units=1/GPa)
#
#
# Indices 1 2 3 4 5 6 
#
# 1 0.025708 0.000822 -0.006353 0.003602 0.004169 0.016227
# 2 0.000822 0.011716 -0.002018 -0.000731 0.000684 0.008585
# 3 -0.006353 -0.002018 0.027539 -0.008220 0.004292 0.006338
# 4 0.003602 -0.000731 -0.008220 0.029638 0.003341 -0.005484
# 5 0.004169 0.000684 0.004292 0.003341 0.028453 0.005513
# 6 0.016227 0.008585 0.006338 -0.005484 0.005513 0.053547
#
#
# Mechanical properties :
#
#
# Convention : Reuss Voigt Hill
#
# Bulk Modulus (GPa) = 20.05440 35.61133 27.83287
# Shear Modulus (GPa) = 24.00145 32.44185 28.22165
#
# Velocity S-wave (km/s) = 3.38380 3.93404 3.66925
# Velocity P-wave (km/s) = 4.98336 6.13386 5.58829
#
# Compressibility (1/GPa) = 0.04986436
#
# Stress axis : x y z
#
# Youngs Moduli (GPa) = 38.89891 85.35268 36.31165
#
# Poissons Ratio (x) = -0.07015 0.23070
# Poissons Ratio (y) = -0.03197 0.07327
# Poissons Ratio (z) = 0.24714 0.17223
#
# Static dielectric constant tensor:
#      x y z
#    x 1.789070 0.001480 0.044660 
#    y 0.001480 1.761210 -0.007190 
#    z 0.044660 -0.007190 1.829950 
# 
# From -- ./inp_files/215726.got.cif
#   From: 2010.05.17/outbox.cif.g08.bks.cpg/sg2_108_cif.got.tgz:215726.got - 2010.06.03 11:33:40.
