data_PCOD9092733
_publ_section_title
;
Structure prediction by ZEFSAII (Michael W. Deem and Ramdas Pophale) SiO2 
 PCOD9092733
Probable space group: P -1
;
_chemical_formula_sum "Si O2"
_cell_formula_units_Z 14
_cell_length_a 17.541188
_cell_length_b 9.455869
_cell_length_c 21.266710
_cell_angle_alpha 139.673119
_cell_angle_beta 162.349545
_cell_angle_gamma 49.443183
_cell_volume 637.727165
_symmetry_space_group_name_H-M "P -1"
_symmetry_group_IT_number 2
_symmetry_cell_setting 'triclinic'
loop_
_space_group_symop_operation_xyz
x,y,z
-x,-y,-z
loop_
_atom_site_type_symbol
_atom_site_label
_atom_site_fract_x
_atom_site_fract_y
_atom_site_fract_z
Si Si1 0.011161 0.822412 0.274700
Si Si2 0.983754 0.503742 0.240739
Si Si3 0.813048 0.230357 0.271730
Si Si4 0.666475 0.982198 0.844450
Si Si5 0.314589 0.325688 0.350454
Si Si6 0.243843 0.911137 0.676158
Si Si7 0.781970 0.595989 0.887821
O O1 0.858311 0.674231 0.165923
O O2 0.338263 0.892590 0.558872
O O3 0.972532 0.065923 0.322804
O O4 0.866588 0.668994 0.049415
O O5 0.089828 0.412002 0.230405
O O6 0.207518 0.693895 0.526108
O O7 0.803533 0.266248 0.055239
O O8 0.764867 0.189047 0.294538
O O9 0.000000 0.500000 0.500000
O O10 0.535329 0.130602 0.978641
O O11 0.752382 0.918235 0.821109
O O12 0.766301 0.826847 0.918341
O O13 0.500000 0.500000 0.500000
O O14 0.502193 0.375970 0.576830
O O15 0.000000 0.000000 0.500000
O O16 0.000000 0.500000 0.000000
#
# Coordination Sequence:
#
# PCOD9092733 Si02
#       7
#     2   2   2   2   2   2   2
#     4  12  24  44  68 101 137 181 227 285 346 405
#     4  12  24  44  71  96 142 181 223 288 347 406
#     4  11  28  46  75 103 137 181 236 289 347 421
#     4  11  25  42  69 101 135 184 231 274 349 417
#     4  10  19  42  66  94 137 178 222 275 338 402
#     4  11  26  49  68 105 141 178 232 292 353 409
#     4  11  21  41  67  95 138 178 224 282 333 404
#
# _framework density 21.952963
#
# number of rings (size 3 to 8) (size 9 to 14) (size 15 to 20)
#    0.000    0.857    5.714    2.143    4.000    0.571 
#    2.571    1.429    0.000    0.000    0.000    0.000 
#    0.000    0.000    0.000    0.000    0.000    0.000 
#
# Total GULP energy -78066.715738 kJ/mol
# GULP energy per Si atom -5576.193981 kJ/mol
# Density = 2.190300 g / cm^3
# Si number density = 21.952963 Si / 1000 Ang^3
#
#
#
# Elastic Constant Matrix: (Units=GPa)
#
#
# Indices 1 2 3 4 5 6 
#
# 1 71.7399 13.0873 31.9298 3.1170 -30.7195 -0.8585
# 2 13.0873 117.2457 69.5276 -5.6791 -3.8097 1.1248
# 3 31.9298 69.5276 135.4182 14.4333 -25.3748 19.0292
# 4 3.1170 -5.6791 14.4333 43.1690 -4.7090 -3.1393
# 5 -30.7195 -3.8097 -25.3748 -4.7090 41.9292 -0.1080
# 6 -0.8585 1.1248 19.0292 -3.1393 -0.1080 31.0720
#
#
#
# Elastic Compliance Matrix: (Units=1/GPa)
#
#
# Indices 1 2 3 4 5 6 
#
# 1 0.021146 -0.000309 -0.002648 0.001015 0.013982 0.002368
# 2 -0.000309 0.014083 -0.009212 0.004932 -0.003954 0.005608
# 3 -0.002648 -0.009212 0.016010 -0.006441 0.006162 -0.010174
# 4 0.001015 0.004932 -0.006441 0.026394 0.000275 0.006462
# 5 0.013982 -0.003954 0.006162 0.000275 0.037486 -0.003086
# 6 0.002368 0.005608 -0.010174 0.006462 -0.003086 0.038919
#
#
# Mechanical properties :
#
#
# Convention : Reuss Voigt Hill
#
# Bulk Modulus (GPa) = 37.17625 61.49923 49.33774
# Shear Modulus (GPa) = 26.68908 37.22465 31.95687
#
# Velocity S-wave (km/s) = 3.49053 4.12230 3.81950
# Velocity P-wave (km/s) = 5.76336 7.12269 6.47877
#
# Compressibility (1/GPa) = 0.02689889
#
# Stress axis : x y z
#
# Youngs Moduli (GPa) = 47.29120 71.00647 62.46250
#
# Poissons Ratio (x) = 0.02195 0.16542
# Poissons Ratio (y) = 0.01462 0.57543
# Poissons Ratio (z) = 0.12524 0.65414
#
# Static dielectric constant tensor:
#      x y z
#    x 1.788140 -0.094620 0.130550 
#    y -0.094620 1.911750 0.071780 
#    z 0.130550 0.071780 1.671750 
# 
# From -- ./inp_files/599647.got.cif
#   From: 2010.05.17/outbox.cif.g08.bks.cpg/sg2_300_cif.got.tgz:599647.got - 2010.06.03 11:33:40.
