data_PCOD9092760
_publ_section_title
;
Structure prediction by ZEFSAII (Michael W. Deem and Ramdas Pophale) SiO2 
 PCOD9092760
Probable space group: P -1
;
_chemical_formula_sum "Si O2"
_cell_formula_units_Z 14
_cell_length_a 14.888052
_cell_length_b 7.307632
_cell_length_c 14.579685
_cell_angle_alpha 124.914164
_cell_angle_beta 27.928169
_cell_angle_gamma 132.157411
_cell_volume 549.759606
_symmetry_space_group_name_H-M "P -1"
_symmetry_group_IT_number 2
_symmetry_cell_setting 'triclinic'
loop_
_space_group_symop_operation_xyz
x,y,z
-x,-y,-z
loop_
_atom_site_type_symbol
_atom_site_label
_atom_site_fract_x
_atom_site_fract_y
_atom_site_fract_z
Si Si1 0.305769 0.744415 0.873664
Si Si2 0.426904 0.582357 0.255774
Si Si3 0.992237 0.003999 0.728716
Si Si4 0.377445 0.013880 0.498701
Si Si5 0.721453 0.937790 0.684211
Si Si6 0.208174 0.555357 0.266876
Si Si7 0.770400 0.778849 0.151038
O O1 0.509689 0.844686 0.786058
O O2 0.215967 0.450680 0.876430
O O3 0.402985 0.846747 0.715204
O O4 0.135164 0.838560 0.087260
O O5 0.310233 0.722528 0.458540
O O6 0.321830 0.285863 0.272226
O O7 0.649743 0.680866 0.135968
O O8 0.843978 0.715016 0.798504
O O9 0.087305 0.039478 0.549826
O O10 0.199612 0.071805 0.623344
O O11 0.399394 0.642269 0.192940
O O12 0.372463 0.120349 0.633093
O O13 0.760073 0.212980 0.759731
O O14 0.000000 0.500000 0.500000
O O15 0.000000 0.000000 0.000000
#
# Coordination Sequence:
#
# PCOD9092760 Si02
#       7
#     2   2   2   2   2   2   2
#     4  10  22  45  67  97 135 181 228 276 342 403
#     4  11  22  44  70  96 142 174 223 284 340 397
#     4  10  22  40  71  99 133 177 230 273 331 416
#     4  11  23  45  68  97 137 182 221 281 343 397
#     4   9  21  40  65  98 136 177 221 277 339 396
#     4  10  19  42  68 103 133 178 224 274 340 407
#     4  11  27  44  67 101 135 179 232 282 340 401
#
# _framework density 25.465675000000001
#
# number of rings (size 3 to 8) (size 9 to 14) (size 15 to 20)
#    0.000    1.714    4.286    0.857    4.000    3.429 
#    2.571    2.857    0.000    0.000    0.000    0.000 
#    0.000    0.000    0.000    0.000    0.000    0.000 
#
# Total GULP energy -78386.321413 kJ/mol
# GULP energy per Si atom -5599.022958 kJ/mol
# Density = 2.540771 g / cm^3
# Si number density = 25.465675 Si / 1000 Ang^3
#
#
#
# Elastic Constant Matrix: (Units=GPa)
#
#
# Indices 1 2 3 4 5 6 
#
# 1 65.5443 20.5963 24.2308 -5.8435 -9.8878 -3.4266
# 2 20.5963 200.3393 44.8873 19.3587 -16.1006 -36.8376
# 3 24.2308 44.8873 144.4831 24.6723 -21.0252 -10.6218
# 4 -5.8435 19.3587 24.6723 37.9361 3.1701 -14.3980
# 5 -9.8878 -16.1006 -21.0252 3.1701 32.6436 1.2764
# 6 -3.4266 -36.8376 -10.6218 -14.3980 1.2764 44.7670
#
#
#
# Elastic Compliance Matrix: (Units=1/GPa)
#
#
# Indices 1 2 3 4 5 6 
#
# 1 0.017722 -0.001249 -0.003163 0.005770 0.002101 0.001374
# 2 -0.001249 0.006460 -0.000917 -0.001366 0.002174 0.004501
# 3 -0.003163 -0.000917 0.009699 -0.007244 0.005587 -0.001184
# 4 0.005770 -0.001366 -0.007244 0.036972 -0.007561 0.009706
# 5 0.002101 0.002174 0.005587 -0.007561 0.036683 -0.000203
# 6 0.001374 0.004501 -0.001184 0.009706 -0.000203 0.028993
#
#
# Mechanical properties :
#
#
# Convention : Reuss Voigt Hill
#
# Bulk Modulus (GPa) = 43.06042 65.53285 54.29663
# Shear Modulus (GPa) = 32.27303 44.44618 38.35961
#
# Velocity S-wave (km/s) = 3.56380 4.18226 3.88535
# Velocity P-wave (km/s) = 5.82066 7.00795 6.44172
#
# Compressibility (1/GPa) = 0.02322318
#
# Stress axis : x y z
#
# Youngs Moduli (GPa) = 56.42775 154.80497 103.10000
#
# Poissons Ratio (x) = 0.19342 0.32605
# Poissons Ratio (y) = 0.07050 0.09453
# Poissons Ratio (z) = 0.17845 0.14194
#
# Static dielectric constant tensor:
#      x y z
#    x 2.061220 -0.000950 0.002240 
#    y -0.000950 1.990720 -0.003230 
#    z 0.002240 -0.003230 2.010590 
# 
# From -- ./inp_files/577466.got.cif
#   From: 2010.05.17/outbox.cif.g08.bks.cpg/sg2_289_cif.got.tgz:577466.got - 2010.06.03 11:33:40.
