data_PCOD9092382
_publ_section_title
;
Structure prediction by ZEFSAII (Michael W. Deem and Ramdas Pophale) SiO2 
 PCOD9092382
Probable space group: P -1
;
_chemical_formula_sum "Si O2"
_cell_formula_units_Z 15
_cell_length_a 11.456407
_cell_length_b 10.733744
_cell_length_c 6.649758
_cell_angle_alpha 65.007960
_cell_angle_beta 67.726642
_cell_angle_gamma 94.763833
_cell_volume 656.393873
_symmetry_space_group_name_H-M "P -1"
_symmetry_group_IT_number 2
_symmetry_cell_setting 'triclinic'
loop_
_space_group_symop_operation_xyz
x,y,z
-x,-y,-z
loop_
_atom_site_type_symbol
_atom_site_label
_atom_site_fract_x
_atom_site_fract_y
_atom_site_fract_z
Si Si1 0.337117 0.698405 0.173678
Si Si2 0.021423 0.732005 0.716097
Si Si3 0.880938 0.421481 0.910611
Si Si4 0.690883 0.064992 0.708956
Si Si5 0.653631 0.472013 0.315754
Si Si6 0.560194 0.715751 0.682959
Si Si7 0.500000 0.000000 0.500000
Si Si8 0.745840 0.767250 0.868061
O O1 0.198185 0.646967 0.186543
O O2 0.364170 0.861634 0.121454
O O3 0.339688 0.597057 0.427258
O O4 0.449652 0.697225 0.942846
O O5 0.159855 0.835567 0.486893
O O6 0.973439 0.583841 0.721277
O O7 0.902756 0.802294 0.738401
O O8 0.040698 0.675945 0.966046
O O9 0.766430 0.431905 0.135711
O O10 0.608010 0.069955 0.559617
O O11 0.696518 0.904439 0.848897
O O12 0.512112 0.399745 0.354959
O O13 0.691270 0.642476 0.150881
O O14 0.686915 0.703744 0.730844
O O15 0.577539 0.876788 0.488777
#
# Coordination Sequence:
#
# PCOD9092382 Si02
#       8
#     2   2   2   2   2   2   1   2
#     4  11  21  38  71  90 119 155 215 258 295 358
#     4  10  19  41  62  88 127 163 203 251 301 367
#     4   9  20  37  67  94 114 162 214 251 297 358
#     4  11  21  39  63  95 118 164 204 252 309 361
#     4  10  19  41  63  91 121 160 206 260 299 354
#     4  10  21  39  63  95 120 160 206 252 308 357
#     4  10  20  38  64  90 118 152 206 250 298 352
#     4  10  23  36  61  87 131 165 199 244 313 367
#
# _framework density 22.852131
#
# number of rings (size 3 to 8) (size 9 to 14) (size 15 to 20)
#    0.000    1.867    2.667    1.600    0.000    3.200 
#    0.000    0.667   17.600    0.000    0.000    0.000 
#    0.000    0.000    0.000    0.000    0.000    0.000 
#
# Total GULP energy -83723.998899 kJ/mol
# GULP energy per Si atom -5581.599927 kJ/mol
# Density = 2.280012 g / cm^3
# Si number density = 22.852131 Si / 1000 Ang^3
#
#
#
# Elastic Constant Matrix: (Units=GPa)
#
#
# Indices 1 2 3 4 5 6 
#
# 1 158.5684 31.0530 36.0922 11.0289 22.0949 16.3510
# 2 31.0530 69.6803 23.2078 -6.8138 20.0340 25.1261
# 3 36.0922 23.2078 36.1221 2.2261 2.4986 4.8211
# 4 11.0289 -6.8138 2.2261 26.0680 -3.2350 6.9644
# 5 22.0949 20.0340 2.4986 -3.2350 30.6508 -1.8345
# 6 16.3510 25.1261 4.8211 6.9644 -1.8345 41.9796
#
#
#
# Elastic Compliance Matrix: (Units=1/GPa)
#
#
# Indices 1 2 3 4 5 6 
#
# 1 0.009968 0.002909 -0.010484 -0.002475 -0.008756 -0.004392
# 2 0.002909 0.038645 -0.023520 0.014422 -0.025417 -0.025065
# 3 -0.010484 -0.023520 0.050503 -0.007539 0.018883 0.014437
# 4 -0.002475 0.014422 -0.007539 0.047414 -0.002909 -0.014795
# 5 -0.008756 -0.025417 0.018883 -0.002909 0.054862 0.019335
# 6 -0.004392 -0.025065 0.014437 -0.014795 0.019335 0.042175
#
#
# Mechanical properties :
#
#
# Convention : Reuss Voigt Hill
#
# Bulk Modulus (GPa) = 27.08285 49.45296 38.26790
# Shear Modulus (GPa) = 15.71999 31.34084 23.53041
#
# Velocity S-wave (km/s) = 2.62563 3.70734 3.21235
# Velocity P-wave (km/s) = 4.59010 6.32560 5.52640
#
# Compressibility (1/GPa) = 0.03692374
#
# Stress axis : x y z
#
# Youngs Moduli (GPa) = 100.31782 25.87664 19.80094
#
# Poissons Ratio (x) = -0.07527 0.20760
# Poissons Ratio (y) = -0.29179 0.46572
# Poissons Ratio (z) = 1.05178 0.60862
#
# Static dielectric constant tensor:
#      x y z
#    x 1.837810 -0.005730 -0.012530 
#    y -0.005730 1.891930 0.004840 
#    z -0.012530 0.004840 1.899190 
# 
# From -- ./inp_files/65534.got.cif
#   From: 2010.05.17/outbox.cif.g08.bks.cpg/sg2_33_cif.got.tgz:65534.got - 2010.06.03 11:33:40.
