data_PCOD9092270
_publ_section_title
;
Structure prediction by ZEFSAII (Michael W. Deem and Ramdas Pophale) SiO2 
 PCOD9092270
Probable space group: P -1
;
_chemical_formula_sum "Si O2"
_cell_formula_units_Z 16
_cell_length_a 14.060751
_cell_length_b 8.106527
_cell_length_c 7.525997
_cell_angle_alpha 104.617971
_cell_angle_beta 89.305372
_cell_angle_gamma 56.220156
_cell_volume 677.434152
_symmetry_space_group_name_H-M "P -1"
_symmetry_group_IT_number 2
_symmetry_cell_setting 'triclinic'
loop_
_space_group_symop_operation_xyz
x,y,z
-x,-y,-z
loop_
_atom_site_type_symbol
_atom_site_label
_atom_site_fract_x
_atom_site_fract_y
_atom_site_fract_z
Si Si1 0.204560 0.676211 0.838476
Si Si2 0.791282 0.805740 0.443197
Si Si3 0.131699 0.894165 0.538235
Si Si4 0.518206 0.180024 0.003936
Si Si5 0.399359 0.208967 0.661532
Si Si6 0.285512 0.525816 0.174787
Si Si7 0.012637 0.599483 0.850611
Si Si8 0.753942 0.824355 0.848171
O O1 0.155576 0.852861 0.737490
O O2 0.304785 0.454664 0.679411
O O3 0.090620 0.683794 0.895143
O O4 0.257047 0.654980 0.027674
O O5 0.695913 0.842379 0.311008
O O6 0.912668 0.585186 0.343383
O O7 0.735839 0.813029 0.635112
O O8 0.820382 0.972338 0.482276
O O9 0.208668 0.676772 0.374146
O O10 0.000000 0.000000 0.500000
O O11 0.470990 0.231557 0.818895
O O12 0.655429 0.056187 0.980699
O O13 0.424725 0.386265 0.169980
O O14 0.500000 0.000000 0.000000
O O15 0.500000 0.000000 0.500000
O O16 0.255186 0.354323 0.111551
O O17 0.881683 0.769041 0.843042
O O18 0.000000 0.500000 0.000000
#
# Coordination Sequence:
#
# PCOD9092270 Si02
#       8
#     2   2   2   2   2   2   2   2
#     4  10  23  42  66  93 129 174 212 269 329 378
#     4  11  24  39  62 100 126 168 221 262 326 390
#     4  12  26  44  62  93 141 182 210 254 326 405
#     4   9  20  34  65  97 118 161 210 269 332 369
#     4  10  19  40  69  92 123 158 218 278 318 369
#     4  10  21  42  65  93 126 172 216 264 327 382
#     4  11  21  38  63  97 125 155 221 283 316 370
#     4  11  19  39  68  93 124 162 220 277 321 373
#
# _framework density 23.618531999999998
#
# number of rings (size 3 to 8) (size 9 to 14) (size 15 to 20)
#    0.000    1.500    2.500    3.375    3.500    0.500 
#    2.250    1.250    0.000    0.000    0.000    0.000 
#    0.000    0.000    0.000    0.000    0.000    0.000 
#
# Total GULP energy -89261.962363 kJ/mol
# GULP energy per Si atom -5578.872648 kJ/mol
# Density = 2.356478 g / cm^3
# Si number density = 23.618532 Si / 1000 Ang^3
#
#
#
# Elastic Constant Matrix: (Units=GPa)
#
#
# Indices 1 2 3 4 5 6 
#
# 1 70.5272 46.6194 0.5185 15.2960 -16.9034 -25.6255
# 2 46.6194 90.9503 28.7770 -3.8081 -17.7973 -34.4118
# 3 0.5185 28.7770 74.2025 -3.1623 -20.4117 -15.9144
# 4 15.2960 -3.8081 -3.1623 46.6867 -11.0465 -20.9107
# 5 -16.9034 -17.7973 -20.4117 -11.0465 25.3564 12.0465
# 6 -25.6255 -34.4118 -15.9144 -20.9107 12.0465 46.1746
#
#
#
# Elastic Compliance Matrix: (Units=1/GPa)
#
#
# Indices 1 2 3 4 5 6 
#
# 1 0.029015 -0.014693 0.009231 -0.006046 0.012748 0.002270
# 2 -0.014693 0.027974 -0.005373 0.015172 0.004234 0.016608
# 3 0.009231 -0.005373 0.022578 0.005587 0.020046 0.006201
# 4 -0.006046 0.015172 0.005587 0.039527 0.017281 0.023269
# 5 0.012748 0.004234 0.020046 0.017281 0.071585 0.006289
# 6 0.002270 0.016608 0.006201 0.023269 0.006289 0.046328
#
#
# Mechanical properties :
#
#
# Convention : Reuss Voigt Hill
#
# Bulk Modulus (GPa) = 17.27173 43.05664 30.16419
# Shear Modulus (GPa) = 17.98720 34.29456 26.14088
#
# Velocity S-wave (km/s) = 2.76265 3.81467 3.33046
# Velocity P-wave (km/s) = 4.18390 6.13774 5.25247
#
# Compressibility (1/GPa) = 0.05789807
#
# Stress axis : x y z
#
# Youngs Moduli (GPa) = 34.46520 35.74768 44.29057
#
# Poissons Ratio (x) = 0.52524 -0.40886
# Poissons Ratio (y) = 0.50639 0.23797
# Poissons Ratio (z) = -0.31816 0.19207
#
# Static dielectric constant tensor:
#      x y z
#    x 2.000760 0.008350 0.075590 
#    y 0.008350 1.975990 -0.008440 
#    z 0.075590 -0.008440 1.963400 
# 
# From -- ./inp_files/298814.got.cif
#   From: 2010.05.17/outbox.cif.g08.bks.cpg/sg2_150_cif.got.tgz:298814.got - 2010.06.03 11:33:40.
