data_PCOD9092703
_publ_section_title
;
Structure prediction by ZEFSAII (Michael W. Deem and Ramdas Pophale) SiO2 
 PCOD9092703
Probable space group: P -1
;
_chemical_formula_sum "Si O2"
_cell_formula_units_Z 16
_cell_length_a 15.136977
_cell_length_b 7.880194
_cell_length_c 9.275768
_cell_angle_alpha 53.678267
_cell_angle_beta 96.366427
_cell_angle_gamma 63.796789
_cell_volume 685.532503
_symmetry_space_group_name_H-M "P -1"
_symmetry_group_IT_number 2
_symmetry_cell_setting 'triclinic'
loop_
_space_group_symop_operation_xyz
x,y,z
-x,-y,-z
loop_
_atom_site_type_symbol
_atom_site_label
_atom_site_fract_x
_atom_site_fract_y
_atom_site_fract_z
Si Si1 0.337442 0.297643 0.822990
Si Si2 0.284331 0.875981 0.065821
Si Si3 0.511143 0.957798 0.271792
Si Si4 0.328320 0.894095 0.385779
Si Si5 0.105447 0.698510 0.715219
Si Si6 0.900815 0.508824 0.898265
Si Si7 0.507408 0.376521 0.216131
Si Si8 0.040674 0.351848 0.735283
O O1 0.222516 0.581692 0.714596
O O2 0.379650 0.283794 0.677094
O O3 0.434585 0.182160 0.019620
O O4 0.316539 0.072670 0.936123
O O5 0.287381 0.849227 0.252864
O O6 0.382959 0.585202 0.161747
O O7 0.155335 0.040051 0.903422
O O8 0.539874 0.087571 0.330260
O O9 0.429731 0.899648 0.348094
O O10 0.395520 0.674980 0.635064
O O11 0.217366 0.182680 0.280494
O O12 0.079378 0.504765 0.748773
O O13 0.118613 0.653576 0.911991
O O14 0.000000 0.000000 0.500000
O O15 0.945668 0.394209 0.803133
O O16 0.000000 0.500000 0.000000
O O17 0.500000 0.500000 0.000000
O O18 0.000000 0.500000 0.500000
#
# Coordination Sequence:
#
# PCOD9092703 Si02
#       8
#     2   2   2   2   2   2   2   2
#     4   9  18  38  63  83 127 164 193 245 315 367
#     4  10  20  42  59  89 128 159 207 252 304 376
#     4  10  20  39  61  88 123 167 196 247 312 368
#     4  11  22  42  65  83 127 173 201 249 319 379
#     4  10  20  39  64  91 118 159 215 254 297 374
#     4  10  19  42  65  86 118 167 211 246 309 379
#     4  12  25  37  61  98 125 154 214 263 301 360
#     4  10  22  39  65  90 124 165 203 257 318 358
#
# _framework density 23.339521000000001
#
# number of rings (size 3 to 8) (size 9 to 14) (size 15 to 20)
#    0.000    1.750    6.250    0.750    1.750    1.000 
#    4.500    0.625    0.000    0.000    0.000    0.000 
#    0.000    0.000    0.000    0.000    0.000    0.000 
#
# Total GULP energy -89424.698377 kJ/mol
# GULP energy per Si atom -5589.043649 kJ/mol
# Density = 2.328640 g / cm^3
# Si number density = 23.339521 Si / 1000 Ang^3
#
#
#
# Elastic Constant Matrix: (Units=GPa)
#
#
# Indices 1 2 3 4 5 6 
#
# 1 57.8040 48.5157 21.6777 2.8831 -0.3457 -26.0587
# 2 48.5157 142.0845 71.0626 4.4552 18.0639 -48.8156
# 3 21.6777 71.0626 152.1811 8.6866 13.2939 -36.4109
# 4 2.8831 4.4552 8.6866 39.2404 2.0719 6.2365
# 5 -0.3457 18.0639 13.2939 2.0719 15.0351 -8.7726
# 6 -26.0587 -48.8156 -36.4109 6.2365 -8.7726 53.0605
#
#
#
# Elastic Compliance Matrix: (Units=1/GPa)
#
#
# Indices 1 2 3 4 5 6 
#
# 1 0.029464 -0.009289 0.001282 -0.003903 0.017132 0.010095
# 2 -0.009289 0.015314 -0.003487 -0.000439 -0.012480 0.005122
# 3 0.001282 -0.003487 0.009162 -0.002248 -0.001388 0.003744
# 4 -0.003903 -0.000439 -0.002248 0.027944 -0.006193 -0.008172
# 5 0.017132 -0.012480 -0.001388 -0.006193 0.090820 0.011723
# 6 0.010095 0.005122 0.003744 -0.008172 0.011723 0.033984
#
#
# Mechanical properties :
#
#
# Convention : Reuss Voigt Hill
#
# Bulk Modulus (GPa) = 32.30821 70.50905 51.40863
# Shear Modulus (GPa) = 20.83386 35.52145 28.17765
#
# Velocity S-wave (km/s) = 2.99095 3.90544 3.47838
# Velocity P-wave (km/s) = 5.07942 7.11424 6.18114
#
# Compressibility (1/GPa) = 0.03095188
#
# Stress axis : x y z
#
# Youngs Moduli (GPa) = 33.94011 65.29822 109.14613
#
# Poissons Ratio (x) = 0.60657 -0.13995
# Poissons Ratio (y) = 0.31528 0.38060
# Poissons Ratio (z) = -0.04352 0.22770
#
# Static dielectric constant tensor:
#      x y z
#    x 2.016620 -0.098460 0.071420 
#    y -0.098460 2.033820 -0.175060 
#    z 0.071420 -0.175060 2.174370 
# 
# From -- ./inp_files/272526.got.cif
#   From: 2010.05.17/outbox.cif.g08.bks.cpg/sg2_137_cif.got.tgz:272526.got - 2010.06.03 11:33:40.
