data_PCOD9092685
_publ_section_title
;
Structure prediction by ZEFSAII (Michael W. Deem and Ramdas Pophale) SiO2 
 PCOD9092685
Probable space group: P -1
;
_chemical_formula_sum "Si O2"
_cell_formula_units_Z 14
_cell_length_a 13.634559
_cell_length_b 11.397258
_cell_length_c 8.005835
_cell_angle_alpha 108.551309
_cell_angle_beta 65.294511
_cell_angle_gamma 55.524799
_cell_volume 625.935387
_symmetry_space_group_name_H-M "P -1"
_symmetry_group_IT_number 2
_symmetry_cell_setting 'triclinic'
loop_
_space_group_symop_operation_xyz
x,y,z
-x,-y,-z
loop_
_atom_site_type_symbol
_atom_site_label
_atom_site_fract_x
_atom_site_fract_y
_atom_site_fract_z
Si Si1 0.725506 0.501911 0.022550
Si Si2 0.412664 0.919691 0.647913
Si Si3 0.963961 0.973179 0.331466
Si Si4 0.413796 0.752669 0.137651
Si Si5 0.178994 0.990456 0.101236
Si Si6 0.992783 0.609783 0.414351
Si Si7 0.353664 0.085334 0.414773
O O1 0.577436 0.685804 0.344844
O O2 0.608970 0.531420 0.979506
O O3 0.818201 0.531465 0.875764
O O4 0.893191 0.273038 0.885099
O O5 0.505591 0.932733 0.711337
O O6 0.331720 0.072956 0.620317
O O7 0.268422 0.968334 0.866439
O O8 0.752545 0.127214 0.561493
O O9 0.033827 0.016503 0.181108
O O10 0.000000 0.000000 0.500000
O O11 0.341327 0.788576 0.019781
O O12 0.425222 0.891710 0.194202
O O13 0.077071 0.195127 0.367973
O O14 0.842281 0.705799 0.431828
O O15 0.000000 0.500000 0.500000
#
# Coordination Sequence:
#
# PCOD9092685 Si02
#       7
#     2   2   2   2   2   2   2
#     4  11  22  41  62  94 122 167 206 249 320 367
#     4  10  23  38  62  93 123 168 203 249 324 367
#     4  10  19  42  63  88 127 160 209 259 303 362
#     4   9  20  38  67  89 121 166 207 256 304 360
#     4  10  22  41  62  91 126 161 209 261 300 364
#     4  11  24  39  63  94 124 163 213 254 302 377
#     4   9  20  42  58  85 135 163 192 255 321 361
#
# _framework density 22.366527000000001
#
# number of rings (size 3 to 8) (size 9 to 14) (size 15 to 20)
#    0.000    2.000    4.286    0.000    8.000    4.571 
#    0.000    2.857    0.000    0.000    0.000    0.000 
#    0.000    0.000    0.000    0.000    0.000    0.000 
#
# Total GULP energy -78214.377258 kJ/mol
# GULP energy per Si atom -5586.741233 kJ/mol
# Density = 2.231562 g / cm^3
# Si number density = 22.366527 Si / 1000 Ang^3
#
#
#
# Elastic Constant Matrix: (Units=GPa)
#
#
# Indices 1 2 3 4 5 6 
#
# 1 48.0212 26.1670 -1.6536 3.8632 -12.0136 9.5230
# 2 26.1670 86.2456 25.9548 -3.0558 -26.5517 9.8590
# 3 -1.6536 25.9548 67.2752 -7.9242 -9.2375 11.9416
# 4 3.8632 -3.0558 -7.9242 34.7999 1.7988 -14.3111
# 5 -12.0136 -26.5517 -9.2375 1.7988 35.4446 -3.7300
# 6 9.5230 9.8590 11.9416 -14.3111 -3.7300 35.7700
#
#
#
# Elastic Compliance Matrix: (Units=1/GPa)
#
#
# Indices 1 2 3 4 5 6 
#
# 1 0.029044 -0.008217 0.005378 -0.006879 0.004434 -0.009553
# 2 -0.008217 0.018937 -0.006130 0.000823 0.009800 0.000366
# 3 0.005378 -0.006130 0.018630 0.000769 0.001468 -0.005501
# 4 -0.006879 0.000823 0.000769 0.036286 -0.001705 0.015688
# 5 0.004434 0.009800 0.001468 -0.001705 0.037405 -0.001153
# 6 -0.009553 0.000366 -0.005501 0.015688 -0.001153 0.038391
#
#
# Mechanical properties :
#
#
# Convention : Reuss Voigt Hill
#
# Bulk Modulus (GPa) = 20.54527 33.60870 27.07699
# Shear Modulus (GPa) = 23.49007 31.27450 27.38229
#
# Velocity S-wave (km/s) = 3.24425 3.74341 3.50273
# Velocity P-wave (km/s) = 4.82070 5.80888 5.33771
#
# Compressibility (1/GPa) = 0.04867300
#
# Stress axis : x y z
#
# Youngs Moduli (GPa) = 34.43059 52.80658 53.67635
#
# Poissons Ratio (x) = 0.43392 -0.28869
# Poissons Ratio (y) = 0.28292 0.32905
# Poissons Ratio (z) = -0.18518 0.32372
#
# Static dielectric constant tensor:
#      x y z
#    x 1.882960 0.006690 0.003550 
#    y 0.006690 1.872180 0.018180 
#    z 0.003550 0.018180 1.817200 
# 
# From -- ./inp_files/305337.got.cif
#   From: 2010.05.17/outbox.cif.g08.bks.cpg/sg2_153_cif.got.tgz:305337.got - 2010.06.03 11:33:40.
