data_PCOD9092051
_publ_section_title
;
Structure prediction by ZEFSAII (Michael W. Deem and Ramdas Pophale) SiO2 
 PCOD9092051
Probable space group: P -1
;
_chemical_formula_sum "Si O2"
_cell_formula_units_Z 14
_cell_length_a 11.108184
_cell_length_b 10.531553
_cell_length_c 11.095005
_cell_angle_alpha 38.090090
_cell_angle_beta 110.025209
_cell_angle_gamma 133.079280
_cell_volume 527.168039
_symmetry_space_group_name_H-M "P -1"
_symmetry_group_IT_number 2
_symmetry_cell_setting 'triclinic'
loop_
_space_group_symop_operation_xyz
x,y,z
-x,-y,-z
loop_
_atom_site_type_symbol
_atom_site_label
_atom_site_fract_x
_atom_site_fract_y
_atom_site_fract_z
Si Si1 0.426834 0.615266 0.141156
Si Si2 0.659161 0.642011 0.045475
Si Si3 0.737134 0.713639 0.448735
Si Si4 0.209921 0.468951 0.633127
Si Si5 0.197368 0.752957 0.943454
Si Si6 0.869873 0.989814 0.636444
Si Si7 0.920456 0.371185 0.728627
O O1 0.412134 0.581605 0.304940
O O2 0.332811 0.718572 0.989879
O O3 0.290741 0.276176 0.303599
O O4 0.618668 0.780750 0.022064
O O5 0.829897 0.845419 0.861834
O O6 0.500000 0.500000 0.000000
O O7 0.658250 0.436054 0.280510
O O8 0.747149 0.660684 0.352234
O O9 0.935633 0.867730 0.448235
O O10 0.725003 0.939954 0.298955
O O11 0.017411 0.279031 0.779805
O O12 0.195864 0.643542 0.403648
O O13 0.167649 0.732891 0.092448
O O14 0.000000 0.500000 0.000000
O O15 0.903217 0.269803 0.457246
#
# Coordination Sequence:
#
# PCOD9092051 Si02
#       7
#     2   2   2   2   2   2   2
#     4  11  22  43  59  97 134 160 212 262 317 385
#     4  10  24  42  63  89 131 174 206 257 327 385
#     4  11  22  39  69  92 123 171 212 268 315 358
#     4  10  22  42  62  92 132 164 212 271 309 377
#     4  12  22  37  68  99 126 164 215 265 315 371
#     4  10  19  40  65  92 124 164 213 266 310 370
#     4  10  22  38  67  98 121 163 222 268 311 364
#
# _framework density 26.556996999999999
#
# number of rings (size 3 to 8) (size 9 to 14) (size 15 to 20)
#    0.000    1.429    4.286    2.143    2.000    6.857 
#    2.571    2.143    0.000    0.000    0.000    0.000 
#    0.000    0.000    0.000    0.000    0.000    0.000 
#
# Total GULP energy -78239.570244 kJ/mol
# GULP energy per Si atom -5588.540732 kJ/mol
# Density = 2.649655 g / cm^3
# Si number density = 26.556997 Si / 1000 Ang^3
#
#
#
# Elastic Constant Matrix: (Units=GPa)
#
#
# Indices 1 2 3 4 5 6 
#
# 1 148.5203 17.1325 56.4798 23.1655 -8.4214 9.2662
# 2 17.1325 101.7833 15.5755 31.2871 6.4938 0.8758
# 3 56.4798 15.5755 97.3082 33.8014 1.2065 -1.2506
# 4 23.1655 31.2871 33.8014 45.5636 -4.8921 -0.4733
# 5 -8.4214 6.4938 1.2065 -4.8921 57.3324 4.2737
# 6 9.2662 0.8758 -1.2506 -0.4733 4.2737 38.3096
#
#
#
# Elastic Compliance Matrix: (Units=1/GPa)
#
#
# Indices 1 2 3 4 5 6 
#
# 1 0.009052 -0.000800 -0.005155 -0.000071 0.001711 -0.002531
# 2 -0.000800 0.012959 0.001975 -0.010225 -0.002508 0.000115
# 3 -0.005155 0.001975 0.017046 -0.011627 -0.002473 0.001890
# 4 -0.000071 -0.010225 -0.011627 0.038128 0.004659 -0.000177
# 5 0.001711 -0.002508 -0.002473 0.004659 0.018610 -0.002456
# 6 -0.002531 0.000115 0.001890 -0.000177 -0.002456 0.027046
#
#
# Mechanical properties :
#
#
# Convention : Reuss Voigt Hill
#
# Bulk Modulus (GPa) = 32.15860 58.44305 45.30083
# Shear Modulus (GPa) = 35.41871 45.46939 40.44405
#
# Velocity S-wave (km/s) = 3.65593 4.14229 3.90669
# Velocity P-wave (km/s) = 5.47327 6.70318 6.11920
#
# Compressibility (1/GPa) = 0.03109588
#
# Stress axis : x y z
#
# Youngs Moduli (GPa) = 110.47612 77.16425 58.66428
#
# Poissons Ratio (x) = 0.06176 0.30240
# Poissons Ratio (y) = 0.08843 -0.11584
# Poissons Ratio (z) = 0.56949 -0.15236
#
# Static dielectric constant tensor:
#      x y z
#    x 2.065050 0.004730 -0.035780 
#    y 0.004730 2.210610 -0.083210 
#    z -0.035780 -0.083210 2.091430 
# 
# From -- ./inp_files/425116.got.cif
#   From: 2010.05.17/outbox.cif.g08.bks.cpg/sg2_213_cif.got.tgz:425116.got - 2010.06.03 11:33:40.
