data_PCOD9092332
_publ_section_title
;
Structure prediction by ZEFSAII (Michael W. Deem and Ramdas Pophale) SiO2 
 PCOD9092332
Probable space group: P -1
;
_chemical_formula_sum "Si O2"
_cell_formula_units_Z 14
_cell_length_a 8.962370
_cell_length_b 17.863503
_cell_length_c 6.991317
_cell_angle_alpha 52.071732
_cell_angle_beta 116.513692
_cell_angle_gamma 144.799488
_cell_volume 505.075019
_symmetry_space_group_name_H-M "P -1"
_symmetry_group_IT_number 2
_symmetry_cell_setting 'triclinic'
loop_
_space_group_symop_operation_xyz
x,y,z
-x,-y,-z
loop_
_atom_site_type_symbol
_atom_site_label
_atom_site_fract_x
_atom_site_fract_y
_atom_site_fract_z
Si Si1 0.429952 0.180599 0.079214
Si Si2 0.272862 0.613823 0.594311
Si Si3 0.908957 0.790638 0.070361
Si Si4 0.413963 0.074073 0.820523
Si Si5 0.026079 0.388680 0.141098
Si Si6 0.682953 0.511709 0.464730
Si Si7 0.804948 0.101247 0.528565
O O1 0.209165 0.521567 0.885920
O O2 0.233113 0.026603 0.327676
O O3 0.317875 0.235996 0.959565
O O4 0.417904 0.130252 0.938540
O O5 0.407298 0.775822 0.435887
O O6 0.265732 0.697437 0.895207
O O7 0.439965 0.622342 0.527640
O O8 0.000000 0.500000 0.500000
O O9 0.818868 0.646643 0.188437
O O10 0.070606 0.840239 0.280156
O O11 0.110121 0.928427 0.826489
O O12 0.500000 0.000000 0.000000
O O13 0.976163 0.255210 0.278578
O O14 0.128649 0.444079 0.329884
O O15 0.500000 0.500000 0.500000
O O16 0.500000 0.000000 0.500000
#
# Coordination Sequence:
#
# PCOD9092332 Si02
#       7
#     2   2   2   2   2   2   2
#     4  10  19  40  73 104 144 192 245 300 362 438
#     4  12  25  46  75 109 149 190 244 305 368 435
#     4  10  21  40  70 104 141 192 245 296 364 436
#     4  11  22  40  70 103 147 193 239 301 369 429
#     4  10  23  44  76 108 146 193 246 298 372 442
#     4  11  26  48  76 111 147 192 244 305 371 439
#     4   8  16  33  63 102 134 188 237 289 352 426
#
# _framework density 27.718654999999998
#
# number of rings (size 3 to 8) (size 9 to 14) (size 15 to 20)
#    0.000    1.714    1.429    3.429    0.000    2.286 
#    0.000    0.000    0.000    1.714    0.000    0.000 
#    0.000    0.000    0.000    0.000    0.000    0.000 
#
# Total GULP energy -78307.781363 kJ/mol
# GULP energy per Si atom -5593.412955 kJ/mol
# Density = 2.765557 g / cm^3
# Si number density = 27.718655 Si / 1000 Ang^3
#
#
#
# Elastic Constant Matrix: (Units=GPa)
#
#
# Indices 1 2 3 4 5 6 
#
# 1 102.2326 38.6969 68.5911 -16.4315 4.5092 -12.7936
# 2 38.6969 107.6455 72.5450 -36.9615 2.8980 -21.9150
# 3 68.5911 72.5450 219.2885 -69.6185 -9.8302 -18.3237
# 4 -16.4315 -36.9615 -69.6185 62.5174 -4.5322 6.9900
# 5 4.5092 2.8980 -9.8302 -4.5322 56.9703 -8.2396
# 6 -12.7936 -21.9150 -18.3237 6.9900 -8.2396 44.4371
#
#
#
# Elastic Compliance Matrix: (Units=1/GPa)
#
#
# Indices 1 2 3 4 5 6 
#
# 1 0.013377 -0.002776 -0.004251 -0.003086 -0.001768 0.000887
# 2 -0.002776 0.014223 -0.001784 0.005186 0.000283 0.004716
# 3 -0.004251 -0.001784 0.009326 0.008312 0.002837 0.000961
# 4 -0.003086 0.005186 0.008312 0.027620 0.003823 0.001461
# 5 -0.001768 0.000283 0.002837 0.003823 0.019011 0.003724
# 6 0.000887 0.004716 0.000961 0.001461 0.003724 0.025942
#
#
# Mechanical properties :
#
#
# Convention : Reuss Voigt Hill
#
# Bulk Modulus (GPa) = 51.79795 87.64808 69.72301
# Shear Modulus (GPa) = 37.43755 49.40718 43.42237
#
# Velocity S-wave (km/s) = 3.67907 4.22649 3.96225
# Velocity P-wave (km/s) = 6.06424 7.45029 6.79271
#
# Compressibility (1/GPa) = 0.01930578
#
# Stress axis : x y z
#
# Youngs Moduli (GPa) = 74.75324 70.30873 107.22435
#
# Poissons Ratio (x) = 0.19515 0.45581
# Poissons Ratio (y) = 0.20748 0.19127
# Poissons Ratio (z) = 0.31778 0.12542
#
# Static dielectric constant tensor:
#      x y z
#    x 2.344070 0.019730 -0.063910 
#    y 0.019730 2.187140 -0.057640 
#    z -0.063910 -0.057640 2.359060 
# 
# From -- ./inp_files/214119.got.cif
#   From: 2010.05.17/outbox.cif.g08.bks.cpg/sg2_108_cif.got.tgz:214119.got - 2010.06.03 11:33:40.
