data_PCOD9092743
_publ_section_title
;
Structure prediction by ZEFSAII (Michael W. Deem and Ramdas Pophale) SiO2 
 PCOD9092743
Probable space group: P -1
;
_chemical_formula_sum "Si O2"
_cell_formula_units_Z 16
_cell_length_a 12.763953
_cell_length_b 9.881753
_cell_length_c 8.268434
_cell_angle_alpha 100.801013
_cell_angle_beta 142.861310
_cell_angle_gamma 83.969096
_cell_volume 616.762068
_symmetry_space_group_name_H-M "P -1"
_symmetry_group_IT_number 2
_symmetry_cell_setting 'triclinic'
loop_
_space_group_symop_operation_xyz
x,y,z
-x,-y,-z
loop_
_atom_site_type_symbol
_atom_site_label
_atom_site_fract_x
_atom_site_fract_y
_atom_site_fract_z
Si Si1 0.285890 0.963995 0.719578
Si Si2 0.631440 0.124165 0.522341
Si Si3 0.894915 0.772650 0.397489
Si Si4 0.470172 0.404945 0.784123
Si Si5 0.385573 0.361385 0.200401
Si Si6 0.076673 0.368111 0.283131
Si Si7 0.010990 0.333482 0.839116
Si Si8 0.351550 0.867035 0.108383
O O1 0.271751 0.861729 0.526600
O O2 0.163824 0.087232 0.566729
O O3 0.242881 0.921548 0.840895
O O4 0.500000 0.000000 0.000000
O O5 0.497322 0.244007 0.385207
O O6 0.729618 0.128799 0.813613
O O7 0.523766 0.974120 0.354091
O O8 0.984844 0.684295 0.626054
O O9 0.707013 0.699878 0.092295
O O10 0.985395 0.773525 0.330967
O O11 0.507013 0.501938 0.695163
O O12 0.276742 0.334042 0.522488
O O13 0.598054 0.283547 0.910388
O O14 0.500000 0.500000 0.000000
O O15 0.217521 0.387403 0.104463
O O16 0.981396 0.311489 0.989446
O O17 0.081816 0.534468 0.310399
#
# Coordination Sequence:
#
# PCOD9092743 Si02
#       8
#     2   2   2   2   2   2   2   2
#     4  10  16  29  49  73 102 136 179 222 264 318
#     4  10  19  33  51  76 106 147 184 219 271 320
#     4  10  19  33  53  78 111 140 178 230 270 321
#     4  12  22  33  56  89 118 147 174 227 293 331
#     4  10  20  36  51  84 116 138 177 227 281 323
#     4  11  20  35  55  76 112 152 187 223 267 334
#     4   9  21  36  53  78 108 152 191 220 270 327
#     4  10  20  32  50  74 113 145 177 224 267 330
#
# _framework density 25.941932999999999
#
# number of rings (size 3 to 8) (size 9 to 14) (size 15 to 20)
#    0.750    1.000    3.750    3.375    0.000    4.000 
#    0.000    0.000    0.000    0.000    0.000   19.250 
#    0.000   41.000    0.000    0.000    0.000    0.000 
#
# Total GULP energy -89410.803845 kJ/mol
# GULP energy per Si atom -5588.175240 kJ/mol
# Density = 2.588289 g / cm^3
# Si number density = 25.941933 Si / 1000 Ang^3
#
#
#
# Elastic Constant Matrix: (Units=GPa)
#
#
# Indices 1 2 3 4 5 6 
#
# 1 99.8781 -0.1133 10.4829 -13.2305 -31.7354 -0.2750
# 2 -0.1133 90.1477 13.1572 -10.6812 -7.7517 -7.8926
# 3 10.4829 13.1572 147.6018 4.2036 -37.6043 3.6456
# 4 -13.2305 -10.6812 4.2036 37.0017 8.0026 -5.0359
# 5 -31.7354 -7.7517 -37.6043 8.0026 50.7068 -0.8766
# 6 -0.2750 -7.8926 3.6456 -5.0359 -0.8766 33.3956
#
#
#
# Elastic Compliance Matrix: (Units=1/GPa)
#
#
# Indices 1 2 3 4 5 6 
#
# 1 0.013067 0.001055 0.001073 0.003109 0.008660 0.000936
# 2 0.001055 0.012178 -0.001093 0.004280 0.001099 0.003680
# 3 0.001073 -0.001093 0.008805 -0.002736 0.007441 -0.001428
# 4 0.003109 0.004280 -0.002736 0.031422 -0.004285 0.005962
# 5 0.008660 0.001099 0.007441 -0.004285 0.031499 -0.000300
# 6 0.000936 0.003680 -0.001428 0.005962 -0.000300 0.031869
#
#
# Mechanical properties :
#
#
# Convention : Reuss Voigt Hill
#
# Bulk Modulus (GPa) = 27.68645 42.74235 35.21440
# Shear Modulus (GPa) = 36.02046 45.16089 40.59068
#
# Velocity S-wave (km/s) = 3.73031 4.17687 3.95989
# Velocity P-wave (km/s) = 5.40825 6.30663 5.87464
#
# Compressibility (1/GPa) = 0.03611875
#
# Stress axis : x y z
#
# Youngs Moduli (GPa) = 76.52855 82.11788 113.56865
#
# Poissons Ratio (x) = -0.08663 -0.12182
# Poissons Ratio (y) = -0.08073 0.12414
# Poissons Ratio (z) = -0.08209 0.08977
#
# Static dielectric constant tensor:
#      x y z
#    x 2.155570 0.090740 -0.004970 
#    y 0.090740 1.950460 0.069450 
#    z -0.004970 0.069450 2.083950 
# 
# From -- ./inp_files/344813.got.cif
#   From: 2010.05.17/outbox.cif.g08.bks.cpg/sg2_173_cif.got.tgz:344813.got - 2010.06.03 11:33:40.
