data_PCOD9092263
_publ_section_title
;
Structure prediction by ZEFSAII (Michael W. Deem and Ramdas Pophale) SiO2 
 PCOD9092263
Probable space group: P -1
;
_chemical_formula_sum "Si O2"
_cell_formula_units_Z 16
_cell_length_a 9.212691
_cell_length_b 15.918919
_cell_length_c 8.940868
_cell_angle_alpha 40.673710
_cell_angle_beta 111.899986
_cell_angle_gamma 100.586137
_cell_volume 782.189967
_symmetry_space_group_name_H-M "P -1"
_symmetry_group_IT_number 2
_symmetry_cell_setting 'triclinic'
loop_
_space_group_symop_operation_xyz
x,y,z
-x,-y,-z
loop_
_atom_site_type_symbol
_atom_site_label
_atom_site_fract_x
_atom_site_fract_y
_atom_site_fract_z
Si Si1 0.123287 0.456464 0.474619
Si Si2 0.228185 0.554813 0.082029
Si Si3 0.739363 0.938201 0.262061
Si Si4 0.272669 0.866964 0.266234
Si Si5 0.470427 0.343509 0.814397
Si Si6 0.442125 0.294075 0.534474
Si Si7 0.018303 0.742211 0.517434
Si Si8 0.508043 0.959852 0.726792
O O1 0.135450 0.552380 0.208042
O O2 0.297026 0.427089 0.655049
O O3 0.000000 0.500000 0.500000
O O4 0.080598 0.328436 0.545882
O O5 0.385674 0.616475 0.092520
O O6 0.298957 0.403310 0.274873
O O7 0.122827 0.632106 0.808455
O O8 0.619017 0.844426 0.276512
O O9 0.904897 0.840837 0.448557
O O10 0.654361 0.986077 0.319174
O O11 0.758204 0.064267 0.000050
O O12 0.409165 0.740545 0.470053
O O13 0.126952 0.824863 0.352769
O O14 0.351131 0.974789 0.238029
O O15 0.496879 0.347324 0.640257
O O16 0.460049 0.194729 0.044424
O O17 0.500000 0.000000 0.500000
#
# Coordination Sequence:
#
# PCOD9092263 Si02
#       8
#     2   2   2   2   2   2   2   2
#     4  11  25  42  66  95 131 173 216 265 324 392
#     4  11  25  42  65  95 136 169 218 266 338 379
#     4  11  21  42  68  90 128 179 215 268 321 380
#     4  11  22  40  67  95 126 173 230 256 319 395
#     4  11  21  43  66  92 128 174 220 262 316 393
#     4  10  19  40  69  88 122 177 221 264 308 397
#     4  12  25  42  64 102 137 169 212 276 335 382
#     4  11  22  40  65  98 127 168 223 271 323 380
#
# _framework density 20.455389
#
# number of rings (size 3 to 8) (size 9 to 14) (size 15 to 20)
#    0.000    1.000    5.000    3.750    3.500    1.500 
#    2.250    2.500    0.000    0.000    0.000    0.000 
#    0.000    0.000    0.000    0.000    0.000    0.000 
#
# Total GULP energy -89355.711904 kJ/mol
# GULP energy per Si atom -5584.731994 kJ/mol
# Density = 2.040883 g / cm^3
# Si number density = 20.455389 Si / 1000 Ang^3
#
#
#
# Elastic Constant Matrix: (Units=GPa)
#
#
# Indices 1 2 3 4 5 6 
#
# 1 120.5198 30.3172 35.5662 0.6903 -16.8771 0.1646
# 2 30.3172 31.5125 18.9198 0.4128 -11.3427 -8.1036
# 3 35.5662 18.9198 98.9270 1.2294 -5.7334 -8.9132
# 4 0.6903 0.4128 1.2294 22.5743 0.1843 -1.2297
# 5 -16.8771 -11.3427 -5.7334 0.1843 24.1179 1.0482
# 6 0.1646 -8.1036 -8.9132 -1.2297 1.0482 25.0292
#
#
#
# Elastic Compliance Matrix: (Units=1/GPa)
#
#
# Indices 1 2 3 4 5 6 
#
# 1 0.012047 -0.009939 -0.002629 -0.000310 0.003324 -0.004388
# 2 -0.009939 0.053846 -0.004388 0.000253 0.016661 0.015251
# 3 -0.002629 -0.004388 0.012095 -0.000329 -0.001153 0.002936
# 4 -0.000310 0.000253 -0.000329 0.044444 -0.000610 0.002176
# 5 0.003324 0.016661 -0.001153 -0.000610 0.051234 0.002786
# 6 -0.004388 0.015251 0.002936 0.002176 0.002786 0.045956
#
#
# Mechanical properties :
#
#
# Convention : Reuss Voigt Hill
#
# Bulk Modulus (GPa) = 22.68904 46.72952 34.70928
# Shear Modulus (GPa) = 18.64110 25.42136 22.03123
#
# Velocity S-wave (km/s) = 3.02206 3.52912 3.28539
# Velocity P-wave (km/s) = 4.82630 6.28494 5.60328
#
# Compressibility (1/GPa) = 0.04407414
#
# Stress axis : x y z
#
# Youngs Moduli (GPa) = 83.01041 18.57163 82.68149
#
# Poissons Ratio (x) = 0.18459 0.21737
# Poissons Ratio (y) = 0.82506 0.36281
# Poissons Ratio (z) = 0.21823 0.08149
#
# Static dielectric constant tensor:
#      x y z
#    x 1.729140 -0.011670 0.032790 
#    y -0.011670 1.689200 0.033270 
#    z 0.032790 0.033270 1.712050 
# 
# From -- ./inp_files/176724.got.cif
#   From: 2010.05.17/outbox.cif.g08.bks.cpg/sg2_89_cif.got.tgz:176724.got - 2010.06.03 11:33:40.
