data_PCOD9092374
_publ_section_title
;
Structure prediction by ZEFSAII (Michael W. Deem and Ramdas Pophale) SiO2 
 PCOD9092374
Probable space group: P -1
;
_chemical_formula_sum "Si O2"
_cell_formula_units_Z 16
_cell_length_a 8.533756
_cell_length_b 18.517842
_cell_length_c 6.164150
_cell_angle_alpha 135.596479
_cell_angle_beta 97.556304
_cell_angle_gamma 64.990476
_cell_volume 594.920096
_symmetry_space_group_name_H-M "P -1"
_symmetry_group_IT_number 2
_symmetry_cell_setting 'triclinic'
loop_
_space_group_symop_operation_xyz
x,y,z
-x,-y,-z
loop_
_atom_site_type_symbol
_atom_site_label
_atom_site_fract_x
_atom_site_fract_y
_atom_site_fract_z
Si Si1 0.857213 0.460302 0.824280
Si Si2 0.378135 0.983239 0.622033
Si Si3 0.447184 0.156726 0.273218
Si Si4 0.847601 0.680499 0.718731
Si Si5 0.629615 0.570196 0.656079
Si Si6 0.985724 0.851479 0.175961
Si Si7 0.317520 0.769923 0.762954
Si Si8 0.739906 0.342838 0.897125
O O1 0.667883 0.547979 0.872171
O O2 0.854298 0.386835 0.868173
O O3 0.950890 0.381219 0.462456
O O4 0.000000 0.500000 0.000000
O O5 0.500000 0.000000 0.500000
O O6 0.490323 0.860017 0.503409
O O7 0.365851 0.070467 0.004943
O O8 0.176277 0.014919 0.582837
O O9 0.286232 0.278969 0.424866
O O10 0.612484 0.140109 0.111802
O O11 0.785379 0.603579 0.681518
O O12 0.851645 0.792914 0.062891
O O13 0.450981 0.684442 0.788066
O O14 0.647130 0.454925 0.284387
O O15 0.113135 0.823787 0.926165
O O16 0.132987 0.782409 0.237560
O O17 0.355317 0.687980 0.382992
#
# Coordination Sequence:
#
# PCOD9092374 Si02
#       8
#     2   2   2   2   2   2   2   2
#     4  12  22  36  64  92 127 178 220 272 311 359
#     4  10  23  45  73  97 118 158 211 276 331 382
#     4   9  23  44  68  93 126 158 212 267 327 388
#     4  10  19  41  61  90 125 167 216 271 309 364
#     4  11  23  41  60  92 136 171 229 264 301 374
#     4  11  24  41  64  94 133 166 216 269 320 389
#     4  11  25  43  62  95 135 178 207 259 323 382
#     4  12  23  37  62  92 131 181 218 254 316 371
#
# _framework density 26.894366999999999
#
# number of rings (size 3 to 8) (size 9 to 14) (size 15 to 20)
#    0.000    1.250    3.750    1.500    1.750    5.500 
#    0.000    1.250    0.000    0.000    0.000    0.000 
#    0.000    0.000    0.000    0.000    0.000    0.000 
#
# Total GULP energy -89301.561899 kJ/mol
# GULP energy per Si atom -5581.347619 kJ/mol
# Density = 2.683315 g / cm^3
# Si number density = 26.894367 Si / 1000 Ang^3
#
#
#
# Elastic Constant Matrix: (Units=GPa)
#
#
# Indices 1 2 3 4 5 6 
#
# 1 131.5244 26.5333 32.3450 -4.6261 -12.4073 -4.6180
# 2 26.5333 144.9302 7.7790 -31.3884 -18.0425 -11.1615
# 3 32.3450 7.7790 76.4045 1.6981 3.4140 -16.8013
# 4 -4.6261 -31.3884 1.6981 21.0685 2.5638 7.5116
# 5 -12.4073 -18.0425 3.4140 2.5638 61.0578 4.5208
# 6 -4.6180 -11.1615 -16.8013 7.5116 4.5208 50.9359
#
#
#
# Elastic Compliance Matrix: (Units=1/GPa)
#
#
# Indices 1 2 3 4 5 6 
#
# 1 0.008971 -0.001119 -0.004005 0.000776 0.001759 -0.001024
# 2 -0.001119 0.010897 -0.001258 0.016047 0.002442 -0.000712
# 3 -0.004005 -0.001258 0.016432 -0.005886 -0.002290 0.005853
# 4 0.000776 0.016047 -0.005886 0.075128 0.002791 -0.009682
# 5 0.001759 0.002442 -0.002290 0.002791 0.017619 -0.002036
# 6 -0.001024 -0.000712 0.005853 -0.009682 -0.002036 0.022923
#
#
# Mechanical properties :
#
#
# Convention : Reuss Voigt Hill
#
# Bulk Modulus (GPa) = 42.48820 54.01931 48.25376
# Shear Modulus (GPa) = 28.97237 45.69256 37.33247
#
# Velocity S-wave (km/s) = 3.28573 4.12632 3.72978
# Velocity P-wave (km/s) = 5.49793 6.54457 6.04395
#
# Compressibility (1/GPa) = 0.02353595
#
# Stress axis : x y z
#
# Youngs Moduli (GPa) = 111.46852 91.77054 60.85740
#
# Poissons Ratio (x) = 0.10271 0.24372
# Poissons Ratio (y) = 0.12475 0.07655
# Poissons Ratio (z) = 0.44641 0.11544
#
# Static dielectric constant tensor:
#      x y z
#    x 2.181750 -0.048540 -0.024680 
#    y -0.048540 2.260270 0.127290 
#    z -0.024680 0.127290 2.213460 
# 
# From -- ./inp_files/49039.got.cif
#   From: 2010.05.17/outbox.cif.g08.bks.cpg/sg2_25_cif.got.tgz:49039.got - 2010.06.03 11:33:40.
