data_PCOD9092503
_publ_section_title
;
Structure prediction by ZEFSAII (Michael W. Deem and Ramdas Pophale) SiO2 
 PCOD9092503
Probable space group: P -1
;
_chemical_formula_sum "Si O2"
_cell_formula_units_Z 14
_cell_length_a 13.326517
_cell_length_b 9.138988
_cell_length_c 8.367320
_cell_angle_alpha 44.959495
_cell_angle_beta 113.447034
_cell_angle_gamma 89.247737
_cell_volume 588.417202
_symmetry_space_group_name_H-M "P -1"
_symmetry_group_IT_number 2
_symmetry_cell_setting 'triclinic'
loop_
_space_group_symop_operation_xyz
x,y,z
-x,-y,-z
loop_
_atom_site_type_symbol
_atom_site_label
_atom_site_fract_x
_atom_site_fract_y
_atom_site_fract_z
Si Si1 0.815286 0.624945 0.705955
Si Si2 0.364469 0.070171 0.314224
Si Si3 0.372284 0.568986 0.273935
Si Si4 0.808528 0.409125 0.312408
Si Si5 0.773874 0.123778 0.789815
Si Si6 0.728770 0.111711 0.299908
Si Si7 0.050032 0.368757 0.874533
O O1 0.686541 0.610404 0.647390
O O2 0.915363 0.435817 0.799433
O O3 0.791289 0.873256 0.427194
O O4 0.881082 0.613275 0.929246
O O5 0.500000 0.000000 0.500000
O O6 0.344315 0.922178 0.277118
O O7 0.316152 0.976489 0.506385
O O8 0.295836 0.337032 0.004772
O O9 0.500000 0.500000 0.500000
O O10 0.254921 0.774581 0.130657
O O11 0.378160 0.680444 0.022494
O O12 0.775307 0.322075 0.521729
O O13 0.817300 0.217248 0.336632
O O14 0.929465 0.446235 0.364569
O O15 0.883480 0.880961 0.979633
#
# Coordination Sequence:
#
# PCOD9092503 Si02
#       7
#     2   2   2   2   2   2   2
#     4  11  23  43  68 103 130 172 224 275 329 389
#     4  10  22  37  66  94 126 173 233 272 312 387
#     4  12  29  44  63  97 145 177 214 268 341 398
#     4  10  19  41  66  97 129 165 225 272 327 384
#     4  10  24  41  64 100 131 177 214 272 334 390
#     4  11  22  42  65  96 133 174 221 268 330 389
#     4  10  21  43  73  99 130 165 231 280 318 393
#
# _framework density 23.792642000000001
#
# number of rings (size 3 to 8) (size 9 to 14) (size 15 to 20)
#    0.000    1.429    5.714    0.000    6.000    6.286 
#    0.000    1.429    0.000    0.000    0.000    0.000 
#    0.000    0.000    0.000    0.000    0.000    0.000 
#
# Total GULP energy -77996.706043 kJ/mol
# GULP energy per Si atom -5571.193289 kJ/mol
# Density = 2.373849 g / cm^3
# Si number density = 23.792642 Si / 1000 Ang^3
#
#
#
# Elastic Constant Matrix: (Units=GPa)
#
#
# Indices 1 2 3 4 5 6 
#
# 1 88.2613 28.0143 31.9895 -20.6117 0.6177 28.7508
# 2 28.0143 98.8223 38.3647 -20.5159 -1.1343 17.3959
# 3 31.9895 38.3647 93.4620 -17.9389 -25.1407 21.4527
# 4 -20.6117 -20.5159 -17.9389 26.2765 13.1524 3.3291
# 5 0.6177 -1.1343 -25.1407 13.1524 30.3960 -0.2360
# 6 28.7508 17.3959 21.4527 3.3291 -0.2360 44.2386
#
#
#
# Elastic Compliance Matrix: (Units=1/GPa)
#
#
# Indices 1 2 3 4 5 6 
#
# 1 0.024883 0.004186 -0.005139 0.030501 -0.017935 -0.017717
# 2 0.004186 0.016650 -0.006271 0.019587 -0.013186 -0.007771
# 3 -0.005139 -0.006271 0.019924 -0.003901 0.018011 -0.003467
# 4 0.030501 0.019587 -0.003901 0.102834 -0.047873 -0.033627
# 5 -0.017935 -0.013186 0.018011 -0.047873 0.068477 0.012075
# 6 -0.017717 -0.007771 -0.003467 -0.033627 0.012075 0.041451
#
#
# Mechanical properties :
#
#
# Convention : Reuss Voigt Hill
#
# Bulk Modulus (GPa) = 21.27218 53.03140 37.15179
# Shear Modulus (GPa) = 16.42912 32.32736 24.37824
#
# Velocity S-wave (km/s) = 2.63061 3.69007 3.20443
# Velocity P-wave (km/s) = 4.26461 6.36340 5.41663
#
# Compressibility (1/GPa) = 0.04700976
#
# Stress axis : x y z
#
# Youngs Moduli (GPa) = 40.18749 60.06010 50.18953
#
# Poissons Ratio (x) = -0.25140 0.25791
# Poissons Ratio (y) = -0.16822 0.31475
# Poissons Ratio (z) = 0.20651 0.37665
#
# Static dielectric constant tensor:
#      x y z
#    x 1.947340 -0.061920 0.040010 
#    y -0.061920 2.011920 -0.020930 
#    z 0.040010 -0.020930 1.984000 
# 
# From -- ./inp_files/297341.got.cif
#   From: 2010.05.17/outbox.cif.g08.bks.cpg/sg2_149_cif.got.tgz:297341.got - 2010.06.03 11:33:40.
