data_PCOD9092055
_publ_section_title
;
Structure prediction by ZEFSAII (Michael W. Deem and Ramdas Pophale) SiO2 
 PCOD9092055
Probable space group: P -1
;
_chemical_formula_sum "Si O2"
_cell_formula_units_Z 13
_cell_length_a 13.521385
_cell_length_b 7.319198
_cell_length_c 12.511954
_cell_angle_alpha 101.399252
_cell_angle_beta 31.058754
_cell_angle_gamma 117.457176
_cell_volume 511.504902
_symmetry_space_group_name_H-M "P -1"
_symmetry_group_IT_number 2
_symmetry_cell_setting 'triclinic'
loop_
_space_group_symop_operation_xyz
x,y,z
-x,-y,-z
loop_
_atom_site_type_symbol
_atom_site_label
_atom_site_fract_x
_atom_site_fract_y
_atom_site_fract_z
Si Si1 0.335878 0.329257 0.040096
Si Si2 0.588087 0.059407 0.105341
Si Si3 0.000000 0.000000 0.000000
Si Si4 0.495708 0.131519 0.617231
Si Si5 0.125537 0.982393 0.485482
Si Si6 0.590056 0.568598 0.609651
Si Si7 0.139163 0.489152 0.969191
O O1 0.500000 0.500000 0.000000
O O2 0.333644 0.101833 0.020572
O O3 0.452406 0.457303 0.836129
O O4 0.073804 0.251779 0.299594
O O5 0.458497 0.947958 0.325535
O O6 0.373719 0.024756 0.231564
O O7 0.792314 0.321682 0.979603
O O8 0.231832 0.064199 0.857256
O O9 0.342390 0.596454 0.512761
O O10 0.985251 0.779916 0.928656
O O11 0.500000 0.000000 0.500000
O O12 0.198238 0.180871 0.527002
O O13 0.000000 0.000000 0.500000
O O14 0.405702 0.566348 0.702071
O O15 0.000000 0.500000 0.000000
#
# Coordination Sequence:
#
# PCOD9092055 Si02
#       7
#     2   2   1   2   2   2   2
#     4  11  23  45  71  98 133 181 230 291 353 405
#     4  10  24  42  64  99 136 179 233 277 344 419
#     4  10  20  36  64  90 130 176 224 274 324 392
#     4  10  21  39  63  94 134 177 228 271 334 412
#     4  11  23  45  68  95 137 176 229 296 345 405
#     4   9  22  43  65 100 137 175 233 283 341 417
#     4  10  19  40  65  92 137 183 221 279 334 405
#
# _framework density 25.415203999999999
#
# number of rings (size 3 to 8) (size 9 to 14) (size 15 to 20)
#    0.000    1.846    3.077    0.000    0.000    6.154 
#    0.000    3.846    0.000    0.000    0.000    0.000 
#    0.000    0.000    0.000    0.000    0.000    0.000 
#
# Total GULP energy -72393.957710 kJ/mol
# GULP energy per Si atom -5568.765978 kJ/mol
# Density = 2.535736 g / cm^3
# Si number density = 25.415204 Si / 1000 Ang^3
#
#
#
# Elastic Constant Matrix: (Units=GPa)
#
#
# Indices 1 2 3 4 5 6 
#
# 1 124.4782 14.8991 46.6668 5.5233 -27.9931 7.3585
# 2 14.8991 159.5124 22.7260 -13.5827 -8.2592 0.7109
# 3 46.6668 22.7260 104.8008 -22.9250 -21.4667 11.4256
# 4 5.5233 -13.5827 -22.9250 42.6961 13.0890 -11.4456
# 5 -27.9931 -8.2592 -21.4667 13.0890 45.5402 -0.2784
# 6 7.3585 0.7109 11.4256 -11.4456 -0.2784 39.3150
#
#
#
# Elastic Compliance Matrix: (Units=1/GPa)
#
#
# Indices 1 2 3 4 5 6 
#
# 1 0.012121 -0.000660 -0.005130 -0.007466 0.007041 -0.002889
# 2 -0.000660 0.006607 -0.000823 0.002020 -0.000170 0.000830
# 3 -0.005130 -0.000823 0.013939 0.007272 0.001172 -0.000950
# 4 -0.007466 0.002020 0.007272 0.034705 -0.010713 0.009275
# 5 0.007041 -0.000170 0.001172 -0.010713 0.029859 -0.004563
# 6 -0.002889 0.000830 -0.000950 0.009275 -0.004563 0.028905
#
#
# Mechanical properties :
#
#
# Convention : Reuss Voigt Hill
#
# Bulk Modulus (GPa) = 51.43209 61.93057 56.68133
# Shear Modulus (GPa) = 34.28330 45.81024 40.04677
#
# Velocity S-wave (km/s) = 3.67676 4.25016 3.97382
# Velocity P-wave (km/s) = 6.18914 6.96460 6.58829
#
# Compressibility (1/GPa) = 0.01944312
#
# Stress axis : x y z
#
# Youngs Moduli (GPa) = 82.49946 151.34506 71.73984
#
# Poissons Ratio (x) = 0.09981 0.36805
# Poissons Ratio (y) = 0.05441 0.05901
# Poissons Ratio (z) = 0.42325 0.12449
#
# Static dielectric constant tensor:
#      x y z
#    x 2.032530 -0.037110 0.010380 
#    y -0.037110 2.005100 0.003410 
#    z 0.010380 0.003410 2.054550 
# 
# From -- ./inp_files/200016.got.cif
#   From: 2010.05.17/outbox.cif.g08.bks.cpg/sg2_101_cif.got.tgz:200016.got - 2010.06.03 11:33:40.
