data_PCOD9092091
_publ_section_title
;
Structure prediction by ZEFSAII (Michael W. Deem and Ramdas Pophale) SiO2 
 PCOD9092091
Probable space group: P -1
;
_chemical_formula_sum "Si O2"
_cell_formula_units_Z 16
_cell_length_a 9.571504
_cell_length_b 17.023814
_cell_length_c 11.096897
_cell_angle_alpha 155.826207
_cell_angle_beta 107.685190
_cell_angle_gamma 71.551763
_cell_volume 701.872843
_symmetry_space_group_name_H-M "P -1"
_symmetry_group_IT_number 2
_symmetry_cell_setting 'triclinic'
loop_
_space_group_symop_operation_xyz
x,y,z
-x,-y,-z
loop_
_atom_site_type_symbol
_atom_site_label
_atom_site_fract_x
_atom_site_fract_y
_atom_site_fract_z
Si Si1 0.547363 0.209022 0.346164
Si Si2 0.098812 0.622542 0.913592
Si Si3 0.394737 0.701335 0.239206
Si Si4 0.903127 0.951094 0.224387
Si Si5 0.230165 0.346663 0.374248
Si Si6 0.678224 0.904353 0.317399
Si Si7 0.352712 0.487542 0.369367
Si Si8 0.065117 0.302945 0.795724
O O1 0.600374 0.214362 0.505310
O O2 0.389821 0.335393 0.462659
O O3 0.659002 0.323502 0.454361
O O4 0.500000 0.000000 0.000000
O O5 0.120560 0.446384 0.582490
O O6 0.243815 0.636713 0.052363
O O7 0.962239 0.635300 0.985798
O O8 0.054237 0.811745 0.087526
O O9 0.422751 0.888928 0.423165
O O10 0.500000 0.500000 0.000000
O O11 0.805609 0.958179 0.330817
O O12 0.956892 0.156696 0.512134
O O13 0.813524 0.860768 0.968974
O O14 0.235837 0.461236 0.409129
O O15 0.771205 0.809243 0.322531
O O16 0.618902 0.715220 0.979147
O O17 0.500000 0.500000 0.500000
O O18 0.000000 0.500000 0.000000
#
# Coordination Sequence:
#
# PCOD9092091 Si02
#       8
#     2   2   2   2   2   2   2   2
#     4  11  23  38  64  92 128 174 212 253 314 390
#     4  11  21  40  62  94 126 165 209 263 331 368
#     4  12  22  38  64  93 132 166 208 261 325 386
#     4  10  19  40  66  87 118 170 217 258 312 380
#     4  10  21  39  64  89 124 164 215 266 316 372
#     4  10  20  39  64  90 120 169 215 257 313 377
#     4   9  20  38  62  90 124 166 218 255 304 381
#     4  11  23  38  65  94 123 165 217 265 313 382
#
# _framework density 22.796150000000001
#
# number of rings (size 3 to 8) (size 9 to 14) (size 15 to 20)
#    0.000    1.500    3.750    3.375    1.750    0.000 
#    0.000    2.500    5.500    0.000    0.000    2.625 
#    0.000    0.000    0.000    0.000    0.000    0.000 
#
# Total GULP energy -89088.392413 kJ/mol
# GULP energy per Si atom -5568.024526 kJ/mol
# Density = 2.274427 g / cm^3
# Si number density = 22.796150 Si / 1000 Ang^3
#
#
#
# Elastic Constant Matrix: (Units=GPa)
#
#
# Indices 1 2 3 4 5 6 
#
# 1 31.7047 13.1707 13.8979 2.6622 -7.6735 -20.4393
# 2 13.1707 123.7533 31.9467 12.5616 6.5511 -19.8376
# 3 13.8979 31.9467 125.1031 11.2105 -1.8050 5.4817
# 4 2.6622 12.5616 11.2105 54.6103 -2.1918 3.0221
# 5 -7.6735 6.5511 -1.8050 -2.1918 33.4230 -2.0617
# 6 -20.4393 -19.8376 5.4817 3.0221 -2.0617 36.6027
#
#
#
# Elastic Compliance Matrix: (Units=1/GPa)
#
#
# Indices 1 2 3 4 5 6 
#
# 1 0.064064 0.001075 -0.008580 -0.003106 0.016225 0.038812
# 2 0.001075 0.010050 -0.002798 -0.002218 -0.001615 0.006558
# 3 -0.008580 -0.002798 0.010040 -0.000622 -0.001403 -0.007839
# 4 -0.003106 -0.002218 -0.000622 0.019372 0.000687 -0.004404
# 5 0.016225 -0.001615 -0.001403 0.000687 0.034565 0.010285
# 6 0.038812 0.006558 -0.007839 -0.004404 0.010285 0.054664
#
#
# Mechanical properties :
#
#
# Convention : Reuss Voigt Hill
#
# Bulk Modulus (GPa) = 15.73595 44.28795 30.01195
# Shear Modulus (GPa) = 21.31792 39.69693 30.50743
#
# Velocity S-wave (km/s) = 3.06135 4.17752 3.66221
# Velocity P-wave (km/s) = 4.40610 6.53750 5.57461
#
# Compressibility (1/GPa) = 0.06354877
#
# Stress axis : x y z
#
# Youngs Moduli (GPa) = 15.60933 99.49896 99.60243
#
# Poissons Ratio (x) = -0.10691 0.85455
# Poissons Ratio (y) = -0.01677 0.27867
# Poissons Ratio (z) = 0.13392 0.27838
#
# Static dielectric constant tensor:
#      x y z
#    x 1.977460 -0.084890 -0.047860 
#    y -0.084890 2.378170 0.249530 
#    z -0.047860 0.249530 1.939910 
# 
# From -- ./inp_files/437477.got.cif
#   From: 2010.05.17/outbox.cif.g08.bks.cpg/sg2_219_cif.got.tgz:437477.got - 2010.06.03 11:33:40.
