data_PCOD9092218
_publ_section_title
;
Structure prediction by ZEFSAII (Michael W. Deem and Ramdas Pophale) SiO2 
 PCOD9092218
Probable space group: P -1
;
_chemical_formula_sum "Si O2"
_cell_formula_units_Z 12
_cell_length_a 4.781875
_cell_length_b 15.562455
_cell_length_c 17.556134
_cell_angle_alpha 157.378657
_cell_angle_beta 96.264796
_cell_angle_gamma 75.330653
_cell_volume 458.064301
_symmetry_space_group_name_H-M "P -1"
_symmetry_group_IT_number 2
_symmetry_cell_setting 'triclinic'
loop_
_space_group_symop_operation_xyz
x,y,z
-x,-y,-z
loop_
_atom_site_type_symbol
_atom_site_label
_atom_site_fract_x
_atom_site_fract_y
_atom_site_fract_z
Si Si1 0.731689 0.226756 0.757785
Si Si2 0.237682 0.946668 0.160867
Si Si3 0.232044 0.450708 0.617884
Si Si4 0.119739 0.274944 0.937741
Si Si5 0.469638 0.226982 0.133721
Si Si6 0.402180 0.250039 0.619945
O O1 0.033817 0.216298 0.802694
O O2 0.684499 0.214152 0.655244
O O3 0.665649 0.991785 0.588216
O O4 0.500000 0.500000 0.000000
O O5 0.203128 0.219950 0.390546
O O6 0.952547 0.907279 0.156016
O O7 0.529988 0.774135 0.078519
O O8 0.326895 0.866594 0.012204
O O9 0.391466 0.582984 0.677090
O O10 0.424824 0.351229 0.620039
O O11 0.887602 0.627719 0.775029
O O12 0.888340 0.541693 0.175971
O O13 0.500000 0.000000 0.000000
#
# Coordination Sequence:
#
# PCOD9092218 Si02
#       6
#     2   2   2   2   2   2
#     4   9  20  38  66 100 141 180 232 280 327 396
#     4  12  24  43  71 100 135 177 230 281 337 412
#     4  12  25  44  75 101 137 186 225 278 349 411
#     4  11  22  41  66  98 136 181 228 277 332 394
#     4  12  27  48  72 104 138 174 227 292 349 413
#     4  10  19  40  67  98 139 184 230 276 336 397
#
# _framework density 26.197192000000001
#
# number of rings (size 3 to 8) (size 9 to 14) (size 15 to 20)
#    0.000    1.000    5.000    1.500    0.000    1.333 
#    0.000   10.000    0.000    0.000    0.000    0.000 
#    0.000    0.000    0.000    0.000    0.000    0.000 
#
# Total GULP energy -67310.868354 kJ/mol
# GULP energy per Si atom -5609.239030 kJ/mol
# Density = 2.613757 g / cm^3
# Si number density = 26.197192 Si / 1000 Ang^3
#
#
#
# Elastic Constant Matrix: (Units=GPa)
#
#
# Indices 1 2 3 4 5 6 
#
# 1 91.6926 9.0861 37.6245 11.1018 14.7402 19.0211
# 2 9.0861 38.1350 39.3980 17.5938 8.1170 17.6739
# 3 37.6245 39.3980 161.6194 11.4330 36.7573 14.0435
# 4 11.1018 17.5938 11.4330 41.7016 10.6227 14.6263
# 5 14.7402 8.1170 36.7573 10.6227 50.0542 13.4575
# 6 19.0211 17.6739 14.0435 14.6263 13.4575 30.9149
#
#
#
# Elastic Compliance Matrix: (Units=1/GPa)
#
#
# Indices 1 2 3 4 5 6 
#
# 1 0.014039 0.005912 -0.003911 -0.001976 0.000794 -0.009651
# 2 0.005912 0.056302 -0.013939 -0.014565 0.009664 -0.026809
# 3 -0.003911 -0.013939 0.011366 0.003288 -0.007492 0.006918
# 4 -0.001976 -0.014565 0.003288 0.032898 -0.005019 -0.005330
# 5 0.000794 0.009664 -0.007492 -0.005019 0.028096 -0.012465
# 6 -0.009651 -0.026809 0.006918 -0.005330 -0.012465 0.058417
#
#
# Mechanical properties :
#
#
# Convention : Reuss Voigt Hill
#
# Bulk Modulus (GPa) = 17.29211 51.51825 34.40518
# Shear Modulus (GPa) = 20.46901 38.22336 29.34619
#
# Velocity S-wave (km/s) = 2.79829 3.82391 3.35058
# Velocity P-wave (km/s) = 4.12984 6.26136 5.30379
#
# Compressibility (1/GPa) = 0.05782986
#
# Stress axis : x y z
#
# Youngs Moduli (GPa) = 71.23028 17.76131 87.98097
#
# Poissons Ratio (x) = -0.10500 0.34413
# Poissons Ratio (y) = -0.42110 1.22637
# Poissons Ratio (z) = 0.27861 0.24758
#
# Static dielectric constant tensor:
#      x y z
#    x 2.026490 -0.017260 0.009040 
#    y -0.017260 2.043320 -0.014190 
#    z 0.009040 -0.014190 2.100500 
# 
# From -- ./inp_files/111937.got.cif
#   From: 2010.05.17/outbox.cif.g08.bks.cpg/sg2_56_cif.got.tgz:111937.got - 2010.06.03 11:33:40.
