data_PCOD9092230
_publ_section_title
;
Structure prediction by ZEFSAII (Michael W. Deem and Ramdas Pophale) SiO2 
 PCOD9092230
Probable space group: P -1
;
_chemical_formula_sum "Si O2"
_cell_formula_units_Z 16
_cell_length_a 19.468673
_cell_length_b 11.685842
_cell_length_c 11.515098
_cell_angle_alpha 139.593289
_cell_angle_beta 148.589149
_cell_angle_gamma 35.953374
_cell_volume 780.007428
_symmetry_space_group_name_H-M "P -1"
_symmetry_group_IT_number 2
_symmetry_cell_setting 'triclinic'
loop_
_space_group_symop_operation_xyz
x,y,z
-x,-y,-z
loop_
_atom_site_type_symbol
_atom_site_label
_atom_site_fract_x
_atom_site_fract_y
_atom_site_fract_z
Si Si1 0.857645 0.710685 0.275063
Si Si2 0.827212 0.041283 0.178171
Si Si3 0.445301 0.120718 0.176002
Si Si4 0.455984 0.639450 0.653786
Si Si5 0.374467 0.154012 0.350895
Si Si6 0.139118 0.912671 0.469417
Si Si7 0.803232 0.478630 0.450504
Si Si8 0.662481 0.650429 0.133136
O O1 0.801119 0.627924 0.236652
O O2 0.022763 0.574343 0.356391
O O3 0.865582 0.910736 0.480430
O O4 0.722807 0.777082 0.038667
O O5 0.851302 0.014518 0.330258
O O6 0.792610 0.272269 0.290922
O O7 0.985082 0.907062 0.238682
O O8 0.714252 0.965349 0.912207
O O9 0.533260 0.172769 0.244120
O O10 0.438307 0.197267 0.356687
O O11 0.534320 0.881638 0.132659
O O12 0.500000 0.500000 0.500000
O O13 0.288355 0.711625 0.507065
O O14 0.575424 0.552606 0.862183
O O15 0.272802 0.359777 0.431982
O O16 0.500000 0.000000 0.500000
O O17 0.717836 0.572499 0.280068
#
# Coordination Sequence:
#
# PCOD9092230 Si02
#       8
#     2   2   2   2   2   2   2   2
#     4  10  19  40  68  89 122 173 219 262 315 379
#     4  10  24  42  65  93 132 171 210 267 325 384
#     4  11  21  41  66  90 125 174 216 264 314 382
#     4  11  23  36  66  98 122 167 220 269 315 376
#     4  12  25  43  64  95 134 171 215 265 327 389
#     4  10  19  42  64  92 129 166 212 273 323 369
#     4  11  26  40  65  99 129 177 211 265 332 387
#     4  11  20  42  63  93 131 167 213 265 325 388
#
# _framework density 20.512625
#
# number of rings (size 3 to 8) (size 9 to 14) (size 15 to 20)
#    0.000    1.250    5.000    1.125    1.750    4.000 
#    0.000    0.000    0.000    4.500    0.000    0.000 
#    0.000    0.000    0.000    0.000    0.000    0.000 
#
# Total GULP energy -89280.023454 kJ/mol
# GULP energy per Si atom -5580.001466 kJ/mol
# Density = 2.046594 g / cm^3
# Si number density = 20.512625 Si / 1000 Ang^3
#
#
#
# Elastic Constant Matrix: (Units=GPa)
#
#
# Indices 1 2 3 4 5 6 
#
# 1 77.6260 30.5567 7.7258 -4.6542 -7.0492 -16.0721
# 2 30.5567 68.5816 29.6944 -5.5488 1.7469 -14.2118
# 3 7.7258 29.6944 66.1663 -7.5536 -1.2752 -9.1114
# 4 -4.6542 -5.5488 -7.5536 25.7278 0.3834 -0.7852
# 5 -7.0492 1.7469 -1.2752 0.3834 30.2579 -5.4030
# 6 -16.0721 -14.2118 -9.1114 -0.7852 -5.4030 43.5641
#
#
#
# Elastic Compliance Matrix: (Units=1/GPa)
#
#
# Indices 1 2 3 4 5 6 
#
# 1 0.017369 -0.007715 0.002509 0.002290 0.005486 0.005137
# 2 -0.007715 0.022464 -0.008815 0.000976 -0.003072 0.002275
# 3 0.002509 -0.008815 0.019669 0.004370 0.002319 0.002530
# 4 0.002290 0.000976 0.004370 0.040855 0.000661 0.002896
# 5 0.005486 -0.003072 0.002319 0.000661 0.035655 0.005941
# 6 0.005137 0.002275 0.002530 0.002896 0.005941 0.026910
#
#
# Mechanical properties :
#
#
# Convention : Reuss Voigt Hill
#
# Bulk Modulus (GPa) = 31.78751 38.70308 35.24530
# Shear Modulus (GPa) = 24.82013 29.53642 27.17828
#
# Velocity S-wave (km/s) = 3.48227 3.79874 3.64394
# Velocity P-wave (km/s) = 5.63014 6.17652 5.90965
#
# Compressibility (1/GPa) = 0.03145890
#
# Stress axis : x y z
#
# Youngs Moduli (GPa) = 57.57540 44.51568 50.84264
#
# Poissons Ratio (x) = 0.34343 -0.12756
# Poissons Ratio (y) = 0.44418 0.44819
# Poissons Ratio (z) = -0.14445 0.39241
#
# Static dielectric constant tensor:
#      x y z
#    x 1.761220 0.007050 0.036940 
#    y 0.007050 1.713360 -0.020410 
#    z 0.036940 -0.020410 1.706930 
# 
# From -- ./inp_files/243905.got.cif
#   From: 2010.05.17/outbox.cif.g08.bks.cpg/sg2_122_cif.got.tgz:243905.got - 2010.06.03 11:33:40.
