data_PCOD9092972
_publ_section_title
;
Structure prediction by ZEFSAII (Michael W. Deem and Ramdas Pophale) SiO2 
 PCOD9092972
Probable space group: P -1
;
_chemical_formula_sum "Si O2"
_cell_formula_units_Z 16
_cell_length_a 10.785914
_cell_length_b 9.721161
_cell_length_c 7.685476
_cell_angle_alpha 67.747377
_cell_angle_beta 62.744725
_cell_angle_gamma 76.721277
_cell_volume 661.461898
_symmetry_space_group_name_H-M "P -1"
_symmetry_group_IT_number 2
_symmetry_cell_setting 'triclinic'
loop_
_space_group_symop_operation_xyz
x,y,z
-x,-y,-z
loop_
_atom_site_type_symbol
_atom_site_label
_atom_site_fract_x
_atom_site_fract_y
_atom_site_fract_z
Si Si1 0.170867 0.399766 0.848841
Si Si2 0.663920 0.071438 0.162003
Si Si3 0.344665 0.095380 0.376034
Si Si4 0.690085 0.353584 0.207271
Si Si5 0.895833 0.405536 0.504512
Si Si6 0.357073 0.391887 0.410125
Si Si7 0.928953 0.920941 0.919524
Si Si8 0.151942 0.868915 0.510707
O O1 0.083118 0.525465 0.734157
O O2 0.301880 0.353614 0.657123
O O3 0.084865 0.256580 0.981612
O O4 0.766056 0.506966 0.080832
O O5 0.665051 0.985086 0.389459
O O6 0.771204 0.989871 0.002585
O O7 0.502130 0.079631 0.211704
O O8 0.711740 0.236123 0.094105
O O9 0.312729 0.267581 0.362110
O O10 0.244069 0.009091 0.359943
O O11 0.523341 0.391926 0.306584
O O12 0.746717 0.254849 0.386039
O O13 0.737001 0.457400 0.637600
O O14 0.906002 0.228780 0.561847
O O15 0.000000 0.500000 0.500000
O O16 0.028539 0.931176 0.686210
O O17 0.000000 0.000000 0.000000
#
# Coordination Sequence:
#
# PCOD9092972 Si02
#       8
#     2   2   2   2   2   2   2   2
#     4   9  19  28  48  70 104 129 156 200 246 298
#     4   9  16  26  44  66 107 133 147 188 242 307
#     4   9  15  28  45  72  96 129 161 194 238 290
#     4   9  16  27  43  75  99 122 154 200 247 296
#     4   9  20  35  48  68  97 135 174 209 235 274
#     4   9  16  28  49  70  99 121 156 208 247 283
#     4  12  19  30  44  77 112 135 146 191 260 317
#     4  10  20  29  49  75 108 126 162 196 246 308
#
# _framework density 24.188845000000001
#
# number of rings (size 3 to 8) (size 9 to 14) (size 15 to 20)
#    0.750    1.750    3.750    1.125    0.000    2.000 
#    0.000    0.625    0.000    0.000    0.000   11.375 
#    0.000    0.125    0.000    0.000    0.000    0.000 
#
# Total GULP energy -89292.237777 kJ/mol
# GULP energy per Si atom -5580.764861 kJ/mol
# Density = 2.413379 g / cm^3
# Si number density = 24.188845 Si / 1000 Ang^3
#
#
#
# Elastic Constant Matrix: (Units=GPa)
#
#
# Indices 1 2 3 4 5 6 
#
# 1 68.6241 62.5214 39.3293 9.3245 -15.8395 21.0856
# 2 62.5214 203.7190 55.9082 6.5220 -21.8376 36.5833
# 3 39.3293 55.9082 64.9532 13.8304 -11.3423 7.2757
# 4 9.3245 6.5220 13.8304 37.5419 -7.8537 -13.3904
# 5 -15.8395 -21.8376 -11.3423 -7.8537 25.4112 0.1457
# 6 21.0856 36.5833 7.2757 -13.3904 0.1457 45.5322
#
#
#
# Elastic Compliance Matrix: (Units=1/GPa)
#
#
# Indices 1 2 3 4 5 6 
#
# 1 0.030362 -0.002795 -0.012025 -0.004598 0.009800 -0.011276
# 2 -0.002795 0.008092 -0.004148 -0.000120 0.003350 -0.004590
# 3 -0.012025 -0.004148 0.026903 -0.005258 -0.000695 0.003058
# 4 -0.004598 -0.000120 -0.005258 0.035758 0.005658 0.013564
# 5 0.009800 0.003350 -0.000695 0.005658 0.049810 -0.005614
# 6 -0.011276 -0.004590 0.003058 0.013564 -0.005614 0.034391
#
#
# Mechanical properties :
#
#
# Convention : Reuss Voigt Hill
#
# Bulk Modulus (GPa) = 36.46900 72.53489 54.50195
# Shear Modulus (GPa) = 21.51525 33.66621 27.59073
#
# Velocity S-wave (km/s) = 2.98563 3.73474 3.38100
# Velocity P-wave (km/s) = 5.19566 6.97494 6.14998
#
# Compressibility (1/GPa) = 0.02742055
#
# Stress axis : x y z
#
# Youngs Moduli (GPa) = 32.93607 123.57476 37.17072
#
# Poissons Ratio (x) = 0.34544 0.44697
# Poissons Ratio (y) = 0.09207 0.15419
# Poissons Ratio (z) = 0.39605 0.51260
#
# Static dielectric constant tensor:
#      x y z
#    x 2.019490 -0.005550 0.068740 
#    y -0.005550 1.925030 -0.025150 
#    z 0.068740 -0.025150 1.950170 
# 
# From -- ./inp_files/417314.got.cif
#   From: 2010.05.17/outbox.cif.g08.bks.cpg/sg2_209_cif.got.tgz:417314.got - 2010.06.03 11:33:40.
