data_PCOD9092105
_publ_section_title
;
Structure prediction by ZEFSAII (Michael W. Deem and Ramdas Pophale) SiO2 
 PCOD9092105
Probable space group: P -1
;
_chemical_formula_sum "Si O2"
_cell_formula_units_Z 16
_cell_length_a 10.791988
_cell_length_b 9.148082
_cell_length_c 16.274970
_cell_angle_alpha 150.199722
_cell_angle_beta 69.062417
_cell_angle_gamma 105.051627
_cell_volume 741.388742
_symmetry_space_group_name_H-M "P -1"
_symmetry_group_IT_number 2
_symmetry_cell_setting 'triclinic'
loop_
_space_group_symop_operation_xyz
x,y,z
-x,-y,-z
loop_
_atom_site_type_symbol
_atom_site_label
_atom_site_fract_x
_atom_site_fract_y
_atom_site_fract_z
Si Si1 0.440789 0.364299 0.029966
Si Si2 0.711891 0.618577 0.458787
Si Si3 0.117747 0.440006 0.374745
Si Si4 0.014808 0.645195 0.809066
Si Si5 0.724955 0.070923 0.822513
Si Si6 0.832139 0.621832 0.983348
Si Si7 0.516574 0.056291 0.617991
Si Si8 0.259141 0.870556 0.653451
O O1 0.421687 0.639369 0.230770
O O2 0.500000 0.500000 0.000000
O O3 0.566470 0.130840 0.910181
O O4 0.297051 0.276006 0.994905
O O5 0.597764 0.775930 0.505391
O O6 0.683424 0.360759 0.403119
O O7 0.834485 0.486125 0.309209
O O8 0.743780 0.876719 0.639998
O O9 0.063173 0.440262 0.296067
O O10 0.212510 0.689575 0.499181
O O11 0.000000 0.500000 0.500000
O O12 0.198175 0.123222 0.220372
O O13 0.951714 0.517223 0.843021
O O14 0.000000 0.000000 0.000000
O O15 0.790129 0.366884 0.928517
O O16 0.857823 0.910608 0.170419
O O17 0.370753 0.075244 0.701819
O O18 0.500000 0.000000 0.500000
#
# Coordination Sequence:
#
# PCOD9092105 Si02
#       8
#     2   2   2   2   2   2   2   2
#     4  10  19  40  66  90 133 169 217 265 324 393
#     4  11  22  44  68  94 131 179 219 265 336 390
#     4  11  23  44  65  96 135 166 226 269 323 385
#     4  12  25  45  66  96 136 175 221 273 321 398
#     4  10  20  41  72  93 124 181 220 267 323 393
#     4  11  21  42  69  96 129 182 219 263 337 388
#     4  12  25  41  66 106 135 159 225 284 326 382
#     4  11  22  43  70  94 131 178 213 268 338 389
#
# _framework density 21.581119000000001
#
# number of rings (size 3 to 8) (size 9 to 14) (size 15 to 20)
#    0.000    1.000    8.750    0.375    1.750    2.500 
#    2.250    1.875    0.000    0.000    0.000    0.000 
#    0.000    0.000    0.000    0.000    0.000    0.000 
#
# Total GULP energy -89377.814011 kJ/mol
# GULP energy per Si atom -5586.113376 kJ/mol
# Density = 2.153200 g / cm^3
# Si number density = 21.581119 Si / 1000 Ang^3
#
#
#
# Elastic Constant Matrix: (Units=GPa)
#
#
# Indices 1 2 3 4 5 6 
#
# 1 37.5343 -1.1020 12.2274 -7.0225 2.7658 4.9534
# 2 -1.1020 27.3105 24.7860 -8.6491 9.6079 1.5418
# 3 12.2274 24.7860 120.6437 -6.9332 12.7468 -0.9655
# 4 -7.0225 -8.6491 -6.9332 32.3941 4.1348 3.1191
# 5 2.7658 9.6079 12.7468 4.1348 39.5489 -7.1826
# 6 4.9534 1.5418 -0.9655 3.1191 -7.1826 24.2450
#
#
#
# Elastic Compliance Matrix: (Units=1/GPa)
#
#
# Indices 1 2 3 4 5 6 
#
# 1 0.032532 0.012003 -0.004472 0.011254 -0.006941 -0.011092
# 2 0.012003 0.059662 -0.010711 0.019703 -0.016501 -0.014096
# 3 -0.004472 -0.010711 0.010861 -0.001722 0.000003 0.002250
# 4 0.011254 0.019703 -0.001722 0.040856 -0.011522 -0.012290
# 5 -0.006941 -0.016501 0.000003 -0.011522 0.033503 0.013875
# 6 -0.011092 -0.014096 0.002250 -0.012290 0.013875 0.050190
#
#
# Mechanical properties :
#
#
# Convention : Reuss Voigt Hill
#
# Bulk Modulus (GPa) = 10.34161 28.59015 19.46588
# Shear Modulus (GPa) = 18.78321 29.20942 23.99632
#
# Velocity S-wave (km/s) = 2.95338 3.68295 3.33815
# Velocity P-wave (km/s) = 4.05368 5.60018 4.88847
#
# Compressibility (1/GPa) = 0.09669677
#
# Stress axis : x y z
#
# Youngs Moduli (GPa) = 30.73852 16.76114 92.06880
#
# Poissons Ratio (x) = -0.20119 0.41173
# Poissons Ratio (y) = -0.36897 0.98615
# Poissons Ratio (z) = 0.13746 0.17953
#
# Static dielectric constant tensor:
#      x y z
#    x 1.788960 0.001590 0.115100 
#    y 0.001590 1.780880 0.071090 
#    z 0.115100 0.071090 1.330440 
# 
# From -- ./inp_files/177548.got.cif
#   From: 2010.05.17/outbox.cif.g08.bks.cpg/sg2_89_cif.got.tgz:177548.got - 2010.06.03 11:33:40.
