data_PCOD9092245
_publ_section_title
;
Structure prediction by ZEFSAII (Michael W. Deem and Ramdas Pophale) SiO2 
 PCOD9092245
Probable space group: P -1
;
_chemical_formula_sum "Si O2"
_cell_formula_units_Z 16
_cell_length_a 9.353070
_cell_length_b 8.972929
_cell_length_c 12.840836
_cell_angle_alpha 110.905695
_cell_angle_beta 99.791247
_cell_angle_gamma 44.611226
_cell_volume 701.195240
_symmetry_space_group_name_H-M "P -1"
_symmetry_group_IT_number 2
_symmetry_cell_setting 'triclinic'
loop_
_space_group_symop_operation_xyz
x,y,z
-x,-y,-z
loop_
_atom_site_type_symbol
_atom_site_label
_atom_site_fract_x
_atom_site_fract_y
_atom_site_fract_z
Si Si1 0.882926 0.451030 0.302196
Si Si2 0.558157 0.663336 0.155044
Si Si3 0.942865 0.209167 0.986518
Si Si4 0.576439 0.777676 0.504317
Si Si5 0.735465 0.850846 0.861602
Si Si6 0.537895 0.726649 0.720774
Si Si7 0.912883 0.061846 0.261679
Si Si8 0.694138 0.264227 0.662605
O O1 0.715599 0.638476 0.243129
O O2 0.801617 0.569509 0.432652
O O3 0.877258 0.262235 0.255443
O O4 0.105213 0.317040 0.253551
O O5 0.285807 0.560175 0.952014
O O6 0.420679 0.676236 0.225686
O O7 0.408801 0.891221 0.127281
O O8 0.888564 0.791262 0.955936
O O9 0.971534 0.146939 0.854538
O O10 0.000000 0.000000 0.000000
O O11 0.566729 0.787447 0.628572
O O12 0.430319 0.749017 0.436655
O O13 0.500000 0.000000 0.500000
O O14 0.593802 0.805060 0.840358
O O15 0.306026 0.843873 0.722168
O O16 0.675814 0.461936 0.679183
O O17 0.068884 0.967452 0.352224
#
# Coordination Sequence:
#
# PCOD9092245 Si02
#       8
#     2   2   2   2   2   2   2   2
#     4  10  21  43  66  96 135 169 230 277 318 408
#     4  10  19  40  68  96 132 174 231 271 321 395
#     4  11  21  40  68 104 133 180 233 276 322 400
#     4  11  25  46  74 101 132 174 227 281 337 405
#     4  11  24  42  70 101 134 180 230 278 333 390
#     4  12  26  45  65 101 142 173 220 285 338 399
#     4  12  24  42  67  98 142 177 223 275 333 401
#     4  11  23  43  67  98 136 182 217 276 348 392
#
# _framework density 22.818180000000002
#
# number of rings (size 3 to 8) (size 9 to 14) (size 15 to 20)
#    0.000    1.000    6.250    1.875    0.000    7.500 
#    0.000    1.250    0.000    0.000    0.000    0.000 
#    0.000    0.000    0.000    0.000    0.000    0.000 
#
# Total GULP energy -89472.044462 kJ/mol
# GULP energy per Si atom -5592.002779 kJ/mol
# Density = 2.276624 g / cm^3
# Si number density = 22.818180 Si / 1000 Ang^3
#
#
#
# Elastic Constant Matrix: (Units=GPa)
#
#
# Indices 1 2 3 4 5 6 
#
# 1 46.6537 19.2356 1.2789 -6.4494 21.2103 -18.1566
# 2 19.2356 86.3649 -7.1419 0.7075 13.9879 -11.8135
# 3 1.2789 -7.1419 39.8933 -2.8807 19.8599 -5.1366
# 4 -6.4494 0.7075 -2.8807 20.4030 -4.1742 2.9056
# 5 21.2103 13.9879 19.8599 -4.1742 32.0551 2.0977
# 6 -18.1566 -11.8135 -5.1366 2.9056 2.0977 48.4887
#
#
#
# Elastic Compliance Matrix: (Units=1/GPa)
#
#
# Indices 1 2 3 4 5 6 
#
# 1 0.061196 0.003988 0.035690 0.006565 -0.065460 0.030106
# 2 0.003988 0.015681 0.012436 -0.002280 -0.017977 0.007545
# 3 0.035690 0.012436 0.064852 0.001809 -0.070701 0.026214
# 4 0.006565 -0.002280 0.001809 0.052071 0.002384 -0.001129
# 5 -0.065460 -0.017977 -0.070701 0.002384 0.129224 -0.042114
# 6 0.030106 0.007545 0.026214 -0.001129 -0.042114 0.038401
#
#
# Mechanical properties :
#
#
# Convention : Reuss Voigt Hill
#
# Bulk Modulus (GPa) = 4.06575 22.18411 13.12493
# Shear Modulus (GPa) = 14.74124 30.82532 22.78328
#
# Velocity S-wave (km/s) = 2.54447 3.67946 3.16329
# Velocity P-wave (km/s) = 3.22771 5.27205 4.37107
#
# Compressibility (1/GPa) = 0.24595695
#
# Stress axis : x y z
#
# Youngs Moduli (GPa) = 16.34086 63.77018 15.41972
#
# Poissons Ratio (x) = -0.25430 -0.55033
# Poissons Ratio (y) = -0.06516 -0.19176
# Poissons Ratio (z) = -0.58321 -0.79303
#
# Static dielectric constant tensor:
#      x y z
#    x 1.874730 -0.032420 0.012600 
#    y -0.032420 1.823000 -0.011480 
#    z 0.012600 -0.011480 1.882480 
# 
# From -- ./inp_files/495458.got.cif
#   From: 2010.05.17/outbox.cif.g08.bks.cpg/sg2_248_cif.got.tgz:495458.got - 2010.06.03 11:33:40.
