data_PCOD9092255
_publ_section_title
;
Structure prediction by ZEFSAII (Michael W. Deem and Ramdas Pophale) SiO2 
 PCOD9092255
Probable space group: P -1
;
_chemical_formula_sum "Si O2"
_cell_formula_units_Z 16
_cell_length_a 14.931452
_cell_length_b 7.615816
_cell_length_c 13.384129
_cell_angle_alpha 132.858097
_cell_angle_beta 129.247395
_cell_angle_gamma 85.437894
_cell_volume 679.299621
_symmetry_space_group_name_H-M "P -1"
_symmetry_group_IT_number 2
_symmetry_cell_setting 'triclinic'
loop_
_space_group_symop_operation_xyz
x,y,z
-x,-y,-z
loop_
_atom_site_type_symbol
_atom_site_label
_atom_site_fract_x
_atom_site_fract_y
_atom_site_fract_z
Si Si1 0.646586 0.611029 0.205225
Si Si2 0.513101 0.409230 0.688651
Si Si3 0.660699 0.160041 0.439414
Si Si4 0.360572 0.966432 0.258817
Si Si5 0.236794 0.248605 0.167485
Si Si6 0.678750 0.386924 0.329309
Si Si7 0.221902 0.324961 0.877311
Si Si8 0.011553 0.781880 0.664937
O O1 0.625064 0.350122 0.160489
O O2 0.768432 0.708846 0.246082
O O3 0.686437 0.920222 0.402738
O O4 0.500000 0.500000 0.000000
O O5 0.633226 0.554937 0.743818
O O6 0.420284 0.529708 0.664618
O O7 0.404491 0.058494 0.441266
O O8 0.619612 0.549625 0.913739
O O9 0.776292 0.506881 0.696075
O O10 0.672337 0.181423 0.333795
O O11 0.498669 0.044348 0.319024
O O12 0.303119 0.146712 0.252328
O O13 0.228371 0.613576 0.015078
O O14 0.108137 0.958127 0.900661
O O15 0.849345 0.652970 0.531963
O O16 0.092729 0.034136 0.732978
O O17 0.000000 0.500000 0.500000
#
# Coordination Sequence:
#
# PCOD9092255 Si02
#       8
#     2   2   2   2   2   2   2   2
#     4  12  25  41  67 108 134 175 227 282 339 393
#     4  10  19  40  69 100 132 167 227 281 335 399
#     4  11  22  44  71 104 141 170 227 292 330 402
#     4  11  19  39  73 103 133 173 222 283 347 396
#     4  10  22  43  70 100 131 184 223 268 352 399
#     4  12  24  44  68  99 139 177 228 278 338 394
#     4  11  24  44  65 100 139 176 226 284 336 403
#     4  11  28  48  65  95 137 188 224 271 343 416
#
# _framework density 23.553668999999999
#
# number of rings (size 3 to 8) (size 9 to 14) (size 15 to 20)
#    0.000    1.000    5.000    1.875    1.750    3.500 
#    2.250    1.250    0.000    0.000    0.000    0.000 
#    0.000    0.000    0.000    0.000    0.000    0.000 
#
# Total GULP energy -89185.547727 kJ/mol
# GULP energy per Si atom -5574.096733 kJ/mol
# Density = 2.350006 g / cm^3
# Si number density = 23.553669 Si / 1000 Ang^3
#
#
#
# Elastic Constant Matrix: (Units=GPa)
#
#
# Indices 1 2 3 4 5 6 
#
# 1 55.0812 -6.4599 30.5858 -5.0482 -3.2329 24.5124
# 2 -6.4599 32.9145 11.7450 8.7311 -5.4353 12.8211
# 3 30.5858 11.7450 111.0200 6.2380 -16.2044 3.4891
# 4 -5.0482 8.7311 6.2380 35.0065 -5.2411 -1.9582
# 5 -3.2329 -5.4353 -16.2044 -5.2411 28.4789 3.7216
# 6 24.5124 12.8211 3.4891 -1.9582 3.7216 41.4705
#
#
#
# Elastic Compliance Matrix: (Units=1/GPa)
#
#
# Indices 1 2 3 4 5 6 
#
# 1 0.044579 0.027841 -0.013088 0.001029 0.007624 -0.034492
# 2 0.027841 0.057227 -0.010540 -0.008669 0.011020 -0.034660
# 3 -0.013088 -0.010540 0.013915 -0.000751 0.003039 0.009516
# 4 0.001029 -0.008669 -0.000751 0.031711 0.003437 0.003324
# 5 0.007624 0.011020 0.003039 0.003437 0.041982 -0.011774
# 6 -0.034492 -0.034660 0.009516 0.003324 -0.011774 0.055630
#
#
# Mechanical properties :
#
#
# Convention : Reuss Voigt Hill
#
# Bulk Modulus (GPa) = 8.05488 30.08416 19.06952
# Shear Modulus (GPa) = 17.98563 31.86748 24.92655
#
# Velocity S-wave (km/s) = 2.76633 3.68227 3.25666
# Velocity P-wave (km/s) = 3.69198 5.55690 4.71751
#
# Compressibility (1/GPa) = 0.12414830
#
# Stress axis : x y z
#
# Youngs Moduli (GPa) = 22.43206 17.47416 71.86640
#
# Poissons Ratio (x) = -0.48650 0.94058
# Poissons Ratio (y) = -0.62453 0.75744
# Poissons Ratio (z) = 0.29359 0.18417
#
# Static dielectric constant tensor:
#      x y z
#    x 2.385150 0.599720 -0.482450 
#    y 0.599720 2.622840 -0.487680 
#    z -0.482450 -0.487680 2.320840 
# 
# From -- ./inp_files/530247.got.cif
#   From: 2010.05.17/outbox.cif.g08.bks.cpg/sg2_266_cif.got.tgz:530247.got - 2010.06.03 11:33:40.
