data_PCOD9092648
_publ_section_title
;
Structure prediction by ZEFSAII (Michael W. Deem and Ramdas Pophale) SiO2 
 PCOD9092648
Probable space group: P -1
;
_chemical_formula_sum "Si O2"
_cell_formula_units_Z 15
_cell_length_a 6.890464
_cell_length_b 22.864464
_cell_length_c 19.584433
_cell_angle_alpha 18.535336
_cell_angle_beta 120.258673
_cell_angle_gamma 131.232648
_cell_volume 636.126607
_symmetry_space_group_name_H-M "P -1"
_symmetry_group_IT_number 2
_symmetry_cell_setting 'triclinic'
loop_
_space_group_symop_operation_xyz
x,y,z
-x,-y,-z
loop_
_atom_site_type_symbol
_atom_site_label
_atom_site_fract_x
_atom_site_fract_y
_atom_site_fract_z
Si Si1 0.607532 0.255811 0.262224
Si Si2 0.186413 0.639497 0.448047
Si Si3 0.727833 0.519431 0.857416
Si Si4 0.530105 0.775679 0.575257
Si Si5 0.500000 0.000000 0.000000
Si Si6 0.808712 0.920889 0.241717
Si Si7 0.554367 0.862425 0.885472
Si Si8 0.078019 0.636786 0.156695
O O1 0.453414 0.228045 0.335981
O O2 0.957332 0.413672 0.165577
O O3 0.500000 0.000000 0.500000
O O4 0.580739 0.382021 0.055475
O O5 0.354464 0.912675 0.149600
O O6 0.000000 0.500000 0.500000
O O7 0.985285 0.507173 0.624472
O O8 0.476688 0.665897 0.482717
O O9 0.756413 0.754536 0.604114
O O10 0.532615 0.339092 0.961026
O O11 0.204322 0.544856 0.742523
O O12 0.569405 0.008809 0.304984
O O13 0.748422 0.985926 0.086101
O O14 0.087169 0.936417 0.269613
O O15 0.890709 0.131298 0.074840
O O16 0.377404 0.731620 0.068183
#
# Coordination Sequence:
#
# PCOD9092648 Si02
#       8
#     2   2   2   2   1   2   2   2
#     4  11  24  47  72 104 144 192 247 295 359 435
#     4  10  19  41  73 101 142 191 237 294 370 431
#     4  11  25  47  71 101 146 192 240 303 357 429
#     4  12  26  43  72 105 143 195 240 297 368 427
#     4   8  20  42  72 100 136 194 234 290 372 424
#     4  10  22  44  72  99 145 190 237 306 358 432
#     4  12  26  44  70 112 143 186 252 297 364 440
#     4  12  23  43  70 106 144 187 242 300 365 434
#
# _framework density 23.580212
#
# number of rings (size 3 to 8) (size 9 to 14) (size 15 to 20)
#    0.800    0.267    5.333    1.200    0.000    4.800 
#    0.000    3.333    0.000    0.000    0.000    0.000 
#    0.000    0.000    0.000    0.000    0.000    0.000 
#
# Total GULP energy -83531.632161 kJ/mol
# GULP energy per Si atom -5568.775477 kJ/mol
# Density = 2.352654 g / cm^3
# Si number density = 23.580212 Si / 1000 Ang^3
#
#
#
# Elastic Constant Matrix: (Units=GPa)
#
#
# Indices 1 2 3 4 5 6 
#
# 1 117.4785 43.6309 45.7442 16.0434 -8.2371 -15.2388
# 2 43.6309 85.0675 22.0482 3.8957 -15.6409 -17.1656
# 3 45.7442 22.0482 65.1950 14.6347 -10.9830 -15.2882
# 4 16.0434 3.8957 14.6347 38.3129 1.4332 -2.7054
# 5 -8.2371 -15.6409 -10.9830 1.4332 39.9969 3.6513
# 6 -15.2388 -17.1656 -15.2882 -2.7054 3.6513 27.1094
#
#
#
# Elastic Compliance Matrix: (Units=1/GPa)
#
#
# Indices 1 2 3 4 5 6 
#
# 1 0.013549 -0.005111 -0.007443 -0.002258 -0.001182 0.000117
# 2 -0.005111 0.016614 0.000338 0.000652 0.004852 0.007250
# 3 -0.007443 0.000338 0.024606 -0.005883 0.004775 0.008677
# 4 -0.002258 0.000652 -0.005883 0.029270 -0.002794 -0.000877
# 5 -0.001182 0.004852 0.004775 -0.002794 0.027971 0.001055
# 6 0.000117 0.007250 0.008677 -0.000877 0.001055 0.046207
#
#
# Mechanical properties :
#
#
# Convention : Reuss Voigt Hill
#
# Bulk Modulus (GPa) = 32.96153 54.50976 43.73564
# Shear Modulus (GPa) = 25.93879 31.50502 28.72190
#
# Velocity S-wave (km/s) = 3.32026 3.65921 3.49384
# Velocity P-wave (km/s) = 5.35795 6.40468 5.90456
#
# Compressibility (1/GPa) = 0.03033840
#
# Stress axis : x y z
#
# Youngs Moduli (GPa) = 73.80516 60.19002 40.63993
#
# Poissons Ratio (x) = 0.30760 0.30250
# Poissons Ratio (y) = 0.37718 -0.01375
# Poissons Ratio (z) = 0.54935 -0.02036
#
# Static dielectric constant tensor:
#      x y z
#    x 1.651610 0.069140 -0.681090 
#    y 0.069140 1.930760 -0.033450 
#    z -0.681090 -0.033450 0.387470 
# 
# From -- ./inp_files/584434.got.cif
#   From: 2010.05.17/outbox.cif.g08.bks.cpg/sg2_293_cif.got.tgz:584434.got - 2010.06.03 11:33:40.
