data_PCOD9092254
_publ_section_title
;
Structure prediction by ZEFSAII (Michael W. Deem and Ramdas Pophale) SiO2 
 PCOD9092254
Probable space group: P -1
;
_chemical_formula_sum "Si O2"
_cell_formula_units_Z 14
_cell_length_a 21.270861
_cell_length_b 20.652285
_cell_length_c 9.184614
_cell_angle_alpha 149.526790
_cell_angle_beta 27.399157
_cell_angle_gamma 161.025978
_cell_volume 596.963081
_symmetry_space_group_name_H-M "P -1"
_symmetry_group_IT_number 2
_symmetry_cell_setting 'triclinic'
loop_
_space_group_symop_operation_xyz
x,y,z
-x,-y,-z
loop_
_atom_site_type_symbol
_atom_site_label
_atom_site_fract_x
_atom_site_fract_y
_atom_site_fract_z
Si Si1 0.000385 0.223827 0.612836
Si Si2 0.575791 0.298075 0.259461
Si Si3 0.703849 0.678706 0.028681
Si Si4 0.192754 0.729990 0.105616
Si Si5 0.103749 0.937751 0.169811
Si Si6 0.439795 0.806862 0.244673
Si Si7 0.110839 0.392490 0.266484
O O1 0.208754 0.461289 0.686659
O O2 0.815592 0.169705 0.806337
O O3 0.909106 0.113169 0.736744
O O4 0.096349 0.187900 0.235305
O O5 0.369993 0.241729 0.593544
O O6 0.604477 0.209430 0.152394
O O7 0.589685 0.255718 0.984431
O O8 0.500000 0.500000 0.000000
O O9 0.749137 0.600990 0.905064
O O10 0.098238 0.721152 0.430710
O O11 0.000000 0.500000 0.000000
O O12 0.000000 0.000000 0.500000
O O13 0.968163 0.744521 0.974397
O O14 0.354432 0.116950 0.962015
O O15 0.237175 0.609418 0.371950
O O16 0.500000 0.000000 0.500000
#
# Coordination Sequence:
#
# PCOD9092254 Si02
#       7
#     2   2   2   2   2   2   2
#     4   9  20  42  68  98 135 179 221 279 340 401
#     4  10  19  40  69 100 131 175 224 278 337 392
#     4   9  20  39  75 101 125 184 225 272 349 396
#     4   9  20  39  74  95 129 190 223 268 351 392
#     4  12  27  45  71 104 138 179 228 276 342 409
#     4  12  28  42  68 106 137 179 233 273 338 408
#     4  11  24  47  72  96 141 180 220 287 338 396
#
# _framework density 23.452038000000002
#
# number of rings (size 3 to 8) (size 9 to 14) (size 15 to 20)
#    0.000    1.714    1.429    2.571    8.000    2.286 
#    0.000    7.143    3.143    0.000    0.000    0.000 
#    0.000    0.000    0.000    0.000    0.000    0.000 
#
# Total GULP energy -78318.187856 kJ/mol
# GULP energy per Si atom -5594.156275 kJ/mol
# Density = 2.339866 g / cm^3
# Si number density = 23.452038 Si / 1000 Ang^3
#
#
#
# Elastic Constant Matrix: (Units=GPa)
#
#
# Indices 1 2 3 4 5 6 
#
# 1 122.2144 33.9721 46.9616 0.4259 9.0451 2.2959
# 2 33.9721 78.1835 11.6928 11.5786 6.3376 16.0564
# 3 46.9616 11.6928 108.8632 26.4274 3.7784 1.3264
# 4 0.4259 11.5786 26.4274 29.1562 9.6733 3.4405
# 5 9.0451 6.3376 3.7784 9.6733 42.3095 -7.8132
# 6 2.2959 16.0564 1.3264 3.4405 -7.8132 38.2908
#
#
#
# Elastic Compliance Matrix: (Units=1/GPa)
#
#
# Indices 1 2 3 4 5 6 
#
# 1 0.012680 -0.005659 -0.007066 0.009543 -0.003356 0.000315
# 2 -0.005659 0.017488 0.002661 -0.008172 -0.000989 -0.006553
# 3 -0.007066 0.002661 0.015854 -0.016668 0.003694 0.001010
# 4 0.009543 -0.008172 -0.016668 0.057442 -0.013280 -0.004439
# 5 -0.003356 -0.000989 0.003694 -0.013280 0.028595 0.007516
# 6 0.000315 -0.006553 0.001010 -0.004439 0.007516 0.030743
#
#
# Mechanical properties :
#
#
# Convention : Reuss Voigt Hill
#
# Bulk Modulus (GPa) = 38.61938 54.94600 46.78269
# Shear Modulus (GPa) = 26.10147 36.39362 31.24755
#
# Velocity S-wave (km/s) = 3.33974 3.94360 3.65417
# Velocity P-wave (km/s) = 5.60134 6.64951 6.14780
#
# Compressibility (1/GPa) = 0.02589373
#
# Stress axis : x y z
#
# Youngs Moduli (GPa) = 78.86692 57.18327 63.07547
#
# Poissons Ratio (x) = 0.32358 0.44568
# Poissons Ratio (y) = 0.44629 -0.16784
# Poissons Ratio (z) = 0.55727 -0.15216
#
# Static dielectric constant tensor:
#      x y z
#    x 1.827660 -0.024960 -0.016910 
#    y -0.024960 1.855570 0.075380 
#    z -0.016910 0.075380 1.856330 
# 
# From -- ./inp_files/349748.got.cif
#   From: 2010.05.17/outbox.cif.g08.bks.cpg/sg2_175_cif.got.tgz:349748.got - 2010.06.03 11:33:40.
