data_PCOD9092746
_publ_section_title
;
Structure prediction by ZEFSAII (Michael W. Deem and Ramdas Pophale) SiO2 
 PCOD9092746
Probable space group: P -1
;
_chemical_formula_sum "Si O2"
_cell_formula_units_Z 12
_cell_length_a 6.168809
_cell_length_b 12.263586
_cell_length_c 11.195680
_cell_angle_alpha 68.812971
_cell_angle_beta 72.152485
_cell_angle_gamma 37.124622
_cell_volume 476.384528
_symmetry_space_group_name_H-M "P -1"
_symmetry_group_IT_number 2
_symmetry_cell_setting 'triclinic'
loop_
_space_group_symop_operation_xyz
x,y,z
-x,-y,-z
loop_
_atom_site_type_symbol
_atom_site_label
_atom_site_fract_x
_atom_site_fract_y
_atom_site_fract_z
Si Si1 0.619751 0.334971 0.480682
Si Si2 0.431314 0.556670 0.798744
Si Si3 0.643641 0.671970 0.065508
Si Si4 0.515376 0.827611 0.262549
Si Si5 0.687761 0.881496 0.674813
Si Si6 0.286309 0.835716 0.833755
O O1 0.500000 0.500000 0.500000
O O2 0.436245 0.422108 0.347007
O O3 0.505645 0.270642 0.602703
O O4 0.055086 0.165289 0.452066
O O5 0.548863 0.375784 0.850602
O O6 0.435497 0.644305 0.872520
O O7 0.005733 0.716973 0.776584
O O8 0.743424 0.702571 0.157018
O O9 0.385251 0.838517 0.948434
O O10 0.000000 0.500000 0.000000
O O11 0.565273 0.923603 0.295050
O O12 0.125761 0.997921 0.198552
O O13 0.476868 0.846666 0.703125
#
# Coordination Sequence:
#
# PCOD9092746 Si02
#       6
#     2   2   2   2   2   2
#     4  10  19  42  67  88 126 161 202 256 312 359
#     4   9  21  41  65  87 123 162 203 257 301 358
#     4  12  22  43  65  88 128 167 206 253 303 368
#     4  11  23  41  65  92 125 162 205 257 306 362
#     4   9  21  40  62  94 122 161 201 251 312 364
#     4  11  23  41  63  94 124 164 206 250 310 364
#
# _framework density 25.189734000000001
#
# number of rings (size 3 to 8) (size 9 to 14) (size 15 to 20)
#    1.000    0.667    3.333    1.500    0.000    1.333 
#    6.000    0.833    0.000    0.000    0.000    0.000 
#    0.000    0.000    0.000    0.000    0.000    0.000 
#
# Total GULP energy -66977.845698 kJ/mol
# GULP energy per Si atom -5581.487141 kJ/mol
# Density = 2.513240 g / cm^3
# Si number density = 25.189734 Si / 1000 Ang^3
#
#
#
# Elastic Constant Matrix: (Units=GPa)
#
#
# Indices 1 2 3 4 5 6 
#
# 1 28.3852 19.9433 0.5395 9.1445 -5.3861 17.0891
# 2 19.9433 71.3690 16.6064 11.9480 -7.6756 11.8746
# 3 0.5395 16.6064 99.9281 -5.3548 3.9026 12.4351
# 4 9.1445 11.9480 -5.3548 48.5362 8.9633 -2.4832
# 5 -5.3861 -7.6756 3.9026 8.9633 29.1801 2.1316
# 6 17.0891 11.8746 12.4351 -2.4832 2.1316 46.2909
#
#
#
# Elastic Compliance Matrix: (Units=1/GPa)
#
#
# Indices 1 2 3 4 5 6 
#
# 1 0.063252 -0.011023 0.003095 -0.012586 0.013884 -0.022669
# 2 -0.011023 0.019106 -0.003466 -0.003888 0.004673 -0.000324
# 3 0.003095 -0.003466 0.011123 0.001736 -0.002139 -0.003050
# 4 -0.012586 -0.003888 0.001736 0.026766 -0.012325 0.007181
# 5 0.013884 0.004673 -0.002139 -0.012325 0.042745 -0.008379
# 6 -0.022669 -0.000324 -0.003050 0.007181 -0.008379 0.031644
#
#
# Mechanical properties :
#
#
# Convention : Reuss Voigt Hill
#
# Bulk Modulus (GPa) = 14.14601 30.42895 22.28748
# Shear Modulus (GPa) = 20.74767 35.64099 28.19433
#
# Velocity S-wave (km/s) = 2.87305 3.76560 3.34919
# Velocity P-wave (km/s) = 4.07847 5.56888 4.88090
#
# Compressibility (1/GPa) = 0.07069130
#
# Stress axis : x y z
#
# Youngs Moduli (GPa) = 15.80966 52.33954 89.90748
#
# Poissons Ratio (x) = 0.57696 -0.27824
# Poissons Ratio (y) = 0.17428 0.31163
# Poissons Ratio (z) = -0.04893 0.18141
#
# Static dielectric constant tensor:
#      x y z
#    x 1.990450 -0.005630 0.020920 
#    y -0.005630 2.050470 0.047210 
#    z 0.020920 0.047210 2.043790 
# 
# From -- ./inp_files/61150.got.cif
#   From: 2010.05.17/outbox.cif.g08.bks.cpg/sg2_31_cif.got.tgz:61150.got - 2010.06.03 11:33:40.
