data_PCOD9092722
_publ_section_title
;
Structure prediction by ZEFSAII (Michael W. Deem and Ramdas Pophale) SiO2 
 PCOD9092722
Probable space group: P -1
;
_chemical_formula_sum "Si O2"
_cell_formula_units_Z 12
_cell_length_a 10.504276
_cell_length_b 5.270830
_cell_length_c 9.244288
_cell_angle_alpha 76.320383
_cell_angle_beta 79.193742
_cell_angle_gamma 105.371971
_cell_volume 462.099235
_symmetry_space_group_name_H-M "P -1"
_symmetry_group_IT_number 2
_symmetry_cell_setting 'triclinic'
loop_
_space_group_symop_operation_xyz
x,y,z
-x,-y,-z
loop_
_atom_site_type_symbol
_atom_site_label
_atom_site_fract_x
_atom_site_fract_y
_atom_site_fract_z
Si Si1 0.718707 0.728027 0.906638
Si Si2 0.222126 0.495549 0.508024
Si Si3 0.084731 0.713096 0.271512
Si Si4 0.122285 0.879447 0.954762
Si Si5 0.457749 0.841005 0.880177
Si Si6 0.305913 0.985675 0.640473
O O1 0.744300 0.895963 0.031602
O O2 0.586301 0.731733 0.843340
O O3 0.847998 0.952309 0.770173
O O4 0.675829 0.418350 0.017475
O O5 0.190416 0.586262 0.343566
O O6 0.297990 0.763274 0.549522
O O7 0.066800 0.376671 0.621241
O O8 0.297706 0.270400 0.539874
O O9 0.081744 0.633878 0.113255
O O10 0.832524 0.132694 0.215381
O O11 0.000000 0.000000 0.000000
O O12 0.426487 0.994090 0.726213
O O13 0.500000 0.000000 0.000000
#
# Coordination Sequence:
#
# PCOD9092722 Si02
#       6
#     2   2   2   2   2   2
#     4   9  21  41  62  95 132 166 222 265 335 377
#     4  11  25  46  66  99 140 175 210 267 345 395
#     4   9  22  45  67  97 137 176 208 273 337 401
#     4  10  19  42  66 103 123 169 219 278 320 390
#     4  11  21  38  66  94 129 172 220 283 321 370
#     4  12  24  43  69  98 131 175 226 272 319 396
#
# _framework density 25.968446
#
# number of rings (size 3 to 8) (size 9 to 14) (size 15 to 20)
#    1.000    0.667    3.333    1.000    2.333    3.333 
#   15.000    1.667    0.000    0.000    0.000    0.000 
#    0.000    0.000    0.000    0.000    0.000    0.000 
#
# Total GULP energy -66974.467333 kJ/mol
# GULP energy per Si atom -5581.205611 kJ/mol
# Density = 2.590934 g / cm^3
# Si number density = 25.968446 Si / 1000 Ang^3
#
#
#
# Elastic Constant Matrix: (Units=GPa)
#
#
# Indices 1 2 3 4 5 6 
#
# 1 105.9271 7.6353 21.0471 -5.6077 27.4677 -8.5808
# 2 7.6353 125.2397 30.2737 -28.1881 20.8137 1.8836
# 3 21.0471 30.2737 115.9761 -11.8378 32.4962 -17.0280
# 4 -5.6077 -28.1881 -11.8378 29.7387 -6.8285 2.0474
# 5 27.4677 20.8137 32.4962 -6.8285 64.3209 -12.4456
# 6 -8.5808 1.8836 -17.0280 2.0474 -12.4456 20.0106
#
#
#
# Elastic Compliance Matrix: (Units=1/GPa)
#
#
# Indices 1 2 3 4 5 6 
#
# 1 0.010750 0.000391 -0.000599 0.001137 -0.004013 0.001451
# 2 0.000391 0.011136 -0.002003 0.009560 -0.002766 -0.005283
# 3 -0.000599 -0.002003 0.011396 0.001259 -0.003276 0.007463
# 4 0.001137 0.009560 0.001259 0.043597 -0.000367 -0.004029
# 5 -0.004013 -0.002766 -0.003276 -0.000367 0.021550 0.009193
# 6 0.001451 -0.005283 0.007463 -0.004029 0.009193 0.063573
#
#
# Mechanical properties :
#
#
# Convention : Reuss Voigt Hill
#
# Bulk Modulus (GPa) = 34.65143 51.67279 43.16211
# Shear Modulus (GPa) = 28.40194 42.02650 35.21422
#
# Velocity S-wave (km/s) = 3.31072 4.02726 3.68644
# Velocity P-wave (km/s) = 5.29028 6.44721 5.89719
#
# Compressibility (1/GPa) = 0.02885884
#
# Stress axis : x y z
#
# Youngs Moduli (GPa) = 93.02647 89.80003 87.74919
#
# Poissons Ratio (x) = -0.03507 0.05259
# Poissons Ratio (y) = -0.03633 0.17573
# Poissons Ratio (z) = 0.05575 0.17983
#
# Static dielectric constant tensor:
#      x y z
#    x 2.149770 -0.081650 0.022540 
#    y -0.081650 2.075440 -0.020600 
#    z 0.022540 -0.020600 2.122200 
# 
# From -- ./inp_files/360227.got.cif
#   From: 2010.05.17/outbox.cif.g08.bks.cpg/sg2_181_cif.got.tgz:360227.got - 2010.06.03 11:33:40.
