data_PCOD9092169
_publ_section_title
;
Structure prediction by ZEFSAII (Michael W. Deem and Ramdas Pophale) SiO2 
 PCOD9092169
Probable space group: P -1
;
_chemical_formula_sum "Si O2"
_cell_formula_units_Z 16
_cell_length_a 10.019656
_cell_length_b 18.707757
_cell_length_c 17.100862
_cell_angle_alpha 24.858665
_cell_angle_beta 135.031309
_cell_angle_gamma 146.756824
_cell_volume 720.117619
_symmetry_space_group_name_H-M "P -1"
_symmetry_group_IT_number 2
_symmetry_cell_setting 'triclinic'
loop_
_space_group_symop_operation_xyz
x,y,z
-x,-y,-z
loop_
_atom_site_type_symbol
_atom_site_label
_atom_site_fract_x
_atom_site_fract_y
_atom_site_fract_z
Si Si1 0.240623 0.270114 0.424387
Si Si2 0.492804 0.781190 0.039212
Si Si3 0.244721 0.898163 0.037661
Si Si4 0.293794 0.625650 0.444347
Si Si5 0.732676 0.796000 0.681586
Si Si6 0.313202 0.773060 0.599802
Si Si7 0.177232 0.825011 0.326988
Si Si8 0.016361 0.682516 0.003642
O O1 0.345178 0.520336 0.228475
O O2 0.422261 0.262370 0.561001
O O3 0.281200 0.237806 0.383441
O O4 0.951585 0.062580 0.526204
O O5 0.276017 0.793583 0.956213
O O6 0.686743 0.912115 0.062251
O O7 0.655493 0.927271 0.885920
O O8 0.189621 0.699177 0.265099
O O9 0.057437 0.808175 0.977712
O O10 0.500000 0.000000 0.000000
O O11 0.273850 0.715001 0.428749
O O12 0.115290 0.356167 0.636364
O O13 0.476679 0.713485 0.692257
O O14 0.831741 0.680031 0.875451
O O15 0.210748 0.818891 0.438459
O O16 0.100311 0.564896 0.771548
O O17 0.500000 0.000000 0.500000
#
# Coordination Sequence:
#
# PCOD9092169 Si02
#       8
#     2   2   2   2   2   2   2   2
#     4  11  23  41  65  97 127 162 221 263 307 376
#     4  10  23  39  66  98 123 166 213 265 313 370
#     4   9  18  37  63  89 121 164 205 254 315 371
#     4  10  19  40  67  89 125 168 212 259 314 374
#     4  11  25  42  64  91 129 175 208 258 317 381
#     4  12  25  43  64  95 132 166 213 261 318 379
#     4  10  21  40  66  93 122 169 213 258 316 373
#     4  11  23  44  64  92 132 170 210 254 323 382
#
# _framework density 22.218594
#
# number of rings (size 3 to 8) (size 9 to 14) (size 15 to 20)
#    0.000    1.500    2.500    3.375    3.500    1.000 
#    2.250    3.125    0.000    0.000    0.000    0.000 
#    0.000    0.000    0.000    0.000    0.000    0.000 
#
# Total GULP energy -89368.102151 kJ/mol
# GULP energy per Si atom -5585.506384 kJ/mol
# Density = 2.216802 g / cm^3
# Si number density = 22.218594 Si / 1000 Ang^3
#
#
#
# Elastic Constant Matrix: (Units=GPa)
#
#
# Indices 1 2 3 4 5 6 
#
# 1 27.3884 1.2098 12.1789 -6.7571 -6.6360 7.3179
# 2 1.2098 63.9838 13.5196 -6.7401 -1.6247 -8.6615
# 3 12.1789 13.5196 93.1530 -25.4302 -14.2460 -13.2896
# 4 -6.7571 -6.7401 -25.4302 43.0010 -0.5590 -0.3408
# 5 -6.6360 -1.6247 -14.2460 -0.5590 34.0517 -3.0170
# 6 7.3179 -8.6615 -13.2896 -0.3408 -3.0170 25.2460
#
#
#
# Elastic Compliance Matrix: (Units=1/GPa)
#
#
# Indices 1 2 3 4 5 6 
#
# 1 0.045837 -0.001278 -0.006646 0.003001 0.004668 -0.016625
# 2 -0.001278 0.016844 -0.000760 0.002047 0.000790 0.005871
# 3 -0.006646 -0.000760 0.016860 0.008988 0.006887 0.011485
# 4 0.003001 0.002047 0.008988 0.029478 0.005423 0.005609
# 5 0.004668 0.000790 0.006887 0.005423 0.033875 0.006665
# 6 -0.016625 0.005871 0.011485 0.005609 0.006665 0.053362
#
#
# Mechanical properties :
#
#
# Convention : Reuss Voigt Hill
#
# Bulk Modulus (GPa) = 16.08456 26.48240 21.28348
# Shear Modulus (GPa) = 21.33573 30.96752 26.15163
#
# Velocity S-wave (km/s) = 3.10218 3.73737 3.43449
# Velocity P-wave (km/s) = 4.48177 5.52890 5.03265
#
# Compressibility (1/GPa) = 0.06217144
#
# Stress axis : x y z
#
# Youngs Moduli (GPa) = 21.81645 59.36744 59.31353
#
# Poissons Ratio (x) = 0.07589 0.39420
# Poissons Ratio (y) = 0.02789 0.04510
# Poissons Ratio (z) = 0.14499 0.04514
#
# Static dielectric constant tensor:
#      x y z
#    x 1.799310 -0.001450 -0.009070 
#    y -0.001450 1.819960 -0.011660 
#    z -0.009070 -0.011660 1.875440 
# 
# From -- ./inp_files/429129.got.cif
#   From: 2010.05.17/outbox.cif.g08.bks.cpg/sg2_215_cif.got.tgz:429129.got - 2010.06.03 11:33:40.
