data_PCOD9092916
_publ_section_title
;
Structure prediction by ZEFSAII (Michael W. Deem and Ramdas Pophale) SiO2 
 PCOD9092916
Probable space group: P -1
;
_chemical_formula_sum "Si O2"
_cell_formula_units_Z 16
_cell_length_a 7.795953
_cell_length_b 8.215968
_cell_length_c 13.918294
_cell_angle_alpha 54.861522
_cell_angle_beta 104.412041
_cell_angle_gamma 114.008648
_cell_volume 665.822261
_symmetry_space_group_name_H-M "P -1"
_symmetry_group_IT_number 2
_symmetry_cell_setting 'triclinic'
loop_
_space_group_symop_operation_xyz
x,y,z
-x,-y,-z
loop_
_atom_site_type_symbol
_atom_site_label
_atom_site_fract_x
_atom_site_fract_y
_atom_site_fract_z
Si Si1 0.291245 0.571681 0.568151
Si Si2 0.969369 0.866577 0.638278
Si Si3 0.379847 0.554451 0.269460
Si Si4 0.778640 0.095362 0.888766
Si Si5 0.399382 0.390773 0.121143
Si Si6 0.308353 0.739086 0.727916
Si Si7 0.865841 0.686625 0.032588
Si Si8 0.097792 0.810698 0.338116
O O1 0.473954 0.500024 0.621181
O O2 0.302331 0.704586 0.623964
O O3 0.255469 0.712237 0.429093
O O4 0.105070 0.366525 0.612649
O O5 0.825220 0.627700 0.683002
O O6 0.177188 0.871002 0.693228
O O7 0.888523 0.987391 0.664141
O O8 0.000000 0.000000 0.500000
O O9 0.374391 0.791289 0.187407
O O10 0.438087 0.516932 0.182074
O O11 0.891815 0.142219 0.788574
O O12 0.760207 0.854839 0.987682
O O13 0.914669 0.217219 0.951277
O O14 0.481904 0.201623 0.219849
O O15 0.186542 0.353078 0.072901
O O16 0.500000 0.500000 0.000000
O O17 0.207919 0.513447 0.841008
#
# Coordination Sequence:
#
# PCOD9092916 Si02
#       8
#     2   2   2   2   2   2   2   2
#     4  10  22  42  67  91 130 171 211 267 326 380
#     4  12  24  42  67  99 129 173 218 266 324 386
#     4  11  24  43  66  98 131 168 221 268 320 388
#     4  11  23  40  65  92 131 169 214 266 324 386
#     4   9  21  41  66  93 127 171 212 269 321 376
#     4  10  19  44  65  90 132 165 212 274 318 379
#     4  10  20  41  63  89 127 167 212 263 322 375
#     4  11  23  42  65  93 131 174 211 265 328 384
#
# _framework density 24.030438
#
# number of rings (size 3 to 8) (size 9 to 14) (size 15 to 20)
#    0.000    1.500    3.750    0.750    1.750    2.500 
#   11.250    5.625    0.000    0.000    0.000    0.000 
#    0.000    0.000    0.000    0.000    0.000    0.000 
#
# Total GULP energy -89358.342601 kJ/mol
# GULP energy per Si atom -5584.896413 kJ/mol
# Density = 2.397574 g / cm^3
# Si number density = 24.030438 Si / 1000 Ang^3
#
#
#
# Elastic Constant Matrix: (Units=GPa)
#
#
# Indices 1 2 3 4 5 6 
#
# 1 75.3566 3.3983 35.9813 -3.2002 33.5977 -11.1876
# 2 3.3983 36.8554 18.1276 -0.6347 15.0125 -3.8124
# 3 35.9813 18.1276 131.6622 2.5466 21.8908 -0.7063
# 4 -3.2002 -0.6347 2.5466 31.5196 3.6716 15.1486
# 5 33.5977 15.0125 21.8908 3.6716 49.0247 -4.7802
# 6 -11.1876 -3.8124 -0.7063 15.1486 -4.7802 31.5030
#
#
#
# Elastic Compliance Matrix: (Units=1/GPa)
#
#
# Indices 1 2 3 4 5 6 
#
# 1 0.022994 0.007094 -0.004703 0.001941 -0.015425 0.005645
# 2 0.007094 0.034474 -0.004509 0.001429 -0.013131 0.003911
# 3 -0.004703 -0.004509 0.009460 -0.000543 0.000254 -0.001704
# 4 0.001941 0.001429 -0.000543 0.042744 -0.006748 -0.020728
# 5 -0.015425 -0.013131 0.000254 -0.006748 0.035536 0.001576
# 6 0.005645 0.003911 -0.001704 -0.020728 0.001576 0.044389
#
#
# Mechanical properties :
#
#
# Convention : Reuss Voigt Hill
#
# Bulk Modulus (GPa) = 15.95085 39.87650 27.91368
# Shear Modulus (GPa) = 23.28498 34.83392 29.05945
#
# Velocity S-wave (km/s) = 3.11622 3.81146 3.48124
# Velocity P-wave (km/s) = 4.42718 5.99998 5.27256
#
# Compressibility (1/GPa) = 0.06269257
#
# Stress axis : x y z
#
# Youngs Moduli (GPa) = 43.48990 29.00707 105.70402
#
# Poissons Ratio (x) = -0.20577 0.49714
# Poissons Ratio (y) = -0.30851 0.47658
# Poissons Ratio (z) = 0.20454 0.13078
#
# Static dielectric constant tensor:
#      x y z
#    x 2.035440 0.108120 0.028540 
#    y 0.108120 2.011400 -0.018690 
#    z 0.028540 -0.018690 1.852860 
# 
# From -- ./inp_files/494435.got.cif
#   From: 2010.05.17/outbox.cif.g08.bks.cpg/sg2_248_cif.got.tgz:494435.got - 2010.06.03 11:33:40.
