data_PCOD9092172
_publ_section_title
;
Structure prediction by ZEFSAII (Michael W. Deem and Ramdas Pophale) SiO2 
 PCOD9092172
Probable space group: P -1
;
_chemical_formula_sum "Si O2"
_cell_formula_units_Z 16
_cell_length_a 7.855658
_cell_length_b 15.021518
_cell_length_c 13.142648
_cell_angle_alpha 124.721127
_cell_angle_beta 31.147150
_cell_angle_gamma 127.525600
_cell_volume 631.769615
_symmetry_space_group_name_H-M "P -1"
_symmetry_group_IT_number 2
_symmetry_cell_setting 'triclinic'
loop_
_space_group_symop_operation_xyz
x,y,z
-x,-y,-z
loop_
_atom_site_type_symbol
_atom_site_label
_atom_site_fract_x
_atom_site_fract_y
_atom_site_fract_z
Si Si1 0.680223 0.220612 0.142428
Si Si2 0.595263 0.446092 0.696873
Si Si3 0.429930 0.318938 0.154812
Si Si4 0.233624 0.093709 0.738735
Si Si5 0.604708 0.623236 0.472539
Si Si6 0.180458 0.089310 0.051620
Si Si7 0.826999 0.286499 0.610891
Si Si8 0.853059 0.011893 0.691773
O O1 0.707351 0.285608 0.063155
O O2 0.631408 0.303893 0.310836
O O3 0.338745 0.113165 0.249088
O O4 0.979579 0.161246 0.959154
O O5 0.457806 0.553675 0.859320
O O6 0.436195 0.388722 0.635041
O O7 0.592739 0.363086 0.738153
O O8 0.000000 0.500000 0.500000
O O9 0.266319 0.223756 0.092942
O O10 0.132719 0.308417 0.385878
O O11 0.596738 0.158667 0.639790
O O12 0.154833 0.088787 0.656655
O O13 0.098886 0.963038 0.753068
O O14 0.500000 0.500000 0.500000
O O15 0.989579 0.681229 0.354130
O O16 0.542254 0.067982 0.879529
O O17 0.000000 0.000000 0.000000
O O18 0.000000 0.000000 0.500000
#
# Coordination Sequence:
#
# PCOD9092172 Si02
#       8
#     2   2   2   2   2   2   2   2
#     4  10  20  41  67  86 128 179 204 269 333 378
#     4  10  20  38  68  94 125 168 223 266 321 389
#     4  10  19  40  67  90 125 175 213 264 327 378
#     4  11  23  44  62  91 139 168 211 273 333 391
#     4  11  20  39  67  93 123 168 228 262 320 392
#     4  11  24  42  65  96 129 172 215 261 334 390
#     4  10  24  38  63  99 126 172 217 266 329 379
#     4  11  24  40  65  96 124 173 219 267 324 395
#
# _framework density 25.325686999999999
#
# number of rings (size 3 to 8) (size 9 to 14) (size 15 to 20)
#    0.000    1.500    6.250    0.750    3.500    5.500 
#    0.000    1.250    2.750    0.000    0.000    0.000 
#    0.000    0.000    0.000    0.000    0.000    0.000 
#
# Total GULP energy -89504.792122 kJ/mol
# GULP energy per Si atom -5594.049508 kJ/mol
# Density = 2.526804 g / cm^3
# Si number density = 25.325687 Si / 1000 Ang^3
#
#
#
# Elastic Constant Matrix: (Units=GPa)
#
#
# Indices 1 2 3 4 5 6 
#
# 1 138.0233 44.5815 33.3514 17.4505 6.1442 39.0662
# 2 44.5815 106.2760 46.3230 22.7975 5.5945 25.7439
# 3 33.3514 46.3230 53.1990 24.2855 -3.5027 8.0725
# 4 17.4505 22.7975 24.2855 54.9547 5.6244 -2.1862
# 5 6.1442 5.5945 -3.5027 5.6244 31.3919 11.9158
# 6 39.0662 25.7439 8.0725 -2.1862 11.9158 54.7967
#
#
#
# Elastic Compliance Matrix: (Units=1/GPa)
#
#
# Indices 1 2 3 4 5 6 
#
# 1 0.010581 -0.000587 -0.004396 -0.001481 0.000375 -0.006761
# 2 -0.000587 0.017095 -0.013464 -0.000925 -0.002308 -0.005165
# 3 -0.004396 -0.013464 0.038677 -0.010981 0.009026 0.001360
# 4 -0.001481 -0.000925 -0.010981 0.024888 -0.007397 0.005710
# 5 0.000375 -0.002308 0.009026 -0.007397 0.037966 -0.009064
# 6 -0.006761 -0.005165 0.001360 0.005710 -0.009064 0.027494
#
#
# Mechanical properties :
#
#
# Convention : Reuss Voigt Hill
#
# Bulk Modulus (GPa) = 33.94330 60.66780 47.30555
# Shear Modulus (GPa) = 24.58048 39.77815 32.17932
#
# Velocity S-wave (km/s) = 3.11879 3.96746 3.56844
# Velocity P-wave (km/s) = 5.13818 6.70781 5.97476
#
# Compressibility (1/GPa) = 0.02946089
#
# Stress axis : x y z
#
# Youngs Moduli (GPa) = 94.50844 58.49647 25.85513
#
# Poissons Ratio (x) = 0.03434 0.11365
# Poissons Ratio (y) = 0.05547 0.34810
# Poissons Ratio (z) = 0.41542 0.78758
#
# Static dielectric constant tensor:
#      x y z
#    x 2.120190 -0.093730 0.008300 
#    y -0.093730 2.025400 -0.008580 
#    z 0.008300 -0.008580 2.058410 
# 
# From -- ./inp_files/461185.got.cif
#   From: 2010.05.17/outbox.cif.g08.bks.cpg/sg2_231_cif.got.tgz:461185.got - 2010.06.03 11:33:40.
