data_PCOD9092517
_publ_section_title
;
Structure prediction by ZEFSAII (Michael W. Deem and Ramdas Pophale) SiO2 
 PCOD9092517
Probable space group: P -1
;
_chemical_formula_sum "Si O2"
_cell_formula_units_Z 14
_cell_length_a 7.159177
_cell_length_b 7.798676
_cell_length_c 15.344807
_cell_angle_alpha 39.764685
_cell_angle_beta 85.383684
_cell_angle_gamma 81.440316
_cell_volume 541.113147
_symmetry_space_group_name_H-M "P -1"
_symmetry_group_IT_number 2
_symmetry_cell_setting 'triclinic'
loop_
_space_group_symop_operation_xyz
x,y,z
-x,-y,-z
loop_
_atom_site_type_symbol
_atom_site_label
_atom_site_fract_x
_atom_site_fract_y
_atom_site_fract_z
Si Si1 0.663675 0.688871 0.922882
Si Si2 0.352476 0.099792 0.690756
Si Si3 0.217317 0.637577 0.259256
Si Si4 0.184973 0.073944 0.530752
Si Si5 0.722322 0.889051 0.029776
Si Si6 0.332750 0.504699 0.669872
Si Si7 0.029401 0.050026 0.249941
O O1 0.731402 0.715966 0.008568
O O2 0.856876 0.693926 0.859616
O O3 0.541216 0.961131 0.782088
O O4 0.500000 0.500000 0.000000
O O5 0.306332 0.398772 0.615007
O O6 0.348556 0.105737 0.584567
O O7 0.185376 0.919779 0.790921
O O8 0.444590 0.556672 0.290507
O O9 0.181847 0.844290 0.098638
O O10 0.132672 0.807426 0.280524
O O11 0.143060 0.350621 0.372015
O O12 0.255994 0.808503 0.578181
O O13 0.012069 0.032809 0.617727
O O14 0.233498 0.298384 0.815570
O O15 0.500000 0.000000 0.000000
#
# Coordination Sequence:
#
# PCOD9092517 Si02
#       7
#     2   2   2   2   2   2   2
#     4  11  20  40  66  93 132 177 218 264 331 397
#     4  10  22  40  67  94 134 169 220 268 338 374
#     4  10  19  41  67  89 137 180 210 277 328 384
#     4  10  23  39  68  98 133 169 228 273 319 395
#     4   9  18  36  64  87 130 168 214 262 327 383
#     4  11  20  42  66  97 134 175 221 272 329 389
#     4   9  22  42  61 100 131 169 219 277 324 389
#
# _framework density 25.872592999999998
#
# number of rings (size 3 to 8) (size 9 to 14) (size 15 to 20)
#    0.857    1.143    4.286    1.714    0.000    1.143 
#    2.571    9.286    0.000    0.000    0.000    0.000 
#    0.000    0.000    0.000    0.000    0.000    0.000 
#
# Total GULP energy -78218.580482 kJ/mol
# GULP energy per Si atom -5587.041463 kJ/mol
# Density = 2.581371 g / cm^3
# Si number density = 25.872593 Si / 1000 Ang^3
#
#
#
# Elastic Constant Matrix: (Units=GPa)
#
#
# Indices 1 2 3 4 5 6 
#
# 1 108.9300 13.5470 36.1084 -0.8110 -8.8505 -8.6018
# 2 13.5470 100.1393 33.3606 -16.6521 16.5750 8.0588
# 3 36.1084 33.3606 100.0394 -16.9015 -15.2594 -2.4749
# 4 -0.8110 -16.6521 -16.9015 29.7395 0.5078 -1.6366
# 5 -8.8505 16.5750 -15.2594 0.5078 47.2256 0.3130
# 6 -8.6018 8.0588 -2.4749 -1.6366 0.3130 35.5304
#
#
#
# Elastic Compliance Matrix: (Units=1/GPa)
#
#
# Indices 1 2 3 4 5 6 
#
# 1 0.010808 -0.000997 -0.003708 -0.002255 0.001185 0.002470
# 2 -0.000997 0.013802 -0.004459 0.005092 -0.006504 -0.003391
# 3 -0.003708 -0.004459 0.014665 0.005717 0.005538 0.001350
# 4 -0.002255 0.005092 0.005717 0.039707 -0.000793 0.000533
# 5 0.001185 -0.006504 0.005538 -0.000793 0.025465 0.001887
# 6 0.002470 -0.003391 0.001350 0.000533 0.001887 0.029614
#
#
# Mechanical properties :
#
#
# Convention : Reuss Voigt Hill
#
# Bulk Modulus (GPa) = 47.73495 52.79339 50.26417
# Shear Modulus (GPa) = 31.37344 37.57194 34.47269
#
# Velocity S-wave (km/s) = 3.48604 3.81490 3.65417
# Velocity P-wave (km/s) = 5.89010 6.31300 6.10522
#
# Compressibility (1/GPa) = 0.02094901
#
# Stress axis : x y z
#
# Youngs Moduli (GPa) = 92.52623 72.45090 68.18902
#
# Poissons Ratio (x) = 0.07222 0.25282
# Poissons Ratio (y) = 0.09223 0.30403
# Poissons Ratio (z) = 0.34305 0.32304
#
# Static dielectric constant tensor:
#      x y z
#    x 2.073220 0.011910 -0.042590 
#    y 0.011910 2.093090 -0.010350 
#    z -0.042590 -0.010350 2.062330 
# 
# From -- ./inp_files/554023.got.cif
#   From: 2010.05.17/outbox.cif.g08.bks.cpg/sg2_278_cif.got.tgz:554023.got - 2010.06.03 11:33:40.
