data_PCOD9092720
_publ_section_title
;
Structure prediction by ZEFSAII (Michael W. Deem and Ramdas Pophale) SiO2 
 PCOD9092720
Probable space group: P -1
;
_chemical_formula_sum "Si O2"
_cell_formula_units_Z 16
_cell_length_a 12.653600
_cell_length_b 15.259656
_cell_length_c 7.455338
_cell_angle_alpha 108.008458
_cell_angle_beta 103.429864
_cell_angle_gamma 136.985874
_cell_volume 661.008111
_symmetry_space_group_name_H-M "P -1"
_symmetry_group_IT_number 2
_symmetry_cell_setting 'triclinic'
loop_
_space_group_symop_operation_xyz
x,y,z
-x,-y,-z
loop_
_atom_site_type_symbol
_atom_site_label
_atom_site_fract_x
_atom_site_fract_y
_atom_site_fract_z
Si Si1 0.067756 0.745115 0.463883
Si Si2 0.412733 0.246677 0.088290
Si Si3 0.530035 0.020275 0.741830
Si Si4 0.333155 0.683700 0.036800
Si Si5 0.955807 0.864090 0.585226
Si Si6 0.489130 0.504975 0.288400
Si Si7 0.998576 0.831678 0.202534
Si Si8 0.569926 0.840767 0.612406
O O1 0.994008 0.780027 0.574795
O O2 0.306438 0.879333 0.671609
O O3 0.087492 0.803882 0.309714
O O4 0.880017 0.530557 0.239425
O O5 0.491927 0.403121 0.147621
O O6 0.506607 0.284338 0.340747
O O7 0.473096 0.214807 0.945627
O O8 0.151188 0.058351 0.884705
O O9 0.584885 0.955768 0.767212
O O10 0.500000 0.000000 0.500000
O O11 0.689871 0.225137 0.959438
O O12 0.414310 0.727968 0.302835
O O13 0.711787 0.714066 0.442659
O O14 0.011085 0.105765 0.595350
O O15 0.500000 0.500000 0.500000
O O16 0.252266 0.371601 0.073241
O O17 0.179971 0.997081 0.240983
#
# Coordination Sequence:
#
# PCOD9092720 Si02
#       8
#     2   2   2   2   2   2   2   2
#     4  10  20  39  70  93 130 171 218 263 323 386
#     4  12  24  45  67  94 133 175 213 271 326 383
#     4  10  19  42  66 102 131 168 219 264 320 387
#     4  11  21  43  68  93 133 173 211 266 327 383
#     4  10  21  43  67  89 131 171 214 267 319 388
#     4  12  27  42  63  99 132 165 225 273 319 388
#     4  10  21  44  64  93 129 175 212 266 327 374
#     4  11  24  41  70  98 132 172 218 266 323 385
#
# _framework density 24.205451
#
# number of rings (size 3 to 8) (size 9 to 14) (size 15 to 20)
#    0.750    0.500    6.250    1.125    1.750    5.000 
#    0.000    0.625    0.000    0.000    0.000    0.000 
#    0.000    0.000    0.000    0.000    0.000    0.000 
#
# Total GULP energy -89415.758475 kJ/mol
# GULP energy per Si atom -5588.484905 kJ/mol
# Density = 2.415036 g / cm^3
# Si number density = 24.205451 Si / 1000 Ang^3
#
#
#
# Elastic Constant Matrix: (Units=GPa)
#
#
# Indices 1 2 3 4 5 6 
#
# 1 83.2024 7.8018 11.2532 9.6667 4.6994 -7.6124
# 2 7.8018 50.9678 15.2401 9.1663 6.8410 -7.2990
# 3 11.2532 15.2401 68.1771 14.6761 6.9596 1.6416
# 4 9.6667 9.1663 14.6761 45.2343 -4.0400 -8.1969
# 5 4.6994 6.8410 6.9596 -4.0400 25.0383 10.2859
# 6 -7.6124 -7.2990 1.6416 -8.1969 10.2859 33.4939
#
#
#
# Elastic Compliance Matrix: (Units=1/GPa)
#
#
# Indices 1 2 3 4 5 6 
#
# 1 0.013005 -0.000182 -0.001378 -0.001971 -0.003838 0.003680
# 2 -0.000182 0.023556 -0.003880 -0.002944 -0.008780 0.007258
# 3 -0.001378 -0.003880 0.017293 -0.005241 -0.003413 -0.002241
# 4 -0.001971 -0.002944 -0.005241 0.026003 0.005212 0.003930
# 5 -0.003838 -0.008780 -0.003413 0.005212 0.051954 -0.017298
# 6 0.003680 0.007258 -0.002241 0.003930 -0.017298 0.038658
#
#
# Mechanical properties :
#
#
# Convention : Reuss Voigt Hill
#
# Bulk Modulus (GPa) = 23.27076 30.10418 26.68747
# Shear Modulus (GPa) = 25.55278 31.95678 28.75478
#
# Velocity S-wave (km/s) = 3.25262 3.63744 3.45040
# Velocity P-wave (km/s) = 4.87245 5.48682 5.18874
#
# Compressibility (1/GPa) = 0.04297239
#
# Stress axis : x y z
#
# Youngs Moduli (GPa) = 76.89463 42.45258 57.82664
#
# Poissons Ratio (x) = 0.00772 0.07971
# Poissons Ratio (y) = 0.01399 0.22438
# Poissons Ratio (z) = 0.10599 0.16472
#
# Static dielectric constant tensor:
#      x y z
#    x 1.981120 0.004460 0.029590 
#    y 0.004460 2.023640 0.096990 
#    z 0.029590 0.096990 2.070930 
# 
# From -- ./inp_files/273869.got.cif
#   From: 2010.05.17/outbox.cif.g08.bks.cpg/sg2_137_cif.got.tgz:273869.got - 2010.06.03 11:33:40.
