data_PCOD9092369
_publ_section_title
;
Structure prediction by ZEFSAII (Michael W. Deem and Ramdas Pophale) SiO2 
 PCOD9092369
Probable space group: P -1
;
_chemical_formula_sum "Si O2"
_cell_formula_units_Z 16
_cell_length_a 12.165263
_cell_length_b 16.009186
_cell_length_c 8.303794
_cell_angle_alpha 107.432997
_cell_angle_beta 53.372212
_cell_angle_gamma 140.177324
_cell_volume 790.587517
_symmetry_space_group_name_H-M "P -1"
_symmetry_group_IT_number 2
_symmetry_cell_setting 'triclinic'
loop_
_space_group_symop_operation_xyz
x,y,z
-x,-y,-z
loop_
_atom_site_type_symbol
_atom_site_label
_atom_site_fract_x
_atom_site_fract_y
_atom_site_fract_z
Si Si1 0.890661 0.903914 0.392038
Si Si2 0.277236 0.355264 0.038488
Si Si3 0.708163 0.649128 0.346895
Si Si4 0.247347 0.694466 0.236668
Si Si5 0.075827 0.951832 0.803990
Si Si6 0.996525 0.390699 0.262192
Si Si7 0.293578 0.000400 0.939260
Si Si8 0.138120 0.745842 0.034741
O O1 0.723110 0.746960 0.486265
O O2 0.804833 0.941779 0.383715
O O3 0.000000 0.000000 0.500000
O O4 0.082861 0.943071 0.163838
O O5 0.131463 0.207048 0.160210
O O6 0.128518 0.366862 0.158728
O O7 0.500000 0.500000 0.000000
O O8 0.311059 0.337058 0.816958
O O9 0.500000 0.500000 0.500000
O O10 0.909749 0.683993 0.213138
O O11 0.146697 0.670117 0.485833
O O12 0.500125 0.838837 0.116075
O O13 0.177906 0.715333 0.149987
O O14 0.160965 0.553412 0.204015
O O15 0.230388 0.968638 0.787287
O O16 0.000000 0.000000 0.000000
O O17 0.876950 0.320656 0.153225
O O18 0.303610 0.907255 0.947079
#
# Coordination Sequence:
#
# PCOD9092369 Si02
#       8
#     2   2   2   2   2   2   2   2
#     4  10  22  37  60  92 125 160 202 249 313 377
#     4  11  23  38  67  90 121 167 202 255 322 372
#     4  10  22  39  57  92 127 153 202 257 311 376
#     4  11  24  40  67  87 125 170 212 257 305 383
#     4  10  19  41  61  85 128 158 195 265 301 366
#     4  10  24  43  58  96 125 159 216 256 311 373
#     4  10  21  42  62  87 122 163 208 256 311 367
#     4  10  21  45  61  87 127 161 209 266 307 365
#
# _framework density 20.238113999999999
#
# number of rings (size 3 to 8) (size 9 to 14) (size 15 to 20)
#    0.000    1.750    5.000    0.750    7.000    2.500 
#    4.500    0.000    0.000    0.000    0.000    0.000 
#    0.000    0.000    0.000    0.000    0.000    0.000 
#
# Total GULP energy -89133.097880 kJ/mol
# GULP energy per Si atom -5570.818618 kJ/mol
# Density = 2.019205 g / cm^3
# Si number density = 20.238114 Si / 1000 Ang^3
#
#
#
# Elastic Constant Matrix: (Units=GPa)
#
#
# Indices 1 2 3 4 5 6 
#
# 1 74.0232 44.2429 12.1746 -2.8677 18.3079 -4.2159
# 2 44.2429 170.7854 22.3865 -15.1402 10.5934 -14.0303
# 3 12.1746 22.3865 19.2929 -2.3608 13.9996 -8.8668
# 4 -2.8677 -15.1402 -2.3608 33.3956 4.7479 3.1606
# 5 18.3079 10.5934 13.9996 4.7479 18.0594 -2.8162
# 6 -4.2159 -14.0303 -8.8668 3.1606 -2.8162 36.1240
#
#
#
# Elastic Compliance Matrix: (Units=1/GPa)
#
#
# Indices 1 2 3 4 5 6 
#
# 1 0.023147 -0.005713 0.021220 0.006064 -0.037814 0.002213
# 2 -0.005713 0.008629 -0.015644 0.000532 0.012684 -0.000213
# 3 0.021220 -0.015644 0.193201 0.029211 -0.165359 0.028375
# 4 0.006064 0.000532 0.029211 0.038134 -0.038862 0.001718
# 5 -0.037814 0.012684 -0.165359 -0.038862 0.221645 -0.019395
# 6 0.002213 -0.000213 0.028375 0.001718 -0.019395 0.033160
#
#
# Mechanical properties :
#
#
# Convention : Reuss Voigt Hill
#
# Bulk Modulus (GPa) = 4.45034 46.85659 25.65346
# Shear Modulus (GPa) = 8.43042 29.86898 19.14970
#
# Velocity S-wave (km/s) = 2.04320 3.84588 3.07941
# Velocity P-wave (km/s) = 2.78747 6.55164 5.03458
#
# Compressibility (1/GPa) = 0.22470202
#
# Stress axis : x y z
#
# Youngs Moduli (GPa) = 43.20203 115.89026 5.17597
#
# Poissons Ratio (x) = 0.66209 -0.10984
# Poissons Ratio (y) = 0.24682 0.08097
# Poissons Ratio (z) = -0.91676 1.81303
#
# Static dielectric constant tensor:
#      x y z
#    x 1.772260 0.020150 0.075080 
#    y 0.020150 1.869240 0.056770 
#    z 0.075080 0.056770 1.787030 
# 
# From -- ./inp_files/184349.got.cif
#   From: 2010.05.17/outbox.cif.g08.bks.cpg/sg2_93_cif.got.tgz:184349.got - 2010.06.03 11:33:40.
