data_PCOD9092791
_publ_section_title
;
Structure prediction by ZEFSAII (Michael W. Deem and Ramdas Pophale) SiO2 
 PCOD9092791
Probable space group: P -1
;
_chemical_formula_sum "Si O2"
_cell_formula_units_Z 15
_cell_length_a 8.883484
_cell_length_b 8.414899
_cell_length_c 12.183452
_cell_angle_alpha 118.137896
_cell_angle_beta 45.875161
_cell_angle_gamma 115.978258
_cell_volume 567.776336
_symmetry_space_group_name_H-M "P -1"
_symmetry_group_IT_number 2
_symmetry_cell_setting 'triclinic'
loop_
_space_group_symop_operation_xyz
x,y,z
-x,-y,-z
loop_
_atom_site_type_symbol
_atom_site_label
_atom_site_fract_x
_atom_site_fract_y
_atom_site_fract_z
Si Si1 0.637807 0.093232 0.562648
Si Si2 0.000000 0.000000 0.500000
Si Si3 0.673884 0.482281 0.570687
Si Si4 0.347712 0.277135 0.900558
Si Si5 0.797724 0.501229 0.266341
Si Si6 0.932036 0.147645 0.000415
Si Si7 0.804860 0.185503 0.853807
Si Si8 0.631138 0.669331 0.856896
O O1 0.728440 0.298266 0.537569
O O2 0.468246 0.113989 0.752143
O O3 0.823178 0.996856 0.485125
O O4 0.500000 0.000000 0.500000
O O5 0.845898 0.094054 0.689711
O O6 0.788442 0.521600 0.409539
O O7 0.422447 0.453361 0.657183
O O8 0.730465 0.656277 0.681719
O O9 0.521449 0.457069 0.857976
O O10 0.250156 0.286611 0.074364
O O11 0.161926 0.272830 0.907034
O O12 0.794947 0.289604 0.165979
O O13 0.021762 0.627851 0.164162
O O14 0.843658 0.070729 0.904293
O O15 0.000000 0.000000 0.000000
O O16 0.568389 0.226711 0.001406
#
# Coordination Sequence:
#
# PCOD9092791 Si02
#       8
#     2   1   2   2   2   2   2   2
#     4  11  23  42  69 102 147 190 237 295 365 426
#     4  12  26  42  70 110 144 182 242 298 360 428
#     4  10  23  41  67 103 138 186 239 297 349 432
#     4  10  21  40  68  96 131 183 233 282 348 430
#     4  11  23  43  72 103 140 186 244 290 360 433
#     4  12  26  43  71 107 141 183 239 298 364 428
#     4  12  23  47  70  99 137 188 236 289 352 438
#     4  10  19  42  69  96 129 177 235 279 344 421
#
# _framework density 26.418856000000002
#
# number of rings (size 3 to 8) (size 9 to 14) (size 15 to 20)
#    0.000    1.067    4.000    3.600    3.733    0.000 
#    2.400    2.000    0.000    0.000    0.000    0.000 
#    0.000    0.000    0.000    0.000    0.000    0.000 
#
# Total GULP energy -83708.633278 kJ/mol
# GULP energy per Si atom -5580.575552 kJ/mol
# Density = 2.635873 g / cm^3
# Si number density = 26.418856 Si / 1000 Ang^3
#
#
#
# Elastic Constant Matrix: (Units=GPa)
#
#
# Indices 1 2 3 4 5 6 
#
# 1 158.7738 -0.1768 43.5279 11.2906 9.8267 -3.5513
# 2 -0.1768 71.4208 -2.8556 -1.8114 -3.9331 -3.5191
# 3 43.5279 -2.8556 130.9205 16.1912 25.0500 -7.8816
# 4 11.2906 -1.8114 16.1912 24.4633 0.4204 0.5215
# 5 9.8267 -3.9331 25.0500 0.4204 53.8866 1.0260
# 6 -3.5513 -3.5191 -7.8816 0.5215 1.0260 28.4559
#
#
#
# Elastic Compliance Matrix: (Units=1/GPa)
#
#
# Indices 1 2 3 4 5 6 
#
# 1 0.007015 -0.000113 -0.002011 -0.001917 -0.000345 0.000352
# 2 -0.000113 0.014169 0.000153 0.000947 0.000943 0.001729
# 3 -0.002011 0.000153 0.009997 -0.005664 -0.004279 0.002795
# 4 -0.001917 0.000947 -0.005664 0.045590 0.002746 -0.002625
# 5 -0.000345 0.000943 -0.004279 0.002746 0.020693 -0.001908
# 6 0.000352 0.001729 0.002795 -0.002625 -0.001908 0.036291
#
#
# Mechanical properties :
#
#
# Convention : Reuss Voigt Hill
#
# Bulk Modulus (GPa) = 36.71130 49.12289 42.91710
# Shear Modulus (GPa) = 34.06563 42.73581 38.40072
#
# Velocity S-wave (km/s) = 3.59478 4.02633 3.81666
# Velocity P-wave (km/s) = 5.58175 6.34424 5.97517
#
# Compressibility (1/GPa) = 0.02723957
#
# Stress axis : x y z
#
# Youngs Moduli (GPa) = 142.55479 70.57896 100.02609
#
# Poissons Ratio (x) = 0.00799 0.20111
# Poissons Ratio (y) = 0.01615 -0.01532
# Poissons Ratio (z) = 0.28661 -0.01081
#
# Static dielectric constant tensor:
#      x y z
#    x 2.045010 0.012400 0.071000 
#    y 0.012400 2.325730 -0.091830 
#    z 0.071000 -0.091830 2.094480 
# 
# From -- ./inp_files/174923.got.cif
#   From: 2010.05.17/outbox.cif.g08.bks.cpg/sg2_88_cif.got.tgz:174923.got - 2010.06.03 11:33:40.
