data_PCOD9092478
_publ_section_title
;
Structure prediction by ZEFSAII (Michael W. Deem and Ramdas Pophale) SiO2 
 PCOD9092478
Probable space group: P -1
;
_chemical_formula_sum "Si O2"
_cell_formula_units_Z 16
_cell_length_a 11.935375
_cell_length_b 8.795590
_cell_length_c 28.861611
_cell_angle_alpha 147.418391
_cell_angle_beta 32.038211
_cell_angle_gamma 127.097043
_cell_volume 797.358638
_symmetry_space_group_name_H-M "P -1"
_symmetry_group_IT_number 2
_symmetry_cell_setting 'triclinic'
loop_
_space_group_symop_operation_xyz
x,y,z
-x,-y,-z
loop_
_atom_site_type_symbol
_atom_site_label
_atom_site_fract_x
_atom_site_fract_y
_atom_site_fract_z
Si Si1 0.076894 0.132808 0.962880
Si Si2 0.398163 0.177208 0.332410
Si Si3 0.790928 0.838458 0.250073
Si Si4 0.064407 0.787903 0.063165
Si Si5 0.435049 0.351298 0.127333
Si Si6 0.659238 0.158841 0.639353
Si Si7 0.948573 0.091369 0.639476
Si Si8 0.290324 0.893954 0.553501
O O1 0.953688 0.063676 0.942580
O O2 0.346099 0.002086 0.823076
O O3 0.977493 0.494680 0.099935
O O4 0.000000 0.000000 0.000000
O O5 0.359641 0.530530 0.434236
O O6 0.365917 0.048428 0.361748
O O7 0.203140 0.113413 0.355764
O O8 0.555810 0.806552 0.309364
O O9 0.875771 0.992505 0.217746
O O10 0.787527 0.005583 0.341381
O O11 0.312086 0.648472 0.962797
O O12 0.000000 0.500000 0.000000
O O13 0.355749 0.521624 0.249254
O O14 0.239834 0.569304 0.217695
O O15 0.500000 0.000000 0.000000
O O16 0.883429 0.014751 0.491667
O O17 0.102104 0.052538 0.620876
O O18 0.500000 0.000000 0.500000
#
# Coordination Sequence:
#
# PCOD9092478 Si02
#       8
#     2   2   2   2   2   2   2   2
#     4  11  22  39  67  99 132 177 227 272 345 405
#     4  11  24  44  70 100 134 189 223 278 357 409
#     4  11  21  42  66  95 132 176 228 282 329 399
#     4  10  19  41  66  88 129 174 224 268 333 410
#     4  11  23  39  68 103 131 170 227 288 334 394
#     4  11  21  45  70  98 137 183 228 278 344 418
#     4  11  25  47  68  98 146 182 225 284 352 413
#     4  12  26  44  65 103 142 177 235 287 335 410
#
# _framework density 20.066253
#
# number of rings (size 3 to 8) (size 9 to 14) (size 15 to 20)
#    0.000    1.000    5.000    4.875    0.000    4.500 
#    0.000    3.750    0.000    0.000    0.000    0.000 
#    0.000    0.000    0.000    0.000    0.000    0.000 
#
# Total GULP energy -89198.930302 kJ/mol
# GULP energy per Si atom -5574.933144 kJ/mol
# Density = 2.002058 g / cm^3
# Si number density = 20.066253 Si / 1000 Ang^3
#
#
#
# Elastic Constant Matrix: (Units=GPa)
#
#
# Indices 1 2 3 4 5 6 
#
# 1 152.9687 55.6868 70.9418 2.9861 -11.8688 8.4200
# 2 55.6868 94.6825 65.9837 0.5105 -4.7797 -0.8302
# 3 70.9418 65.9837 136.0201 2.0126 -16.4436 16.2562
# 4 2.9861 0.5105 2.0126 37.4385 6.7759 6.6794
# 5 -11.8688 -4.7797 -16.4436 6.7759 28.1874 -11.3162
# 6 8.4200 -0.8302 16.2562 6.6794 -11.3162 32.4227
#
#
#
# Elastic Compliance Matrix: (Units=1/GPa)
#
#
# Indices 1 2 3 4 5 6 
#
# 1 0.009285 -0.003276 -0.003009 -0.000801 0.001700 -0.000228
# 2 -0.003276 0.017787 -0.007593 -0.000316 -0.000742 0.004920
# 3 -0.003009 -0.007593 0.013618 -0.000104 0.003394 -0.005035
# 4 -0.000801 -0.000316 -0.000104 0.030784 -0.011974 -0.010269
# 5 0.001700 -0.000742 0.003394 -0.011974 0.047736 0.016966
# 6 -0.000228 0.004920 -0.005035 -0.010269 0.016966 0.041589
#
#
# Mechanical properties :
#
#
# Convention : Reuss Voigt Hill
#
# Bulk Modulus (GPa) = 77.31069 85.43289 81.37179
# Shear Modulus (GPa) = 25.92455 32.34699 29.13577
#
# Velocity S-wave (km/s) = 3.59827 4.01934 3.81462
# Velocity P-wave (km/s) = 7.47494 8.01299 7.74863
#
# Compressibility (1/GPa) = 0.01293482
#
# Stress axis : x y z
#
# Youngs Moduli (GPa) = 107.69484 56.21985 73.43156
#
# Poissons Ratio (x) = 0.18418 0.22096
# Poissons Ratio (y) = 0.35282 0.55756
# Poissons Ratio (z) = 0.32405 0.42687
#
# Static dielectric constant tensor:
#      x y z
#    x 1.853470 -0.085460 0.089240 
#    y -0.085460 1.917720 -0.017640 
#    z 0.089240 -0.017640 1.845840 
# 
# From -- ./inp_files/622986.got.cif
#   From: 2010.05.17/outbox.cif.g08.bks.cpg/sg2_312_cif.got.tgz:622986.got - 2010.06.03 11:33:40.
