data_PCOD9092887
_publ_section_title
;
Structure prediction by ZEFSAII (Michael W. Deem and Ramdas Pophale) SiO2 
 PCOD9092887
Probable space group: P -1
;
_chemical_formula_sum "Si O2"
_cell_formula_units_Z 16
_cell_length_a 14.337923
_cell_length_b 9.170547
_cell_length_c 12.973816
_cell_angle_alpha 66.399319
_cell_angle_beta 50.646439
_cell_angle_gamma 107.333366
_cell_volume 758.283636
_symmetry_space_group_name_H-M "P -1"
_symmetry_group_IT_number 2
_symmetry_cell_setting 'triclinic'
loop_
_space_group_symop_operation_xyz
x,y,z
-x,-y,-z
loop_
_atom_site_type_symbol
_atom_site_label
_atom_site_fract_x
_atom_site_fract_y
_atom_site_fract_z
Si Si1 0.167239 0.013171 0.100840
Si Si2 0.693394 0.257238 0.549740
Si Si3 0.725384 0.639785 0.501178
Si Si4 0.046117 0.529011 0.341851
Si Si5 0.307107 0.662421 0.979191
Si Si6 0.202331 0.114648 0.823073
Si Si7 0.027806 0.594275 0.066134
Si Si8 0.551599 0.544165 0.073005
O O1 0.129082 0.786324 0.175669
O O2 0.268558 0.182284 0.877392
O O3 0.287250 0.170065 0.075221
O O4 0.955554 0.872862 0.293195
O O5 0.668083 0.396890 0.588652
O O6 0.839438 0.294403 0.500068
O O7 0.494456 0.965148 0.755271
O O8 0.821791 0.422402 0.311417
O O9 0.688458 0.696072 0.403702
O O10 0.623908 0.605486 0.682868
O O11 0.000000 0.500000 0.500000
O O12 0.208307 0.568491 0.188160
O O13 0.140563 0.572259 0.054222
O O14 0.363517 0.544143 0.943125
O O15 0.154850 0.883449 0.895909
O O16 0.000000 0.000000 0.000000
O O17 0.000000 0.500000 0.000000
O O18 0.500000 0.500000 0.000000
#
# Coordination Sequence:
#
# PCOD9092887 Si02
#       8
#     2   2   2   2   2   2   2   2
#     4  10  22  46  69  96 133 174 234 275 333 408
#     4  10  22  44  67  97 130 175 228 270 333 406
#     4  10  23  43  72  97 132 179 229 276 334 407
#     4  10  22  42  72  94 121 179 225 281 334 392
#     4  11  26  44  62  99 137 170 226 277 341 401
#     4  10  19  43  71 100 127 175 228 274 332 409
#     4  11  24  43  68 102 141 172 218 282 348 404
#     4  12  30  44  63 102 140 181 227 283 338 396
#
# _framework density 21.100285
#
# number of rings (size 3 to 8) (size 9 to 14) (size 15 to 20)
#    0.000    1.500    5.000    0.750   10.500    3.000 
#    0.000    0.000    0.000    0.000    0.000    0.000 
#    0.000    0.000    0.000    0.000    0.000    0.000 
#
# Total GULP energy -89318.984545 kJ/mol
# GULP energy per Si atom -5582.436534 kJ/mol
# Density = 2.105226 g / cm^3
# Si number density = 21.100285 Si / 1000 Ang^3
#
#
#
# Elastic Constant Matrix: (Units=GPa)
#
#
# Indices 1 2 3 4 5 6 
#
# 1 57.5521 27.6675 19.6033 11.9813 -4.2536 2.8277
# 2 27.6675 97.1313 30.3400 32.4289 -10.2459 3.7944
# 3 19.6033 30.3400 99.0777 29.9929 -13.9776 0.2133
# 4 11.9813 32.4289 29.9929 35.2260 -2.1648 -4.6007
# 5 -4.2536 -10.2459 -13.9776 -2.1648 23.8064 7.6504
# 6 2.8277 3.7944 0.2133 -4.6007 7.6504 42.6686
#
#
#
# Elastic Compliance Matrix: (Units=1/GPa)
#
#
# Indices 1 2 3 4 5 6 
#
# 1 0.020739 -0.004834 -0.002318 -0.000741 0.000554 -0.001112
# 2 -0.004834 0.017419 0.001435 -0.015714 0.007415 -0.004260
# 3 -0.002318 0.001435 0.015518 -0.013597 0.009089 -0.003147
# 4 -0.000741 -0.015714 -0.013597 0.055163 -0.013010 0.009795
# 5 0.000554 0.007415 0.009089 -0.013010 0.053204 -0.011684
# 6 -0.001112 -0.004260 -0.003147 0.009795 -0.011684 0.027056
#
#
# Mechanical properties :
#
#
# Convention : Reuss Voigt Hill
#
# Bulk Modulus (GPa) = 23.67403 45.44252 34.55827
# Shear Modulus (GPa) = 23.29764 32.08356 27.69060
#
# Velocity S-wave (km/s) = 3.32646 3.90362 3.62654
# Velocity P-wave (km/s) = 5.09882 6.47309 5.82661
#
# Compressibility (1/GPa) = 0.04224038
#
# Stress axis : x y z
#
# Youngs Moduli (GPa) = 48.21852 57.40796 64.44307
#
# Poissons Ratio (x) = 0.27751 0.14939
# Poissons Ratio (y) = 0.23309 -0.09244
# Poissons Ratio (z) = 0.11178 -0.08235
#
# Static dielectric constant tensor:
#      x y z
#    x 1.814140 0.027010 0.019740 
#    y 0.027010 1.747700 0.023730 
#    z 0.019740 0.023730 1.818380 
# 
# From -- ./inp_files/447114.got.cif
#   From: 2010.05.17/outbox.cif.g08.bks.cpg/sg2_224_cif.got.tgz:447114.got - 2010.06.03 11:33:40.
