data_PCOD9092639
_publ_section_title
;
Structure prediction by ZEFSAII (Michael W. Deem and Ramdas Pophale) SiO2 
 PCOD9092639
Probable space group: P -1
;
_chemical_formula_sum "Si O2"
_cell_formula_units_Z 13
_cell_length_a 8.784967
_cell_length_b 11.182079
_cell_length_c 8.619522
_cell_angle_alpha 85.358698
_cell_angle_beta 48.613989
_cell_angle_gamma 60.473575
_cell_volume 512.404954
_symmetry_space_group_name_H-M "P -1"
_symmetry_group_IT_number 2
_symmetry_cell_setting 'triclinic'
loop_
_space_group_symop_operation_xyz
x,y,z
-x,-y,-z
loop_
_atom_site_type_symbol
_atom_site_label
_atom_site_fract_x
_atom_site_fract_y
_atom_site_fract_z
Si Si1 0.130721 0.616889 0.457366
Si Si2 0.500000 0.000000 0.000000
Si Si3 0.051040 0.895924 0.618485
Si Si4 0.599230 0.290758 0.144720
Si Si5 0.664686 0.688008 0.971265
Si Si6 0.524496 0.133908 0.461444
Si Si7 0.035693 0.637501 0.148213
O O1 0.174785 0.731697 0.487028
O O2 0.369999 0.451500 0.342832
O O3 0.070462 0.638889 0.312168
O O4 0.886927 0.649440 0.704976
O O5 0.442821 0.147177 0.921653
O O6 0.218886 0.050197 0.143468
O O7 0.236201 0.898647 0.607980
O O8 0.000000 0.000000 0.500000
O O9 0.547905 0.297101 0.995924
O O10 0.565353 0.173324 0.257493
O O11 0.849872 0.279526 0.007300
O O12 0.795216 0.535871 0.994760
O O13 0.258305 0.274908 0.688870
O O14 0.500000 0.000000 0.500000
#
# Coordination Sequence:
#
# PCOD9092639 Si02
#       7
#     2   1   2   2   2   2   2
#     4  10  19  43  70 100 133 180 226 274 334 397
#     4  10  26  42  68 104 136 178 230 268 336 404
#     4  11  27  45  71  94 137 181 226 284 336 406
#     4  11  23  40  71  99 136 178 226 281 332 404
#     4  10  19  41  72 101 138 179 226 275 329 408
#     4  12  27  46  65 101 141 177 226 284 346 398
#     4  11  22  42  73 103 133 178 230 277 335 404
#
# _framework density 25.370560000000001
#
# number of rings (size 3 to 8) (size 9 to 14) (size 15 to 20)
#    0.000    1.231    3.077    3.692    8.615    2.462 
#    0.000    0.769    0.000    0.000    0.000    0.000 
#    0.000    0.000    0.000    0.000    0.000    0.000 
#
# Total GULP energy -72541.594644 kJ/mol
# GULP energy per Si atom -5580.122665 kJ/mol
# Density = 2.531282 g / cm^3
# Si number density = 25.370560 Si / 1000 Ang^3
#
#
#
# Elastic Constant Matrix: (Units=GPa)
#
#
# Indices 1 2 3 4 5 6 
#
# 1 140.7789 43.8805 46.4436 4.3551 -44.6715 6.6904
# 2 43.8805 159.1570 26.8261 -0.1279 -9.1639 30.8441
# 3 46.4436 26.8261 92.4857 -4.6578 -32.5046 2.1130
# 4 4.3551 -0.1279 -4.6578 32.3646 11.2835 -5.6976
# 5 -44.6715 -9.1639 -32.5046 11.2835 46.9872 2.4917
# 6 6.6904 30.8441 2.1130 -5.6976 2.4917 43.6781
#
#
#
# Elastic Compliance Matrix: (Units=1/GPa)
#
#
# Indices 1 2 3 4 5 6 
#
# 1 0.012332 -0.002081 -0.001744 -0.006330 0.011729 -0.001830
# 2 -0.002081 0.008091 -0.001594 -0.000466 -0.001109 -0.005316
# 3 -0.001744 -0.001594 0.015161 -0.000592 0.008657 0.000088
# 4 -0.006330 -0.000466 -0.000592 0.038582 -0.016170 0.007283
# 5 0.011729 -0.001109 0.008657 -0.016170 0.042405 -0.005961
# 6 -0.001830 -0.005316 0.000088 0.007283 -0.005961 0.028214
#
#
# Mechanical properties :
#
#
# Convention : Reuss Voigt Hill
#
# Bulk Modulus (GPa) = 40.40896 69.63578 55.02237
# Shear Modulus (GPa) = 30.51150 42.95742 36.73446
#
# Velocity S-wave (km/s) = 3.47166 4.11931 3.80928
# Velocity P-wave (km/s) = 5.65968 7.08040 6.40953
#
# Compressibility (1/GPa) = 0.02474698
#
# Stress axis : x y z
#
# Youngs Moduli (GPa) = 81.09029 123.58750 65.95806
#
# Poissons Ratio (x) = 0.25721 0.11502
# Poissons Ratio (y) = 0.16877 0.10512
# Poissons Ratio (z) = 0.14141 0.19696
#
# Static dielectric constant tensor:
#      x y z
#    x 2.105050 -0.005520 0.222150 
#    y -0.005520 2.038810 0.015520 
#    z 0.222150 0.015520 2.321420 
# 
# From -- ./inp_files/178531.got.cif
#   From: 2010.05.17/outbox.cif.g08.bks.cpg/sg2_90_cif.got.tgz:178531.got - 2010.06.03 11:33:40.
