data_PCOD9092737
_publ_section_title
;
Structure prediction by ZEFSAII (Michael W. Deem and Ramdas Pophale) SiO2 
 PCOD9092737
Probable space group: P -1
;
_chemical_formula_sum "Si O2"
_cell_formula_units_Z 16
_cell_length_a 7.320793
_cell_length_b 22.558836
_cell_length_c 5.058260
_cell_angle_alpha 93.614015
_cell_angle_beta 113.488581
_cell_angle_gamma 56.235729
_cell_volume 623.010068
_symmetry_space_group_name_H-M "P -1"
_symmetry_group_IT_number 2
_symmetry_cell_setting 'triclinic'
loop_
_space_group_symop_operation_xyz
x,y,z
-x,-y,-z
loop_
_atom_site_type_symbol
_atom_site_label
_atom_site_fract_x
_atom_site_fract_y
_atom_site_fract_z
Si Si1 0.774620 0.470807 0.159180
Si Si2 0.798553 0.602135 0.253717
Si Si3 0.764985 0.668818 0.758273
Si Si4 0.404607 0.082233 0.244162
Si Si5 0.941021 0.212591 0.759299
Si Si6 0.736556 0.190384 0.146106
Si Si7 0.862003 0.978942 0.724179
Si Si8 0.280740 0.211053 0.601730
O O1 0.778993 0.539697 0.115578
O O2 0.916869 0.440142 0.512246
O O3 0.949164 0.399131 0.067125
O O4 0.500000 0.500000 0.000000
O O5 0.675795 0.636211 0.478217
O O6 0.678517 0.668767 0.000832
O O7 0.750918 0.734765 0.633725
O O8 0.334817 0.140344 0.458198
O O9 0.699920 0.034822 0.409385
O O10 0.335810 0.024997 0.223233
O O11 0.211567 0.135518 0.924736
O O12 0.038664 0.252193 0.660182
O O13 0.745044 0.216110 0.451700
O O14 0.826499 0.222998 0.986512
O O15 0.950947 0.104244 0.272158
O O16 0.511127 0.191564 0.903822
O O17 0.000000 0.000000 0.000000
#
# Coordination Sequence:
#
# PCOD9092737 Si02
#       8
#     2   2   2   2   2   2   2   2
#     4   9  20  41  68  95 131 169 214 263 318 370
#     4   9  21  42  62  97 134 161 217 267 302 388
#     4  10  23  41  65  95 133 175 209 265 326 383
#     4  10  23  40  69  97 130 177 216 298 329 401
#     4  11  25  47  64  98 134 170 230 277 337 405
#     4  11  26  44  68  97 128 180 220 282 341 407
#     4  10  19  42  66  97 130 167 234 273 350 397
#     4  12  25  46  71  93 144 177 224 277 342 390
#
# _framework density 25.681771000000001
#
# number of rings (size 3 to 8) (size 9 to 14) (size 15 to 20)
#    0.750    1.000    3.750    0.375    3.500    1.000 
#    6.750    3.125    0.000    0.000    0.000    0.000 
#    0.000    0.000    0.000    0.000    0.000    0.000 
#
# Total GULP energy -89291.481418 kJ/mol
# GULP energy per Si atom -5580.717589 kJ/mol
# Density = 2.562332 g / cm^3
# Si number density = 25.681771 Si / 1000 Ang^3
#
#
#
# Elastic Constant Matrix: (Units=GPa)
#
#
# Indices 1 2 3 4 5 6 
#
# 1 87.3883 14.1454 45.2340 14.1816 12.1206 21.7259
# 2 14.1454 88.8727 32.3946 -2.9567 6.1635 6.7373
# 3 45.2340 32.3946 151.9444 -1.8534 7.8632 15.8886
# 4 14.1816 -2.9567 -1.8534 28.1064 1.4081 -7.1871
# 5 12.1206 6.1635 7.8632 1.4081 60.0665 3.5195
# 6 21.7259 6.7373 15.8886 -7.1871 3.5195 23.7807
#
#
#
# Elastic Compliance Matrix: (Units=1/GPa)
#
#
# Indices 1 2 3 4 5 6 
#
# 1 0.022439 -0.000741 -0.004286 -0.017283 -0.002177 -0.022328
# 2 -0.000741 0.012359 -0.002275 0.001367 -0.000808 -0.000772
# 3 -0.004286 -0.002275 0.008408 0.002396 -0.000039 -0.000328
# 4 -0.017283 0.001367 0.002396 0.052154 0.000079 0.029553
# 5 -0.002177 -0.000808 -0.000039 0.000079 0.017190 -0.000276
# 6 -0.022328 -0.000772 -0.000328 0.029553 -0.000276 0.071860
#
#
# Mechanical properties :
#
#
# Convention : Reuss Voigt Hill
#
# Bulk Modulus (GPa) = 34.96107 56.86150 45.91129
# Shear Modulus (GPa) = 23.97526 38.15281 31.06404
#
# Velocity S-wave (km/s) = 3.05872 3.85853 3.48167
# Velocity P-wave (km/s) = 5.11049 6.48381 5.83768
#
# Compressibility (1/GPa) = 0.02860324
#
# Stress axis : x y z
#
# Youngs Moduli (GPa) = 44.56468 80.91063 118.93713
#
# Poissons Ratio (x) = 0.05993 0.50971
# Poissons Ratio (y) = 0.03301 0.27062
# Poissons Ratio (z) = 0.19098 0.18410
#
# Static dielectric constant tensor:
#      x y z
#    x 2.141660 -0.021560 -0.074160 
#    y -0.021560 2.055890 -0.058620 
#    z -0.074160 -0.058620 2.033410 
# 
# From -- ./inp_files/12349.got.cif
#   From: 2010.05.17/outbox.cif.g08.bks.cpg/sg2_7_cif.got.tgz:12349.got - 2010.06.03 11:33:40.
