data_PCOD9092109
_publ_section_title
;
Structure prediction by ZEFSAII (Michael W. Deem and Ramdas Pophale) SiO2 
 PCOD9092109
Probable space group: P -1
;
_chemical_formula_sum "Si O2"
_cell_formula_units_Z 16
_cell_length_a 21.594210
_cell_length_b 16.549130
_cell_length_c 12.722900
_cell_angle_alpha 157.126834
_cell_angle_beta 159.551265
_cell_angle_gamma 26.845849
_cell_volume 603.271241
_symmetry_space_group_name_H-M "P -1"
_symmetry_group_IT_number 2
_symmetry_cell_setting 'triclinic'
loop_
_space_group_symop_operation_xyz
x,y,z
-x,-y,-z
loop_
_atom_site_type_symbol
_atom_site_label
_atom_site_fract_x
_atom_site_fract_y
_atom_site_fract_z
Si Si1 0.791034 0.408971 0.596981
Si Si2 0.512939 0.098963 0.749846
Si Si3 0.107635 0.754458 0.869773
Si Si4 0.244359 0.418063 0.842635
Si Si5 0.955861 0.197452 0.400290
Si Si6 0.346770 0.142455 0.851646
Si Si7 0.912448 0.118534 0.609092
Si Si8 0.596016 0.875629 0.805267
O O1 0.869872 0.351454 0.770884
O O2 0.677808 0.646097 0.701206
O O3 0.919402 0.354691 0.632503
O O4 0.650816 0.256816 0.168404
O O5 0.331433 0.244016 0.684461
O O6 0.500000 0.000000 0.500000
O O7 0.596368 0.888902 0.697798
O O8 0.948777 0.618580 0.468522
O O9 0.170094 0.735772 0.822879
O O10 0.228974 0.642386 0.027608
O O11 0.000000 0.000000 0.000000
O O12 0.361041 0.353062 0.058475
O O13 0.155634 0.174999 0.642350
O O14 0.966079 0.967769 0.200105
O O15 0.387682 0.970960 0.616521
O O16 0.500000 0.000000 0.000000
O O17 0.000000 0.000000 0.500000
O O18 0.725786 0.039190 0.236064
#
# Coordination Sequence:
#
# PCOD9092109 Si02
#       8
#     2   2   2   2   2   2   2   2
#     4  10  23  40  61  96 125 160 218 259 323 380
#     4  10  23  39  64  89 128 167 207 264 318 383
#     4  10  22  41  63  91 127 164 210 263 317 378
#     4   9  22  41  61  91 125 163 207 263 316 373
#     4  10  21  38  64  90 124 164 210 260 307 385
#     4  10  19  40  66  91 127 167 210 259 317 380
#     4   9  19  39  58  88 130 157 202 262 316 365
#     4  10  21  40  64  90 126 166 207 268 316 370
#
# _framework density 26.522065000000001
#
# number of rings (size 3 to 8) (size 9 to 14) (size 15 to 20)
#    0.000    2.250    1.250    0.000    3.500    5.500 
#    2.250    0.625    0.000    0.000    0.000    0.000 
#    0.000    0.000    0.000    0.000    0.000    0.000 
#
# Total GULP energy -89151.503087 kJ/mol
# GULP energy per Si atom -5571.968943 kJ/mol
# Density = 2.646170 g / cm^3
# Si number density = 26.522065 Si / 1000 Ang^3
#
#
#
# Elastic Constant Matrix: (Units=GPa)
#
#
# Indices 1 2 3 4 5 6 
#
# 1 154.2770 65.1347 19.6575 5.6150 0.6232 31.7878
# 2 65.1347 186.6787 19.8794 21.9934 10.8412 53.5706
# 3 19.6575 19.8794 42.1969 11.0524 6.9726 14.9382
# 4 5.6150 21.9934 11.0524 34.5326 5.1132 4.0768
# 5 0.6232 10.8412 6.9726 5.1132 35.3648 -6.5787
# 6 31.7878 53.5706 14.9382 4.0768 -6.5787 85.4571
#
#
#
# Elastic Compliance Matrix: (Units=1/GPa)
#
#
# Indices 1 2 3 4 5 6 
#
# 1 0.007993 -0.002390 -0.002652 0.001075 0.000773 -0.001003
# 2 -0.002390 0.007973 0.000300 -0.003896 -0.002676 -0.004182
# 3 -0.002652 0.000300 0.029295 -0.007804 -0.005506 -0.004374
# 4 0.001075 -0.003896 -0.007804 0.033845 -0.001873 0.001647
# 5 0.000773 -0.002676 -0.005506 -0.001873 0.031343 0.004855
# 6 -0.001003 -0.004182 -0.004374 0.001647 0.004855 0.015756
#
#
# Mechanical properties :
#
#
# Convention : Reuss Voigt Hill
#
# Bulk Modulus (GPa) = 27.95049 65.83285 46.89167
# Shear Modulus (GPa) = 33.87184 49.63630 41.75407
#
# Velocity S-wave (km/s) = 3.57756 4.33079 3.97207
# Velocity P-wave (km/s) = 5.25611 7.06282 6.22536
#
# Compressibility (1/GPa) = 0.03577755
#
# Stress axis : x y z
#
# Youngs Moduli (GPa) = 125.10431 125.42047 34.13560
#
# Poissons Ratio (x) = 0.29979 0.09052
# Poissons Ratio (y) = 0.29903 -0.01025
# Poissons Ratio (z) = 0.33175 -0.03764
#
# Static dielectric constant tensor:
#      x y z
#    x 2.267130 0.011690 -0.056720 
#    y 0.011690 2.250110 -0.110970 
#    z -0.056720 -0.110970 2.252830 
# 
# From -- ./inp_files/471816.got.cif
#   From: 2010.05.17/outbox.cif.g08.bks.cpg/sg2_236_cif.got.tgz:471816.got - 2010.06.03 11:33:40.
