data_PCOD9092243
_publ_section_title
;
Structure prediction by ZEFSAII (Michael W. Deem and Ramdas Pophale) SiO2 
 PCOD9092243
Probable space group: P -1
;
_chemical_formula_sum "Si O2"
_cell_formula_units_Z 14
_cell_length_a 8.372039
_cell_length_b 11.239968
_cell_length_c 7.556817
_cell_angle_alpha 104.312430
_cell_angle_beta 124.427287
_cell_angle_gamma 87.821191
_cell_volume 563.723631
_symmetry_space_group_name_H-M "P -1"
_symmetry_group_IT_number 2
_symmetry_cell_setting 'triclinic'
loop_
_space_group_symop_operation_xyz
x,y,z
-x,-y,-z
loop_
_atom_site_type_symbol
_atom_site_label
_atom_site_fract_x
_atom_site_fract_y
_atom_site_fract_z
Si Si1 0.956806 0.186392 0.202082
Si Si2 0.658683 0.418311 0.698584
Si Si3 0.213559 0.432942 0.462710
Si Si4 0.714015 0.969429 0.577764
Si Si5 0.284336 0.370215 0.893503
Si Si6 0.431248 0.777874 0.148924
Si Si7 0.022427 0.857437 0.403721
O O1 0.046395 0.325476 0.258373
O O2 0.123413 0.096912 0.238448
O O3 0.924021 0.194917 0.394947
O O4 0.737618 0.143269 0.986524
O O5 0.423940 0.401369 0.513653
O O6 0.787242 0.442854 0.609932
O O7 0.667053 0.298190 0.776292
O O8 0.709357 0.531377 0.909840
O O9 0.227558 0.425535 0.683994
O O10 0.637845 0.858853 0.350754
O O11 0.500000 0.000000 0.500000
O O12 0.816921 0.100100 0.623314
O O13 0.497293 0.323793 0.977668
O O14 0.141063 0.246824 0.810353
O O15 0.000000 0.000000 0.500000
#
# Coordination Sequence:
#
# PCOD9092243 Si02
#       7
#     2   2   2   2   2   2   2
#     4  10  21  40  65  93 125 173 217 269 333 390
#     4  10  20  37  66  97 129 177 218 264 335 391
#     4   9  18  38  62  89 139 169 206 278 319 381
#     4  11  23  43  64  90 130 171 219 279 329 386
#     4  10  19  40  68  95 131 175 222 266 326 400
#     4  11  21  39  65  91 132 172 214 274 328 388
#     4   9  18  42  66  85 130 174 212 274 328 384
#
# _framework density 24.834865000000001
#
# number of rings (size 3 to 8) (size 9 to 14) (size 15 to 20)
#    0.000    2.000    5.714    1.714    0.000    2.857 
#    2.571    7.857    0.000    0.857    0.000    0.000 
#    0.000    0.000    0.000    0.000    0.000    0.000 
#
# Total GULP energy -77954.212006 kJ/mol
# GULP energy per Si atom -5568.158000 kJ/mol
# Density = 2.477834 g / cm^3
# Si number density = 24.834865 Si / 1000 Ang^3
#
#
#
# Elastic Constant Matrix: (Units=GPa)
#
#
# Indices 1 2 3 4 5 6 
#
# 1 81.2585 60.7699 22.5806 1.4666 6.1777 4.4986
# 2 60.7699 110.7546 27.1559 28.6697 11.6260 33.5259
# 3 22.5806 27.1559 93.7327 13.8543 28.0829 1.4579
# 4 1.4666 28.6697 13.8543 35.7520 2.0416 4.2675
# 5 6.1777 11.6260 28.0829 2.0416 34.4282 8.1421
# 6 4.4986 33.5259 1.4579 4.2675 8.1421 58.7860
#
#
#
# Elastic Compliance Matrix: (Units=1/GPa)
#
#
# Indices 1 2 3 4 5 6 
#
# 1 0.029279 -0.022578 -0.003906 0.017189 0.002372 0.009156
# 2 -0.022578 0.031855 0.000538 -0.022966 -0.002363 -0.014458
# 3 -0.003906 0.000538 0.016117 -0.006005 -0.012693 0.001787
# 4 0.017189 -0.022966 -0.006005 0.046789 0.004937 0.007851
# 5 0.002372 -0.002363 -0.012693 0.004937 0.040542 -0.004493
# 6 0.009156 -0.014458 0.001787 0.007851 -0.004493 0.024564
#
#
# Mechanical properties :
#
#
# Convention : Reuss Voigt Hill
#
# Bulk Modulus (GPa) = 39.43498 56.30652 47.87075
# Shear Modulus (GPa) = 20.04084 37.47587 28.75835
#
# Velocity S-wave (km/s) = 2.84379 3.88880 3.40661
# Velocity P-wave (km/s) = 5.16684 6.54869 5.89837
#
# Compressibility (1/GPa) = 0.02535820
#
# Stress axis : x y z
#
# Youngs Moduli (GPa) = 34.15388 31.39258 62.04780
#
# Poissons Ratio (x) = 0.70877 0.24237
# Poissons Ratio (y) = 0.77111 -0.03336
# Poissons Ratio (z) = 0.13341 -0.01688
#
# Static dielectric constant tensor:
#      x y z
#    x 2.222300 -0.013580 -0.069570 
#    y -0.013580 2.221560 -0.080350 
#    z -0.069570 -0.080350 2.130610 
# 
# From -- ./inp_files/179613.got.cif
#   From: 2010.05.17/outbox.cif.g08.bks.cpg/sg2_90_cif.got.tgz:179613.got - 2010.06.03 11:33:40.
