data_PCOD9092404
_publ_section_title
;
Structure prediction by ZEFSAII (Michael W. Deem and Ramdas Pophale) SiO2 
 PCOD9092404
Probable space group: P -1
;
_chemical_formula_sum "Si O2"
_cell_formula_units_Z 12
_cell_length_a 7.362226
_cell_length_b 7.435701
_cell_length_c 12.656341
_cell_angle_alpha 45.240696
_cell_angle_beta 83.459989
_cell_angle_gamma 92.827260
_cell_volume 480.462309
_symmetry_space_group_name_H-M "P -1"
_symmetry_group_IT_number 2
_symmetry_cell_setting 'triclinic'
loop_
_space_group_symop_operation_xyz
x,y,z
-x,-y,-z
loop_
_atom_site_type_symbol
_atom_site_label
_atom_site_fract_x
_atom_site_fract_y
_atom_site_fract_z
Si Si1 0.308461 0.947778 0.814522
Si Si2 0.122658 0.521317 0.141251
Si Si3 0.596468 0.283905 0.782667
Si Si4 0.559789 0.733447 0.718602
Si Si5 0.829282 0.145715 0.426859
Si Si6 0.204970 0.484880 0.533425
O O1 0.461843 0.020749 0.868835
O O2 0.229763 0.200454 0.682376
O O3 0.419735 0.851575 0.750332
O O4 0.147716 0.728775 0.961873
O O5 0.211181 0.674441 0.179296
O O6 0.270781 0.329606 0.193989
O O7 0.923760 0.348891 0.248772
O O8 0.479056 0.459904 0.784087
O O9 0.654366 0.409300 0.613177
O O10 0.660019 0.904903 0.544209
O O11 0.771768 0.320084 0.451616
O O12 0.000000 0.000000 0.500000
O O13 0.000000 0.500000 0.500000
#
# Coordination Sequence:
#
# PCOD9092404 Si02
#       6
#     2   2   2   2   2   2
#     4  12  23  40  67  98 134 162 213 277 316 378
#     4   9  21  40  66  98 132 168 206 266 334 373
#     4  10  22  40  66  97 126 166 216 257 327 384
#     4   9  21  39  70  93 132 168 214 258 324 388
#     4  10  19  41  63  91 128 175 209 259 313 388
#     4  12  23  42  64  93 128 178 222 257 316 384
#
# _framework density 24.975947999999999
#
# number of rings (size 3 to 8) (size 9 to 14) (size 15 to 20)
#    1.000    0.667    3.333    1.500    0.000    1.333 
#    3.000    0.000    0.000    9.000    0.000    0.000 
#    0.000    0.000    0.000    0.000    0.000    0.000 
#
# Total GULP energy -67029.445089 kJ/mol
# GULP energy per Si atom -5585.787091 kJ/mol
# Density = 2.491910 g / cm^3
# Si number density = 24.975948 Si / 1000 Ang^3
#
#
#
# Elastic Constant Matrix: (Units=GPa)
#
#
# Indices 1 2 3 4 5 6 
#
# 1 75.9854 17.4643 4.4959 -8.4148 8.4817 -5.1500
# 2 17.4643 130.8465 35.8543 4.3984 -10.2203 -29.6247
# 3 4.4959 35.8543 162.2098 -6.5170 -20.5504 -7.7116
# 4 -8.4148 4.3984 -6.5170 24.9524 6.4952 -1.3257
# 5 8.4817 -10.2203 -20.5504 6.4952 30.6603 -4.6131
# 6 -5.1500 -29.6247 -7.7116 -1.3257 -4.6131 35.7748
#
#
#
# Elastic Compliance Matrix: (Units=1/GPa)
#
#
# Indices 1 2 3 4 5 6 
#
# 1 0.015447 -0.002992 -0.000440 0.007468 -0.007300 -0.001013
# 2 -0.002992 0.011069 -0.001363 -0.004369 0.005889 0.009039
# 3 -0.000440 -0.001363 0.007114 0.000856 0.004396 0.000940
# 4 0.007468 -0.004369 0.000856 0.046910 -0.013236 -0.002327
# 5 -0.007300 0.005889 0.004396 -0.013236 0.043843 0.009936
# 6 -0.001013 0.009039 0.000940 -0.002327 0.009936 0.036689
#
#
# Mechanical properties :
#
#
# Convention : Reuss Voigt Hill
#
# Bulk Modulus (GPa) = 41.59685 53.85232 47.72458
# Shear Modulus (GPa) = 27.98350 39.02599 33.50475
#
# Velocity S-wave (km/s) = 3.35090 3.95719 3.66660
# Velocity P-wave (km/s) = 5.62692 6.51825 6.08892
#
# Compressibility (1/GPa) = 0.02404028
#
# Stress axis : x y z
#
# Youngs Moduli (GPa) = 64.73627 90.34434 140.56060
#
# Poissons Ratio (x) = 0.27030 0.06181
# Poissons Ratio (y) = 0.19368 0.19164
# Poissons Ratio (z) = 0.02847 0.12318
#
# Static dielectric constant tensor:
#      x y z
#    x 2.030960 0.097660 0.040960 
#    y 0.097660 2.002980 -0.046940 
#    z 0.040960 -0.046940 2.041560 
# 
# From -- ./inp_files/491822.got.cif
#   From: 2010.05.17/outbox.cif.g08.bks.cpg/sg2_246_cif.got.tgz:491822.got - 2010.06.03 11:33:40.
