data_PCOD9092117
_publ_section_title
;
Structure prediction by ZEFSAII (Michael W. Deem and Ramdas Pophale) SiO2 
 PCOD9092117
Probable space group: P -1
;
_chemical_formula_sum "Si O2"
_cell_formula_units_Z 16
_cell_length_a 19.629929
_cell_length_b 12.193185
_cell_length_c 14.520824
_cell_angle_alpha 29.750147
_cell_angle_beta 150.625891
_cell_angle_gamma 150.387906
_cell_volume 749.606218
_symmetry_space_group_name_H-M "P -1"
_symmetry_group_IT_number 2
_symmetry_cell_setting 'triclinic'
loop_
_space_group_symop_operation_xyz
x,y,z
-x,-y,-z
loop_
_atom_site_type_symbol
_atom_site_label
_atom_site_fract_x
_atom_site_fract_y
_atom_site_fract_z
Si Si1 0.703323 0.584590 0.653434
Si Si2 0.632714 0.711391 0.794711
Si Si3 0.359199 0.211029 0.864412
Si Si4 0.362179 0.066857 0.767582
Si Si5 0.167213 0.839033 0.164697
Si Si6 0.031501 0.790634 0.844093
Si Si7 0.822907 0.494114 0.058733
Si Si8 0.574542 0.151702 0.668937
O O1 0.756866 0.531824 0.853582
O O2 0.641913 0.353757 0.681433
O O3 0.863699 0.777750 0.648222
O O4 0.605649 0.738029 0.418877
O O5 0.730932 0.581436 0.959655
O O6 0.579277 0.850037 0.553411
O O7 0.739926 0.914876 0.846067
O O8 0.469720 0.504158 0.798636
O O9 0.436638 0.088619 0.114751
O O10 0.369975 0.204301 0.771771
O O11 0.173989 0.014507 0.797673
O O12 0.222873 0.796404 0.778305
O O13 0.500000 0.000000 0.000000
O O14 0.298162 0.777440 0.316188
O O15 0.085258 0.867494 0.955706
O O16 0.012196 0.643849 0.178615
O O17 0.000000 0.500000 0.000000
#
# Coordination Sequence:
#
# PCOD9092117 Si02
#       8
#     2   2   2   2   2   2   2   2
#     4  11  22  38  66  95 123 164 208 261 326 363
#     4  12  25  41  62  94 125 174 211 248 316 382
#     4  11  22  37  63  90 129 158 203 263 310 364
#     4  12  23  37  59  99 127 158 208 264 316 373
#     4  10  23  43  65  88 128 170 211 253 314 377
#     4  10  19  40  66  92 123 160 202 265 317 367
#     4  11  24  42  65  89 132 166 210 265 309 375
#     4  11  22  40  65  92 128 162 206 266 315 372
#
# _framework density 21.344539000000001
#
# number of rings (size 3 to 8) (size 9 to 14) (size 15 to 20)
#    0.000    1.000    6.250    1.500    1.750    4.500 
#    0.000    2.500    0.000    5.250    0.000    0.000 
#    0.000    0.000    0.000    0.000    0.000    0.000 
#
# Total GULP energy -89078.056892 kJ/mol
# GULP energy per Si atom -5567.378556 kJ/mol
# Density = 2.129596 g / cm^3
# Si number density = 21.344539 Si / 1000 Ang^3
#
#
#
# Elastic Constant Matrix: (Units=GPa)
#
#
# Indices 1 2 3 4 5 6 
#
# 1 62.5393 50.5979 10.7641 -5.1288 3.2105 0.3406
# 2 50.5979 157.9265 13.3498 2.0353 -7.9495 -12.3349
# 3 10.7641 13.3498 77.2110 -13.7255 -12.0484 -7.4131
# 4 -5.1288 2.0353 -13.7255 25.5203 2.4453 -11.3440
# 5 3.2105 -7.9495 -12.0484 2.4453 23.8267 -2.9645
# 6 0.3406 -12.3349 -7.4131 -11.3440 -2.9645 28.3357
#
#
#
# Elastic Compliance Matrix: (Units=1/GPa)
#
#
# Indices 1 2 3 4 5 6 
#
# 1 0.023809 -0.008167 -0.003212 0.002483 -0.008380 -0.004564
# 2 -0.008167 0.009537 0.000712 -0.000374 0.005283 0.004839
# 3 -0.003212 0.000712 0.018305 0.013300 0.009993 0.011508
# 4 0.002483 -0.000374 0.013300 0.058572 0.003629 0.027115
# 5 -0.008380 0.005283 0.009993 0.003629 0.051011 0.011804
# 6 -0.004564 0.004839 0.011508 0.027115 0.011804 0.052553
#
#
# Mechanical properties :
#
#
# Convention : Reuss Voigt Hill
#
# Bulk Modulus (GPa) = 32.98391 49.67784 41.33087
# Shear Modulus (GPa) = 20.38939 30.40088 25.39513
#
# Velocity S-wave (km/s) = 3.09407 3.77808 3.45305
# Velocity P-wave (km/s) = 5.31516 6.50819 5.94170
#
# Compressibility (1/GPa) = 0.03031781
#
# Stress axis : x y z
#
# Youngs Moduli (GPa) = 42.00122 104.85320 54.63074
#
# Poissons Ratio (x) = 0.85632 0.17545
# Poissons Ratio (y) = 0.34302 -0.03890
# Poissons Ratio (z) = 0.13489 -0.07466
#
# Static dielectric constant tensor:
#      x y z
#    x 1.879560 0.125940 0.060740 
#    y 0.125940 1.776830 0.079400 
#    z 0.060740 0.079400 1.778500 
# 
# From -- ./inp_files/471819.got.cif
#   From: 2010.05.17/outbox.cif.g08.bks.cpg/sg2_236_cif.got.tgz:471819.got - 2010.06.03 11:33:40.
