data_PCOD9092304
_publ_section_title
;
Structure prediction by ZEFSAII (Michael W. Deem and Ramdas Pophale) SiO2 
 PCOD9092304
Probable space group: P -1
;
_chemical_formula_sum "Si O2"
_cell_formula_units_Z 16
_cell_length_a 9.170262
_cell_length_b 11.189109
_cell_length_c 9.411887
_cell_angle_alpha 93.710895
_cell_angle_beta 73.118870
_cell_angle_gamma 127.338274
_cell_volume 726.813119
_symmetry_space_group_name_H-M "P -1"
_symmetry_group_IT_number 2
_symmetry_cell_setting 'triclinic'
loop_
_space_group_symop_operation_xyz
x,y,z
-x,-y,-z
loop_
_atom_site_type_symbol
_atom_site_label
_atom_site_fract_x
_atom_site_fract_y
_atom_site_fract_z
Si Si1 0.545997 0.805082 0.826234
Si Si2 0.959945 0.972330 0.841686
Si Si3 0.426677 0.591202 0.589649
Si Si4 0.977181 0.711090 0.705753
Si Si5 0.374219 0.195358 0.706597
Si Si6 0.314688 0.635176 0.153256
Si Si7 0.000735 0.385813 0.597153
Si Si8 0.601088 0.066780 0.325490
O O1 0.754349 0.922324 0.848509
O O2 0.521776 0.679632 0.716724
O O3 0.510148 0.904509 0.749430
O O4 0.385297 0.707926 0.985032
O O5 0.949600 0.830581 0.780479
O O6 0.154052 0.126706 0.734721
O O7 0.000000 0.000000 0.000000
O O8 0.500000 0.500000 0.500000
O O9 0.499071 0.721971 0.462250
O O10 0.193271 0.477937 0.645429
O O11 0.826538 0.546471 0.804590
O O12 0.979814 0.709872 0.532460
O O13 0.190564 0.774046 0.696260
O O14 0.494530 0.311752 0.808376
O O15 0.366082 0.052832 0.743643
O O16 0.195378 0.686991 0.265111
O O17 0.000000 0.500000 0.500000
O O18 0.500000 0.000000 0.500000
#
# Coordination Sequence:
#
# PCOD9092304 Si02
#       8
#     2   2   2   2   2   2   2   2
#     4  12  26  44  72 107 142 188 245 291 357 423
#     4  11  25  47  68 102 147 189 238 287 360 431
#     4  12  25  43  69 111 142 178 244 295 351 427
#     4  10  22  42  75 101 137 195 231 284 367 421
#     4  11  23  47  69  96 144 193 226 297 358 414
#     4  11  23  42  76 104 142 179 241 298 356 413
#     4  10  19  40  71 102 138 181 230 285 355 420
#     4  11  23  44  71  98 143 185 235 288 350 422
#
# _framework density 22.013912000000001
#
# number of rings (size 3 to 8) (size 9 to 14) (size 15 to 20)
#    0.000    1.000    5.000    3.000    0.000    4.500 
#    4.500    0.000    0.000    0.000    0.000    0.000 
#    0.000    0.000    0.000    0.000    0.000    0.000 
#
# Total GULP energy -89399.998157 kJ/mol
# GULP energy per Si atom -5587.499885 kJ/mol
# Density = 2.196381 g / cm^3
# Si number density = 22.013912 Si / 1000 Ang^3
#
#
#
# Elastic Constant Matrix: (Units=GPa)
#
#
# Indices 1 2 3 4 5 6 
#
# 1 91.7052 51.6228 36.5883 -10.5379 7.9408 32.2737
# 2 51.6228 118.1952 41.4339 -2.7218 3.1969 24.1195
# 3 36.5883 41.4339 132.0525 -1.0368 4.1612 2.3079
# 4 -10.5379 -2.7218 -1.0368 33.7250 4.6373 -0.7596
# 5 7.9408 3.1969 4.1612 4.6373 27.1569 9.0675
# 6 32.2737 24.1195 2.3079 -0.7596 9.0675 41.4161
#
#
#
# Elastic Compliance Matrix: (Units=1/GPa)
#
#
# Indices 1 2 3 4 5 6 
#
# 1 0.020278 -0.004840 -0.003787 0.005780 -0.001658 -0.012302
# 2 -0.004840 0.012084 -0.002450 -0.000926 0.001701 -0.003518
# 3 -0.003787 -0.002450 0.009352 -0.000826 -0.001272 0.004120
# 4 0.005780 -0.000926 -0.000826 0.032180 -0.006298 -0.001950
# 5 -0.001658 0.001701 -0.001272 -0.006298 0.041312 -0.008788
# 6 -0.012302 -0.003518 0.004120 -0.001950 -0.008788 0.037439
#
#
# Mechanical properties :
#
#
# Convention : Reuss Voigt Hill
#
# Bulk Modulus (GPa) = 51.12600 66.80476 58.96538
# Shear Modulus (GPa) = 27.57561 34.61346 31.09454
#
# Velocity S-wave (km/s) = 3.54311 3.96958 3.76239
# Velocity P-wave (km/s) = 6.32558 7.17096 6.76149
#
# Compressibility (1/GPa) = 0.01955952
#
# Stress axis : x y z
#
# Youngs Moduli (GPa) = 49.31566 82.75315 106.92577
#
# Poissons Ratio (x) = 0.40056 0.40492
# Poissons Ratio (y) = 0.23871 0.26195
# Poissons Ratio (z) = 0.18676 0.20273
#
# Static dielectric constant tensor:
#      x y z
#    x 1.862330 -0.005660 -0.044360 
#    y -0.005660 1.856560 0.040600 
#    z -0.044360 0.040600 1.819890 
# 
# From -- ./inp_files/187521.got.cif
#   From: 2010.05.17/outbox.cif.g08.bks.cpg/sg2_94_cif.got.tgz:187521.got - 2010.06.03 11:33:40.
