data_PCOD9092929
_publ_section_title
;
Structure prediction by ZEFSAII (Michael W. Deem and Ramdas Pophale) SiO2 
 PCOD9092929
Probable space group: P -1
;
_chemical_formula_sum "Si O2"
_cell_formula_units_Z 16
_cell_length_a 9.601596
_cell_length_b 14.998034
_cell_length_c 12.800456
_cell_angle_alpha 133.873070
_cell_angle_beta 130.622952
_cell_angle_gamma 37.842701
_cell_volume 792.464234
_symmetry_space_group_name_H-M "P -1"
_symmetry_group_IT_number 2
_symmetry_cell_setting 'triclinic'
loop_
_space_group_symop_operation_xyz
x,y,z
-x,-y,-z
loop_
_atom_site_type_symbol
_atom_site_label
_atom_site_fract_x
_atom_site_fract_y
_atom_site_fract_z
Si Si1 0.209830 0.370893 0.750086
Si Si2 0.560002 0.464337 0.622802
Si Si3 0.811974 0.476734 0.340447
Si Si4 0.778923 0.894054 0.555767
Si Si5 0.819417 0.601158 0.900141
Si Si6 0.076321 0.111487 0.144793
Si Si7 0.034541 0.113443 0.557148
Si Si8 0.586664 0.862946 0.148394
O O1 0.298424 0.413220 0.728616
O O2 0.131159 0.275245 0.580105
O O3 0.377372 0.257557 0.837850
O O4 0.981901 0.529382 0.819016
O O5 0.500000 0.500000 0.500000
O O6 0.369088 0.482897 0.622054
O O7 0.626519 0.574341 0.780931
O O8 0.802017 0.288997 0.602358
O O9 0.000000 0.500000 0.500000
O O10 0.917223 0.301002 0.206867
O O11 0.856541 0.897811 0.709649
O O12 0.894294 0.940258 0.570592
O O13 0.500000 0.000000 0.500000
O O14 0.688722 0.776131 0.017768
O O15 0.000000 0.500000 0.000000
O O16 0.323902 0.015520 0.130179
O O17 0.000000 0.000000 0.000000
O O18 0.251797 0.095966 0.696864
O O19 0.000000 0.000000 0.500000
#
# Coordination Sequence:
#
# PCOD9092929 Si02
#       8
#     2   2   2   2   2   2   2   2
#     4  10  20  41  70  97 121 175 232 272 327 392
#     4  12  24  42  68  97 132 174 222 276 334 398
#     4  12  26  40  68 103 137 173 229 286 328 400
#     4  11  20  42  71  93 131 181 221 269 338 403
#     4  10  19  44  69  91 129 174 221 267 339 399
#     4  12  25  44  66 100 141 177 218 271 354 400
#     4  11  24  40  66 104 125 173 232 274 326 400
#     4  10  22  44  71  91 134 184 214 278 342 405
#
# _framework density 20.190187000000002
#
# number of rings (size 3 to 8) (size 9 to 14) (size 15 to 20)
#    0.000    1.000    7.500    2.250    3.500    0.000 
#    2.250    6.250    0.000    0.000    0.000    0.000 
#    0.000    0.000    0.000    0.000    0.000    0.000 
#
# Total GULP energy -89151.602495 kJ/mol
# GULP energy per Si atom -5571.975156 kJ/mol
# Density = 2.014423 g / cm^3
# Si number density = 20.190187 Si / 1000 Ang^3
#
#
#
# Elastic Constant Matrix: (Units=GPa)
#
#
# Indices 1 2 3 4 5 6 
#
# 1 99.5274 3.6784 -12.1392 -3.0977 -13.1767 -6.9628
# 2 3.6784 33.2559 -12.8828 8.4812 4.0103 -7.6608
# 3 -12.1392 -12.8828 68.6007 3.6629 -6.7287 -2.4983
# 4 -3.0977 8.4812 3.6629 24.3593 -9.9403 -4.2390
# 5 -13.1767 4.0103 -6.7287 -9.9403 34.5489 4.4940
# 6 -6.9628 -7.6608 -2.4983 -4.2390 4.4940 37.9826
#
#
#
# Elastic Compliance Matrix: (Units=1/GPa)
#
#
# Indices 1 2 3 4 5 6 
#
# 1 0.011440 -0.002012 0.002059 0.004624 0.006117 0.001619
# 2 -0.002012 0.040956 0.007585 -0.018575 -0.010370 0.007545
# 3 0.002059 0.007585 0.016829 -0.003765 0.001789 0.002382
# 4 0.004624 -0.018575 -0.003765 0.056744 0.019396 0.000891
# 5 0.006117 -0.010370 0.001789 0.019396 0.038837 -0.003283
# 6 0.001619 0.007545 0.002382 0.000891 -0.003283 0.028791
#
#
# Mechanical properties :
#
#
# Convention : Reuss Voigt Hill
#
# Bulk Modulus (GPa) = 11.83594 17.63296 14.73445
# Shear Modulus (GPa) = 24.21346 34.22666 29.22006
#
# Velocity S-wave (km/s) = 3.46680 4.12176 3.80839
# Velocity P-wave (km/s) = 4.67973 5.60395 5.16257
#
# Compressibility (1/GPa) = 0.08448846
#
# Stress axis : x y z
#
# Youngs Moduli (GPa) = 87.41270 24.41639 59.42101
#
# Poissons Ratio (x) = 0.04912 -0.12233
# Poissons Ratio (y) = 0.17585 -0.45069
# Poissons Ratio (z) = -0.17995 -0.18519
#
# Static dielectric constant tensor:
#      x y z
#    x 1.649860 0.028580 0.069400 
#    y 0.028580 1.785170 -0.021760 
#    z 0.069400 -0.021760 1.687460 
# 
# From -- ./inp_files/399671.got.cif
#   From: 2010.05.17/outbox.cif.g08.bks.cpg/sg2_200_cif.got.tgz:399671.got - 2010.06.03 11:33:40.
