data_PCOD9092530
_publ_section_title
;
Structure prediction by ZEFSAII (Michael W. Deem and Ramdas Pophale) SiO2 
 PCOD9092530
Probable space group: P -1
;
_chemical_formula_sum "Si O2"
_cell_formula_units_Z 14
_cell_length_a 12.628169
_cell_length_b 12.898225
_cell_length_c 7.025694
_cell_angle_alpha 126.349033
_cell_angle_beta 128.828068
_cell_angle_gamma 40.911982
_cell_volume 567.762203
_symmetry_space_group_name_H-M "P -1"
_symmetry_group_IT_number 2
_symmetry_cell_setting 'triclinic'
loop_
_space_group_symop_operation_xyz
x,y,z
-x,-y,-z
loop_
_atom_site_type_symbol
_atom_site_label
_atom_site_fract_x
_atom_site_fract_y
_atom_site_fract_z
Si Si1 0.671106 0.986640 0.301378
Si Si2 0.404802 0.567598 0.260315
Si Si3 0.632007 0.652376 0.532039
Si Si4 0.859298 0.859878 0.022254
Si Si5 0.837183 0.504857 0.983290
Si Si6 0.772498 0.741808 0.448859
Si Si7 0.925297 0.051004 0.759040
O O1 0.650703 0.882199 0.311421
O O2 0.527301 0.175186 0.376033
O O3 0.852008 0.954643 0.515945
O O4 0.696131 0.934088 0.053617
O O5 0.500000 0.500000 0.500000
O O6 0.556812 0.552230 0.298478
O O7 0.317386 0.477781 0.057372
O O8 0.236353 0.756817 0.243454
O O9 0.768216 0.576727 0.774765
O O10 0.692785 0.691571 0.457703
O O11 0.840014 0.817748 0.740787
O O12 0.010638 0.683200 0.079240
O O13 0.918526 0.973714 0.207093
O O14 0.892150 0.589709 0.275752
O O15 0.000000 0.000000 0.000000
#
# Coordination Sequence:
#
# PCOD9092530 Si02
#       7
#     2   2   2   2   2   2   2
#     4  11  24  42  67  94 127 167 212 266 321 379
#     4   8  18  40  67  90 125 164 213 265 318 380
#     4  10  23  43  64  92 127 167 214 261 319 379
#     4  11  24  42  67  94 127 167 212 266 321 379
#     4  10  23  43  64  92 127 167 214 261 319 379
#     4  12  24  38  64  94 132 168 214 258 314 382
#     4  10  19  41  67  97 125 163 217 271 321 379
#
# _framework density 24.658211999999999
#
# number of rings (size 3 to 8) (size 9 to 14) (size 15 to 20)
#    0.000    1.714    1.429    2.143    0.000    7.429 
#    0.000    0.000    0.000    0.000    0.000    0.000 
#    0.000    0.000    0.000    0.000    0.000    0.000 
#
# Total GULP energy -78160.295383 kJ/mol
# GULP energy per Si atom -5582.878242 kJ/mol
# Density = 2.460209 g / cm^3
# Si number density = 24.658212 Si / 1000 Ang^3
#
#
#
# Elastic Constant Matrix: (Units=GPa)
#
#
# Indices 1 2 3 4 5 6 
#
# 1 124.7005 25.5489 56.5595 -22.3789 -9.9896 29.7540
# 2 25.5489 89.4989 47.2707 -26.1934 -26.4542 8.3535
# 3 56.5595 47.2707 116.3102 0.6411 -5.7220 7.6577
# 4 -22.3789 -26.1934 0.6411 35.2605 9.8051 -3.5865
# 5 -9.9896 -26.4542 -5.7220 9.8051 38.4100 1.0725
# 6 29.7540 8.3535 7.6577 -3.5865 1.0725 34.9760
#
#
#
# Elastic Compliance Matrix: (Units=1/GPa)
#
#
# Indices 1 2 3 4 5 6 
#
# 1 0.017036 0.007062 -0.010165 0.013659 0.004648 -0.012695
# 2 0.007062 0.026674 -0.013213 0.020029 0.013346 -0.007841
# 3 -0.010165 -0.013213 0.018291 -0.014403 -0.005523 0.006491
# 4 0.013659 0.020029 -0.014403 0.050648 0.002499 -0.008133
# 5 0.004648 0.013346 -0.005523 0.002499 0.035163 -0.006754
# 6 -0.012695 -0.007841 0.006491 -0.008133 -0.006754 0.039216
#
#
# Mechanical properties :
#
#
# Convention : Reuss Voigt Hill
#
# Bulk Modulus (GPa) = 34.04875 65.47419 49.76147
# Shear Modulus (GPa) = 21.79137 35.13799 28.46468
#
# Velocity S-wave (km/s) = 2.97600 3.77901 3.40129
# Velocity P-wave (km/s) = 5.06429 6.75660 5.97070
#
# Compressibility (1/GPa) = 0.02936965
#
# Stress axis : x y z
#
# Youngs Moduli (GPa) = 58.70072 37.48913 54.67165
#
# Poissons Ratio (x) = -0.26476 0.55574
# Poissons Ratio (y) = -0.41456 0.72236
# Poissons Ratio (z) = 0.59670 0.49534
#
# Static dielectric constant tensor:
#      x y z
#    x 2.037560 0.025150 0.058410 
#    y 0.025150 1.955210 -0.017230 
#    z 0.058410 -0.017230 2.019330 
# 
# From -- ./inp_files/71963.got.cif
#   From: 2010.05.17/outbox.cif.g08.bks.cpg/sg2_36_cif.got.tgz:71963.got - 2010.06.03 11:33:40.
