data_PCOD9092310
_publ_section_title
;
Structure prediction by ZEFSAII (Michael W. Deem and Ramdas Pophale) SiO2 
 PCOD9092310
Probable space group: P -1
;
_chemical_formula_sum "Si O2"
_cell_formula_units_Z 16
_cell_length_a 5.350869
_cell_length_b 10.991370
_cell_length_c 16.414131
_cell_angle_alpha 121.072597
_cell_angle_beta 116.943763
_cell_angle_gamma 46.516484
_cell_volume 592.443809
_symmetry_space_group_name_H-M "P -1"
_symmetry_group_IT_number 2
_symmetry_cell_setting 'triclinic'
loop_
_space_group_symop_operation_xyz
x,y,z
-x,-y,-z
loop_
_atom_site_type_symbol
_atom_site_label
_atom_site_fract_x
_atom_site_fract_y
_atom_site_fract_z
Si Si1 0.608102 0.144238 0.453068
Si Si2 0.319697 0.660457 0.352777
Si Si3 0.498988 0.164148 0.085582
Si Si4 0.081270 0.689506 0.053911
Si Si5 0.382362 0.205098 0.260620
Si Si6 0.465543 0.853563 0.151476
Si Si7 0.354618 0.586448 0.831797
Si Si8 0.427600 0.166442 0.655523
O O1 0.444728 0.324589 0.541621
O O2 0.563113 0.193182 0.367644
O O3 0.445265 0.035437 0.405789
O O4 0.000000 0.000000 0.500000
O O5 0.432686 0.503424 0.253271
O O6 0.315034 0.796304 0.334099
O O7 0.991049 0.714029 0.379084
O O8 0.593861 0.150119 0.189222
O O9 0.707457 0.227576 0.096030
O O10 0.097755 0.327755 0.057456
O O11 0.500000 0.000000 0.000000
O O12 0.186534 0.815174 0.085153
O O13 0.413627 0.531199 0.097503
O O14 0.772013 0.766197 0.100866
O O15 0.004967 0.377754 0.238489
O O16 0.328046 0.053293 0.208535
O O17 0.600232 0.784552 0.237550
#
# Coordination Sequence:
#
# PCOD9092310 Si02
#       8
#     2   2   2   2   2   2   2   2
#     4   9  22  45  76 111 144 200 257 301 377 462
#     4  11  22  42  72 105 149 191 240 312 369 441
#     4  12  28  50  75 107 154 205 258 315 378 458
#     4  12  26  46  79 106 151 198 257 306 382 444
#     4  11  27  47  75 108 159 194 257 314 385 448
#     4  11  22  45  75 109 144 204 247 311 366 454
#     4  12  28  46  73 114 153 200 251 320 386 447
#     4  10  19  40  71 109 143 187 249 303 361 442
#
# _framework density 27.006782999999999
#
# number of rings (size 3 to 8) (size 9 to 14) (size 15 to 20)
#    0.000    1.000    3.750    1.500    5.250    2.000 
#    9.000    0.625    0.000    0.000    0.000    0.000 
#    0.000    0.000    0.000    0.000    0.000    0.000 
#
# Total GULP energy -89164.693262 kJ/mol
# GULP energy per Si atom -5572.793329 kJ/mol
# Density = 2.694531 g / cm^3
# Si number density = 27.006783 Si / 1000 Ang^3
#
#
#
# Elastic Constant Matrix: (Units=GPa)
#
#
# Indices 1 2 3 4 5 6 
#
# 1 96.9579 18.7236 22.5923 -2.4302 -0.4161 5.4129
# 2 18.7236 72.7426 47.9007 -13.1164 0.6272 8.7451
# 3 22.5923 47.9007 167.3725 -26.7384 -17.1896 16.6960
# 4 -2.4302 -13.1164 -26.7384 52.8149 13.5240 13.0736
# 5 -0.4161 0.6272 -17.1896 13.5240 49.7390 5.4413
# 6 5.4129 8.7451 16.6960 13.0736 5.4413 51.4091
#
#
#
# Elastic Compliance Matrix: (Units=1/GPa)
#
#
# Indices 1 2 3 4 5 6 
#
# 1 0.010965 -0.002285 -0.000853 -0.000393 -0.000025 -0.000386
# 2 -0.002285 0.018079 -0.004395 0.003275 -0.002440 -0.001982
# 3 -0.000853 -0.004395 0.008410 0.003249 0.002397 -0.002974
# 4 -0.000393 0.003275 0.003249 0.024392 -0.004759 -0.007270
# 5 -0.000025 -0.002440 0.002397 -0.004759 0.022424 -0.001524
# 6 -0.000386 -0.001982 -0.002974 -0.007270 -0.001524 0.022806
#
#
# Mechanical properties :
#
#
# Convention : Reuss Voigt Hill
#
# Bulk Modulus (GPa) = 44.66735 57.27846 50.97291
# Shear Modulus (GPa) = 38.57851 47.31637 42.94744
#
# Velocity S-wave (km/s) = 3.78362 4.19025 3.99212
# Velocity P-wave (km/s) = 5.97184 6.68326 6.33754
#
# Compressibility (1/GPa) = 0.02238772
#
# Stress axis : x y z
#
# Youngs Moduli (GPa) = 91.19620 55.31147 118.91199
#
# Poissons Ratio (x) = 0.12638 0.10143
# Poissons Ratio (y) = 0.20837 0.52267
# Poissons Ratio (z) = 0.07779 0.24312
#
# Static dielectric constant tensor:
#      x y z
#    x 2.301950 -0.059080 -0.014870 
#    y -0.059080 2.317330 0.038440 
#    z -0.014870 0.038440 2.158610 
# 
# From -- ./inp_files/549221.got.cif
#   From: 2010.05.17/outbox.cif.g08.bks.cpg/sg2_275_cif.got.tgz:549221.got - 2010.06.03 11:33:40.
