data_PCOD9092564
_publ_section_title
;
Structure prediction by ZEFSAII (Michael W. Deem and Ramdas Pophale) SiO2 
 PCOD9092564
Probable space group: P -1
;
_chemical_formula_sum "Si O2"
_cell_formula_units_Z 16
_cell_length_a 9.177069
_cell_length_b 12.165908
_cell_length_c 12.353683
_cell_angle_alpha 65.347995
_cell_angle_beta 120.867354
_cell_angle_gamma 71.854625
_cell_volume 795.344434
_symmetry_space_group_name_H-M "P -1"
_symmetry_group_IT_number 2
_symmetry_cell_setting 'triclinic'
loop_
_space_group_symop_operation_xyz
x,y,z
-x,-y,-z
loop_
_atom_site_type_symbol
_atom_site_label
_atom_site_fract_x
_atom_site_fract_y
_atom_site_fract_z
Si Si1 0.949178 0.393978 0.970679
Si Si2 0.587926 0.906391 0.833532
Si Si3 0.279311 0.520910 0.387196
Si Si4 0.388694 0.246008 0.690283
Si Si5 0.053947 0.112661 0.497491
Si Si6 0.572716 0.172115 0.013059
Si Si7 0.058923 0.211334 0.678419
Si Si8 0.735332 0.341940 0.100934
O O1 0.807843 0.457867 0.777236
O O2 0.809057 0.384190 0.008879
O O3 0.000000 0.500000 0.000000
O O4 0.199598 0.217251 0.112640
O O5 0.611473 0.803216 0.987492
O O6 0.565217 0.057182 0.796844
O O7 0.329796 0.999400 0.654028
O O8 0.500000 0.500000 0.500000
O O9 0.330673 0.367432 0.525526
O O10 0.087280 0.679743 0.320823
O O11 0.171847 0.274476 0.639927
O O12 0.480923 0.264392 0.826583
O O13 0.944698 0.200495 0.536061
O O14 0.936667 0.248550 0.304719
O O15 0.000000 0.000000 0.500000
O O16 0.694933 0.222695 0.099382
O O17 0.744023 0.978273 0.135422
O O18 0.500000 0.500000 0.000000
#
# Coordination Sequence:
#
# PCOD9092564 Si02
#       8
#     2   2   2   2   2   2   2   2
#     4  12  29  46  66  98 141 182 221 284 341 395
#     4  10  22  44  69  97 134 169 224 281 334 398
#     4  12  27  44  62 102 139 177 223 279 338 395
#     4  10  21  40  68  95 128 171 225 265 333 397
#     4  10  21  43  71 103 127 178 227 276 331 402
#     4  10  19  41  68  97 124 178 217 272 328 401
#     4  10  22  39  71  92 132 172 221 275 324 400
#     4  12  26  42  68  97 136 177 228 270 340 408
#
# _framework density 20.117070999999999
#
# number of rings (size 3 to 8) (size 9 to 14) (size 15 to 20)
#    0.000    1.500    2.500    4.875    7.000    1.500 
#    0.000    2.500    0.000    0.000    0.000    0.000 
#    0.000    0.000    0.000    0.000    0.000    0.000 
#
# Total GULP energy -89332.307510 kJ/mol
# GULP energy per Si atom -5583.269219 kJ/mol
# Density = 2.007128 g / cm^3
# Si number density = 20.117071 Si / 1000 Ang^3
#
#
#
# Elastic Constant Matrix: (Units=GPa)
#
#
# Indices 1 2 3 4 5 6 
#
# 1 119.6697 60.4370 52.4747 -8.1532 -9.0060 -18.6447
# 2 60.4370 107.4766 42.2726 16.4072 2.2390 -13.7189
# 3 52.4747 42.2726 133.8231 26.8189 -17.2571 -11.9212
# 4 -8.1532 16.4072 26.8189 32.9831 -2.4178 2.2681
# 5 -9.0060 2.2390 -17.2571 -2.4178 35.9991 3.0739
# 6 -18.6447 -13.7189 -11.9212 2.2681 3.0739 36.6267
#
#
#
# Elastic Compliance Matrix: (Units=1/GPa)
#
#
# Indices 1 2 3 4 5 6 
#
# 1 0.017067 -0.009086 -0.006016 0.013672 0.002677 0.002255
# 2 -0.009086 0.016417 0.000319 -0.011157 -0.004118 0.002664
# 3 -0.006016 0.000319 0.012715 -0.011830 0.003637 0.001623
# 4 0.013672 -0.011157 -0.011830 0.049318 0.002123 -0.004302
# 5 0.002677 -0.004118 0.003637 0.002123 0.030736 -0.001707
# 6 0.002255 0.002664 0.001623 -0.004302 -0.001707 0.030386
#
#
# Mechanical properties :
#
#
# Convention : Reuss Voigt Hill
#
# Bulk Modulus (GPa) = 60.11889 74.59311 67.35600
# Shear Modulus (GPa) = 26.07536 34.84079 30.45807
#
# Velocity S-wave (km/s) = 3.60416 4.16613 3.89529
# Velocity P-wave (km/s) = 6.87527 7.76545 7.33388
#
# Compressibility (1/GPa) = 0.01663371
#
# Stress axis : x y z
#
# Youngs Moduli (GPa) = 58.59092 60.91108 78.64671
#
# Poissons Ratio (x) = 0.55345 0.47315
# Poissons Ratio (y) = 0.53237 -0.02510
# Poissons Ratio (z) = 0.35249 -0.01944
#
# Static dielectric constant tensor:
#      x y z
#    x 1.690860 0.004430 0.015270 
#    y 0.004430 1.719710 0.021610 
#    z 0.015270 0.021610 1.774030 
# 
# From -- ./inp_files/389802.got.cif
#   From: 2010.05.17/outbox.cif.g08.bks.cpg/sg2_195_cif.got.tgz:389802.got - 2010.06.03 11:33:40.
