data_PCOD9092480
_publ_section_title
;
Structure prediction by ZEFSAII (Michael W. Deem and Ramdas Pophale) SiO2 
 PCOD9092480
Probable space group: P -1
;
_chemical_formula_sum "Si O2"
_cell_formula_units_Z 10
_cell_length_a 6.485132
_cell_length_b 7.287138
_cell_length_c 13.752992
_cell_angle_alpha 42.455960
_cell_angle_beta 110.887362
_cell_angle_gamma 116.581164
_cell_volume 391.976635
_symmetry_space_group_name_H-M "P -1"
_symmetry_group_IT_number 2
_symmetry_cell_setting 'triclinic'
loop_
_space_group_symop_operation_xyz
x,y,z
-x,-y,-z
loop_
_atom_site_type_symbol
_atom_site_label
_atom_site_fract_x
_atom_site_fract_y
_atom_site_fract_z
Si Si1 0.848324 0.105553 0.212954
Si Si2 0.452442 0.198296 0.999472
Si Si3 0.845863 0.151491 0.746670
Si Si4 0.355427 0.268620 0.282166
Si Si5 0.227675 0.240025 0.478441
O O1 0.723740 0.883838 0.362078
O O2 0.679322 0.268741 0.079075
O O3 0.916394 0.911374 0.217084
O O4 0.095944 0.310563 0.211109
O O5 0.251424 0.026625 0.103418
O O6 0.452022 0.489878 0.834931
O O7 0.500000 0.000000 0.000000
O O8 0.696526 0.015428 0.678982
O O9 0.836143 0.468841 0.631797
O O10 0.396502 0.267575 0.403933
O O11 0.000000 0.000000 0.500000
#
# Coordination Sequence:
#
# PCOD9092480 Si02
#       5
#     2   2   2   2   2
#     4   9  23  38  66  87 124 163 200 245 310 355
#     4  12  22  41  61  93 127 157 206 254 291 363
#     4  10  22  39  67  87 125 157 207 245 305 359
#     4   9  21  41  65  88 124 162 197 250 307 357
#     4  10  19  41  66  90 121 159 202 254 300 362
#
# _framework density 25.511723
#
# number of rings (size 3 to 8) (size 9 to 14) (size 15 to 20)
#    1.200    0.800    2.000    1.800    0.000    1.600 
#    0.000    3.000    0.000    0.000    0.000    0.000 
#    0.000    0.000    0.000    0.000    0.000    0.000 
#
# Total GULP energy -55898.892731 kJ/mol
# GULP energy per Si atom -5589.889273 kJ/mol
# Density = 2.545366 g / cm^3
# Si number density = 25.511723 Si / 1000 Ang^3
#
#
#
# Elastic Constant Matrix: (Units=GPa)
#
#
# Indices 1 2 3 4 5 6 
#
# 1 64.1999 -8.7490 45.3887 6.6870 -17.5936 -11.2942
# 2 -8.7490 122.3066 22.8448 -3.5657 -16.9795 -13.0638
# 3 45.3887 22.8448 169.0283 -1.2182 -54.0046 -5.4972
# 4 6.6870 -3.5657 -1.2182 38.6743 -0.7441 -11.5255
# 5 -17.5936 -16.9795 -54.0046 -0.7441 39.8461 15.2658
# 6 -11.2942 -13.0638 -5.4972 -11.5255 15.2658 26.9497
#
#
#
# Elastic Compliance Matrix: (Units=1/GPa)
#
#
# Indices 1 2 3 4 5 6 
#
# 1 0.022239 0.003701 -0.006656 -0.000646 -0.001621 0.010398
# 2 0.003701 0.009629 -0.001740 0.002041 0.001068 0.006131
# 3 -0.006656 -0.001740 0.013964 -0.002099 0.020244 -0.013149
# 4 -0.000646 0.002041 -0.002099 0.031522 -0.008873 0.018798
# 5 -0.001621 0.001068 0.020244 -0.008873 0.066466 -0.037477
# 6 0.010398 0.006131 -0.013149 0.018798 -0.037477 0.071022
#
#
# Mechanical properties :
#
#
# Convention : Reuss Voigt Hill
#
# Bulk Modulus (GPa) = 27.44140 52.72264 40.08202
# Shear Modulus (GPa) = 21.15259 40.83071 30.99165
#
# Velocity S-wave (km/s) = 2.88259 4.00493 3.48918
# Velocity P-wave (km/s) = 4.67534 6.48821 5.65489
#
# Compressibility (1/GPa) = 0.03644129
#
# Stress axis : x y z
#
# Youngs Moduli (GPa) = 44.96592 103.85786 71.61364
#
# Poissons Ratio (x) = -0.38437 0.47668
# Poissons Ratio (y) = -0.16641 0.12458
# Poissons Ratio (z) = 0.29931 0.18068
#
# Static dielectric constant tensor:
#      x y z
#    x 2.030140 0.022240 0.013380 
#    y 0.022240 1.977170 0.036880 
#    z 0.013380 0.036880 2.095200 
# 
# From -- ./inp_files/372499.got.cif
#   From: 2010.05.17/outbox.cif.g08.bks.cpg/sg2_187_cif.got.tgz:372499.got - 2010.06.03 11:33:40.
