data_PCOD9092257
_publ_section_title
;
Structure prediction by ZEFSAII (Michael W. Deem and Ramdas Pophale) SiO2 
 PCOD9092257
Probable space group: P -1
;
_chemical_formula_sum "Si O2"
_cell_formula_units_Z 16
_cell_length_a 12.183852
_cell_length_b 8.486781
_cell_length_c 12.265752
_cell_angle_alpha 99.474702
_cell_angle_beta 131.879320
_cell_angle_gamma 55.876522
_cell_volume 735.018102
_symmetry_space_group_name_H-M "P -1"
_symmetry_group_IT_number 2
_symmetry_cell_setting 'triclinic'
loop_
_space_group_symop_operation_xyz
x,y,z
-x,-y,-z
loop_
_atom_site_type_symbol
_atom_site_label
_atom_site_fract_x
_atom_site_fract_y
_atom_site_fract_z
Si Si1 0.442818 0.348923 0.099434
Si Si2 0.295484 0.046916 0.865080
Si Si3 0.746832 0.260990 0.856166
Si Si4 0.745179 0.653109 0.449297
Si Si5 0.419109 0.131067 0.266327
Si Si6 0.901351 0.857697 0.022430
Si Si7 0.151717 0.452100 0.730334
Si Si8 0.476419 0.342901 0.518804
O O1 0.639018 0.173258 0.152220
O O2 0.409556 0.538454 0.158416
O O3 0.431468 0.227204 0.175607
O O4 0.276016 0.438989 0.909775
O O5 0.176317 0.122682 0.905713
O O6 0.182092 0.238421 0.731894
O O7 0.500000 0.000000 0.000000
O O8 0.657974 0.207892 0.699589
O O9 0.883007 0.293780 0.887192
O O10 0.851064 0.075083 0.987048
O O11 0.779159 0.547115 0.343542
O O12 0.693717 0.564056 0.499882
O O13 0.930673 0.624035 0.606237
O O14 0.573951 0.888971 0.344657
O O15 0.455224 0.221919 0.401520
O O16 0.217251 0.182840 0.135900
O O17 0.500000 0.500000 0.500000
#
# Coordination Sequence:
#
# PCOD9092257 Si02
#       8
#     2   2   2   2   2   2   2   2
#     4  11  22  41  72 101 131 174 231 279 334 399
#     4  10  19  40  69 102 129 171 230 286 328 392
#     4  11  27  43  63 104 143 174 223 287 341 395
#     4  11  24  42  67 100 136 177 224 277 339 405
#     4  12  22  43  73  97 130 182 231 269 337 405
#     4  11  24  44  70 100 134 178 232 281 331 404
#     4  10  22  40  71 101 130 172 233 281 327 401
#     4  12  27  42  63  96 142 179 212 280 346 399
#
# _framework density 21.768170999999999
#
# number of rings (size 3 to 8) (size 9 to 14) (size 15 to 20)
#    0.000    1.000    6.250    1.125    3.500    2.000 
#    0.000    0.000    0.000    3.000    0.000    0.000 
#    0.000    0.000    0.000    0.000    0.000    0.000 
#
# Total GULP energy -89299.863288 kJ/mol
# GULP energy per Si atom -5581.241456 kJ/mol
# Density = 2.171863 g / cm^3
# Si number density = 21.768171 Si / 1000 Ang^3
#
#
#
# Elastic Constant Matrix: (Units=GPa)
#
#
# Indices 1 2 3 4 5 6 
#
# 1 116.8967 7.2908 31.2550 14.3372 -15.0191 -5.4170
# 2 7.2908 37.5544 5.1887 14.8485 -1.1964 -2.9899
# 3 31.2550 5.1887 98.0177 19.8963 -3.0449 -16.7481
# 4 14.3372 14.8485 19.8963 31.6697 2.1063 -6.3733
# 5 -15.0191 -1.1964 -3.0449 2.1063 34.8479 -5.6977
# 6 -5.4170 -2.9899 -16.7481 -6.3733 -5.6977 22.1974
#
#
#
# Elastic Compliance Matrix: (Units=1/GPa)
#
#
# Indices 1 2 3 4 5 6 
#
# 1 0.010199 -0.000174 -0.002282 -0.003205 0.004546 0.000990
# 2 -0.000174 0.033152 0.002061 -0.016551 0.002551 0.001881
# 3 -0.002282 0.002061 0.013786 -0.006993 0.002131 0.008662
# 4 -0.003205 -0.016551 -0.006993 0.046255 -0.004739 0.003777
# 5 0.004546 0.002551 0.002131 -0.004739 0.032873 0.010138
# 6 0.000990 0.001881 0.008662 0.003777 0.010138 0.055767
#
#
# Mechanical properties :
#
#
# Convention : Reuss Voigt Hill
#
# Bulk Modulus (GPa) = 17.74715 37.77086 27.75901
# Shear Modulus (GPa) = 23.62894 31.65863 27.64378
#
# Velocity S-wave (km/s) = 3.29824 3.81774 3.56746
# Velocity P-wave (km/s) = 4.76183 6.06816 5.45424
#
# Compressibility (1/GPa) = 0.05634707
#
# Stress axis : x y z
#
# Youngs Moduli (GPa) = 98.05346 30.16409 72.53488
#
# Poissons Ratio (x) = 0.00524 0.16551
# Poissons Ratio (y) = 0.01704 -0.14947
# Poissons Ratio (z) = 0.22374 -0.06216
#
# Static dielectric constant tensor:
#      x y z
#    x 1.832950 0.004790 -0.005580 
#    y 0.004790 1.839300 0.006660 
#    z -0.005580 0.006660 1.817200 
# 
# From -- ./inp_files/419559.got.cif
#   From: 2010.05.17/outbox.cif.g08.bks.cpg/sg2_210_cif.got.tgz:419559.got - 2010.06.03 11:33:40.
