data_PCOD9092657
_publ_section_title
;
Structure prediction by ZEFSAII (Michael W. Deem and Ramdas Pophale) SiO2 
 PCOD9092657
Probable space group: P -1
;
_chemical_formula_sum "Si O2"
_cell_formula_units_Z 16
_cell_length_a 18.924114
_cell_length_b 9.546596
_cell_length_c 18.475107
_cell_angle_alpha 148.274618
_cell_angle_beta 22.873183
_cell_angle_gamma 144.715207
_cell_volume 673.479060
_symmetry_space_group_name_H-M "P -1"
_symmetry_group_IT_number 2
_symmetry_cell_setting 'triclinic'
loop_
_space_group_symop_operation_xyz
x,y,z
-x,-y,-z
loop_
_atom_site_type_symbol
_atom_site_label
_atom_site_fract_x
_atom_site_fract_y
_atom_site_fract_z
Si Si1 0.226321 0.097239 0.017584
Si Si2 0.703092 0.495370 0.336773
Si Si3 0.126965 0.651445 0.747125
Si Si4 0.040234 0.736783 0.386459
Si Si5 0.265599 0.219848 0.797676
Si Si6 0.417067 0.531163 0.919588
Si Si7 0.189822 0.981599 0.618906
Si Si8 0.229301 0.386210 0.294121
O O1 0.252838 0.243727 0.133980
O O2 0.358962 0.270316 0.911389
O O3 0.017084 0.104768 0.194629
O O4 0.247499 0.785556 0.863522
O O5 0.500000 0.500000 0.500000
O O6 0.746522 0.477510 0.372986
O O7 0.815378 0.775043 0.324591
O O8 0.084362 0.500360 0.645402
O O9 0.214669 0.955861 0.779620
O O10 0.923539 0.653277 0.974551
O O11 0.966428 0.721389 0.531142
O O12 0.000000 0.000000 0.500000
O O13 0.251926 0.700725 0.162943
O O14 0.409290 0.428092 0.798943
O O15 0.312921 0.110883 0.627101
O O16 0.613235 0.671258 0.824032
O O17 0.245384 0.710612 0.414901
#
# Coordination Sequence:
#
# PCOD9092657 Si02
#       8
#     2   2   2   2   2   2   2   2
#     4  12  24  46  69 100 146 188 233 287 358 430
#     4  12  27  42  68 109 144 183 236 300 356 409
#     4  10  20  42  67  96 134 180 230 290 346 412
#     4  11  26  44  70 100 136 189 236 290 359 420
#     4  10  19  41  74  94 129 177 241 286 342 409
#     4  11  24  45  71 100 137 184 241 294 347 421
#     4  12  24  43  73 106 135 190 240 287 358 422
#     4  12  27  44  71 104 143 189 234 288 359 431
#
# _framework density 23.757234
#
# number of rings (size 3 to 8) (size 9 to 14) (size 15 to 20)
#    0.000    0.750    5.000    2.625    1.750    4.000 
#    0.000    0.000    0.000    0.000    0.000    0.000 
#    0.000    0.000    0.000    0.000    0.000    0.000 
#
# Total GULP energy -89597.676917 kJ/mol
# GULP energy per Si atom -5599.854807 kJ/mol
# Density = 2.370316 g / cm^3
# Si number density = 23.757234 Si / 1000 Ang^3
#
#
#
# Elastic Constant Matrix: (Units=GPa)
#
#
# Indices 1 2 3 4 5 6 
#
# 1 134.7956 6.4413 43.8756 6.6709 -1.2769 6.8743
# 2 6.4413 43.4867 26.2745 10.4632 -9.0968 -14.9554
# 3 43.8756 26.2745 104.5754 18.9497 -11.8389 3.9069
# 4 6.6709 10.4632 18.9497 27.9930 -0.3538 -6.0691
# 5 -1.2769 -9.0968 -11.8389 -0.3538 41.9663 7.8462
# 6 6.8743 -14.9554 3.9069 -6.0691 7.8462 35.8347
#
#
#
# Elastic Compliance Matrix: (Units=1/GPa)
#
#
# Indices 1 2 3 4 5 6 
#
# 1 0.008672 0.000601 -0.003838 0.000113 -0.000527 -0.000860
# 2 0.000601 0.034224 -0.008310 -0.004286 0.002475 0.013806
# 3 -0.003838 -0.008310 0.015298 -0.007695 0.003544 -0.006479
# 4 0.000113 -0.004286 -0.007695 0.044058 -0.004107 0.007390
# 5 -0.000527 0.002475 0.003544 -0.004107 0.026385 -0.005725
# 6 -0.000860 0.013806 -0.006479 0.007390 -0.005725 0.037044
#
#
# Mechanical properties :
#
#
# Convention : Reuss Voigt Hill
#
# Bulk Modulus (GPa) = 28.48877 48.44894 38.46886
# Shear Modulus (GPa) = 24.94074 34.90988 29.92531
#
# Velocity S-wave (km/s) = 3.24360 3.83749 3.55298
# Velocity P-wave (km/s) = 5.10349 6.33030 5.74971
#
# Compressibility (1/GPa) = 0.03510155
#
# Stress axis : x y z
#
# Youngs Moduli (GPa) = 115.30969 29.21894 65.36738
#
# Poissons Ratio (x) = -0.01756 0.25085
# Poissons Ratio (y) = -0.06929 0.54320
# Poissons Ratio (z) = 0.44251 0.24281
#
# Static dielectric constant tensor:
#      x y z
#    x 1.897020 0.007420 -0.004800 
#    y 0.007420 1.930440 -0.002110 
#    z -0.004800 -0.002110 1.923560 
# 
# From -- ./inp_files/575613.got.cif
#   From: 2010.05.17/outbox.cif.g08.bks.cpg/sg2_288_cif.got.tgz:575613.got - 2010.06.03 11:33:40.
