data_PCOD9092615
_publ_section_title
;
Structure prediction by ZEFSAII (Michael W. Deem and Ramdas Pophale) SiO2 
 PCOD9092615
Probable space group: P -1
;
_chemical_formula_sum "Si O2"
_cell_formula_units_Z 16
_cell_length_a 8.092121
_cell_length_b 8.576682
_cell_length_c 21.267744
_cell_angle_alpha 146.948226
_cell_angle_beta 122.997837
_cell_angle_gamma 57.778364
_cell_volume 665.613008
_symmetry_space_group_name_H-M "P -1"
_symmetry_group_IT_number 2
_symmetry_cell_setting 'triclinic'
loop_
_space_group_symop_operation_xyz
x,y,z
-x,-y,-z
loop_
_atom_site_type_symbol
_atom_site_label
_atom_site_fract_x
_atom_site_fract_y
_atom_site_fract_z
Si Si1 0.659699 0.220509 0.609144
Si Si2 0.674548 0.871015 0.859410
Si Si3 0.340886 0.764935 0.530859
Si Si4 0.276349 0.217900 0.854046
Si Si5 0.039154 0.818298 0.600128
Si Si6 0.468093 0.320488 0.793198
Si Si7 0.135655 0.793385 0.092108
Si Si8 0.725354 0.061069 0.065157
O O1 0.618655 0.549497 0.738115
O O2 0.714167 0.267392 0.563450
O O3 0.500000 0.000000 0.500000
O O4 0.841170 0.048236 0.627442
O O5 0.469071 0.099902 0.895571
O O6 0.784749 0.954748 0.847413
O O7 0.793784 0.936445 0.968019
O O8 0.500000 0.500000 0.500000
O O9 0.157504 0.801636 0.553219
O O10 0.445124 0.045469 0.654319
O O11 0.369370 0.294504 0.832428
O O12 0.164701 0.952540 0.724448
O O13 0.154677 0.508004 0.956030
O O14 0.000000 0.500000 0.500000
O O15 0.704672 0.302938 0.851289
O O16 0.325579 0.593281 0.825611
O O17 0.903309 0.917297 0.099008
O O18 0.500000 0.000000 0.000000
#
# Coordination Sequence:
#
# PCOD9092615 Si02
#       8
#     2   2   2   2   2   2   2   2
#     4  12  26  44  68 103 135 185 236 284 345 412
#     4  11  22  43  71  95 131 175 227 281 339 414
#     4  11  24  46  69  97 139 180 231 289 345 408
#     4  10  19  41  70  97 127 172 224 281 333 411
#     4  11  24  44  68 101 137 182 232 286 349 414
#     4  10  22  43  67  96 134 168 226 281 338 410
#     4  11  21  42  71  96 128 180 221 273 347 414
#     4  12  26  40  63 103 136 170 221 281 346 406
#
# _framework density 24.037991999999999
#
# number of rings (size 3 to 8) (size 9 to 14) (size 15 to 20)
#    0.000    1.000    2.500    6.000    5.250    0.500 
#    4.500    0.000    0.000    0.000    0.000    0.000 
#    0.000    0.000    0.000    0.000    0.000    0.000 
#
# Total GULP energy -89544.260492 kJ/mol
# GULP energy per Si atom -5596.516281 kJ/mol
# Density = 2.398328 g / cm^3
# Si number density = 24.037992 Si / 1000 Ang^3
#
#
#
# Elastic Constant Matrix: (Units=GPa)
#
#
# Indices 1 2 3 4 5 6 
#
# 1 77.4201 22.8302 12.3977 3.4077 9.8262 -14.0521
# 2 22.8302 113.5575 33.5300 17.4494 -5.5958 -24.7046
# 3 12.3977 33.5300 128.9024 30.1606 4.4680 -2.3731
# 4 3.4077 17.4494 30.1606 47.8754 2.2634 -6.6198
# 5 9.8262 -5.5958 4.4680 2.2634 33.7283 -2.8863
# 6 -14.0521 -24.7046 -2.3731 -6.6198 -2.8863 41.0784
#
#
#
# Elastic Compliance Matrix: (Units=1/GPa)
#
#
# Indices 1 2 3 4 5 6 
#
# 1 0.014892 -0.002361 -0.000840 0.001019 -0.004389 0.003481
# 2 -0.002361 0.011790 -0.002397 -0.001948 0.003613 0.006084
# 3 -0.000840 -0.002397 0.009739 -0.005437 -0.001261 -0.002131
# 4 0.001019 -0.001948 -0.005437 0.025410 -0.001360 0.002862
# 5 -0.004389 0.003613 -0.001261 -0.001360 0.032010 0.002628
# 6 0.003481 0.006084 -0.002131 0.002862 0.002628 0.029716
#
#
# Mechanical properties :
#
#
# Convention : Reuss Voigt Hill
#
# Bulk Modulus (GPa) = 39.64636 50.82175 45.23405
# Shear Modulus (GPa) = 34.92576 41.27787 38.10181
#
# Velocity S-wave (km/s) = 3.81588 4.14840 3.98561
# Velocity P-wave (km/s) = 5.99530 6.64333 6.32761
#
# Compressibility (1/GPa) = 0.02522300
#
# Stress axis : x y z
#
# Youngs Moduli (GPa) = 67.15235 84.82076 102.68340
#
# Poissons Ratio (x) = 0.20029 0.08627
# Poissons Ratio (y) = 0.15857 0.24612
# Poissons Ratio (z) = 0.05642 0.20331
#
# Static dielectric constant tensor:
#      x y z
#    x 2.021150 0.134350 0.007850 
#    y 0.134350 2.013290 -0.023410 
#    z 0.007850 -0.023410 1.969090 
# 
# From -- ./inp_files/398119.got.cif
#   From: 2010.05.17/outbox.cif.g08.bks.cpg/sg2_200_cif.got.tgz:398119.got - 2010.06.03 11:33:40.
