data_PCOD9092634
_publ_section_title
;
Structure prediction by ZEFSAII (Michael W. Deem and Ramdas Pophale) SiO2 
 PCOD9092634
Probable space group: P -1
;
_chemical_formula_sum "Si O2"
_cell_formula_units_Z 16
_cell_length_a 10.154217
_cell_length_b 9.089472
_cell_length_c 17.156669
_cell_angle_alpha 73.449336
_cell_angle_beta 148.005561
_cell_angle_gamma 113.043488
_cell_volume 768.439405
_symmetry_space_group_name_H-M "P -1"
_symmetry_group_IT_number 2
_symmetry_cell_setting 'triclinic'
loop_
_space_group_symop_operation_xyz
x,y,z
-x,-y,-z
loop_
_atom_site_type_symbol
_atom_site_label
_atom_site_fract_x
_atom_site_fract_y
_atom_site_fract_z
Si Si1 0.978185 0.886728 0.079753
Si Si2 0.179726 0.105837 0.720745
Si Si3 0.951337 0.642476 0.502234
Si Si4 0.023331 0.556889 0.092135
Si Si5 0.370568 0.819109 0.803247
Si Si6 0.307106 0.731964 0.955393
Si Si7 0.137634 0.098869 0.275598
Si Si8 0.491308 0.449522 0.413504
O O1 0.059990 0.737033 0.109826
O O2 0.672627 0.834924 0.953608
O O3 0.132774 0.981233 0.217917
O O4 0.000000 0.000000 0.000000
O O5 0.133127 0.236367 0.617607
O O6 0.302352 0.986142 0.752898
O O7 0.400825 0.180406 0.885170
O O8 0.932603 0.001655 0.663429
O O9 0.743682 0.553760 0.477596
O O10 0.000000 0.500000 0.500000
O O11 0.218358 0.735900 0.664374
O O12 0.260123 0.504404 0.252170
O O13 0.765410 0.444563 0.019756
O O14 0.000000 0.500000 0.000000
O O15 0.262253 0.724156 0.842201
O O16 0.108510 0.828015 0.872030
O O17 0.393802 0.253956 0.386002
O O18 0.500000 0.500000 0.500000
#
# Coordination Sequence:
#
# PCOD9092634 Si02
#       8
#     2   2   2   2   2   2   2   2
#     4  12  25  40  69 104 136 169 233 289 334 397
#     4  11  21  43  71 101 135 176 222 277 351 406
#     4  12  29  44  67 101 140 184 230 279 334 413
#     4  11  25  41  69  99 132 182 224 278 343 402
#     4  11  24  44  68 100 134 176 221 278 343 403
#     4  10  19  41  71  96 131 172 224 272 339 407
#     4  10  21  43  71 103 131 175 228 284 335 401
#     4  11  25  49  71  95 144 187 227 272 350 421
#
# _framework density 20.821421000000001
#
# number of rings (size 3 to 8) (size 9 to 14) (size 15 to 20)
#    0.000    1.000    2.500    5.625    7.000    2.500 
#    0.000    1.250    0.000    0.000    0.000    0.000 
#    0.000    0.000    0.000    0.000    0.000    0.000 
#
# Total GULP energy -89353.168224 kJ/mol
# GULP energy per Si atom -5584.573014 kJ/mol
# Density = 2.077403 g / cm^3
# Si number density = 20.821421 Si / 1000 Ang^3
#
#
#
# Elastic Constant Matrix: (Units=GPa)
#
#
# Indices 1 2 3 4 5 6 
#
# 1 68.7622 21.9667 6.6812 -2.6756 -27.5123 -4.3534
# 2 21.9667 72.6171 10.3702 6.5869 -20.3609 4.9778
# 3 6.6812 10.3702 79.3691 10.8932 -36.6319 -8.2389
# 4 -2.6756 6.5869 10.8932 24.1499 3.2905 -6.7669
# 5 -27.5123 -20.3609 -36.6319 3.2905 29.9574 9.9739
# 6 -4.3534 4.9778 -8.2389 -6.7669 9.9739 35.9071
#
#
#
# Elastic Compliance Matrix: (Units=1/GPa)
#
#
# Indices 1 2 3 4 5 6 
#
# 1 -0.028408 -0.039098 -0.078262 0.079519 -0.172738 0.046985
# 2 -0.039098 -0.008255 -0.058487 0.049490 -0.127722 0.027788
# 3 -0.078262 -0.058487 -0.118145 0.122191 -0.294973 0.076473
# 4 0.079519 0.049490 0.122191 -0.074740 0.285083 -0.062455
# 5 -0.172738 -0.127722 -0.294973 0.285083 -0.659320 0.165945
# 6 0.046985 0.027788 0.076473 -0.062455 0.165945 -0.010624
#
#
# Mechanical properties :
#
#
# Convention : Reuss Voigt Hill
#
# Bulk Modulus (GPa) = -1.97434 33.19828 15.61197
# Shear Modulus (GPa) = -6.97707 30.11825 11.57059
#
# Velocity S-wave (km/s) = -1.83254 3.80742 2.35990
# Velocity P-wave (km/s) = 2.32978 5.94201 3.86520
#
# Compressibility (1/GPa) = -0.50649915
#
# Stress axis : x y z
#
# Youngs Moduli (GPa) = -35.20176 -121.13180 -8.46421
#
# Poissons Ratio (x) = -4.73595 -0.66242
# Poissons Ratio (y) = -1.37630 -0.49504
# Poissons Ratio (z) = -2.75495 -7.08458
#
# Static dielectric constant tensor:
#      x y z
#    x 1.857790 0.127960 0.114680 
#    y 0.127960 1.839750 0.054860 
#    z 0.114680 0.054860 1.716510 
# 
# From -- ./inp_files/403218.got.cif
#   From: 2010.05.17/outbox.cif.g08.bks.cpg/sg2_202_cif.got.tgz:403218.got - 2010.06.03 11:33:40.
