data_PCOD9092547
_publ_section_title
;
Structure prediction by ZEFSAII (Michael W. Deem and Ramdas Pophale) SiO2 
 PCOD9092547
Probable space group: P -1
;
_chemical_formula_sum "Si O2"
_cell_formula_units_Z 14
_cell_length_a 8.918000
_cell_length_b 8.307449
_cell_length_c 8.031761
_cell_angle_alpha 113.638576
_cell_angle_beta 92.729406
_cell_angle_gamma 72.278578
_cell_volume 517.352616
_symmetry_space_group_name_H-M "P -1"
_symmetry_group_IT_number 2
_symmetry_cell_setting 'triclinic'
loop_
_space_group_symop_operation_xyz
x,y,z
-x,-y,-z
loop_
_atom_site_type_symbol
_atom_site_label
_atom_site_fract_x
_atom_site_fract_y
_atom_site_fract_z
Si Si1 0.965831 0.603315 0.748486
Si Si2 0.345653 0.160772 0.292444
Si Si3 0.144528 0.736489 0.285735
Si Si4 0.467526 0.644674 0.410240
Si Si5 0.618815 0.848345 0.088569
Si Si6 0.912353 0.927105 0.114730
Si Si7 0.718986 0.481775 0.129517
O O1 0.843635 0.741921 0.672627
O O2 0.923172 0.415920 0.694952
O O3 0.152750 0.570631 0.734472
O O4 0.932801 0.718303 0.966163
O O5 0.430163 0.225477 0.474757
O O6 0.441375 0.944117 0.186806
O O7 0.381708 0.219560 0.130308
O O8 0.286216 0.753784 0.412826
O O9 0.004627 0.912582 0.285662
O O10 0.227455 0.653898 0.079006
O O11 0.500000 0.500000 0.500000
O O12 0.546362 0.515887 0.205578
O O13 0.705818 0.684129 0.145824
O O14 0.722286 0.993593 0.148249
O O15 0.000000 0.000000 0.000000
#
# Coordination Sequence:
#
# PCOD9092547 Si02
#       7
#     2   2   2   2   2   2   2
#     4  10  19  41  68  91 124 166 219 258 312 384
#     4  10  22  38  63  93 129 164 207 271 313 378
#     4  11  20  42  68  94 132 164 217 262 318 383
#     4  12  25  38  58  98 137 160 213 270 316 376
#     4  10  20  41  67  87 125 172 219 256 327 381
#     4  10  20  36  66 100 124 158 218 275 309 368
#     4  11  21  39  70  89 118 181 217 256 316 384
#
# _framework density 27.060849999999999
#
# number of rings (size 3 to 8) (size 9 to 14) (size 15 to 20)
#    0.000    1.429    5.714    1.286    0.000    6.857 
#    0.000    0.714    0.000    0.000    0.000    0.000 
#    0.000    0.000    0.000    0.000    0.000    0.000 
#
# Total GULP energy -78170.841976 kJ/mol
# GULP energy per Si atom -5583.631570 kJ/mol
# Density = 2.699926 g / cm^3
# Si number density = 27.060850 Si / 1000 Ang^3
#
#
#
# Elastic Constant Matrix: (Units=GPa)
#
#
# Indices 1 2 3 4 5 6 
#
# 1 127.4401 54.7885 22.0941 -23.3284 33.1426 -25.4405
# 2 54.7885 75.4226 2.1552 -17.2874 11.4982 -20.2655
# 3 22.0941 2.1552 99.9921 -8.1270 13.9232 -8.5094
# 4 -23.3284 -17.2874 -8.1270 20.4635 -16.2067 10.3211
# 5 33.1426 11.4982 13.9232 -16.2067 53.9973 -18.9519
# 6 -25.4405 -20.2655 -8.5094 10.3211 -18.9519 52.8898
#
#
#
# Elastic Compliance Matrix: (Units=1/GPa)
#
#
# Indices 1 2 3 4 5 6 
#
# 1 0.013771 -0.008120 -0.001815 0.003936 -0.004819 0.000726
# 2 -0.008120 0.022280 0.001983 0.012008 0.004858 0.004348
# 3 -0.001815 0.001983 0.010784 0.002716 -0.001019 0.000727
# 4 0.003936 0.012008 0.002716 0.079522 0.017365 -0.002365
# 5 -0.004819 0.004858 -0.001019 0.017365 0.028036 0.006037
# 6 0.000726 0.004348 0.000727 -0.002365 0.006037 0.023664
#
#
# Mechanical properties :
#
#
# Convention : Reuss Voigt Hill
#
# Bulk Modulus (GPa) = 32.32931 51.21451 41.77191
# Shear Modulus (GPa) = 24.47729 40.39125 32.43427
#
# Velocity S-wave (km/s) = 3.01080 3.86762 3.46579
# Velocity P-wave (km/s) = 4.90504 6.23790 5.61119
#
# Compressibility (1/GPa) = 0.03093168
#
# Stress axis : x y z
#
# Youngs Moduli (GPa) = 72.61617 44.88272 92.73418
#
# Poissons Ratio (x) = 0.36444 0.16832
# Poissons Ratio (y) = 0.58964 -0.18393
# Poissons Ratio (z) = 0.13181 -0.08902
#
# Static dielectric constant tensor:
#      x y z
#    x 2.242610 -0.089120 0.003390 
#    y -0.089120 2.189690 0.050990 
#    z 0.003390 0.050990 2.124600 
# 
# From -- ./inp_files/159840.got.cif
#   From: 2010.05.17/outbox.cif.g08.bks.cpg/sg2_80_cif.got.tgz:159840.got - 2010.06.03 11:33:40.
