data_PCOD9092188
_publ_section_title
;
Structure prediction by ZEFSAII (Michael W. Deem and Ramdas Pophale) SiO2 
 PCOD9092188
Probable space group: P -1
;
_chemical_formula_sum "Si O2"
_cell_formula_units_Z 16
_cell_length_a 15.932291
_cell_length_b 13.692655
_cell_length_c 12.597650
_cell_angle_alpha 67.097088
_cell_angle_beta 25.813853
_cell_angle_gamma 50.250772
_cell_volume 764.207317
_symmetry_space_group_name_H-M "P -1"
_symmetry_group_IT_number 2
_symmetry_cell_setting 'triclinic'
loop_
_space_group_symop_operation_xyz
x,y,z
-x,-y,-z
loop_
_atom_site_type_symbol
_atom_site_label
_atom_site_fract_x
_atom_site_fract_y
_atom_site_fract_z
Si Si1 0.485011 0.559829 0.711457
Si Si2 0.151305 0.810905 0.142470
Si Si3 0.878761 0.164039 0.583607
Si Si4 0.880995 0.732513 0.847344
Si Si5 0.608721 0.006452 0.547767
Si Si6 0.329811 0.678794 0.627173
Si Si7 0.602936 0.637695 0.123991
Si Si8 0.247584 0.995039 0.842256
O O1 0.409753 0.674254 0.658369
O O2 0.305591 0.522361 0.917430
O O3 0.810928 0.405299 0.396568
O O4 0.403803 0.642215 0.880056
O O5 0.160935 0.804040 0.260209
O O6 0.862628 0.884393 0.389651
O O7 0.168727 0.921810 0.027238
O O8 0.600152 0.274639 0.782621
O O9 0.080438 0.176325 0.304376
O O10 0.000000 0.000000 0.500000
O O11 0.806173 0.656961 0.896434
O O12 0.645344 0.846380 0.155822
O O13 0.701031 0.040618 0.326736
O O14 0.510353 0.940084 0.626704
O O15 0.500000 0.500000 0.500000
O O16 0.433428 0.706976 0.399061
O O17 0.998691 0.820050 0.942969
#
# Coordination Sequence:
#
# PCOD9092188 Si02
#       8
#     2   2   2   2   2   2   2   2
#     4  10  24  43  63  99 131 172 221 268 333 388
#     4  12  25  43  68  95 132 177 218 267 329 389
#     4  11  24  44  68  94 132 173 222 269 323 391
#     4  11  24  43  66  99 128 175 222 266 328 391
#     4  11  23  39  65  95 134 165 213 274 327 383
#     4  10  19  40  67  92 135 173 211 265 331 390
#     4  10  23  41  64  93 133 173 217 273 322 382
#     4  11  23  40  63  99 137 166 213 276 329 387
#
# _framework density 20.936727999999999
#
# number of rings (size 3 to 8) (size 9 to 14) (size 15 to 20)
#    0.000    1.250    1.250    5.625    1.750    6.500 
#    2.250    1.250    0.000    0.000    0.000    0.000 
#    0.000    0.000    0.000    0.000    0.000    0.000 
#
# Total GULP energy -89252.199776 kJ/mol
# GULP energy per Si atom -5578.262486 kJ/mol
# Density = 2.088908 g / cm^3
# Si number density = 20.936728 Si / 1000 Ang^3
#
#
#
# Elastic Constant Matrix: (Units=GPa)
#
#
# Indices 1 2 3 4 5 6 
#
# 1 127.2140 46.3599 35.0392 -26.2822 13.7905 -18.0310
# 2 46.3599 78.2440 39.5942 -7.5318 1.3331 -3.1897
# 3 35.0392 39.5942 83.8973 -9.2956 8.7494 -0.6142
# 4 -26.2822 -7.5318 -9.2956 19.9000 2.4483 5.8547
# 5 13.7905 1.3331 8.7494 2.4483 42.2175 -2.5680
# 6 -18.0310 -3.1897 -0.6142 5.8547 -2.5680 34.8017
#
#
#
# Elastic Compliance Matrix: (Units=1/GPa)
#
#
# Indices 1 2 3 4 5 6 
#
# 1 0.015045 -0.006716 -0.000711 0.016464 -0.005266 0.004008
# 2 -0.006716 0.020013 -0.007556 -0.005040 0.003379 -0.000682
# 3 -0.000711 -0.007556 0.016670 0.004948 -0.003383 -0.001849
# 4 0.016464 -0.005040 0.004948 0.075310 -0.010936 -0.005321
# 5 -0.005266 0.003379 -0.003383 -0.010936 0.026717 0.001333
# 6 0.004008 -0.000682 -0.001849 -0.005321 0.001333 0.031709
#
#
# Mechanical properties :
#
#
# Convention : Reuss Voigt Hill
#
# Bulk Modulus (GPa) = 45.95287 59.03801 52.49544
# Shear Modulus (GPa) = 22.45351 30.60798 26.53075
#
# Velocity S-wave (km/s) = 3.27838 3.82766 3.56362
# Velocity P-wave (km/s) = 6.02714 6.91333 6.48539
#
# Compressibility (1/GPa) = 0.02176143
#
# Stress axis : x y z
#
# Youngs Moduli (GPa) = 66.46914 49.96803 59.98966
#
# Poissons Ratio (x) = 0.33560 0.04265
# Poissons Ratio (y) = 0.44642 0.45325
# Poissons Ratio (z) = 0.04726 0.37754
#
# Static dielectric constant tensor:
#      x y z
#    x 1.791920 0.011660 0.018500 
#    y 0.011660 1.815450 -0.029540 
#    z 0.018500 -0.029540 1.780610 
# 
# From -- ./inp_files/454717.got.cif
#   From: 2010.05.17/outbox.cif.g08.bks.cpg/sg2_228_cif.got.tgz:454717.got - 2010.06.03 11:33:40.
