data_PCOD9092442
_publ_section_title
;
Structure prediction by ZEFSAII (Michael W. Deem and Ramdas Pophale) SiO2 
 PCOD9092442
Probable space group: P -1
;
_chemical_formula_sum "Si O2"
_cell_formula_units_Z 16
_cell_length_a 12.860267
_cell_length_b 8.462271
_cell_length_c 12.129527
_cell_angle_alpha 144.305196
_cell_angle_beta 83.049976
_cell_angle_gamma 108.065496
_cell_volume 711.559504
_symmetry_space_group_name_H-M "P -1"
_symmetry_group_IT_number 2
_symmetry_cell_setting 'triclinic'
loop_
_space_group_symop_operation_xyz
x,y,z
-x,-y,-z
loop_
_atom_site_type_symbol
_atom_site_label
_atom_site_fract_x
_atom_site_fract_y
_atom_site_fract_z
Si Si1 0.155854 0.116411 0.578705
Si Si2 0.347302 0.110744 0.077225
Si Si3 0.382596 0.225849 0.370979
Si Si4 0.528667 0.225961 0.530289
Si Si5 0.768719 0.212461 0.444841
Si Si6 0.748971 0.390842 0.323861
Si Si7 0.104020 0.142347 0.150347
Si Si8 0.957186 0.166335 0.777452
O O1 0.187536 0.431237 0.691825
O O2 0.051552 0.082145 0.653327
O O3 0.236373 0.047563 0.619194
O O4 0.130517 0.900489 0.352806
O O5 0.357401 0.029183 0.156254
O O6 0.434730 0.440062 0.244097
O O7 0.218720 0.095246 0.072319
O O8 0.357858 0.875761 0.859321
O O9 0.500000 0.500000 0.500000
O O10 0.414058 0.101622 0.404797
O O11 0.289987 0.366875 0.477900
O O12 0.643082 0.218095 0.457594
O O13 0.500000 0.000000 0.500000
O O14 0.803991 0.253432 0.333414
O O15 0.856331 0.507832 0.653863
O O16 0.075213 0.015580 0.207122
O O17 0.000000 0.000000 0.000000
O O18 0.000000 0.500000 0.000000
#
# Coordination Sequence:
#
# PCOD9092442 Si02
#       8
#     2   2   2   2   2   2   2   2
#     4  11  25  41  65  95 131 177 216 280 330 379
#     4  10  23  40  65  95 126 177 217 260 338 386
#     4  10  19  41  65  87 126 170 210 268 326 383
#     4  10  21  42  68  97 130 167 218 276 330 393
#     4  11  23  43  64  97 138 170 218 276 329 389
#     4  12  22  43  66  92 139 168 221 272 326 398
#     4  11  22  41  67  96 132 181 220 270 329 391
#     4  11  23  43  63  95 131 171 234 272 323 393
#
# _framework density 22.48582
#
# number of rings (size 3 to 8) (size 9 to 14) (size 15 to 20)
#    0.000    1.250    5.000    2.250    1.750    3.500 
#    2.250    0.625    0.000    0.000    0.000    0.000 
#    0.000    0.000    0.000    0.000    0.000    0.000 
#
# Total GULP energy -89089.940239 kJ/mol
# GULP energy per Si atom -5568.121265 kJ/mol
# Density = 2.243464 g / cm^3
# Si number density = 22.485820 Si / 1000 Ang^3
#
#
#
# Elastic Constant Matrix: (Units=GPa)
#
#
# Indices 1 2 3 4 5 6 
#
# 1 54.8433 25.1209 17.4425 -11.8355 22.9878 -10.1672
# 2 25.1209 147.9593 31.2290 -19.4175 9.7379 -23.7557
# 3 17.4425 31.2290 138.0420 -19.4076 23.3461 -14.8902
# 4 -11.8355 -19.4175 -19.4076 27.3718 -4.1332 10.8416
# 5 22.9878 9.7379 23.3461 -4.1332 29.4846 -10.1247
# 6 -10.1672 -23.7557 -14.8902 10.8416 -10.1247 40.1182
#
#
#
# Elastic Compliance Matrix: (Units=1/GPa)
#
#
# Indices 1 2 3 4 5 6 
#
# 1 0.030742 -0.003116 0.002002 0.009671 -0.023834 -0.001940
# 2 -0.003116 0.008296 -0.001085 0.002693 0.002139 0.003532
# 3 0.002002 -0.001085 0.009336 0.005593 -0.007868 -0.000167
# 4 0.009671 0.002693 0.005593 0.048933 -0.009238 -0.009434
# 5 -0.023834 0.002139 -0.007868 -0.009238 0.060155 0.009984
# 6 -0.001940 0.003532 -0.000167 -0.009434 0.009984 0.031533
#
#
# Mechanical properties :
#
#
# Convention : Reuss Voigt Hill
#
# Bulk Modulus (GPa) = 22.73966 54.26993 38.50479
# Shear Modulus (GPa) = 24.03237 37.19842 30.61539
#
# Velocity S-wave (km/s) = 3.27276 4.07173 3.69391
# Velocity P-wave (km/s) = 4.94127 6.80389 5.94597
#
# Compressibility (1/GPa) = 0.04397602
#
# Stress axis : x y z
#
# Youngs Moduli (GPa) = 32.52877 120.53435 107.11579
#
# Poissons Ratio (x) = 0.37553 -0.21443
# Poissons Ratio (y) = 0.10134 0.11626
# Poissons Ratio (z) = -0.06512 0.13082
#
# Static dielectric constant tensor:
#      x y z
#    x 2.189950 -0.225230 0.204550 
#    y -0.225230 2.048080 -0.186870 
#    z 0.204550 -0.186870 2.033480 
# 
# From -- ./inp_files/448357.got.cif
#   From: 2010.05.17/outbox.cif.g08.bks.cpg/sg2_225_cif.got.tgz:448357.got - 2010.06.03 11:33:40.
