data_PCOD9092944
_publ_section_title
;
Structure prediction by ZEFSAII (Michael W. Deem and Ramdas Pophale) SiO2 
 PCOD9092944
Probable space group: P -1
;
_chemical_formula_sum "Si O2"
_cell_formula_units_Z 14
_cell_length_a 10.613448
_cell_length_b 14.415890
_cell_length_c 8.079412
_cell_angle_alpha 81.602496
_cell_angle_beta 78.423916
_cell_angle_gamma 27.916825
_cell_volume 565.668627
_symmetry_space_group_name_H-M "P -1"
_symmetry_group_IT_number 2
_symmetry_cell_setting 'triclinic'
loop_
_space_group_symop_operation_xyz
x,y,z
-x,-y,-z
loop_
_atom_site_type_symbol
_atom_site_label
_atom_site_fract_x
_atom_site_fract_y
_atom_site_fract_z
Si Si1 0.610932 0.897588 0.779866
Si Si2 0.487434 0.645406 0.289930
Si Si3 0.042611 0.711576 0.952852
Si Si4 0.430922 0.300575 0.422251
Si Si5 0.964762 0.937679 0.153086
Si Si6 0.189223 0.266386 0.589248
Si Si7 0.717339 0.634952 0.984693
O O1 0.777806 0.795378 0.589380
O O2 0.602753 0.795165 0.868763
O O3 0.770173 0.853938 0.889032
O O4 0.317290 0.121041 0.737320
O O5 0.730635 0.422068 0.218557
O O6 0.514024 0.653248 0.472225
O O7 0.203075 0.787899 0.265839
O O8 0.530515 0.719074 0.163836
O O9 0.006450 0.820607 0.056105
O O10 0.190857 0.528308 0.051395
O O11 0.387166 0.229508 0.545058
O O12 0.681802 0.133710 0.274111
O O13 0.126278 0.505661 0.374881
O O14 0.000000 0.000000 0.000000
O O15 0.000000 0.500000 0.000000
#
# Coordination Sequence:
#
# PCOD9092944 Si02
#       7
#     2   2   2   2   2   2   2
#     4  10  19  44  78 123 152 202 261 328 398 467
#     4  10  22  47  80 108 156 213 265 317 389 466
#     4   9  21  45  80 114 157 201 269 321 387 475
#     4  11  24  49  75 115 164 207 256 329 393 473
#     4  12  28  47  77 116 161 210 266 318 395 474
#     4  10  23  43  80 114 161 204 259 325 401 467
#     4   8  17  38  81 112 153 197 256 328 387 462
#
# _framework density 24.749472000000001
#
# number of rings (size 3 to 8) (size 9 to 14) (size 15 to 20)
#    0.857    1.143    1.429    0.857    4.000    0.000 
#    0.000   20.000    0.000    0.000    0.000    3.000 
#    0.000    0.000    0.000    0.000    0.000    0.000 
#
# Total GULP energy -78217.285725 kJ/mol
# GULP energy per Si atom -5586.948980 kJ/mol
# Density = 2.469314 g / cm^3
# Si number density = 24.749472 Si / 1000 Ang^3
#
#
#
# Elastic Constant Matrix: (Units=GPa)
#
#
# Indices 1 2 3 4 5 6 
#
# 1 119.5857 82.5883 57.4880 23.2816 17.6087 -2.1118
# 2 82.5883 199.2554 67.1485 25.3879 -4.6888 -8.5070
# 3 57.4880 67.1485 122.3617 23.8923 2.2552 10.2920
# 4 23.2816 25.3879 23.8923 48.0574 16.8138 -5.0482
# 5 17.6087 -4.6888 2.2552 16.8138 29.2353 -7.1651
# 6 -2.1118 -8.5070 10.2920 -5.0482 -7.1651 52.3508
#
#
#
# Elastic Compliance Matrix: (Units=1/GPa)
#
#
# Indices 1 2 3 4 5 6 
#
# 1 0.015497 -0.005416 -0.004270 0.001146 -0.010722 -0.000772
# 2 -0.005416 0.008562 -0.001832 -0.003276 0.007200 0.002203
# 3 -0.004270 -0.001832 0.012239 -0.004470 0.003201 -0.002869
# 4 0.001146 -0.003276 -0.004470 0.030706 -0.018323 0.000846
# 5 -0.010722 0.007200 0.003201 -0.018323 0.053497 0.005663
# 6 -0.000772 0.002203 -0.002869 0.000846 0.005663 0.020849
#
#
# Mechanical properties :
#
#
# Convention : Reuss Voigt Hill
#
# Bulk Modulus (GPa) = 75.40411 95.07251 85.23831
# Shear Modulus (GPa) = 29.61961 41.52725 35.57343
#
# Velocity S-wave (km/s) = 3.46320 4.10067 3.79534
# Velocity P-wave (km/s) = 6.82091 7.80500 7.32949
#
# Compressibility (1/GPa) = 0.01326188
#
# Stress axis : x y z
#
# Youngs Moduli (GPa) = 64.52844 116.79799 81.70395
#
# Poissons Ratio (x) = 0.63253 0.34889
# Poissons Ratio (y) = 0.34946 0.14971
# Poissons Ratio (z) = 0.27555 0.21401
#
# Static dielectric constant tensor:
#      x y z
#    x 2.010000 -0.079500 -0.004990 
#    y -0.079500 2.064410 -0.034430 
#    z -0.004990 -0.034430 1.948410 
# 
# From -- ./inp_files/241404.got.cif
#   From: 2010.05.17/outbox.cif.g08.bks.cpg/sg2_121_cif.got.tgz:241404.got - 2010.06.03 11:33:40.
