data_PCOD9092996
_publ_section_title
;
Structure prediction by ZEFSAII (Michael W. Deem and Ramdas Pophale) SiO2 
 PCOD9092996
Probable space group: P -1
;
_chemical_formula_sum "Si O2"
_cell_formula_units_Z 16
_cell_length_a 8.567664
_cell_length_b 11.558562
_cell_length_c 16.395784
_cell_angle_alpha 47.705067
_cell_angle_beta 61.241294
_cell_angle_gamma 100.863225
_cell_volume 645.613796
_symmetry_space_group_name_H-M "P -1"
_symmetry_group_IT_number 2
_symmetry_cell_setting 'triclinic'
loop_
_space_group_symop_operation_xyz
x,y,z
-x,-y,-z
loop_
_atom_site_type_symbol
_atom_site_label
_atom_site_fract_x
_atom_site_fract_y
_atom_site_fract_z
Si Si1 0.125213 0.800749 0.518326
Si Si2 0.551983 0.725143 0.246301
Si Si3 0.347780 0.345634 0.351407
Si Si4 0.619425 0.203354 0.307500
Si Si5 0.699015 0.750916 0.926694
Si Si6 0.823468 0.530816 0.893897
Si Si7 0.198963 0.711318 0.249261
Si Si8 0.055964 0.140569 0.786741
O O1 0.992395 0.865698 0.480209
O O2 0.999761 0.700400 0.688660
O O3 0.970679 0.547245 0.632235
O O4 0.469009 0.051972 0.330974
O O5 0.427751 0.482108 0.351020
O O6 0.325581 0.711247 0.297982
O O7 0.672716 0.757686 0.288032
O O8 0.816378 0.954006 0.008786
O O9 0.485894 0.275062 0.334789
O O10 0.497406 0.553628 0.145351
O O11 0.966039 0.436697 0.123798
O O12 0.500000 0.000000 0.500000
O O13 0.776455 0.653923 0.900395
O O14 0.971257 0.999727 0.790338
O O15 0.494573 0.730213 0.938672
O O16 0.975215 0.699673 0.306255
O O17 0.500000 0.000000 0.000000
#
# Coordination Sequence:
#
# PCOD9092996 Si02
#       8
#     2   2   2   2   2   2   2   2
#     4   9  18  32  50  77 102 132 163 205 254 302
#     4   8  16  27  43  74  98 126 158 209 250 302
#     4   9  17  31  49  71 107 127 163 207 261 296
#     4  10  20  30  48  75  96 134 172 207 244 301
#     4   9  18  34  49  72 101 139 159 207 257 303
#     4   9  18  32  50  69 105 128 172 203 245 309
#     4   9  16  28  49  74 101 126 162 206 259 294
#     4   9  16  28  47  70  99 127 163 199 259 296
#
# _framework density 24.782619
#
# number of rings (size 3 to 8) (size 9 to 14) (size 15 to 20)
#    0.000    3.000    0.000    2.625    3.500    0.500 
#    4.500    0.000    0.000    0.750    0.000    1.750 
#    0.000    0.000    0.000    0.000    0.000    0.000 
#
# Total GULP energy -89224.769878 kJ/mol
# GULP energy per Si atom -5576.548117 kJ/mol
# Density = 2.472621 g / cm^3
# Si number density = 24.782619 Si / 1000 Ang^3
#
#
#
# Elastic Constant Matrix: (Units=GPa)
#
#
# Indices 1 2 3 4 5 6 
#
# 1 250.9858 77.3225 56.3707 -44.4859 -26.6839 38.3243
# 2 77.3225 105.3045 18.5867 -26.1499 -13.7990 24.9573
# 3 56.3707 18.5867 99.7197 3.1648 -19.4531 14.3948
# 4 -44.4859 -26.1499 3.1648 27.3629 5.3233 -4.6980
# 5 -26.6839 -13.7990 -19.4531 5.3233 38.8600 -7.8434
# 6 38.3243 24.9573 14.3948 -4.6980 -7.8434 40.5001
#
#
#
# Elastic Compliance Matrix: (Units=1/GPa)
#
#
# Indices 1 2 3 4 5 6 
#
# 1 0.007932 -0.001330 -0.003901 0.011279 0.000698 -0.003857
# 2 -0.001330 0.015037 -0.001334 0.011128 0.001014 -0.006047
# 3 -0.003901 -0.001334 0.013894 -0.010323 0.005089 -0.000637
# 4 0.011279 0.011128 -0.010323 0.066289 -0.003952 -0.006937
# 5 0.000698 0.001014 0.005089 -0.003952 0.030122 0.002281
# 6 -0.003857 -0.006047 -0.000637 -0.006937 0.002281 0.031930
#
#
# Mechanical properties :
#
#
# Convention : Reuss Voigt Hill
#
# Bulk Modulus (GPa) = 42.13176 84.50774 63.31975
# Shear Modulus (GPa) = 26.84622 41.59329 34.21976
#
# Velocity S-wave (km/s) = 3.29487 4.10118 3.71994
# Velocity P-wave (km/s) = 5.61359 7.52329 6.63748
#
# Compressibility (1/GPa) = 0.02373506
#
# Stress axis : x y z
#
# Youngs Moduli (GPa) = 126.06595 66.50126 71.97206
#
# Poissons Ratio (x) = 0.08842 0.28078
# Poissons Ratio (y) = 0.16761 0.09598
# Poissons Ratio (z) = 0.49182 0.08869
#
# Static dielectric constant tensor:
#      x y z
#    x 2.190020 -0.124660 -0.138370 
#    y -0.124660 2.038400 0.040130 
#    z -0.138370 0.040130 2.144380 
# 
# From -- ./inp_files/196159.got.cif
#   From: 2010.05.17/outbox.cif.g08.bks.cpg/sg2_99_cif.got.tgz:196159.got - 2010.06.03 11:33:40.
