data_PCOD9092714
_publ_section_title
;
Structure prediction by ZEFSAII (Michael W. Deem and Ramdas Pophale) SiO2 
 PCOD9092714
Probable space group: P -1
;
_chemical_formula_sum "Si O2"
_cell_formula_units_Z 16
_cell_length_a 8.129321
_cell_length_b 15.454706
_cell_length_c 7.120529
_cell_angle_alpha 79.969627
_cell_angle_beta 56.905366
_cell_angle_gamma 56.241694
_cell_volume 612.275699
_symmetry_space_group_name_H-M "P -1"
_symmetry_group_IT_number 2
_symmetry_cell_setting 'triclinic'
loop_
_space_group_symop_operation_xyz
x,y,z
-x,-y,-z
loop_
_atom_site_type_symbol
_atom_site_label
_atom_site_fract_x
_atom_site_fract_y
_atom_site_fract_z
Si Si1 0.044308 0.206950 0.651752
Si Si2 0.506796 0.166698 0.366754
Si Si3 0.105838 0.521062 0.699725
Si Si4 0.004687 0.012991 0.770718
Si Si5 0.779531 0.444125 0.809173
Si Si6 0.531565 0.304405 0.546923
Si Si7 0.462526 0.851082 0.098569
Si Si8 0.025383 0.259049 0.206957
O O1 0.320699 0.140148 0.550663
O O2 0.973813 0.124513 0.734028
O O3 0.901933 0.317291 0.810606
O O4 0.034353 0.237703 0.430968
O O5 0.404364 0.283259 0.465241
O O6 0.528595 0.166171 0.128483
O O7 0.737232 0.091239 0.379693
O O8 0.174896 0.539794 0.442416
O O9 0.356335 0.426345 0.662115
O O10 0.001516 0.629749 0.835668
O O11 0.914782 0.490070 0.814115
O O12 0.783716 0.031947 0.781510
O O13 0.000000 0.000000 0.000000
O O14 0.500000 0.500000 0.000000
O O15 0.778640 0.273424 0.311307
O O16 0.551013 0.234996 0.739811
O O17 0.716239 0.831066 0.998756
#
# Coordination Sequence:
#
# PCOD9092714 Si02
#       8
#     2   2   2   2   2   2   2   2
#     4  10  19  42  65  95 134 180 215 279 343 383
#     4  10  23  43  71  96 133 177 231 282 325 406
#     4  10  23  40  63 102 137 176 224 268 331 400
#     4  10  21  40  69  97 129 178 226 275 345 398
#     4  10  22  37  66 104 134 174 227 273 323 407
#     4  12  23  45  67  99 139 177 224 276 334 392
#     4  10  24  44  65 100 134 175 224 277 335 394
#     4  10  23  41  67  94 143 177 216 282 329 398
#
# _framework density 26.132021000000002
#
# number of rings (size 3 to 8) (size 9 to 14) (size 15 to 20)
#    0.000    1.750    2.500    0.750    3.500    3.000 
#    4.500    0.625    0.000    0.000    0.000    0.000 
#    0.000    0.000    0.000    0.000    0.000    0.000 
#
# Total GULP energy -89412.794753 kJ/mol
# GULP energy per Si atom -5588.299672 kJ/mol
# Density = 2.607254 g / cm^3
# Si number density = 26.132021 Si / 1000 Ang^3
#
#
#
# Elastic Constant Matrix: (Units=GPa)
#
#
# Indices 1 2 3 4 5 6 
#
# 1 67.9487 22.6286 45.3957 -2.7599 -23.0294 -1.7500
# 2 22.6286 112.6276 39.4681 -12.1180 -24.6540 -11.8903
# 3 45.3957 39.4681 115.1565 -16.3722 -21.4022 -15.5731
# 4 -2.7599 -12.1180 -16.3722 32.1197 -14.8004 -2.6198
# 5 -23.0294 -24.6540 -21.4022 -14.8004 55.9744 -2.6952
# 6 -1.7500 -11.8903 -15.5731 -2.6198 -2.6952 40.7961
#
#
#
# Elastic Compliance Matrix: (Units=1/GPa)
#
#
# Indices 1 2 3 4 5 6 
#
# 1 0.021904 -0.000616 -0.007496 0.000411 0.005902 -0.001685
# 2 -0.000616 0.012091 -0.001017 0.007479 0.006855 0.004042
# 3 -0.007496 -0.001017 0.015096 0.009487 0.005042 0.006087
# 4 0.000411 0.007479 0.009487 0.049154 0.020585 0.010335
# 5 0.005902 0.006855 0.005042 0.020585 0.031047 0.007549
# 6 -0.001685 0.004042 0.006087 0.010335 0.007549 0.029104
#
#
# Mechanical properties :
#
#
# Convention : Reuss Voigt Hill
#
# Bulk Modulus (GPa) = 32.43275 56.74639 44.58957
# Shear Modulus (GPa) = 26.74758 38.32741 32.53750
#
# Velocity S-wave (km/s) = 3.20278 3.83389 3.53245
# Velocity P-wave (km/s) = 5.11029 6.43122 5.80843
#
# Compressibility (1/GPa) = 0.03083303
#
# Stress axis : x y z
#
# Youngs Moduli (GPa) = 45.65436 82.70551 66.24064
#
# Poissons Ratio (x) = 0.05092 0.49655
# Poissons Ratio (y) = 0.02811 0.06738
# Poissons Ratio (z) = 0.34223 0.08413
#
# Static dielectric constant tensor:
#      x y z
#    x 2.121300 -0.075360 -0.114390 
#    y -0.075360 2.049400 0.107290 
#    z -0.114390 0.107290 2.149700 
# 
# From -- ./inp_files/217250.got.cif
#   From: 2010.05.17/outbox.cif.g08.bks.cpg/sg2_109_cif.got.tgz:217250.got - 2010.06.03 11:33:40.
