data_PCOD9092566
_publ_section_title
;
Structure prediction by ZEFSAII (Michael W. Deem and Ramdas Pophale) SiO2 
 PCOD9092566
Probable space group: P -1
;
_chemical_formula_sum "Si O2"
_cell_formula_units_Z 14
_cell_length_a 23.232624
_cell_length_b 15.310788
_cell_length_c 9.397685
_cell_angle_alpha 29.780624
_cell_angle_beta 154.709760
_cell_angle_gamma 156.264472
_cell_volume 558.848240
_symmetry_space_group_name_H-M "P -1"
_symmetry_group_IT_number 2
_symmetry_cell_setting 'triclinic'
loop_
_space_group_symop_operation_xyz
x,y,z
-x,-y,-z
loop_
_atom_site_type_symbol
_atom_site_label
_atom_site_fract_x
_atom_site_fract_y
_atom_site_fract_z
Si Si1 0.384606 0.437454 0.688246
Si Si2 0.871971 0.551545 0.767759
Si Si3 0.505403 0.343146 0.843367
Si Si4 0.672963 0.916170 0.605199
Si Si5 0.480551 0.942583 0.371809
Si Si6 0.871012 0.722660 0.242660
Si Si7 0.935377 0.339579 0.445290
O O1 0.196813 0.337809 0.454275
O O2 0.382536 0.283721 0.785843
O O3 0.488418 0.678444 0.500213
O O4 0.500000 0.500000 0.000000
O O5 0.950454 0.684532 0.609631
O O6 0.693080 0.307297 0.679154
O O7 0.964892 0.499681 0.156907
O O8 0.500000 0.500000 0.500000
O O9 0.465871 0.120189 0.012068
O O10 0.691835 0.491887 0.120797
O O11 0.637783 0.968642 0.609333
O O12 0.746499 0.127431 0.370971
O O13 0.806685 0.861237 0.961484
O O14 0.500000 0.000000 0.500000
O O15 0.981360 0.771878 0.278516
O O16 0.000000 0.500000 0.500000
#
# Coordination Sequence:
#
# PCOD9092566 Si02
#       7
#     2   2   2   2   2   2   2
#     4  10  19  41  68  97 127 168 211 275 338 393
#     4  11  24  42  71  93 136 176 219 273 339 391
#     4  11  23  36  67 102 134 160 214 281 338 386
#     4  10  23  42  70  94 133 171 218 277 335 385
#     4  11  22  40  69 105 131 165 221 280 338 397
#     4  11  23  48  65  93 138 183 218 262 335 407
#     4  12  28  45  65  96 134 182 230 274 318 393
#
# _framework density 25.051524000000001
#
# number of rings (size 3 to 8) (size 9 to 14) (size 15 to 20)
#    0.000    1.143    4.286    2.571    8.000    1.143 
#    0.000    0.714    0.000    0.000    0.000    0.000 
#    0.000    0.000    0.000    0.000    0.000    0.000 
#
# Total GULP energy -78134.296941 kJ/mol
# GULP energy per Si atom -5581.021210 kJ/mol
# Density = 2.499451 g / cm^3
# Si number density = 25.051524 Si / 1000 Ang^3
#
#
#
# Elastic Constant Matrix: (Units=GPa)
#
#
# Indices 1 2 3 4 5 6 
#
# 1 223.5613 30.1985 48.2336 -2.2278 30.6494 -7.6280
# 2 30.1985 39.9773 9.9210 -19.1596 -5.7001 -2.1033
# 3 48.2336 9.9210 73.3676 -16.7203 3.9076 -13.3399
# 4 -2.2278 -19.1596 -16.7203 25.0641 -0.8144 -3.9388
# 5 30.6494 -5.7001 3.9076 -0.8144 42.9701 -0.4259
# 6 -7.6280 -2.1033 -13.3399 -3.9388 -0.4259 29.4917
#
#
#
# Elastic Compliance Matrix: (Units=1/GPa)
#
#
# Indices 1 2 3 4 5 6 
#
# 1 0.008766 -0.013592 -0.007961 -0.015883 -0.007678 -0.004535
# 2 -0.013592 0.064646 0.016630 0.062601 0.018115 0.017240
# 3 -0.007961 0.016630 0.026460 0.032295 0.006244 0.015499
# 4 -0.015883 0.062601 0.032295 0.113278 0.019144 0.030370
# 5 -0.007678 0.018115 0.006244 0.019144 0.030997 0.005135
# 6 -0.004535 0.017240 0.015499 0.030370 0.005135 0.045105
#
#
# Mechanical properties :
#
#
# Convention : Reuss Voigt Hill
#
# Bulk Modulus (GPa) = 11.10760 57.06803 34.08781
# Shear Modulus (GPa) = 15.19261 36.07538 25.63399
#
# Velocity S-wave (km/s) = 2.46530 3.79891 3.20230
# Velocity P-wave (km/s) = 3.54219 6.48630 5.22586
#
# Compressibility (1/GPa) = 0.09002845
#
# Stress axis : x y z
#
# Youngs Moduli (GPa) = 114.07606 15.46875 37.79265
#
# Poissons Ratio (x) = 0.21025 0.30085
# Poissons Ratio (y) = 1.55051 -0.62850
# Poissons Ratio (z) = 0.90810 -0.25725
#
# Static dielectric constant tensor:
#      x y z
#    x 2.116050 0.000100 0.051350 
#    y 0.000100 1.944700 -0.039490 
#    z 0.051350 -0.039490 2.141950 
# 
# From -- ./inp_files/299162.got.cif
#   From: 2010.05.17/outbox.cif.g08.bks.cpg/sg2_150_cif.got.tgz:299162.got - 2010.06.03 11:33:40.
