data_PCOD9092256
_publ_section_title
;
Structure prediction by ZEFSAII (Michael W. Deem and Ramdas Pophale) SiO2 
 PCOD9092256
Probable space group: P -1
;
_chemical_formula_sum "Si O2"
_cell_formula_units_Z 14
_cell_length_a 11.347788
_cell_length_b 16.631648
_cell_length_c 8.478982
_cell_angle_alpha 29.975636
_cell_angle_beta 129.656050
_cell_angle_gamma 125.971672
_cell_volume 613.066127
_symmetry_space_group_name_H-M "P -1"
_symmetry_group_IT_number 2
_symmetry_cell_setting 'triclinic'
loop_
_space_group_symop_operation_xyz
x,y,z
-x,-y,-z
loop_
_atom_site_type_symbol
_atom_site_label
_atom_site_fract_x
_atom_site_fract_y
_atom_site_fract_z
Si Si1 0.873781 0.667963 0.747959
Si Si2 0.309878 0.131505 0.260472
Si Si3 0.022047 0.969802 0.757122
Si Si4 0.845923 0.312318 0.806452
Si Si5 0.677378 0.566368 0.037711
Si Si6 0.630032 0.648942 0.364653
Si Si7 0.457349 0.893757 0.988946
O O1 0.802539 0.603330 0.630438
O O2 0.750795 0.570023 0.923484
O O3 0.883008 0.863583 0.396951
O O4 0.028288 0.651625 0.009853
O O5 0.135836 0.048725 0.247704
O O6 0.429547 0.006068 0.624436
O O7 0.307003 0.249182 0.208230
O O8 0.359068 0.245893 0.963157
O O9 0.000000 0.000000 0.500000
O O10 0.093339 0.797530 0.098251
O O11 0.778059 0.466965 0.409956
O O12 0.704449 0.203776 0.945330
O O13 0.500000 0.500000 0.000000
O O14 0.500000 0.500000 0.500000
O O15 0.572993 0.765719 0.254233
O O16 0.500000 0.000000 0.000000
#
# Coordination Sequence:
#
# PCOD9092256 Si02
#       7
#     2   2   2   2   2   2   2
#     4  11  22  43  66  96 136 184 235 283 339 420
#     4  12  23  43  68  98 140 184 229 294 349 413
#     4  10  19  40  69 100 135 174 241 294 335 406
#     4  11  21  39  71 102 135 175 243 294 337 405
#     4  12  23  39  68 103 138 183 234 286 351 414
#     4  12  28  47  67 102 152 184 227 294 362 417
#     4  12  24  45  75 102 133 189 242 286 345 421
#
# _framework density 22.836039
#
# number of rings (size 3 to 8) (size 9 to 14) (size 15 to 20)
#    0.000    0.571    5.714    6.000    0.000    0.571 
#    0.000    4.286    0.000    0.000    0.000    0.000 
#    0.000    0.000    0.000    0.000    0.000    0.000 
#
# Total GULP energy -78148.140596 kJ/mol
# GULP energy per Si atom -5582.010043 kJ/mol
# Density = 2.278406 g / cm^3
# Si number density = 22.836039 Si / 1000 Ang^3
#
#
#
# Elastic Constant Matrix: (Units=GPa)
#
#
# Indices 1 2 3 4 5 6 
#
# 1 68.7539 31.8950 26.3483 -1.3685 -12.5018 20.5001
# 2 31.8950 100.8012 46.1439 1.2378 -3.1308 36.5701
# 3 26.3483 46.1439 135.9900 14.1090 -2.2302 18.8169
# 4 -1.3685 1.2378 14.1090 33.5530 1.3882 0.6324
# 5 -12.5018 -3.1308 -2.2302 1.3882 48.1192 -6.3525
# 6 20.5001 36.5701 18.8169 0.6324 -6.3525 44.2258
#
#
#
# Elastic Compliance Matrix: (Units=1/GPa)
#
#
# Indices 1 2 3 4 5 6 
#
# 1 0.018993 -0.003280 -0.002028 0.001673 0.003961 -0.004684
# 2 -0.003280 0.016453 -0.003586 0.001028 -0.001400 -0.010774
# 3 -0.002028 -0.003586 0.009370 -0.003880 -0.000222 -0.000058
# 4 0.001673 0.001028 -0.003880 0.031503 -0.000656 -0.000519
# 5 0.003961 -0.001400 -0.000222 -0.000656 0.022071 0.002596
# 6 -0.004684 -0.010774 -0.000058 -0.000519 0.002596 0.034097
#
#
# Mechanical properties :
#
#
# Convention : Reuss Voigt Hill
#
# Bulk Modulus (GPa) = 36.99645 57.14658 47.07152
# Shear Modulus (GPa) = 31.39076 38.59012 34.99044
#
# Velocity S-wave (km/s) = 3.71160 4.11527 3.91864
# Velocity P-wave (km/s) = 5.88252 6.90360 6.41341
#
# Compressibility (1/GPa) = 0.02702962
#
# Stress axis : x y z
#
# Youngs Moduli (GPa) = 52.65019 60.78061 106.72252
#
# Poissons Ratio (x) = 0.19934 0.21638
# Poissons Ratio (y) = 0.17267 0.38271
# Poissons Ratio (z) = 0.10675 0.21796
#
# Static dielectric constant tensor:
#      x y z
#    x 2.037890 0.047800 0.091190 
#    y 0.047800 1.901420 0.022180 
#    z 0.091190 0.022180 1.919630 
# 
# From -- ./inp_files/154895.got.cif
#   From: 2010.05.17/outbox.cif.g08.bks.cpg/sg2_78_cif.got.tgz:154895.got - 2010.06.03 11:33:40.
