data_PCOD9092664
_publ_section_title
;
Structure prediction by ZEFSAII (Michael W. Deem and Ramdas Pophale) SiO2 
 PCOD9092664
Probable space group: P -1
;
_chemical_formula_sum "Si O2"
_cell_formula_units_Z 11
_cell_length_a 5.185008
_cell_length_b 9.528157
_cell_length_c 16.529132
_cell_angle_alpha 137.077858
_cell_angle_beta 114.066711
_cell_angle_gamma 48.282438
_cell_volume 409.988647
_symmetry_space_group_name_H-M "P -1"
_symmetry_group_IT_number 2
_symmetry_cell_setting 'triclinic'
loop_
_space_group_symop_operation_xyz
x,y,z
-x,-y,-z
loop_
_atom_site_type_symbol
_atom_site_label
_atom_site_fract_x
_atom_site_fract_y
_atom_site_fract_z
Si Si1 0.821481 0.243235 0.142802
Si Si2 0.226617 0.661014 0.641942
Si Si3 0.342999 0.318484 0.804927
Si Si4 0.500000 0.000000 0.000000
Si Si5 0.552727 0.870266 0.538714
Si Si6 0.858150 0.865093 0.160599
O O1 0.945646 0.239544 0.247652
O O2 0.829374 0.440967 0.174128
O O3 0.466227 0.273051 0.120253
O O4 0.000000 0.000000 0.000000
O O5 0.493692 0.356526 0.559260
O O6 0.945335 0.730749 0.565908
O O7 0.352612 0.837058 0.712203
O O8 0.236289 0.300444 0.873577
O O9 0.739241 0.239522 0.825243
O O10 0.320848 0.107639 0.668525
O O11 0.742462 0.892294 0.065341
O O12 0.500000 0.000000 0.500000
#
# Coordination Sequence:
#
# PCOD9092664 Si02
#       6
#     2   2   2   1   2   2
#     4  11  25  44  70 104 145 195 238 309 361 437
#     4   9  21  44  68 107 145 185 245 296 366 429
#     4  11  25  46  73 106 144 187 252 293 370 435
#     4  10  26  44  68  98 146 194 236 296 366 420
#     4  10  19  41  76 103 145 189 240 304 361 432
#     4  10  25  46  70 108 143 195 239 303 359 439
#
# _framework density 26.830010999999999
#
# number of rings (size 3 to 8) (size 9 to 14) (size 15 to 20)
#    0.000    1.818    1.818    0.000   10.182    2.182 
#    0.000    3.636    0.000    0.000    0.000    0.000 
#    0.000    0.000    0.000    0.000    0.000    0.000 
#
# Total GULP energy -61241.545314 kJ/mol
# GULP energy per Si atom -5567.413210 kJ/mol
# Density = 2.676895 g / cm^3
# Si number density = 26.830011 Si / 1000 Ang^3
#
#
#
# Elastic Constant Matrix: (Units=GPa)
#
#
# Indices 1 2 3 4 5 6 
#
# 1 98.2982 49.4956 26.6211 1.2332 18.2024 30.5664
# 2 49.4956 196.7401 64.3601 13.0529 -2.8519 50.1314
# 3 26.6211 64.3601 112.1792 -4.2980 -0.1715 5.5516
# 4 1.2332 13.0529 -4.2980 66.0374 10.1348 4.5603
# 5 18.2024 -2.8519 -0.1715 10.1348 37.7321 -2.8252
# 6 30.5664 50.1314 5.5516 4.5603 -2.8252 36.3947
#
#
#
# Elastic Compliance Matrix: (Units=1/GPa)
#
#
# Indices 1 2 3 4 5 6 
#
# 1 0.017828 0.000589 -0.003702 0.002020 -0.010334 -0.016275
# 2 0.000589 0.010280 -0.005417 -0.001426 -0.000172 -0.013664
# 3 -0.003702 -0.005417 0.012516 0.001081 0.001792 0.008664
# 4 0.002020 -0.001426 0.001081 0.016496 -0.005688 -0.002406
# 5 -0.010334 -0.000172 0.001792 -0.005688 0.033908 0.011987
# 6 -0.016275 -0.013664 0.008664 -0.002406 0.011987 0.059876
#
#
# Mechanical properties :
#
#
# Convention : Reuss Voigt Hill
#
# Bulk Modulus (GPa) = 42.43460 76.46346 59.44903
# Shear Modulus (GPa) = 28.43834 45.81555 37.12695
#
# Velocity S-wave (km/s) = 3.25921 4.13682 3.72396
# Velocity P-wave (km/s) = 5.47848 7.16790 6.37936
#
# Compressibility (1/GPa) = 0.02356567
#
# Stress axis : x y z
#
# Youngs Moduli (GPa) = 56.09141 97.27320 79.89938
#
# Poissons Ratio (x) = -0.05730 0.29576
# Poissons Ratio (y) = -0.03304 0.43278
# Poissons Ratio (z) = 0.20763 0.52689
#
# Static dielectric constant tensor:
#      x y z
#    x 1.952160 -0.018640 -0.000770 
#    y -0.018640 2.130530 0.077410 
#    z -0.000770 0.077410 2.139540 
# 
# From -- ./inp_files/546341.got.cif
#   From: 2010.05.17/outbox.cif.g08.bks.cpg/sg2_274_cif.got.tgz:546341.got - 2010.06.03 11:33:40.
