data_PCOD9092220
_publ_section_title
;
Structure prediction by ZEFSAII (Michael W. Deem and Ramdas Pophale) SiO2 
 PCOD9092220
Probable space group: P -1
;
_chemical_formula_sum "Si O2"
_cell_formula_units_Z 14
_cell_length_a 12.190140
_cell_length_b 11.597100
_cell_length_c 7.866208
_cell_angle_alpha 66.026303
_cell_angle_beta 131.727335
_cell_angle_gamma 137.787314
_cell_volume 549.237644
_symmetry_space_group_name_H-M "P -1"
_symmetry_group_IT_number 2
_symmetry_cell_setting 'triclinic'
loop_
_space_group_symop_operation_xyz
x,y,z
-x,-y,-z
loop_
_atom_site_type_symbol
_atom_site_label
_atom_site_fract_x
_atom_site_fract_y
_atom_site_fract_z
Si Si1 0.760739 0.385952 0.037613
Si Si2 0.720055 0.669353 0.197561
Si Si3 0.279158 0.910719 0.896597
Si Si4 0.742941 0.876357 0.802127
Si Si5 0.954500 0.251114 0.729782
Si Si6 0.328622 0.203300 0.598047
Si Si7 0.556722 0.167878 0.293312
O O1 0.649718 0.307583 0.155024
O O2 0.935319 0.591284 0.119469
O O3 0.837127 0.290691 0.122030
O O4 0.571079 0.321568 0.770412
O O5 0.763051 0.814057 0.034913
O O6 0.500000 0.500000 0.000000
O O7 0.713471 0.712100 0.358787
O O8 0.893543 0.672943 0.320635
O O9 0.348626 0.984891 0.114035
O O10 0.500000 0.000000 0.000000
O O11 0.230855 0.012529 0.684856
O O12 0.743860 0.811663 0.657677
O O13 0.516293 0.802164 0.634824
O O14 0.908382 0.083750 0.842874
O O15 0.735771 0.176312 0.502132
#
# Coordination Sequence:
#
# PCOD9092220 Si02
#       7
#     2   2   2   2   2   2   2
#     4  10  19  40  67  99 138 175 223 277 327 400
#     4  12  25  49  71  93 140 183 222 281 339 403
#     4   8  16  36  66  95 128 179 216 269 327 394
#     4  12  24  44  72  99 135 179 227 278 337 402
#     4  12  24  38  69 108 136 175 227 279 337 400
#     4  10  21  43  74  97 130 182 231 267 338 403
#     4  10  20  41  69  97 137 179 222 275 340 392
#
# _framework density 25.489877
#
# number of rings (size 3 to 8) (size 9 to 14) (size 15 to 20)
#    0.000    1.714    4.286    3.857    0.000    1.143 
#    0.000    2.857    9.429    0.000    0.000    0.000 
#    0.000    0.000    0.000    0.000    0.000    0.000 
#
# Total GULP energy -78231.819012 kJ/mol
# GULP energy per Si atom -5587.987072 kJ/mol
# Density = 2.543186 g / cm^3
# Si number density = 25.489877 Si / 1000 Ang^3
#
#
#
# Elastic Constant Matrix: (Units=GPa)
#
#
# Indices 1 2 3 4 5 6 
#
# 1 141.3853 -2.0939 24.6291 12.6740 -22.7606 -9.9609
# 2 -2.0939 91.3026 4.1080 33.3008 -17.0312 -10.3450
# 3 24.6291 4.1080 88.3333 10.2501 -24.0536 -1.6216
# 4 12.6740 33.3008 10.2501 20.6017 -6.6518 -5.7524
# 5 -22.7606 -17.0312 -24.0536 -6.6518 46.7271 6.6124
# 6 -9.9609 -10.3450 -1.6216 -5.7524 6.6124 31.9347
#
#
#
# Elastic Compliance Matrix: (Units=1/GPa)
#
#
# Indices 1 2 3 4 5 6 
#
# 1 0.009288 0.006440 0.000062 -0.014241 0.004670 0.001454
# 2 0.006440 0.034432 0.006324 -0.059215 0.010419 0.000660
# 3 0.000062 0.006324 0.014982 -0.015569 0.008063 -0.001646
# 4 -0.014241 -0.059215 -0.015569 0.157893 -0.015069 0.007146
# 5 0.004670 0.010419 0.008063 -0.015069 0.030000 -0.003685
# 6 0.001454 0.000660 -0.001646 0.007146 -0.003685 0.033948
#
#
# Mechanical properties :
#
#
# Convention : Reuss Voigt Hill
#
# Bulk Modulus (GPa) = 11.85497 41.58974 26.72236
# Shear Modulus (GPa) = 17.66724 39.47791 28.57257
#
# Velocity S-wave (km/s) = 2.63555 3.93971 3.35167
# Velocity P-wave (km/s) = 3.73128 6.08660 5.04822
#
# Compressibility (1/GPa) = 0.08435278
#
# Stress axis : x y z
#
# Youngs Moduli (GPa) = 107.66111 29.04302 66.74850
#
# Poissons Ratio (x) = -0.18705 -0.00412
# Poissons Ratio (y) = -0.69337 -0.42209
# Poissons Ratio (z) = -0.00664 -0.18366
#
# Static dielectric constant tensor:
#      x y z
#    x 2.161740 -0.071830 0.059270 
#    y -0.071830 2.089580 0.002610 
#    z 0.059270 0.002610 2.058280 
# 
# From -- ./inp_files/258218.got.cif
#   From: 2010.05.17/outbox.cif.g08.bks.cpg/sg2_130_cif.got.tgz:258218.got - 2010.06.03 11:33:40.
