data_PCOD9092713
_publ_section_title
;
Structure prediction by ZEFSAII (Michael W. Deem and Ramdas Pophale) SiO2 
 PCOD9092713
Probable space group: P -1
;
_chemical_formula_sum "Si O2"
_cell_formula_units_Z 16
_cell_length_a 15.198885
_cell_length_b 10.261197
_cell_length_c 7.808941
_cell_angle_alpha 135.457437
_cell_angle_beta 58.921855
_cell_angle_gamma 130.309278
_cell_volume 647.960498
_symmetry_space_group_name_H-M "P -1"
_symmetry_group_IT_number 2
_symmetry_cell_setting 'triclinic'
loop_
_space_group_symop_operation_xyz
x,y,z
-x,-y,-z
loop_
_atom_site_type_symbol
_atom_site_label
_atom_site_fract_x
_atom_site_fract_y
_atom_site_fract_z
Si Si1 0.123180 0.742518 0.782376
Si Si2 0.515566 0.886307 0.711984
Si Si3 0.110594 0.058236 0.327602
Si Si4 0.343511 0.405556 0.395160
Si Si5 0.017092 0.277829 0.411167
Si Si6 0.527767 0.790402 0.102433
Si Si7 0.236074 0.978069 0.565765
Si Si8 0.333318 0.385001 0.999521
O O1 0.098445 0.507297 0.617585
O O2 0.011420 0.710050 0.748163
O O3 0.111384 0.820904 0.466280
O O4 0.137167 0.874363 0.061796
O O5 0.436178 0.636263 0.573667
O O6 0.467139 0.986100 0.706786
O O7 0.650878 0.967285 0.607955
O O8 0.500000 0.000000 0.000000
O O9 0.224788 0.257814 0.471323
O O10 0.073684 0.130723 0.256740
O O11 0.000000 0.000000 0.500000
O O12 0.404711 0.257818 0.163278
O O13 0.308499 0.429173 0.256918
O O14 0.226804 0.869454 0.661197
O O15 0.577061 0.716597 0.148988
O O16 0.396586 0.604102 0.046148
O O17 0.235721 0.196981 0.818150
#
# Coordination Sequence:
#
# PCOD9092713 Si02
#       8
#     2   2   2   2   2   2   2   2
#     4   9  20  44  63  93 123 165 215 256 308 361
#     4  12  26  40  61  95 126 168 204 244 323 382
#     4  12  25  40  66  95 125 169 211 257 318 371
#     4  10  22  43  59  93 124 161 207 255 311 368
#     4   9  22  42  66  93 128 165 214 262 302 370
#     4   9  20  40  61  89 127 155 198 264 297 368
#     4  10  19  42  65  94 125 160 209 259 306 374
#     4   9  17  39  63  93 115 158 206 249 317 347
#
# _framework density 24.692865000000001
#
# number of rings (size 3 to 8) (size 9 to 14) (size 15 to 20)
#    1.500    0.500    2.500    0.375    0.000    8.000 
#    4.500    0.000    0.000    0.000    0.000    0.000 
#    0.000    0.000    0.000    0.000    0.000    0.000 
#
# Total GULP energy -89240.924456 kJ/mol
# GULP energy per Si atom -5577.557778 kJ/mol
# Density = 2.463666 g / cm^3
# Si number density = 24.692865 Si / 1000 Ang^3
#
#
#
# Elastic Constant Matrix: (Units=GPa)
#
#
# Indices 1 2 3 4 5 6 
#
# 1 44.4176 10.2415 10.1600 -0.4455 -6.6737 1.7931
# 2 10.2415 145.8097 58.5630 4.5271 3.3726 53.4013
# 3 10.1600 58.5630 101.9643 4.5062 1.1432 18.2940
# 4 -0.4455 4.5271 4.5062 49.4664 -6.0092 -4.7047
# 5 -6.6737 3.3726 1.1432 -6.0092 19.9772 -3.5957
# 6 1.7931 53.4013 18.2940 -4.7047 -3.5957 37.7559
#
#
#
# Elastic Compliance Matrix: (Units=1/GPa)
#
#
# Indices 1 2 3 4 5 6 
#
# 1 0.025207 -0.003707 -0.001752 0.002670 0.011081 0.006283
# 2 -0.003707 0.019350 -0.005737 -0.005017 -0.010370 -0.026025
# 3 -0.001752 -0.005737 0.012974 -0.000521 -0.000187 0.001828
# 4 0.002670 -0.005017 -0.000521 0.023107 0.010721 0.011122
# 5 0.011081 -0.010370 -0.000187 0.010721 0.062620 0.021531
# 6 0.006283 -0.026025 0.001828 0.011122 0.021531 0.065547
#
#
# Mechanical properties :
#
#
# Convention : Reuss Voigt Hill
#
# Bulk Modulus (GPa) = 28.45847 50.01341 39.23594
# Shear Modulus (GPa) = 20.58379 35.65504 28.11941
#
# Velocity S-wave (km/s) = 2.89033 3.80404 3.37822
# Velocity P-wave (km/s) = 4.76326 6.29226 5.58038
#
# Compressibility (1/GPa) = 0.03513892
#
# Stress axis : x y z
#
# Youngs Moduli (GPa) = 39.67135 51.68035 77.07703
#
# Poissons Ratio (x) = 0.19158 0.13504
# Poissons Ratio (y) = 0.14706 0.44218
# Poissons Ratio (z) = 0.06951 0.29648
#
# Static dielectric constant tensor:
#      x y z
#    x 2.087380 -0.015210 0.067460 
#    y -0.015210 2.020090 -0.018760 
#    z 0.067460 -0.018760 1.940410 
# 
# From -- ./inp_files/346455.got.cif
#   From: 2010.05.17/outbox.cif.g08.bks.cpg/sg2_174_cif.got.tgz:346455.got - 2010.06.03 11:33:40.
