data_PCOD9092500
_publ_section_title
;
Structure prediction by ZEFSAII (Michael W. Deem and Ramdas Pophale) SiO2 
 PCOD9092500
Probable space group: P -1
;
_chemical_formula_sum "Si O2"
_cell_formula_units_Z 15
_cell_length_a 7.931613
_cell_length_b 9.667168
_cell_length_c 13.886635
_cell_angle_alpha 60.826804
_cell_angle_beta 40.937962
_cell_angle_gamma 61.744177
_cell_volume 598.800759
_symmetry_space_group_name_H-M "P -1"
_symmetry_group_IT_number 2
_symmetry_cell_setting 'triclinic'
loop_
_space_group_symop_operation_xyz
x,y,z
-x,-y,-z
loop_
_atom_site_type_symbol
_atom_site_label
_atom_site_fract_x
_atom_site_fract_y
_atom_site_fract_z
Si Si1 0.212513 0.377556 0.767808
Si Si2 0.275474 0.064501 0.152261
Si Si3 0.888538 0.862710 0.448991
Si Si4 0.119781 0.815582 0.884596
Si Si5 0.606385 0.905030 0.347811
Si Si6 0.526543 0.506139 0.206849
Si Si7 0.293805 0.388975 0.095414
Si Si8 0.000000 0.500000 0.500000
O O1 0.367039 0.263930 0.659925
O O2 0.395910 0.458142 0.730789
O O3 0.988097 0.521781 0.779097
O O4 0.056716 0.263180 0.938020
O O5 0.351577 0.197334 0.147240
O O6 0.030917 0.146566 0.164066
O O7 0.164390 0.922862 0.300667
O O8 0.500000 0.000000 0.000000
O O9 0.737257 0.867522 0.409215
O O10 0.934550 0.677546 0.520754
O O11 0.685683 0.993761 0.551860
O O12 0.371615 0.679843 0.798768
O O13 0.215860 0.978254 0.817821
O O14 0.219128 0.562748 0.315094
O O15 0.686933 0.596895 0.034054
O O16 0.500000 0.500000 0.000000
#
# Coordination Sequence:
#
# PCOD9092500 Si02
#       8
#     2   2   2   2   2   2   2   1
#     4  11  22  40  71  98 133 178 223 276 341 402
#     4  11  22  41  69  97 135 180 224 278 342 392
#     4  10  24  43  68  94 139 174 225 288 334 404
#     4  10  19  41  66  94 136 176 223 275 330 406
#     4  10  22  42  67  99 128 178 230 272 342 400
#     4  11  22  44  67  96 136 182 218 278 339 402
#     4  11  24  42  67 106 136 171 228 282 333 402
#     4  12  24  44  70  94 132 190 222 276 350 398
#
# _framework density 25.050066999999999
#
# number of rings (size 3 to 8) (size 9 to 14) (size 15 to 20)
#    0.000    1.333    4.000    2.000    5.600    0.000 
#    2.400    2.000    0.000    0.000    0.000    0.000 
#    0.000    0.000    0.000    0.000    0.000    0.000 
#
# Total GULP energy -83687.367536 kJ/mol
# GULP energy per Si atom -5579.157836 kJ/mol
# Density = 2.499305 g / cm^3
# Si number density = 25.050067 Si / 1000 Ang^3
#
#
#
# Elastic Constant Matrix: (Units=GPa)
#
#
# Indices 1 2 3 4 5 6 
#
# 1 45.9767 21.1431 1.2948 4.3157 8.4005 9.0569
# 2 21.1431 170.5828 35.8537 11.2562 -4.8385 35.9929
# 3 1.2948 35.8537 69.6895 12.8197 -12.7956 1.7666
# 4 4.3157 11.2562 12.8197 48.9672 3.9384 0.3859
# 5 8.4005 -4.8385 -12.7956 3.9384 20.3540 2.0237
# 6 9.0569 35.9929 1.7666 0.3859 2.0237 30.9879
#
#
#
# Elastic Compliance Matrix: (Units=1/GPa)
#
#
# Indices 1 2 3 4 5 6 
#
# 1 0.025808 -0.002428 -0.001154 -0.000460 -0.011477 -0.003901
# 2 -0.002428 0.009176 -0.003905 -0.000947 0.001890 -0.009837
# 3 -0.001154 -0.003905 0.019554 -0.005152 0.012539 0.003003
# 4 -0.000460 -0.000947 -0.005152 0.022645 -0.007830 0.001758
# 5 -0.011477 0.001890 0.012539 -0.007830 0.064076 -0.003643
# 6 -0.003901 -0.009837 0.003003 0.001758 -0.003643 0.044882
#
#
# Mechanical properties :
#
#
# Convention : Reuss Voigt Hill
#
# Bulk Modulus (GPa) = 25.27599 44.75913 35.01756
# Shear Modulus (GPa) = 23.33155 35.25898 29.29527
#
# Velocity S-wave (km/s) = 3.05519 3.75579 3.42346
# Velocity P-wave (km/s) = 4.74949 6.05926 5.44391
#
# Compressibility (1/GPa) = 0.03956323
#
# Stress axis : x y z
#
# Youngs Moduli (GPa) = 38.74756 108.98342 51.14144
#
# Poissons Ratio (x) = 0.26464 0.05901
# Poissons Ratio (y) = 0.09409 0.19970
# Poissons Ratio (z) = 0.04471 0.42557
#
# Static dielectric constant tensor:
#      x y z
#    x 2.045550 -0.054620 0.039460 
#    y -0.054620 1.975280 -0.006360 
#    z 0.039460 -0.006360 1.964310 
# 
# From -- ./inp_files/180631.got.cif
#   From: 2010.05.17/outbox.cif.g08.bks.cpg/sg2_91_cif.got.tgz:180631.got - 2010.06.03 11:33:40.
