data_PCOD9092470
_publ_section_title
;
Structure prediction by ZEFSAII (Michael W. Deem and Ramdas Pophale) SiO2 
 PCOD9092470
Probable space group: P -1
;
_chemical_formula_sum "Si O2"
_cell_formula_units_Z 16
_cell_length_a 5.651480
_cell_length_b 17.182821
_cell_length_c 9.584808
_cell_angle_alpha 50.259019
_cell_angle_beta 117.672903
_cell_angle_gamma 109.955115
_cell_volume 632.490924
_symmetry_space_group_name_H-M "P -1"
_symmetry_group_IT_number 2
_symmetry_cell_setting 'triclinic'
loop_
_space_group_symop_operation_xyz
x,y,z
-x,-y,-z
loop_
_atom_site_type_symbol
_atom_site_label
_atom_site_fract_x
_atom_site_fract_y
_atom_site_fract_z
Si Si1 0.774754 0.220876 0.789233
Si Si2 0.930242 0.597899 0.959005
Si Si3 0.430005 0.034324 0.180159
Si Si4 0.644507 0.235689 0.171221
Si Si5 0.140381 0.011674 0.845649
Si Si6 0.628550 0.682713 0.226619
Si Si7 0.598256 0.310099 0.366231
Si Si8 0.934477 0.528891 0.607532
O O1 0.607395 0.261262 0.826133
O O2 0.587750 0.246195 0.578457
O O3 0.069773 0.268248 0.772157
O O4 0.829635 0.106297 0.973007
O O5 0.626643 0.613988 0.819242
O O6 0.062400 0.710997 0.833335
O O7 0.000000 0.500000 0.000000
O O8 0.031530 0.566467 0.175338
O O9 0.546321 0.129679 0.194039
O O10 0.680387 0.974271 0.260385
O O11 0.177460 0.976418 0.256832
O O12 0.283349 0.065531 0.957661
O O13 0.603827 0.234310 0.325484
O O14 0.472137 0.322980 0.953660
O O15 0.666522 0.587249 0.445509
O O16 0.861464 0.385435 0.367682
O O17 0.000000 0.500000 0.500000
#
# Coordination Sequence:
#
# PCOD9092470 Si02
#       8
#     2   2   2   2   2   2   2   2
#     4  11  22  44  67  96 135 168 220 271 329 387
#     4  12  26  44  63  89 132 179 221 278 336 398
#     4  10  22  37  70 100 135 164 221 269 333 392
#     4  12  25  42  65  96 132 175 219 273 340 397
#     4  10  19  41  66 105 130 169 214 278 322 394
#     4  11  25  41  68  99 124 173 225 279 324 391
#     4  11  27  42  62  93 134 175 220 278 336 400
#     4  11  25  44  65  93 127 174 232 285 329 388
#
# _framework density 25.296807999999999
#
# number of rings (size 3 to 8) (size 9 to 14) (size 15 to 20)
#    0.000    1.000    3.750    1.875   10.500    0.500 
#    0.000    0.625    0.000    0.750    0.000    0.000 
#    0.000    0.000    0.000    0.000    0.000    0.000 
#
# Total GULP energy -89319.349871 kJ/mol
# GULP energy per Si atom -5582.459367 kJ/mol
# Density = 2.523923 g / cm^3
# Si number density = 25.296808 Si / 1000 Ang^3
#
#
#
# Elastic Constant Matrix: (Units=GPa)
#
#
# Indices 1 2 3 4 5 6 
#
# 1 132.5226 48.8859 12.5033 0.5766 -5.1110 -6.3115
# 2 48.8859 141.5686 1.4704 23.4713 -2.6135 2.5787
# 3 12.5033 1.4704 99.0675 8.1906 -3.9946 -11.6946
# 4 0.5766 23.4713 8.1906 42.7413 -9.6264 -4.7594
# 5 -5.1110 -2.6135 -3.9946 -9.6264 27.8019 0.8818
# 6 -6.3115 2.5787 -11.6946 -4.7594 0.8818 44.6526
#
#
#
# Elastic Compliance Matrix: (Units=1/GPa)
#
#
# Indices 1 2 3 4 5 6 
#
# 1 0.009096 -0.003560 -0.001060 0.002662 0.002061 0.001457
# 2 -0.003560 0.009220 0.000541 -0.005647 -0.001619 -0.001464
# 3 -0.001060 0.000541 0.010688 -0.001917 0.000652 0.002401
# 4 0.002662 -0.005647 -0.001917 0.029375 0.009755 0.003139
# 5 0.002061 -0.001619 0.000652 0.009755 0.039641 0.000812
# 6 0.001457 -0.001464 0.002401 0.003139 0.000812 0.023633
#
#
# Mechanical properties :
#
#
# Convention : Reuss Voigt Hill
#
# Bulk Modulus (GPa) = 47.96852 55.43086 51.69969
# Shear Modulus (GPa) = 36.56021 43.72577 40.14299
#
# Velocity S-wave (km/s) = 3.80577 4.16205 3.98789
# Velocity P-wave (km/s) = 6.18993 6.71242 6.45646
#
# Compressibility (1/GPa) = 0.02084701
#
# Stress axis : x y z
#
# Youngs Moduli (GPa) = 109.93387 108.45594 93.56199
#
# Poissons Ratio (x) = 0.38609 0.09920
# Poissons Ratio (y) = 0.39135 -0.05064
# Poissons Ratio (z) = 0.11656 -0.05870
#
# Static dielectric constant tensor:
#      x y z
#    x 2.124580 0.014240 0.000910 
#    y 0.014240 2.072090 -0.053830 
#    z 0.000910 -0.053830 1.994180 
# 
# From -- ./inp_files/105206.got.cif
#   From: 2010.05.17/outbox.cif.g08.bks.cpg/sg2_53_cif.got.tgz:105206.got - 2010.06.03 11:33:40.
