data_PCOD9092073
_publ_section_title
;
Structure prediction by ZEFSAII (Michael W. Deem and Ramdas Pophale) SiO2 
 PCOD9092073
Probable space group: P -1
;
_chemical_formula_sum "Si O2"
_cell_formula_units_Z 16
_cell_length_a 10.553731
_cell_length_b 13.227073
_cell_length_c 16.963918
_cell_angle_alpha 43.658636
_cell_angle_beta 27.786477
_cell_angle_gamma 59.228282
_cell_volume 698.811829
_symmetry_space_group_name_H-M "P -1"
_symmetry_group_IT_number 2
_symmetry_cell_setting 'triclinic'
loop_
_space_group_symop_operation_xyz
x,y,z
-x,-y,-z
loop_
_atom_site_type_symbol
_atom_site_label
_atom_site_fract_x
_atom_site_fract_y
_atom_site_fract_z
Si Si1 0.620302 0.792575 0.877066
Si Si2 0.873923 0.315137 0.385207
Si Si3 0.547788 0.931829 0.136114
Si Si4 0.646394 0.740010 0.056490
Si Si5 0.060149 0.649722 0.159530
Si Si6 0.677788 0.146335 0.376585
Si Si7 0.140824 0.119806 0.783287
Si Si8 0.948563 0.590447 0.079620
O O1 0.510307 0.682046 0.078557
O O2 0.910445 0.775030 0.695418
O O3 0.382699 0.743924 0.965219
O O4 0.110443 0.585732 0.759608
O O5 0.454612 0.125640 0.581749
O O6 0.995879 0.462886 0.296902
O O7 0.318483 0.389641 0.830656
O O8 0.433692 0.801763 0.342529
O O9 0.365270 0.040920 0.189656
O O10 0.505732 0.839594 0.128940
O O11 0.893699 0.045310 0.892914
O O12 0.997924 0.848562 0.785306
O O13 0.851824 0.709092 0.292039
O O14 0.017622 0.685925 0.070950
O O15 0.769619 0.315534 0.183933
O O16 0.500000 0.000000 0.500000
O O17 0.000000 0.000000 0.000000
#
# Coordination Sequence:
#
# PCOD9092073 Si02
#       8
#     2   2   2   2   2   2   2   2
#     4  11  23  42  68  95 136 178 229 267 327 405
#     4  10  23  45  63 100 134 179 220 272 338 395
#     4  11  23  41  66  98 137 175 221 279 327 400
#     4  10  22  42  62 103 133 170 217 282 336 386
#     4   9  21  44  66  95 129 179 220 270 327 400
#     4  10  19  40  65  97 133 174 214 275 334 392
#     4  11  21  38  69 100 131 171 228 272 329 399
#     4   8  21  42  67  94 131 176 210 277 334 387
#
# _framework density 22.896004999999999
#
# number of rings (size 3 to 8) (size 9 to 14) (size 15 to 20)
#    1.500    0.500    1.250    2.625    1.750    1.000 
#    4.500    0.625    0.000    0.000    0.000    0.000 
#    0.000    0.000    0.000    0.000    0.000    0.000 
#
# Total GULP energy -89255.569164 kJ/mol
# GULP energy per Si atom -5578.473073 kJ/mol
# Density = 2.284389 g / cm^3
# Si number density = 22.896005 Si / 1000 Ang^3
#
#
#
# Elastic Constant Matrix: (Units=GPa)
#
#
# Indices 1 2 3 4 5 6 
#
# 1 71.6258 5.0947 9.0691 2.5577 12.9616 6.7416
# 2 5.0947 127.5745 46.1046 21.5043 3.0742 7.0063
# 3 9.0691 46.1046 94.1079 10.3938 23.0463 1.0683
# 4 2.5577 21.5043 10.3938 20.1248 3.1554 2.5761
# 5 12.9616 3.0742 23.0463 3.1554 21.1066 1.8827
# 6 6.7416 7.0063 1.0683 2.5761 1.8827 40.8651
#
#
#
# Elastic Compliance Matrix: (Units=1/GPa)
#
#
# Indices 1 2 3 4 5 6 
#
# 1 0.016063 -0.000880 0.001694 0.000072 -0.011416 -0.002022
# 2 -0.000880 0.011790 -0.006369 -0.010181 0.007425 -0.001410
# 3 0.001694 -0.006369 0.018592 0.000045 -0.020533 0.001270
# 4 0.000072 -0.010181 0.000045 0.061978 -0.007714 -0.001819
# 5 -0.011416 0.007425 -0.020533 -0.007714 0.077053 -0.001917
# 6 -0.002022 -0.001410 0.001270 -0.001819 -0.001917 0.025216
#
#
# Mechanical properties :
#
#
# Convention : Reuss Voigt Hill
#
# Bulk Modulus (GPa) = 28.30056 45.98276 37.14166
# Shear Modulus (GPa) = 21.40580 31.95528 26.68054
#
# Velocity S-wave (km/s) = 3.06095 3.73992 3.41734
# Velocity P-wave (km/s) = 4.98798 6.22706 5.64164
#
# Compressibility (1/GPa) = 0.03533499
#
# Stress axis : x y z
#
# Youngs Moduli (GPa) = 62.25404 84.81676 53.78542
#
# Poissons Ratio (x) = 0.07461 -0.09109
# Poissons Ratio (y) = 0.05476 0.34258
# Poissons Ratio (z) = -0.10543 0.54023
#
# Static dielectric constant tensor:
#      x y z
#    x 1.951590 -0.007700 0.013650 
#    y -0.007700 1.883820 -0.036400 
#    z 0.013650 -0.036400 1.818270 
# 
# From -- ./inp_files/560813.got.cif
#   From: 2010.05.17/outbox.cif.g08.bks.cpg/sg2_281_cif.got.tgz:560813.got - 2010.06.03 11:33:40.
