data_PCOD9092886
_publ_section_title
;
Structure prediction by ZEFSAII (Michael W. Deem and Ramdas Pophale) SiO2 
 PCOD9092886
Probable space group: P -1
;
_chemical_formula_sum "Si O2"
_cell_formula_units_Z 16
_cell_length_a 22.155265
_cell_length_b 8.002174
_cell_length_c 9.752725
_cell_angle_alpha 50.947230
_cell_angle_beta 31.992461
_cell_angle_gamma 56.677878
_cell_volume 710.916658
_symmetry_space_group_name_H-M "P -1"
_symmetry_group_IT_number 2
_symmetry_cell_setting 'triclinic'
loop_
_space_group_symop_operation_xyz
x,y,z
-x,-y,-z
loop_
_atom_site_type_symbol
_atom_site_label
_atom_site_fract_x
_atom_site_fract_y
_atom_site_fract_z
Si Si1 0.960994 0.694755 0.074736
Si Si2 0.267517 0.686339 0.931073
Si Si3 0.513220 0.871253 0.397451
Si Si4 0.746922 0.723808 0.664389
Si Si5 0.703417 0.649831 0.304997
Si Si6 0.557831 0.723681 0.808469
Si Si7 0.110079 0.036780 0.179715
Si Si8 0.803493 0.208447 0.295034
O O1 0.849344 0.649988 0.401588
O O2 0.000000 0.500000 0.000000
O O3 0.066274 0.753250 0.936878
O O4 0.929565 0.890819 0.932466
O O5 0.399505 0.744872 0.653568
O O6 0.220507 0.751572 0.839517
O O7 0.251622 0.440233 0.128532
O O8 0.197029 0.832967 0.101690
O O9 0.617385 0.707000 0.317504
O O10 0.500000 0.000000 0.500000
O O11 0.521653 0.060434 0.170172
O O12 0.626075 0.712178 0.824410
O O13 0.769905 0.970972 0.524355
O O14 0.653258 0.746062 0.493919
O O15 0.726434 0.398133 0.414294
O O16 0.820222 0.767375 0.994127
O O17 0.500000 0.500000 0.000000
O O18 0.000000 0.000000 0.500000
#
# Coordination Sequence:
#
# PCOD9092886 Si02
#       8
#     2   2   2   2   2   2   2   2
#     4  12  23  47  70  97 139 188 239 297 339 416
#     4  12  25  45  72 104 142 188 236 286 364 414
#     4  10  19  43  70  96 137 178 233 294 339 406
#     4  12  24  44  69 100 144 184 233 287 358 421
#     4  11  23  44  69 102 141 184 238 290 353 416
#     4  11  21  43  73 104 134 183 243 293 345 416
#     4  12  24  44  73 108 139 185 245 293 343 424
#     4  12  26  46  67 101 153 185 225 300 356 423
#
# _framework density 22.506153999999999
#
# number of rings (size 3 to 8) (size 9 to 14) (size 15 to 20)
#    0.000    0.500    7.500    2.625    0.000    2.000 
#    2.250    1.250    0.000    0.000    0.000    0.000 
#    0.000    0.000    0.000    0.000    0.000    0.000 
#
# Total GULP energy -89540.155984 kJ/mol
# GULP energy per Si atom -5596.259749 kJ/mol
# Density = 2.245493 g / cm^3
# Si number density = 22.506154 Si / 1000 Ang^3
#
#
#
# Elastic Constant Matrix: (Units=GPa)
#
#
# Indices 1 2 3 4 5 6 
#
# 1 105.3518 26.8904 50.5644 -5.1129 -32.0683 -23.8107
# 2 26.8904 101.9989 22.2526 -27.3595 0.3654 -21.4524
# 3 50.5644 22.2526 119.8046 -25.5991 -11.9862 -17.4617
# 4 -5.1129 -27.3595 -25.5991 41.0316 -2.1871 3.8830
# 5 -32.0683 0.3654 -11.9862 -2.1871 40.3367 3.6491
# 6 -23.8107 -21.4524 -17.4617 3.8830 3.6491 39.1820
#
#
#
# Elastic Compliance Matrix: (Units=1/GPa)
#
#
# Indices 1 2 3 4 5 6 
#
# 1 0.017687 -0.003161 -0.005567 -0.003298 0.011735 0.005770
# 2 -0.003161 0.013982 0.001264 0.009065 -0.002281 0.005611
# 3 -0.005567 0.001264 0.012342 0.007621 -0.000547 0.002105
# 4 -0.003298 0.009065 0.007621 0.034555 0.001179 0.002821
# 5 0.011735 -0.002281 -0.000547 0.001179 0.033828 0.002371
# 6 0.005770 0.005611 0.002105 0.002821 0.002371 0.032538
#
#
# Mechanical properties :
#
#
# Convention : Reuss Voigt Hill
#
# Bulk Modulus (GPa) = 34.38628 58.50778 46.44703
# Shear Modulus (GPa) = 29.48870 39.27325 34.38098
#
# Velocity S-wave (km/s) = 3.62367 4.18185 3.91273
# Velocity P-wave (km/s) = 5.72885 7.02638 6.41053
#
# Compressibility (1/GPa) = 0.02908136
#
# Stress axis : x y z
#
# Youngs Moduli (GPa) = 56.53808 71.52302 81.02174
#
# Poissons Ratio (x) = 0.22611 0.45108
# Poissons Ratio (y) = 0.17874 -0.10241
# Poissons Ratio (z) = 0.31477 -0.09040
#
# Static dielectric constant tensor:
#      x y z
#    x 1.823360 0.015810 0.013370 
#    y 0.015810 1.941560 0.019850 
#    z 0.013370 0.019850 1.797520 
# 
# From -- ./inp_files/474084.got.cif
#   From: 2010.05.17/outbox.cif.g08.bks.cpg/sg2_238_cif.got.tgz:474084.got - 2010.06.03 11:33:40.
