data_PCOD9092888
_publ_section_title
;
Structure prediction by ZEFSAII (Michael W. Deem and Ramdas Pophale) SiO2 
 PCOD9092888
Probable space group: P -1
;
_chemical_formula_sum "Si O2"
_cell_formula_units_Z 10
_cell_length_a 4.934165
_cell_length_b 13.262033
_cell_length_c 11.645026
_cell_angle_alpha 149.207164
_cell_angle_beta 104.752889
_cell_angle_gamma 83.997101
_cell_volume 367.073320
_symmetry_space_group_name_H-M "P -1"
_symmetry_group_IT_number 2
_symmetry_cell_setting 'triclinic'
loop_
_space_group_symop_operation_xyz
x,y,z
-x,-y,-z
loop_
_atom_site_type_symbol
_atom_site_label
_atom_site_fract_x
_atom_site_fract_y
_atom_site_fract_z
Si Si1 0.715598 0.740169 0.031334
Si Si2 0.879872 0.557612 0.260018
Si Si3 0.411232 0.015966 0.161816
Si Si4 0.058473 0.288347 0.336457
Si Si5 0.746754 0.940978 0.543993
O O1 0.401823 0.619451 0.919654
O O2 0.873778 0.558779 0.851886
O O3 0.656390 0.886096 0.063659
O O4 0.949503 0.900542 0.285226
O O5 0.991188 0.700032 0.520867
O O6 0.791742 0.713429 0.314022
O O7 0.355579 0.037793 0.313353
O O8 0.371233 0.229444 0.312162
O O9 0.159037 0.866107 0.917967
O O10 0.000000 0.500000 0.500000
O O11 0.500000 0.000000 0.500000
#
# Coordination Sequence:
#
# PCOD9092888 Si02
#       5
#     2   2   2   2   2
#     4  12  24  49  71 107 147 179 243 290 347 431
#     4  11  27  45  75 108 140 189 232 289 362 418
#     4  10  23  43  68 108 140 185 237 286 349 424
#     4  10  19  43  71 102 146 184 226 290 351 423
#     4  11  27  49  73 103 144 189 239 298 350 412
#
# _framework density 27.242512999999999
#
# number of rings (size 3 to 8) (size 9 to 14) (size 15 to 20)
#    0.000    1.200    4.000    0.000    5.600    3.200 
#    3.600    6.000    0.000    0.000    0.000    0.000 
#    0.000    0.000    0.000    0.000    0.000    0.000 
#
# Total GULP energy -55890.224306 kJ/mol
# GULP energy per Si atom -5589.022431 kJ/mol
# Density = 2.718051 g / cm^3
# Si number density = 27.242513 Si / 1000 Ang^3
#
#
#
# Elastic Constant Matrix: (Units=GPa)
#
#
# Indices 1 2 3 4 5 6 
#
# 1 89.4859 58.4079 12.5168 4.4468 -2.3169 -40.6090
# 2 58.4079 258.3309 71.5159 24.9694 -9.5477 -71.4389
# 3 12.5168 71.5159 103.0960 -0.4212 3.4155 -24.5877
# 4 4.4468 24.9694 -0.4212 69.2435 -19.9018 -9.7484
# 5 -2.3169 -9.5477 3.4155 -19.9018 46.6082 4.8267
# 6 -40.6090 -71.4389 -24.5877 -9.7484 4.8267 72.8272
#
#
#
# Elastic Compliance Matrix: (Units=1/GPa)
#
#
# Indices 1 2 3 4 5 6 
#
# 1 0.015516 -0.001885 0.001173 0.000669 -0.000171 0.007300
# 2 -0.001885 0.006479 -0.003346 -0.001565 0.000402 0.003938
# 3 0.001173 -0.003346 0.012346 0.001097 -0.001247 0.001770
# 4 0.000669 -0.001565 0.001097 0.017076 0.006816 0.001042
# 5 -0.000171 0.000402 -0.001247 0.006816 0.024618 -0.000841
# 6 0.007300 0.003938 0.001770 0.001042 -0.000841 0.022457
#
#
# Mechanical properties :
#
#
# Convention : Reuss Voigt Hill
#
# Bulk Modulus (GPa) = 38.13086 81.75490 59.94288
# Shear Modulus (GPa) = 43.34646 58.30062 50.82354
#
# Velocity S-wave (km/s) = 3.99323 4.63110 4.32394
# Velocity P-wave (km/s) = 5.94040 7.65972 6.85418
#
# Compressibility (1/GPa) = 0.02622548
#
# Stress axis : x y z
#
# Youngs Moduli (GPa) = 64.44818 154.35030 80.99744
#
# Poissons Ratio (x) = 0.29101 -0.09504
# Poissons Ratio (y) = 0.12151 0.27100
# Poissons Ratio (z) = -0.07562 0.51643
#
# Static dielectric constant tensor:
#      x y z
#    x 2.456070 0.184460 -0.034350 
#    y 0.184460 2.176680 0.021690 
#    z -0.034350 0.021690 2.094130 
# 
# From -- ./inp_files/122114.got.cif
#   From: 2010.05.17/outbox.cif.g08.bks.cpg/sg2_62_cif.got.tgz:122114.got - 2010.06.03 11:33:40.
