data_PCOD9092937
_publ_section_title
;
Structure prediction by ZEFSAII (Michael W. Deem and Ramdas Pophale) SiO2 
 PCOD9092937
Probable space group: P -1
;
_chemical_formula_sum "Si O2"
_cell_formula_units_Z 14
_cell_length_a 14.505297
_cell_length_b 9.113833
_cell_length_c 11.446119
_cell_angle_alpha 128.684505
_cell_angle_beta 28.264445
_cell_angle_gamma 127.139888
_cell_volume 553.500724
_symmetry_space_group_name_H-M "P -1"
_symmetry_group_IT_number 2
_symmetry_cell_setting 'triclinic'
loop_
_space_group_symop_operation_xyz
x,y,z
-x,-y,-z
loop_
_atom_site_type_symbol
_atom_site_label
_atom_site_fract_x
_atom_site_fract_y
_atom_site_fract_z
Si Si1 0.088819 0.534143 0.145136
Si Si2 0.098563 0.327880 0.356166
Si Si3 0.750505 0.182540 0.324106
Si Si4 0.875439 0.147681 0.916690
Si Si5 0.562066 0.893772 0.992985
Si Si6 0.439992 0.454362 0.873650
Si Si7 0.805634 0.002368 0.404437
O O1 0.980946 0.666944 0.420145
O O2 0.938719 0.344560 0.201004
O O3 0.143266 0.656522 0.030213
O O4 0.279321 0.474611 0.963978
O O5 0.000000 0.500000 0.500000
O O6 0.989495 0.155506 0.316598
O O7 0.319592 0.384092 0.090333
O O8 0.744799 0.118515 0.165208
O O9 0.575579 0.297457 0.612723
O O10 0.779467 0.018283 0.302948
O O11 0.771302 0.986410 0.861206
O O12 0.106224 0.165650 0.709904
O O13 0.389236 0.933998 0.293453
O O14 0.548204 0.671204 0.869743
O O15 0.500000 0.000000 0.000000
#
# Coordination Sequence:
#
# PCOD9092937 Si02
#       7
#     2   2   2   2   2   2   2
#     4  11  23  48  75 104 141 184 251 297 356 416
#     4  10  19  44  72 105 132 182 244 300 342 414
#     4  12  28  48  73 104 146 202 238 285 359 440
#     4  12  30  46  71 109 152 191 233 295 371 432
#     4  12  26  46  73 113 144 182 238 309 370 409
#     4  11  24  45  78 107 139 186 248 302 346 432
#     4  12  26  46  72 104 149 191 240 295 357 428
#
# _framework density 25.293552999999999
#
# number of rings (size 3 to 8) (size 9 to 14) (size 15 to 20)
#    0.000    0.571    7.143    0.857    6.000    4.571 
#    0.000    0.000    0.000    0.000    0.000    0.000 
#    0.000    0.000    0.000    0.000    0.000    0.000 
#
# Total GULP energy -78334.109159 kJ/mol
# GULP energy per Si atom -5595.293511 kJ/mol
# Density = 2.523598 g / cm^3
# Si number density = 25.293553 Si / 1000 Ang^3
#
#
#
# Elastic Constant Matrix: (Units=GPa)
#
#
# Indices 1 2 3 4 5 6 
#
# 1 165.1892 38.0599 42.8305 1.3488 -12.6110 -22.9729
# 2 38.0599 53.0184 3.6635 -4.3345 -5.1658 -1.1894
# 3 42.8305 3.6635 119.7421 19.2390 -19.2455 -4.8453
# 4 1.3488 -4.3345 19.2390 34.1395 -4.4228 -0.0664
# 5 -12.6110 -5.1658 -19.2455 -4.4228 53.1069 -3.0878
# 6 -22.9729 -1.1894 -4.8453 -0.0664 -3.0878 38.3220
#
#
#
# Elastic Compliance Matrix: (Units=1/GPa)
#
#
# Indices 1 2 3 4 5 6 
#
# 1 0.008871 -0.005939 -0.002747 0.000565 0.000863 0.004857
# 2 -0.005939 0.023348 0.001076 0.002760 0.001330 -0.002588
# 3 -0.002747 0.001076 0.010620 -0.005370 0.002851 -0.000050
# 4 0.000565 0.002760 -0.005370 0.032799 0.001182 -0.000103
# 5 0.000863 0.001330 0.002851 0.001182 0.020445 0.002568
# 6 0.004857 -0.002588 -0.000050 -0.000103 0.002568 0.029126
#
#
# Mechanical properties :
#
#
# Convention : Reuss Voigt Hill
#
# Bulk Modulus (GPa) = 36.20851 56.33975 46.27413
# Shear Modulus (GPa) = 33.41451 42.00673 37.71062
#
# Velocity S-wave (km/s) = 3.63859 4.07967 3.86543
# Velocity P-wave (km/s) = 5.65675 6.67191 6.18519
#
# Compressibility (1/GPa) = 0.02761782
#
# Stress axis : x y z
#
# Youngs Moduli (GPa) = 112.72752 42.83079 94.16263
#
# Poissons Ratio (x) = 0.25438 0.25865
# Poissons Ratio (y) = 0.66950 -0.10128
# Poissons Ratio (z) = 0.30965 -0.04607
#
# Static dielectric constant tensor:
#      x y z
#    x 1.998780 0.063310 0.035220 
#    y 0.063310 1.884180 -0.052190 
#    z 0.035220 -0.052190 1.973720 
# 
# From -- ./inp_files/446249.got.cif
#   From: 2010.05.17/outbox.cif.g08.bks.cpg/sg2_224_cif.got.tgz:446249.got - 2010.06.03 11:33:40.
