data_PCOD9092519
_publ_section_title
;
Structure prediction by ZEFSAII (Michael W. Deem and Ramdas Pophale) SiO2 
 PCOD9092519
Probable space group: P -1
;
_chemical_formula_sum "Si O2"
_cell_formula_units_Z 14
_cell_length_a 17.362609
_cell_length_b 25.988279
_cell_length_c 18.497953
_cell_angle_alpha 18.110131
_cell_angle_beta 153.498878
_cell_angle_gamma 164.527182
_cell_volume 669.419513
_symmetry_space_group_name_H-M "P -1"
_symmetry_group_IT_number 2
_symmetry_cell_setting 'triclinic'
loop_
_space_group_symop_operation_xyz
x,y,z
-x,-y,-z
loop_
_atom_site_type_symbol
_atom_site_label
_atom_site_fract_x
_atom_site_fract_y
_atom_site_fract_z
Si Si1 0.224773 0.867272 0.205203
Si Si2 0.181179 0.163990 0.858141
Si Si3 0.890551 0.493212 0.299420
Si Si4 0.803635 0.692108 0.721910
Si Si5 0.820841 0.074089 0.555093
Si Si6 0.778082 0.340147 0.256327
Si Si7 0.138055 0.786416 0.746177
O O1 0.057453 0.626379 0.446895
O O2 0.039924 0.749478 0.133194
O O3 0.511385 0.982979 0.269308
O O4 0.294494 0.085374 0.018365
O O5 0.483092 0.499683 0.679836
O O6 0.968213 0.079945 0.732491
O O7 0.000000 0.000000 0.000000
O O8 0.982840 0.524725 0.252816
O O9 0.534109 0.239453 0.329902
O O10 0.006218 0.762602 0.738087
O O11 0.719217 0.479610 0.992178
O O12 0.000000 0.000000 0.500000
O O13 0.889404 0.316340 0.315062
O O14 0.936041 0.153592 0.464252
O O15 0.500000 0.000000 0.500000
O O16 0.000000 0.500000 0.000000
#
# Coordination Sequence:
#
# PCOD9092519 Si02
#       7
#     2   2   2   2   2   2   2
#     4  10  21  39  67  94 128 177 223 274 337 400
#     4  12  24  41  67  99 136 177 226 281 342 401
#     4   9  19  37  63  95 123 168 230 277 323 400
#     4  12  27  45  68 103 140 174 225 294 340 391
#     4  10  21  36  67  94 127 176 222 272 337 402
#     4  10  19  41  67  91 129 182 224 267 334 407
#     4  11  21  45  66  88 132 185 225 261 338 416
#
# _framework density 20.913640999999998
#
# number of rings (size 3 to 8) (size 9 to 14) (size 15 to 20)
#    0.000    1.429    2.857    4.286    0.000    6.857 
#    2.571    1.429    0.000    0.000    0.000    0.000 
#    0.000    0.000    0.000    0.000    0.000    0.000 
#
# Total GULP energy -77987.394756 kJ/mol
# GULP energy per Si atom -5570.528197 kJ/mol
# Density = 2.086604 g / cm^3
# Si number density = 20.913641 Si / 1000 Ang^3
#
#
#
# Elastic Constant Matrix: (Units=GPa)
#
#
# Indices 1 2 3 4 5 6 
#
# 1 135.4120 55.4603 36.6806 -7.9962 0.0446 -16.0755
# 2 55.4603 113.6507 32.2200 -4.3937 -1.1013 -23.4380
# 3 36.6806 32.2200 74.6989 -3.9383 -4.7092 -7.8524
# 4 -7.9962 -4.3937 -3.9383 29.5781 -11.5526 -0.0770
# 5 0.0446 -1.1013 -4.7092 -11.5526 31.2579 3.8645
# 6 -16.0755 -23.4380 -7.8524 -0.0770 3.8645 35.1167
#
#
#
# Elastic Compliance Matrix: (Units=1/GPa)
#
#
# Indices 1 2 3 4 5 6 
#
# 1 0.009986 -0.003623 -0.003107 0.001685 -0.000170 0.001481
# 2 -0.003623 0.012728 -0.003087 0.000247 -0.000690 0.006223
# 3 -0.003107 -0.003087 0.016546 0.002154 0.003201 -0.000130
# 4 0.001685 0.000247 0.002154 0.040584 0.015353 -0.000183
# 5 -0.000170 -0.000690 0.003201 0.015353 0.038624 -0.004039
# 6 0.001481 0.006223 -0.000130 -0.000183 -0.004039 0.033723
#
#
# Mechanical properties :
#
#
# Convention : Reuss Voigt Hill
#
# Bulk Modulus (GPa) = 50.95465 63.60925 57.28195
# Shear Modulus (GPa) = 28.03205 32.48390 30.25798
#
# Velocity S-wave (km/s) = 3.66508 3.94539 3.80782
# Velocity P-wave (km/s) = 6.50597 7.15794 6.83972
#
# Compressibility (1/GPa) = 0.01962530
#
# Stress axis : x y z
#
# Youngs Moduli (GPa) = 100.14234 78.56410 60.43762
#
# Poissons Ratio (x) = 0.28466 0.18777
# Poissons Ratio (y) = 0.36285 0.18659
# Poissons Ratio (z) = 0.31113 0.24255
#
# Static dielectric constant tensor:
#      x y z
#    x 1.845340 0.002630 0.001050 
#    y 0.002630 1.819140 -0.004080 
#    z 0.001050 -0.004080 1.808580 
# 
# From -- ./inp_files/574404.got.cif
#   From: 2010.05.17/outbox.cif.g08.bks.cpg/sg2_288_cif.got.tgz:574404.got - 2010.06.03 11:33:40.
