data_PCOD9092368
_publ_section_title
;
Structure prediction by ZEFSAII (Michael W. Deem and Ramdas Pophale) SiO2 
 PCOD9092368
Probable space group: P -1
;
_chemical_formula_sum "Si O2"
_cell_formula_units_Z 12
_cell_length_a 10.400063
_cell_length_b 7.751908
_cell_length_c 11.930433
_cell_angle_alpha 62.485765
_cell_angle_beta 70.145588
_cell_angle_gamma 119.200812
_cell_volume 509.067037
_symmetry_space_group_name_H-M "P -1"
_symmetry_group_IT_number 2
_symmetry_cell_setting 'triclinic'
loop_
_space_group_symop_operation_xyz
x,y,z
-x,-y,-z
loop_
_atom_site_type_symbol
_atom_site_label
_atom_site_fract_x
_atom_site_fract_y
_atom_site_fract_z
Si Si1 0.460776 0.312776 0.670593
Si Si2 0.239714 0.341004 0.315024
Si Si3 0.848518 0.311225 0.708749
Si Si4 0.080517 0.674875 0.072782
Si Si5 0.598111 0.344360 0.041139
Si Si6 0.593671 0.128715 0.310233
O O1 0.500000 0.500000 0.500000
O O2 0.604222 0.541396 0.663844
O O3 0.514181 0.158471 0.648271
O O4 0.218006 0.003966 0.880514
O O5 0.223812 0.553779 0.275487
O O6 0.313736 0.394292 0.147933
O O7 0.000000 0.000000 0.500000
O O8 0.953324 0.332501 0.781878
O O9 0.000000 0.500000 0.500000
O O10 0.630656 0.960409 0.851523
O O11 0.230988 0.648166 0.023784
O O12 0.849788 0.383611 0.174342
O O13 0.565199 0.299513 0.198878
O O14 0.500000 0.000000 0.500000
#
# Coordination Sequence:
#
# PCOD9092368 Si02
#       6
#     2   2   2   2   2   2
#     4  11  23  40  60  88 123 157 199 245 294 357
#     4  11  23  39  61  90 118 159 203 242 294 354
#     4  11  20  38  65  87 117 155 200 254 292 340
#     4  10  20  37  63  87 115 160 203 236 292 363
#     4  10  19  41  61  85 117 158 206 242 282 363
#     4  11  23  39  63  92 119 154 201 248 299 349
#
# _framework density 23.572533
#
# number of rings (size 3 to 8) (size 9 to 14) (size 15 to 20)
#    0.000    1.333    5.000    4.000    7.000    0.000 
#    0.000    3.333    0.000    0.000    0.000    0.000 
#    0.000    0.000    0.000    0.000    0.000    0.000 
#
# Total GULP energy -66982.577850 kJ/mol
# GULP energy per Si atom -5581.881487 kJ/mol
# Density = 2.351888 g / cm^3
# Si number density = 23.572533 Si / 1000 Ang^3
#
#
#
# Elastic Constant Matrix: (Units=GPa)
#
#
# Indices 1 2 3 4 5 6 
#
# 1 55.9853 50.8161 34.7507 1.7548 19.6335 21.7412
# 2 50.8161 128.1069 70.0501 11.3434 0.6001 31.2074
# 3 34.7507 70.0501 191.6852 24.5318 21.9021 27.0018
# 4 1.7548 11.3434 24.5318 57.6953 20.2397 0.6617
# 5 19.6335 0.6001 21.9021 20.2397 41.6633 9.2888
# 6 21.7412 31.2074 27.0018 0.6617 9.2888 41.9101
#
#
#
# Elastic Compliance Matrix: (Units=1/GPa)
#
#
# Indices 1 2 3 4 5 6 
#
# 1 0.042988 -0.016982 0.000532 0.010373 -0.024265 -0.004783
# 2 -0.016982 0.018381 -0.003639 -0.006395 0.013991 -0.005532
# 3 0.000532 -0.003639 0.007169 -0.001274 -0.003014 -0.001496
# 4 0.010373 -0.006395 -0.001274 0.024713 -0.016926 0.003563
# 5 -0.024265 0.013991 -0.003014 -0.016926 0.046356 -0.005896
# 6 -0.004783 -0.005532 -0.001496 0.003563 -0.005896 0.032676
#
#
# Mechanical properties :
#
#
# Convention : Reuss Voigt Hill
#
# Bulk Modulus (GPa) = 35.26414 76.33456 55.79935
# Shear Modulus (GPa) = 22.53113 42.93112 32.73113
#
# Velocity S-wave (km/s) = 3.09499 4.27222 3.73034
# Velocity P-wave (km/s) = 5.26918 7.53585 6.50205
#
# Compressibility (1/GPa) = 0.02835742
#
# Stress axis : x y z
#
# Youngs Moduli (GPa) = 23.26224 54.40459 139.49479
#
# Poissons Ratio (x) = 0.92392 -0.07416
# Poissons Ratio (y) = 0.39505 0.50767
# Poissons Ratio (z) = -0.01237 0.19800
#
# Static dielectric constant tensor:
#      x y z
#    x 1.976300 -0.035530 0.026730 
#    y -0.035530 1.927110 0.121060 
#    z 0.026730 0.121060 1.927560 
# 
# From -- ./inp_files/146130.got.cif
#   From: 2010.05.17/outbox.cif.g08.bks.cpg/sg2_74_cif.got.tgz:146130.got - 2010.06.03 11:33:40.
