data_PCOD9092020
_publ_section_title
;
Structure prediction by ZEFSAII (Michael W. Deem and Ramdas Pophale) SiO2 
 PCOD9092020
Probable space group: P -1
;
_chemical_formula_sum "Si O2"
_cell_formula_units_Z 14
_cell_length_a 9.920074
_cell_length_b 10.647272
_cell_length_c 10.076046
_cell_angle_alpha 103.859949
_cell_angle_beta 52.902854
_cell_angle_gamma 69.515978
_cell_volume 634.292034
_symmetry_space_group_name_H-M "P -1"
_symmetry_group_IT_number 2
_symmetry_cell_setting 'triclinic'
loop_
_space_group_symop_operation_xyz
x,y,z
-x,-y,-z
loop_
_atom_site_type_symbol
_atom_site_label
_atom_site_fract_x
_atom_site_fract_y
_atom_site_fract_z
Si Si1 0.980765 0.140963 0.631767
Si Si2 0.256332 0.826921 0.791225
Si Si3 0.649463 0.741251 0.015441
Si Si4 0.708016 0.098091 0.933071
Si Si5 0.932702 0.282749 0.283632
Si Si6 0.855511 0.449364 0.625060
Si Si7 0.420708 0.902314 0.466257
O O1 0.771745 0.205930 0.860414
O O2 0.973989 0.273297 0.584339
O O3 0.184035 0.046753 0.583476
O O4 0.000000 0.000000 0.500000
O O5 0.383056 0.823407 0.589475
O O6 0.211427 0.699949 0.747707
O O7 0.373947 0.825173 0.851878
O O8 0.000000 0.000000 0.000000
O O9 0.871533 0.717175 0.876600
O O10 0.704230 0.583448 0.863262
O O11 0.457215 0.889137 0.069067
O O12 0.561491 0.779857 0.227322
O O13 0.924140 0.904115 0.781210
O O14 0.783679 0.418810 0.521384
O O15 0.000000 0.500000 0.500000
O O16 0.500000 0.000000 0.500000
#
# Coordination Sequence:
#
# PCOD9092020 Si02
#       7
#     2   2   2   2   2   2   2
#     4  12  21  42  67  95 125 174 218 262 318 384
#     4  10  20  38  62  92 126 166 208 263 323 371
#     4  11  24  38  63  98 126 167 219 270 310 381
#     4  11  21  37  67  96 123 164 223 265 309 381
#     4  10  19  40  65  86 128 171 213 252 325 381
#     4  10  23  41  64  92 135 173 208 264 330 381
#     4  12  23  39  66  99 128 163 221 272 312 381
#
# _framework density 22.071852
#
# number of rings (size 3 to 8) (size 9 to 14) (size 15 to 20)
#    0.000    1.143    5.714    2.143    0.000    4.000 
#    0.000    1.429    0.000    0.000    0.000    0.000 
#    0.000    0.000    0.000    0.000    0.000    0.000 
#
# Total GULP energy -78017.605303 kJ/mol
# GULP energy per Si atom -5572.686093 kJ/mol
# Density = 2.202162 g / cm^3
# Si number density = 22.071852 Si / 1000 Ang^3
#
#
#
# Elastic Constant Matrix: (Units=GPa)
#
#
# Indices 1 2 3 4 5 6 
#
# 1 98.2845 3.2685 49.7693 -3.4080 11.7860 21.9114
# 2 3.2685 73.3933 34.3262 -9.1931 -0.2934 13.2651
# 3 49.7693 34.3262 175.9014 -15.1480 38.2352 9.2449
# 4 -3.4080 -9.1931 -15.1480 35.8207 5.9951 5.5457
# 5 11.7860 -0.2934 38.2352 5.9951 39.2050 0.1516
# 6 21.9114 13.2651 9.2449 5.5457 0.1516 19.6964
#
#
#
# Elastic Compliance Matrix: (Units=1/GPa)
#
#
# Indices 1 2 3 4 5 6 
#
# 1 0.017638 0.005974 -0.004004 0.005475 -0.002100 -0.023291
# 2 0.005974 0.019787 -0.004282 0.006642 0.001589 -0.019845
# 3 -0.004004 -0.004282 0.009881 0.003961 -0.009077 0.001655
# 4 0.005475 0.006642 0.003961 0.037200 -0.011060 -0.022812
# 5 -0.002100 0.001589 -0.009077 -0.011060 0.036661 0.008358
# 6 -0.023291 -0.019845 0.001655 -0.022812 0.008358 0.095627
#
#
# Mechanical properties :
#
#
# Convention : Reuss Voigt Hill
#
# Bulk Modulus (GPa) = 23.42964 58.03411 40.73188
# Shear Modulus (GPa) = 21.21832 36.29210 28.75521
#
# Velocity S-wave (km/s) = 3.10390 4.05936 3.61335
# Velocity P-wave (km/s) = 4.84601 6.95137 5.99188
#
# Compressibility (1/GPa) = 0.04268097
#
# Stress axis : x y z
#
# Youngs Moduli (GPa) = 56.69733 50.53833 101.20730
#
# Poissons Ratio (x) = -0.30193 0.40525
# Poissons Ratio (y) = -0.33872 0.43339
# Poissons Ratio (z) = 0.22703 0.21641
#
# Static dielectric constant tensor:
#      x y z
#    x 1.825180 -0.000420 0.013820 
#    y -0.000420 1.867550 0.019110 
#    z 0.013820 0.019110 1.928790 
# 
# From -- ./inp_files/181146.got.cif
#   From: 2010.05.17/outbox.cif.g08.bks.cpg/sg2_91_cif.got.tgz:181146.got - 2010.06.03 11:33:40.
