data_PCOD9092823
_publ_section_title
;
Structure prediction by ZEFSAII (Michael W. Deem and Ramdas Pophale) SiO2 
 PCOD9092823
Probable space group: P -1
;
_chemical_formula_sum "Si O2"
_cell_formula_units_Z 16
_cell_length_a 13.588999
_cell_length_b 6.701451
_cell_length_c 14.842614
_cell_angle_alpha 103.198788
_cell_angle_beta 135.830530
_cell_angle_gamma 54.781389
_cell_volume 727.502588
_symmetry_space_group_name_H-M "P -1"
_symmetry_group_IT_number 2
_symmetry_cell_setting 'triclinic'
loop_
_space_group_symop_operation_xyz
x,y,z
-x,-y,-z
loop_
_atom_site_type_symbol
_atom_site_label
_atom_site_fract_x
_atom_site_fract_y
_atom_site_fract_z
Si Si1 0.859272 0.550836 0.839486
Si Si2 0.469610 0.512752 0.831436
Si Si3 0.558275 0.498961 0.689660
Si Si4 0.172584 0.037227 0.450303
Si Si5 0.516686 0.201422 0.981095
Si Si6 0.877785 0.914818 0.387133
Si Si7 0.670744 0.989047 0.625717
Si Si8 0.063306 0.141632 0.770450
O O1 0.700691 0.554810 0.777703
O O2 0.953696 0.341174 0.799164
O O3 0.773977 0.821434 0.763222
O O4 0.000000 0.500000 0.000000
O O5 0.562046 0.409850 0.785412
O O6 0.564530 0.565169 0.976315
O O7 0.304065 0.809145 0.731984
O O8 0.430413 0.335666 0.841170
O O9 0.358560 0.751212 0.562576
O O10 0.611128 0.273332 0.632768
O O11 0.137953 0.181673 0.537160
O O12 0.211245 0.135214 0.398454
O O13 0.020927 0.007558 0.320220
O O14 0.728511 0.042322 0.087136
O O15 0.500000 0.000000 0.000000
O O16 0.943742 0.747574 0.322642
O O17 0.000000 0.000000 0.500000
O O18 0.500000 0.000000 0.500000
#
# Coordination Sequence:
#
# PCOD9092823 Si02
#       8
#     2   2   2   2   2   2   2   2
#     4  12  28  42  63 102 139 177 227 269 332 411
#     4   9  21  39  65  92 119 176 213 254 340 392
#     4  11  23  43  69  92 138 170 218 282 334 391
#     4  10  19  42  72  94 128 169 223 284 336 392
#     4  10  22  41  64  91 130 169 220 270 324 393
#     4   8  17  37  68  92 120 163 215 276 330 381
#     4  12  24  42  69  98 130 181 228 270 344 398
#     4  10  21  42  64  90 135 170 214 280 331 386
#
# _framework density 21.993051000000001
#
# number of rings (size 3 to 8) (size 9 to 14) (size 15 to 20)
#    0.000    1.750    2.500    1.125    3.500    1.500 
#    9.000    0.625    0.000    0.000    0.000    0.000 
#    0.000    0.000    0.000    0.000    0.000    0.000 
#
# Total GULP energy -89245.494516 kJ/mol
# GULP energy per Si atom -5577.843407 kJ/mol
# Density = 2.194299 g / cm^3
# Si number density = 21.993051 Si / 1000 Ang^3
#
#
#
# Elastic Constant Matrix: (Units=GPa)
#
#
# Indices 1 2 3 4 5 6 
#
# 1 135.2470 20.3417 40.2181 0.9715 -27.2975 7.6036
# 2 20.3417 50.9083 11.8944 -6.8790 -7.3456 3.5845
# 3 40.2181 11.8944 94.5061 -1.7367 -9.8983 9.8529
# 4 0.9715 -6.8790 -1.7367 20.6859 -1.3875 -7.2011
# 5 -27.2975 -7.3456 -9.8983 -1.3875 52.6694 3.4452
# 6 7.6036 3.5845 9.8529 -7.2011 3.4452 36.4005
#
#
#
# Elastic Compliance Matrix: (Units=1/GPa)
#
#
# Indices 1 2 3 4 5 6 
#
# 1 0.009687 -0.002669 -0.003220 -0.001914 0.004101 -0.001656
# 2 -0.002669 0.022284 -0.001363 0.007557 0.001663 0.000070
# 3 -0.003220 -0.001363 0.012466 -0.000136 0.000654 -0.002656
# 4 -0.001914 0.007557 -0.000136 0.054615 0.000793 0.010422
# 5 0.004101 0.001663 0.000654 0.000793 0.021690 -0.003094
# 6 -0.001656 0.000070 -0.002656 0.010422 -0.003094 0.030885
#
#
# Mechanical properties :
#
#
# Convention : Reuss Voigt Hill
#
# Bulk Modulus (GPa) = 33.40628 47.28554 40.34591
# Shear Modulus (GPa) = 28.39152 35.83162 32.11157
#
# Velocity S-wave (km/s) = 3.59685 4.04074 3.82524
# Velocity P-wave (km/s) = 5.69844 6.58157 6.15586
#
# Compressibility (1/GPa) = 0.02993449
#
# Stress axis : x y z
#
# Youngs Moduli (GPa) = 103.22745 44.87465 80.21826
#
# Poissons Ratio (x) = 0.11976 0.25827
# Poissons Ratio (y) = 0.27550 0.10935
# Poissons Ratio (z) = 0.33235 0.06117
#
# Static dielectric constant tensor:
#      x y z
#    x 1.867890 0.028180 -0.030080 
#    y 0.028180 1.821340 -0.060860 
#    z -0.030080 -0.060860 1.773380 
# 
# From -- ./inp_files/511021.got.cif
#   From: 2010.05.17/outbox.cif.g08.bks.cpg/sg2_256_cif.got.tgz:511021.got - 2010.06.03 11:33:40.
