data_PCOD9092749
_publ_section_title
;
Structure prediction by ZEFSAII (Michael W. Deem and Ramdas Pophale) SiO2 
 PCOD9092749
Probable space group: P -1
;
_chemical_formula_sum "Si O2"
_cell_formula_units_Z 14
_cell_length_a 8.119257
_cell_length_b 7.907626
_cell_length_c 13.033912
_cell_angle_alpha 137.682705
_cell_angle_beta 94.466035
_cell_angle_gamma 74.868054
_cell_volume 535.244258
_symmetry_space_group_name_H-M "P -1"
_symmetry_group_IT_number 2
_symmetry_cell_setting 'triclinic'
loop_
_space_group_symop_operation_xyz
x,y,z
-x,-y,-z
loop_
_atom_site_type_symbol
_atom_site_label
_atom_site_fract_x
_atom_site_fract_y
_atom_site_fract_z
Si Si1 0.386080 0.041360 0.727525
Si Si2 0.356790 0.652421 0.364434
Si Si3 0.248684 0.336295 0.381721
Si Si4 0.744904 0.407554 0.297105
Si Si5 0.913575 0.847810 0.068767
Si Si6 0.104678 0.347569 0.738925
Si Si7 0.884676 0.067138 0.701682
O O1 0.385581 0.854255 0.543502
O O2 0.579672 0.919726 0.722910
O O3 0.260480 0.077041 0.836440
O O4 0.285291 0.318945 0.794725
O O5 0.244906 0.484917 0.340553
O O6 0.550912 0.460157 0.271012
O O7 0.277212 0.796175 0.319106
O O8 0.273031 0.545057 0.560712
O O9 0.110734 0.206862 0.365825
O O10 0.836294 0.620378 0.357475
O O11 0.874574 0.131952 0.141963
O O12 0.072744 0.786293 0.129543
O O13 0.956496 0.598566 0.886537
O O14 0.040792 0.096019 0.649090
#
# Coordination Sequence:
#
# PCOD9092749 Si02
#       7
#     2   2   2   2   2   2   2
#     4  10  19  42  67  91 127 174 210 261 322 382
#     4  11  22  43  69 100 126 161 220 272 320 375
#     4  11  22  42  70  98 132 157 215 277 324 371
#     4  11  22  44  70  93 127 178 213 259 323 387
#     4  11  23  45  64  91 132 179 213 255 317 389
#     4  11  25  42  66  91 134 177 219 247 319 400
#     4  11  26  40  65 102 131 165 210 272 328 366
#
# _framework density 26.156279999999999
#
# number of rings (size 3 to 8) (size 9 to 14) (size 15 to 20)
#    0.000    1.143    2.857    4.714    2.000    8.000 
#    0.000    7.143    0.000    0.000    0.000    0.000 
#    0.000    0.000    0.000    0.000    0.000    0.000 
#
# Total GULP energy -78038.067040 kJ/mol
# GULP energy per Si atom -5574.147646 kJ/mol
# Density = 2.609675 g / cm^3
# Si number density = 26.156280 Si / 1000 Ang^3
#
#
#
# Elastic Constant Matrix: (Units=GPa)
#
#
# Indices 1 2 3 4 5 6 
#
# 1 68.2715 62.3335 25.4791 8.4959 -7.6176 -2.9519
# 2 62.3335 130.1699 40.2164 12.9233 -7.4459 7.1631
# 3 25.4791 40.2164 80.7044 6.2518 -22.6092 -11.3543
# 4 8.4959 12.9233 6.2518 29.5649 -10.1502 -0.4067
# 5 -7.6176 -7.4459 -22.6092 -10.1502 27.8760 7.8488
# 6 -2.9519 7.1631 -11.3543 -0.4067 7.8488 59.8470
#
#
#
# Elastic Compliance Matrix: (Units=1/GPa)
#
#
# Indices 1 2 3 4 5 6 
#
# 1 0.026907 -0.012329 -0.001432 -0.001412 0.001738 0.002294
# 2 -0.012329 0.015416 -0.004977 -0.003462 -0.003723 -0.002933
# 3 -0.001432 -0.004977 0.019503 0.003555 0.014740 0.002316
# 4 -0.001412 -0.003462 0.003555 0.040691 0.016639 -0.000886
# 5 0.001738 -0.003723 0.014740 0.016639 0.054407 -0.003695
# 6 0.002294 -0.002933 0.002316 -0.000886 -0.003695 0.018091
#
#
# Mechanical properties :
#
#
# Convention : Reuss Voigt Hill
#
# Bulk Modulus (GPa) = 41.06785 59.46708 50.26746
# Shear Modulus (GPa) = 22.66448 33.53204 28.09826
#
# Velocity S-wave (km/s) = 2.94684 3.58437 3.28112
# Velocity P-wave (km/s) = 5.22623 6.31783 5.79778
#
# Compressibility (1/GPa) = 0.02434995
#
# Stress axis : x y z
#
# Youngs Moduli (GPa) = 37.16438 64.86757 51.27441
#
# Poissons Ratio (x) = 0.79976 0.07343
# Poissons Ratio (y) = 0.45821 0.25519
# Poissons Ratio (z) = 0.05322 0.32285
#
# Static dielectric constant tensor:
#      x y z
#    x 2.157200 0.028540 0.069130 
#    y 0.028540 2.208590 0.041080 
#    z 0.069130 0.041080 1.975940 
# 
# From -- ./inp_files/495872.got.cif
#   From: 2010.05.17/outbox.cif.g08.bks.cpg/sg2_248_cif.got.tgz:495872.got - 2010.06.03 11:33:40.
