data_PCOD9092651
_publ_section_title
;
Structure prediction by ZEFSAII (Michael W. Deem and Ramdas Pophale) SiO2 
 PCOD9092651
Probable space group: P -1
;
_chemical_formula_sum "Si O2"
_cell_formula_units_Z 14
_cell_length_a 11.935027
_cell_length_b 19.030345
_cell_length_c 7.048268
_cell_angle_alpha 41.547540
_cell_angle_beta 52.755795
_cell_angle_gamma 28.273538
_cell_volume 495.474918
_symmetry_space_group_name_H-M "P -1"
_symmetry_group_IT_number 2
_symmetry_cell_setting 'triclinic'
loop_
_space_group_symop_operation_xyz
x,y,z
-x,-y,-z
loop_
_atom_site_type_symbol
_atom_site_label
_atom_site_fract_x
_atom_site_fract_y
_atom_site_fract_z
Si Si1 0.262663 0.248577 0.143048
Si Si2 0.629071 0.251750 0.334076
Si Si3 0.013645 0.161734 0.233976
Si Si4 0.791435 0.316364 0.563100
Si Si5 0.816307 0.577951 0.693277
Si Si6 0.489039 0.334259 0.752558
Si Si7 0.670208 0.892922 0.258444
O O1 0.993863 0.560228 0.057938
O O2 0.254441 0.161903 0.486104
O O3 0.419121 0.105863 0.098242
O O4 0.414873 0.259232 0.032057
O O5 0.374702 0.399207 0.190345
O O6 0.568479 0.279473 0.562736
O O7 0.778808 0.268762 0.137064
O O8 0.811258 0.046491 0.510570
O O9 0.931141 0.241271 0.372257
O O10 0.148789 0.161607 0.959839
O O11 0.500000 0.500000 0.500000
O O12 0.742996 0.217182 0.836735
O O13 0.770813 0.442584 0.436925
O O14 0.650838 0.782105 0.457909
O O15 0.000000 0.500000 0.500000
#
# Coordination Sequence:
#
# PCOD9092651 Si02
#       7
#     2   2   2   2   2   2   2
#     4  11  23  47  75 106 167 206 262 318 393 473
#     4  10  20  39  77 113 153 202 257 332 393 448
#     4  10  19  41  73 119 154 195 270 328 383 465
#     4   7  17  32  69 113 152 195 260 322 388 456
#     4  12  25  45  75 113 153 208 261 322 394 466
#     4   8  15  37  66 107 144 202 244 318 382 454
#     4  11  26  44  76 114 150 215 261 316 392 474
#
# _framework density 28.255721000000001
#
# number of rings (size 3 to 8) (size 9 to 14) (size 15 to 20)
#    0.857    1.143    2.857    0.429    0.000    3.429 
#    0.000    4.286    6.286    5.143    0.000    0.000 
#    0.000   13.143    0.000    0.000    0.000    0.000 
#
# Total GULP energy -77957.946910 kJ/mol
# GULP energy per Si atom -5568.424779 kJ/mol
# Density = 2.819141 g / cm^3
# Si number density = 28.255721 Si / 1000 Ang^3
#
#
#
# Elastic Constant Matrix: (Units=GPa)
#
#
# Indices 1 2 3 4 5 6 
#
# 1 98.4471 44.8690 40.2563 -8.6680 -2.9164 -13.3352
# 2 44.8690 172.9406 42.7272 20.9785 -7.9397 21.4416
# 3 40.2563 42.7272 164.7010 24.0127 -9.9347 -9.0954
# 4 -8.6680 20.9785 24.0127 52.1291 -0.3486 -9.2915
# 5 -2.9164 -7.9397 -9.9347 -0.3486 43.0564 2.7819
# 6 -13.3352 21.4416 -9.0954 -9.2915 2.7819 44.3482
#
#
#
# Elastic Compliance Matrix: (Units=1/GPa)
#
#
# Indices 1 2 3 4 5 6 
#
# 1 0.015619 -0.005272 -0.003176 0.007647 -0.001119 0.008266
# 2 -0.005272 0.008922 -0.000528 -0.005507 0.001591 -0.007261
# 3 -0.003176 -0.000528 0.007626 -0.003824 0.001418 -0.000026
# 4 0.007647 -0.005507 -0.003824 0.026162 -0.001799 0.009772
# 5 -0.001119 0.001591 0.001418 -0.001799 0.023930 -0.002693
# 6 0.008266 -0.007261 -0.000026 0.009772 -0.002693 0.030756
#
#
# Mechanical properties :
#
#
# Convention : Reuss Voigt Hill
#
# Bulk Modulus (GPa) = 70.34396 76.86599 73.60497
# Shear Modulus (GPa) = 36.84469 48.45581 42.65025
#
# Velocity S-wave (km/s) = 3.61497 4.14563 3.88936
# Velocity P-wave (km/s) = 6.50950 7.08363 6.80262
#
# Compressibility (1/GPa) = 0.01421586
#
# Stress axis : x y z
#
# Youngs Moduli (GPa) = 64.02471 112.08539 131.12194
#
# Poissons Ratio (x) = 0.59086 0.41645
# Poissons Ratio (y) = 0.33751 0.06925
# Poissons Ratio (z) = 0.20334 0.05919
#
# Static dielectric constant tensor:
#      x y z
#    x 2.177640 -0.052430 0.111490 
#    y -0.052430 2.055440 0.010600 
#    z 0.111490 0.010600 1.940190 
# 
# From -- ./inp_files/278951.got.cif
#   From: 2010.05.17/outbox.cif.g08.bks.cpg/sg2_140_cif.got.tgz:278951.got - 2010.06.03 11:33:40.
