data_PCOD9092649
_publ_section_title
;
Structure prediction by ZEFSAII (Michael W. Deem and Ramdas Pophale) SiO2 
 PCOD9092649
Probable space group: P -1
;
_chemical_formula_sum "Si O2"
_cell_formula_units_Z 14
_cell_length_a 11.183302
_cell_length_b 11.074890
_cell_length_c 11.881990
_cell_angle_alpha 35.729220
_cell_angle_beta 140.897409
_cell_angle_gamma 124.204350
_cell_volume 532.744849
_symmetry_space_group_name_H-M "P -1"
_symmetry_group_IT_number 2
_symmetry_cell_setting 'triclinic'
loop_
_space_group_symop_operation_xyz
x,y,z
-x,-y,-z
loop_
_atom_site_type_symbol
_atom_site_label
_atom_site_fract_x
_atom_site_fract_y
_atom_site_fract_z
Si Si1 0.463456 0.417327 0.226559
Si Si2 0.883894 0.953039 0.556963
Si Si3 0.479750 0.127758 0.065714
Si Si4 0.632175 0.564862 0.446962
Si Si5 0.201212 0.704035 0.574543
Si Si6 0.960036 0.658511 0.021749
Si Si7 0.861297 0.767495 0.101128
O O1 0.454749 0.659346 0.002416
O O2 0.593566 0.403720 0.443084
O O3 0.588754 0.272111 0.336236
O O4 0.249726 0.393326 0.113882
O O5 0.870836 0.135950 0.501348
O O6 0.001748 0.757206 0.858861
O O7 0.665834 0.947942 0.358554
O O8 0.000000 0.000000 0.500000
O O9 0.421118 0.212625 0.830776
O O10 0.302796 0.102294 0.036831
O O11 0.500000 0.500000 0.500000
O O12 0.857065 0.516548 0.679970
O O13 0.199723 0.461531 0.789820
O O14 0.051841 0.731579 0.341793
O O15 0.915963 0.819722 0.974353
#
# Coordination Sequence:
#
# PCOD9092649 Si02
#       7
#     2   2   2   2   2   2   2
#     4   9  21  41  71  99 120 175 232 279 315 375
#     4  12  27  44  59  98 143 179 207 272 350 406
#     4   9  21  43  65  94 136 166 229 271 325 388
#     4  10  21  42  65  94 134 175 226 270 316 402
#     4  10  20  43  69  97 137 167 225 280 324 394
#     4  12  23  41  69  97 134 169 227 268 337 398
#     4  10  19  41  73 102 115 177 235 278 323 372
#
# _framework density 26.278998999999999
#
# number of rings (size 3 to 8) (size 9 to 14) (size 15 to 20)
#    0.857    0.857    1.429    3.429    0.000    5.714 
#    7.714    0.714    0.000    0.000    0.000    0.000 
#    0.000    0.000    0.000    0.000    0.000    0.000 
#
# Total GULP energy -78260.653203 kJ/mol
# GULP energy per Si atom -5590.046657 kJ/mol
# Density = 2.621919 g / cm^3
# Si number density = 26.278999 Si / 1000 Ang^3
#
#
#
# Elastic Constant Matrix: (Units=GPa)
#
#
# Indices 1 2 3 4 5 6 
#
# 1 164.2461 18.1553 52.6785 17.3234 -7.0103 -14.2562
# 2 18.1553 44.5346 25.1573 5.2272 -0.7586 -8.2674
# 3 52.6785 25.1573 159.0049 27.0814 -5.1496 -3.5276
# 4 17.3234 5.2272 27.0814 34.7901 0.6034 1.5619
# 5 -7.0103 -0.7586 -5.1496 0.6034 51.8983 10.1717
# 6 -14.2562 -8.2674 -3.5276 1.5619 10.1717 30.6870
#
#
#
# Elastic Compliance Matrix: (Units=1/GPa)
#
#
# Indices 1 2 3 4 5 6 
#
# 1 0.007282 -0.001162 -0.001782 -0.002199 0.000248 0.002895
# 2 -0.001162 0.026224 -0.003509 -0.000904 -0.001412 0.006636
# 3 -0.001782 -0.003509 0.008296 -0.005020 0.000749 -0.000812
# 4 -0.002199 -0.000904 -0.005020 0.034044 -0.000538 -0.003396
# 5 0.000248 -0.001412 0.000749 -0.000538 0.020739 -0.007026
# 6 0.002895 0.006636 -0.000812 -0.003396 -0.007026 0.038128
#
#
# Mechanical properties :
#
#
# Convention : Reuss Voigt Hill
#
# Bulk Modulus (GPa) = 34.60670 62.19640 48.40155
# Shear Modulus (GPa) = 31.79638 41.59472 36.69555
#
# Velocity S-wave (km/s) = 3.48221 3.98277 3.74087
# Velocity P-wave (km/s) = 5.41897 6.69844 6.09239
#
# Compressibility (1/GPa) = 0.02889614
#
# Stress axis : x y z
#
# Youngs Moduli (GPa) = 137.32150 38.13275 120.54335
#
# Poissons Ratio (x) = 0.04433 0.21480
# Poissons Ratio (y) = 0.15963 0.42294
# Poissons Ratio (z) = 0.24470 0.13379
#
# Static dielectric constant tensor:
#      x y z
#    x 2.083980 0.019410 -0.064730 
#    y 0.019410 2.101110 -0.037250 
#    z -0.064730 -0.037250 2.106750 
# 
# From -- ./inp_files/425175.got.cif
#   From: 2010.05.17/outbox.cif.g08.bks.cpg/sg2_213_cif.got.tgz:425175.got - 2010.06.03 11:33:40.
