data_PCOD9092144
_publ_section_title
;
Structure prediction by ZEFSAII (Michael W. Deem and Ramdas Pophale) SiO2 
 PCOD9092144
Probable space group: P -1
;
_chemical_formula_sum "Si O2"
_cell_formula_units_Z 16
_cell_length_a 6.165841
_cell_length_b 24.872241
_cell_length_c 11.313383
_cell_angle_alpha 151.328271
_cell_angle_beta 72.145512
_cell_angle_gamma 123.709989
_cell_volume 617.750512
_symmetry_space_group_name_H-M "P -1"
_symmetry_group_IT_number 2
_symmetry_cell_setting 'triclinic'
loop_
_space_group_symop_operation_xyz
x,y,z
-x,-y,-z
loop_
_atom_site_type_symbol
_atom_site_label
_atom_site_fract_x
_atom_site_fract_y
_atom_site_fract_z
Si Si1 0.986574 0.380958 0.201046
Si Si2 0.266864 0.249803 0.164411
Si Si3 0.407454 0.327983 0.030421
Si Si4 0.166423 0.946913 0.813887
Si Si5 0.223394 0.730633 0.451515
Si Si6 0.717179 0.232853 0.177563
Si Si7 0.143937 0.095453 0.437718
Si Si8 0.004378 0.534175 0.899823
O O1 0.978266 0.396238 0.092272
O O2 0.000000 0.500000 0.500000
O O3 0.297229 0.418612 0.236476
O O4 0.777483 0.233770 0.027534
O O5 0.048494 0.293418 0.283822
O O6 0.501398 0.279755 0.284001
O O7 0.041285 0.075207 0.854690
O O8 0.443017 0.302457 0.110808
O O9 0.673295 0.418166 0.068907
O O10 0.190458 0.174749 0.705389
O O11 0.141881 0.833232 0.683046
O O12 0.020982 0.877156 0.576967
O O13 0.495372 0.083466 0.993186
O O14 0.000000 0.000000 0.000000
O O15 0.538736 0.830565 0.529770
O O16 0.214944 0.637863 0.380014
O O17 0.995720 0.610574 0.161802
#
# Coordination Sequence:
#
# PCOD9092144 Si02
#       8
#     2   2   2   2   2   2   2   2
#     4  11  24  42  63  94 133 172 224 273 346 404
#     4  10  19  40  66  98 134 164 219 276 343 398
#     4  10  21  39  63  92 125 170 219 274 337 398
#     4  11  24  42  63  94 133 172 224 273 346 404
#     4  10  22  42  65  94 129 172 225 278 333 403
#     4  10  22  42  65 100 133 174 220 284 338 406
#     4  10  21  39  63  92 125 170 219 274 337 398
#     4  10  22  42  65  94 129 172 225 278 333 403
#
# _framework density 25.900421999999999
#
# number of rings (size 3 to 8) (size 9 to 14) (size 15 to 20)
#    0.000    1.750    2.500    1.125    0.000    4.000 
#    9.000    7.500    0.000    0.000    0.000    0.000 
#    0.000    0.000    0.000    0.000    0.000    0.000 
#
# Total GULP energy -89217.651163 kJ/mol
# GULP energy per Si atom -5576.103198 kJ/mol
# Density = 2.584147 g / cm^3
# Si number density = 25.900422 Si / 1000 Ang^3
#
#
#
# Elastic Constant Matrix: (Units=GPa)
#
#
# Indices 1 2 3 4 5 6 
#
# 1 115.5290 37.0388 42.7916 -14.4603 -13.4175 -7.4742
# 2 37.0388 147.1772 33.8121 14.1004 -10.3970 -8.9015
# 3 42.7916 33.8121 103.7767 2.0477 -4.0720 -2.1815
# 4 -14.4603 14.1004 2.0477 37.7363 -6.1950 9.5519
# 5 -13.4175 -10.3970 -4.0720 -6.1950 36.2987 7.6920
# 6 -7.4742 -8.9015 -2.1815 9.5519 7.6920 33.1245
#
#
#
# Elastic Compliance Matrix: (Units=1/GPa)
#
#
# Indices 1 2 3 4 5 6 
#
# 1 0.012424 -0.002563 -0.004265 0.007090 0.004874 -0.001343
# 2 -0.002563 0.008427 -0.001537 -0.004840 -0.000172 0.003021
# 3 -0.004265 -0.001537 0.011896 -0.001932 -0.001056 0.000211
# 4 0.007090 -0.004840 -0.001932 0.035886 0.009780 -0.012448
# 5 0.004874 -0.000172 -0.001056 0.009780 0.032858 -0.009466
# 6 -0.001343 0.003021 0.000211 -0.012448 -0.009466 0.036500
#
#
# Mechanical properties :
#
#
# Convention : Reuss Voigt Hill
#
# Bulk Modulus (GPa) = 62.42739 65.97424 64.20081
# Shear Modulus (GPa) = 31.23851 38.28792 34.76322
#
# Velocity S-wave (km/s) = 3.47666 3.84900 3.66756
# Velocity P-wave (km/s) = 6.34598 6.72909 6.54034
#
# Compressibility (1/GPa) = 0.01601861
#
# Stress axis : x y z
#
# Youngs Moduli (GPa) = 80.49063 118.66911 84.05964
#
# Poissons Ratio (x) = 0.30414 0.35849
# Poissons Ratio (y) = 0.20629 0.12916
# Poissons Ratio (z) = 0.34327 0.18234
#
# Static dielectric constant tensor:
#      x y z
#    x 2.224120 -0.002240 0.039910 
#    y -0.002240 2.168350 0.032180 
#    z 0.039910 0.032180 2.081790 
# 
# From -- ./inp_files/71861.got.cif
#   From: 2010.05.17/outbox.cif.g08.bks.cpg/sg2_36_cif.got.tgz:71861.got - 2010.06.03 11:33:40.
