data_PCOD9092810
_publ_section_title
;
Structure prediction by ZEFSAII (Michael W. Deem and Ramdas Pophale) SiO2 
 PCOD9092810
Probable space group: P -1
;
_chemical_formula_sum "Si O2"
_cell_formula_units_Z 16
_cell_length_a 17.712890
_cell_length_b 14.726225
_cell_length_c 10.685563
_cell_angle_alpha 150.934017
_cell_angle_beta 135.293742
_cell_angle_gamma 27.877660
_cell_volume 609.195195
_symmetry_space_group_name_H-M "P -1"
_symmetry_group_IT_number 2
_symmetry_cell_setting 'triclinic'
loop_
_space_group_symop_operation_xyz
x,y,z
-x,-y,-z
loop_
_atom_site_type_symbol
_atom_site_label
_atom_site_fract_x
_atom_site_fract_y
_atom_site_fract_z
Si Si1 0.192241 0.740237 0.323589
Si Si2 0.874931 0.113772 0.220039
Si Si3 0.627322 0.046426 0.467390
Si Si4 0.815099 0.818358 0.144849
Si Si5 0.249431 0.449066 0.583509
Si Si6 0.221413 0.137382 0.323617
Si Si7 0.598265 0.518151 0.983910
Si Si8 0.328598 0.337704 0.229444
O O1 0.335897 0.548523 0.158353
O O2 0.238284 0.520135 0.212912
O O3 0.191090 0.957707 0.633755
O O4 0.019467 0.932566 0.276420
O O5 0.887554 0.264422 0.317989
O O6 0.697349 0.426234 0.449513
O O7 0.859120 0.945519 0.921938
O O8 0.446962 0.181232 0.438963
O O9 0.767001 0.815360 0.460172
O O10 0.586905 0.318362 0.767992
O O11 0.711844 0.938230 0.298719
O O12 0.756353 0.725306 0.875696
O O13 0.000000 0.500000 0.000000
O O14 0.170527 0.368394 0.448766
O O15 0.277858 0.543519 0.851020
O O16 0.418887 0.849826 0.183195
O O17 0.500000 0.000000 0.000000
#
# Coordination Sequence:
#
# PCOD9092810 Si02
#       8
#     2   2   2   2   2   2   2   2
#     4  11  28  48  72 105 150 194 235 305 368 425
#     4  12  25  47  67 109 155 185 239 308 359 430
#     4  10  19  42  71 107 148 188 243 304 352 422
#     4  11  25  48  75 106 144 198 241 292 367 435
#     4  11  22  40  72 110 143 193 242 293 361 432
#     4  11  23  40  74 109 143 192 242 298 359 428
#     4  10  20  42  72 103 147 192 238 293 363 430
#     4  12  29  49  77 103 141 196 253 300 354 434
#
# _framework density 26.264157999999998
#
# number of rings (size 3 to 8) (size 9 to 14) (size 15 to 20)
#    0.000    1.000    3.750    3.375    7.000    3.000 
#    0.000    0.625    0.000    0.000    0.000    0.000 
#    0.000    0.000    0.000    0.000    0.000    0.000 
#
# Total GULP energy -89328.680320 kJ/mol
# GULP energy per Si atom -5583.042520 kJ/mol
# Density = 2.620438 g / cm^3
# Si number density = 26.264158 Si / 1000 Ang^3
#
#
#
# Elastic Constant Matrix: (Units=GPa)
#
#
# Indices 1 2 3 4 5 6 
#
# 1 65.6349 21.9460 31.5404 -9.2881 18.0665 27.3588
# 2 21.9460 122.3544 36.7858 6.7039 29.4800 16.8838
# 3 31.5404 36.7858 116.1891 1.8381 19.4949 5.3711
# 4 -9.2881 6.7039 1.8381 37.8547 -6.2854 8.7302
# 5 18.0665 29.4800 19.4949 -6.2854 47.3760 13.1697
# 6 27.3588 16.8838 5.3711 8.7302 13.1697 43.2717
#
#
#
# Elastic Compliance Matrix: (Units=1/GPa)
#
#
# Indices 1 2 3 4 5 6 
#
# 1 0.028513 -0.000979 -0.006620 0.011751 -0.000705 -0.018980
# 2 -0.000979 0.010570 -0.002083 -0.002663 -0.005404 -0.001065
# 3 -0.006620 -0.002083 0.011338 -0.003437 -0.002722 0.005113
# 4 0.011751 -0.002663 -0.003437 0.034681 0.007422 -0.015220
# 5 -0.000705 -0.005404 -0.002722 0.007422 0.028902 -0.007401
# 6 -0.018980 -0.001065 0.005113 -0.015220 -0.007401 0.040214
#
#
# Mechanical properties :
#
#
# Convention : Reuss Voigt Hill
#
# Bulk Modulus (GPa) = 32.19899 53.85808 43.02853
# Shear Modulus (GPa) = 27.18389 39.96091 33.57240
#
# Velocity S-wave (km/s) = 3.22066 3.90487 3.57915
# Velocity P-wave (km/s) = 5.11043 6.39387 5.78783
#
# Compressibility (1/GPa) = 0.03105688
#
# Stress axis : x y z
#
# Youngs Moduli (GPa) = 35.07191 94.61181 88.19941
#
# Poissons Ratio (x) = 0.09260 0.58392
# Poissons Ratio (y) = 0.03433 0.18368
# Poissons Ratio (z) = 0.23219 0.19704
#
# Static dielectric constant tensor:
#      x y z
#    x 2.233590 -0.132460 -0.080090 
#    y -0.132460 2.378870 -0.107140 
#    z -0.080090 -0.107140 2.110260 
# 
# From -- ./inp_files/466163.got.cif
#   From: 2010.05.17/outbox.cif.g08.bks.cpg/sg2_234_cif.got.tgz:466163.got - 2010.06.03 11:33:40.
