data_PCOD9092202
_publ_section_title
;
Structure prediction by ZEFSAII (Michael W. Deem and Ramdas Pophale) SiO2 
 PCOD9092202
Probable space group: P -1
;
_chemical_formula_sum "Si O2"
_cell_formula_units_Z 16
_cell_length_a 9.640383
_cell_length_b 16.363426
_cell_length_c 9.678992
_cell_angle_alpha 143.703085
_cell_angle_beta 62.667438
_cell_angle_gamma 124.512239
_cell_volume 744.770351
_symmetry_space_group_name_H-M "P -1"
_symmetry_group_IT_number 2
_symmetry_cell_setting 'triclinic'
loop_
_space_group_symop_operation_xyz
x,y,z
-x,-y,-z
loop_
_atom_site_type_symbol
_atom_site_label
_atom_site_fract_x
_atom_site_fract_y
_atom_site_fract_z
Si Si1 0.698763 0.623929 0.177987
Si Si2 0.835762 0.357507 0.342297
Si Si3 0.338735 0.158746 0.924925
Si Si4 0.301822 0.799648 0.084040
Si Si5 0.190419 0.838299 0.659753
Si Si6 0.651288 0.548895 0.792484
Si Si7 0.432949 0.128445 0.525642
Si Si8 0.024074 0.668907 0.251081
O O1 0.547586 0.492837 0.144133
O O2 0.623009 0.747659 0.346631
O O3 0.863715 0.686962 0.279317
O O4 0.732351 0.570272 0.938199
O O5 0.832095 0.221718 0.256243
O O6 0.685507 0.415015 0.523412
O O7 0.000000 0.500000 0.500000
O O8 0.811404 0.304066 0.123899
O O9 0.518039 0.214381 0.997359
O O10 0.376491 0.113421 0.691193
O O11 0.214287 0.009502 0.853206
O O12 0.282421 0.297790 0.114732
O O13 0.194585 0.763511 0.223099
O O14 0.346920 0.973660 0.274435
O O15 0.368717 0.830796 0.520523
O O16 0.048692 0.723192 0.470942
O O17 0.000000 0.500000 0.000000
#
# Coordination Sequence:
#
# PCOD9092202 Si02
#       8
#     2   2   2   2   2   2   2   2
#     4  10  21  36  66  95 125 160 215 264 316 363
#     4  12  26  43  62  90 133 174 208 252 318 388
#     4  10  20  39  69  94 124 161 213 272 308 363
#     4  11  22  39  64  94 128 167 211 252 317 385
#     4  11  21  42  64  91 129 165 212 261 313 370
#     4  10  21  41  62  92 127 166 208 265 312 375
#     4  10  19  40  67  96 122 164 210 269 312 368
#     4  12  22  36  64  98 123 162 214 268 312 365
#
# _framework density 21.483135000000001
#
# number of rings (size 3 to 8) (size 9 to 14) (size 15 to 20)
#    0.000    1.250    3.750    3.750    1.750    3.000 
#    2.250    0.625    0.000    0.000    0.000    0.000 
#    0.000    0.000    0.000    0.000    0.000    0.000 
#
# Total GULP energy -89437.383145 kJ/mol
# GULP energy per Si atom -5589.836447 kJ/mol
# Density = 2.143424 g / cm^3
# Si number density = 21.483135 Si / 1000 Ang^3
#
#
#
# Elastic Constant Matrix: (Units=GPa)
#
#
# Indices 1 2 3 4 5 6 
#
# 1 51.5929 10.0710 18.8224 8.7549 20.7812 -0.5587
# 2 10.0710 81.3346 8.3835 24.1315 -5.4400 -18.2125
# 3 18.8224 8.3835 55.4180 5.9949 17.6106 -12.0666
# 4 8.7549 24.1315 5.9949 31.6157 -0.5083 -1.4293
# 5 20.7812 -5.4400 17.6106 -0.5083 29.3879 5.2429
# 6 -0.5587 -18.2125 -12.0666 -1.4293 5.2429 25.1881
#
#
#
# Elastic Compliance Matrix: (Units=1/GPa)
#
#
# Indices 1 2 3 4 5 6 
#
# 1 0.030212 -0.002722 -0.002146 -0.006143 -0.020991 0.001695
# 2 -0.002722 0.019900 0.002003 -0.014150 0.001640 0.014144
# 3 -0.002146 0.002003 0.029403 -0.005954 -0.019252 0.019156
# 4 -0.006143 -0.014150 -0.005954 0.044833 0.008280 -0.012399
# 5 -0.020991 0.001640 -0.019252 0.008280 0.064690 -0.021498
# 6 0.001695 0.014144 0.019156 -0.012399 -0.021498 0.062914
#
#
# Mechanical properties :
#
#
# Convention : Reuss Voigt Hill
#
# Bulk Modulus (GPa) = 13.55236 29.21103 21.38170
# Shear Modulus (GPa) = 17.71308 27.30959 22.51133
#
# Velocity S-wave (km/s) = 2.87455 3.56927 3.24058
# Velocity P-wave (km/s) = 4.16406 5.53290 4.89655
#
# Compressibility (1/GPa) = 0.07378790
#
# Stress axis : x y z
#
# Youngs Moduli (GPa) = 33.09926 50.25002 34.00959
#
# Poissons Ratio (x) = 0.13676 0.07298
# Poissons Ratio (y) = 0.09008 -0.06813
# Poissons Ratio (z) = 0.07102 -0.10066
#
# Static dielectric constant tensor:
#      x y z
#    x 2.199860 0.220390 0.663580 
#    y 0.220390 1.905890 0.347250 
#    z 0.663580 0.347250 2.873150 
# 
# From -- ./inp_files/207639.got.cif
#   From: 2010.05.17/outbox.cif.g08.bks.cpg/sg2_104_cif.got.tgz:207639.got - 2010.06.03 11:33:40.
