data_PCOD9092708
_publ_section_title
;
Structure prediction by ZEFSAII (Michael W. Deem and Ramdas Pophale) SiO2 
 PCOD9092708
Probable space group: P -1
;
_chemical_formula_sum "Si O2"
_cell_formula_units_Z 16
_cell_length_a 11.972795
_cell_length_b 9.091573
_cell_length_c 15.954896
_cell_angle_alpha 81.404679
_cell_angle_beta 40.110220
_cell_angle_gamma 52.764923
_cell_volume 705.311507
_symmetry_space_group_name_H-M "P -1"
_symmetry_group_IT_number 2
_symmetry_cell_setting 'triclinic'
loop_
_space_group_symop_operation_xyz
x,y,z
-x,-y,-z
loop_
_atom_site_type_symbol
_atom_site_label
_atom_site_fract_x
_atom_site_fract_y
_atom_site_fract_z
Si Si1 0.894305 0.004811 0.749242
Si Si2 0.801803 0.366841 0.819635
Si Si3 0.897626 0.398784 0.579001
Si Si4 0.296573 0.091120 0.006985
Si Si5 0.366682 0.481570 0.452692
Si Si6 0.895310 0.570981 0.277950
Si Si7 0.755911 0.489351 0.209225
Si Si8 0.639240 0.091930 0.724156
O O1 0.988420 0.098448 0.722022
O O2 0.738015 0.128972 0.740758
O O3 0.711168 0.052746 0.923316
O O4 0.136408 0.736647 0.606614
O O5 0.787301 0.458309 0.730773
O O6 0.969812 0.360442 0.786777
O O7 0.500000 0.500000 0.000000
O O8 0.000000 0.500000 0.500000
O O9 0.687052 0.503552 0.616245
O O10 0.132153 0.118594 0.452352
O O11 0.166496 0.291426 0.132089
O O12 0.075828 0.240576 0.045295
O O13 0.557310 0.993797 0.827199
O O14 0.303130 0.364795 0.542282
O O15 0.625086 0.418857 0.319362
O O16 0.740439 0.630827 0.275889
O O17 0.600945 0.660510 0.204786
#
# Coordination Sequence:
#
# PCOD9092708 Si02
#       8
#     2   2   2   2   2   2   2   2
#     4  10  22  36  65  95 122 167 223 255 320 362
#     4  12  24  40  61  95 133 164 210 266 318 379
#     4  11  24  40  65  93 127 170 212 267 327 359
#     4   9  21  38  65  94 122 171 213 260 319 374
#     4  10  19  42  65  90 124 163 221 257 308 387
#     4   9  21  37  61  92 124 168 205 252 322 376
#     4  10  21  37  67  94 124 167 213 262 320 372
#     4  11  21  40  65  94 129 159 225 266 308 381
#
# _framework density 22.685013999999999
#
# number of rings (size 3 to 8) (size 9 to 14) (size 15 to 20)
#    0.750    1.000    1.250    3.375    1.750    2.000 
#    0.000    3.750    0.000    1.500    0.000    0.000 
#    0.000    0.000    0.000    0.000    0.000    0.000 
#
# Total GULP energy -89183.830956 kJ/mol
# GULP energy per Si atom -5573.989435 kJ/mol
# Density = 2.263338 g / cm^3
# Si number density = 22.685014 Si / 1000 Ang^3
#
#
#
# Elastic Constant Matrix: (Units=GPa)
#
#
# Indices 1 2 3 4 5 6 
#
# 1 107.5524 30.7381 8.2784 -6.8904 -17.8139 32.4789
# 2 30.7381 54.7924 2.1778 -18.8206 -2.1020 16.9753
# 3 8.2784 2.1778 87.6954 -25.2998 -7.6514 10.3898
# 4 -6.8904 -18.8206 -25.2998 27.6177 4.7461 -7.4577
# 5 -17.8139 -2.1020 -7.6514 4.7461 28.5913 -8.4801
# 6 32.4789 16.9753 10.3898 -7.4577 -8.4801 31.2316
#
#
#
# Elastic Compliance Matrix: (Units=1/GPa)
#
#
# Indices 1 2 3 4 5 6 
#
# 1 0.015595 -0.006899 -0.001105 -0.006118 0.006424 -0.011817
# 2 -0.006899 0.033901 0.008282 0.027653 -0.006934 -0.009287
# 3 -0.001105 0.008282 0.017707 0.020412 -0.000028 -0.004376
# 4 -0.006118 0.027653 0.020412 0.073648 -0.008603 -0.000208
# 5 0.006424 -0.006934 -0.000028 -0.008603 0.041784 0.006388
# 6 -0.011817 -0.009287 -0.004376 -0.000208 0.006388 0.052496
#
#
# Mechanical properties :
#
#
# Convention : Reuss Voigt Hill
#
# Bulk Modulus (GPa) = 14.75808 36.93651 25.84730
# Shear Modulus (GPa) = 19.44306 31.41119 25.42712
#
# Velocity S-wave (km/s) = 2.93078 3.72515 3.35158
# Velocity P-wave (km/s) = 4.23939 5.90085 5.13772
#
# Compressibility (1/GPa) = 0.06775950
#
# Stress axis : x y z
#
# Youngs Moduli (GPa) = 64.12241 29.49746 56.47614
#
# Poissons Ratio (x) = 0.20350 0.06242
# Poissons Ratio (y) = 0.44236 -0.46775
# Poissons Ratio (z) = 0.07087 -0.24431
#
# Static dielectric constant tensor:
#      x y z
#    x 1.860820 -0.002460 -0.027040 
#    y -0.002460 1.907970 -0.020140 
#    z -0.027040 -0.020140 1.871890 
# 
# From -- ./inp_files/515505.got.cif
#   From: 2010.05.17/outbox.cif.g08.bks.cpg/sg2_258_cif.got.tgz:515505.got - 2010.06.03 11:33:40.
