data_PCOD9092457
_publ_section_title
;
Structure prediction by ZEFSAII (Michael W. Deem and Ramdas Pophale) SiO2 
 PCOD9092457
Probable space group: P -1
;
_chemical_formula_sum "Si O2"
_cell_formula_units_Z 16
_cell_length_a 13.743851
_cell_length_b 7.959927
_cell_length_c 10.871304
_cell_angle_alpha 139.392733
_cell_angle_beta 64.241797
_cell_angle_gamma 98.678794
_cell_volume 663.867216
_symmetry_space_group_name_H-M "P -1"
_symmetry_group_IT_number 2
_symmetry_cell_setting 'triclinic'
loop_
_space_group_symop_operation_xyz
x,y,z
-x,-y,-z
loop_
_atom_site_type_symbol
_atom_site_label
_atom_site_fract_x
_atom_site_fract_y
_atom_site_fract_z
Si Si1 0.237087 0.897833 0.070094
Si Si2 0.779492 0.554231 0.739032
Si Si3 0.540755 0.508003 0.842704
Si Si4 0.619958 0.702218 0.342797
Si Si5 0.215967 0.609470 0.602123
Si Si6 0.040792 0.802589 0.988552
Si Si7 0.375948 0.062258 0.267223
Si Si8 0.194395 0.213246 0.898821
O O1 0.261193 0.134102 0.109230
O O2 0.271669 0.950972 0.219596
O O3 0.319089 0.608625 0.823418
O O4 0.109286 0.908495 0.113378
O O5 0.674823 0.435400 0.732940
O O6 0.848552 0.409592 0.501494
O O7 0.824950 0.573746 0.859817
O O8 0.491737 0.319315 0.677829
O O9 0.500000 0.500000 0.000000
O O10 0.482023 0.828476 0.024028
O O11 0.604228 0.893763 0.575895
O O12 0.709495 0.756009 0.227299
O O13 0.138918 0.569073 0.735216
O O14 0.334439 0.368961 0.407956
O O15 0.231520 0.904772 0.758185
O O16 0.929955 0.742455 0.064997
O O17 0.000000 0.000000 0.000000
#
# Coordination Sequence:
#
# PCOD9092457 Si02
#       8
#     2   2   2   2   2   2   2   2
#     4  10  21  42  63  91 134 156 213 267 306 375
#     4  11  22  42  66  91 126 167 209 266 317 372
#     4  11  25  42  66  96 128 165 213 267 319 371
#     4  11  23  42  65  91 133 168 208 263 315 381
#     4  10  22  40  65  94 127 160 220 255 307 389
#     4  10  19  41  65  96 126 167 211 263 312 371
#     4  10  23  42  66  89 131 172 201 267 317 368
#     4  11  23  39  66  94 131 169 209 260 321 367
#
# _framework density 24.101206000000001
#
# number of rings (size 3 to 8) (size 9 to 14) (size 15 to 20)
#    0.000    1.500    5.000    0.000    1.750    7.000 
#    2.250    4.375    0.000    0.000    0.000    0.000 
#    0.000    0.000    0.000    0.000    0.000    0.000 
#
# Total GULP energy -89302.047260 kJ/mol
# GULP energy per Si atom -5581.377954 kJ/mol
# Density = 2.404635 g / cm^3
# Si number density = 24.101206 Si / 1000 Ang^3
#
#
#
# Elastic Constant Matrix: (Units=GPa)
#
#
# Indices 1 2 3 4 5 6 
#
# 1 183.3417 8.0807 34.7839 -9.0771 44.1289 8.3017
# 2 8.0807 30.3227 2.6408 -4.1798 8.0344 11.1849
# 3 34.7839 2.6408 94.8371 -3.9894 42.3378 3.8749
# 4 -9.0771 -4.1798 -3.9894 23.4295 -5.5487 -1.6857
# 5 44.1289 8.0344 42.3378 -5.5487 48.6721 -5.6093
# 6 8.3017 11.1849 3.8749 -1.6857 -5.6093 36.2311
#
#
#
# Elastic Compliance Matrix: (Units=1/GPa)
#
#
# Indices 1 2 3 4 5 6 
#
# 1 0.007353 0.001542 0.001082 0.001131 -0.008134 -0.003483
# 2 0.001542 0.042550 0.005659 0.004510 -0.014693 -0.016159
# 3 0.001082 0.005659 0.018789 -0.000400 -0.019109 -0.006981
# 4 0.001131 0.004510 -0.000400 0.044835 0.003813 0.001068
# 5 -0.008134 -0.014693 -0.019109 0.003813 0.049275 0.016249
# 6 -0.003483 -0.016159 -0.006981 0.001068 0.016249 0.036699
#
#
# Mechanical properties :
#
#
# Convention : Reuss Voigt Hill
#
# Bulk Modulus (GPa) = 11.72926 44.39025 28.05975
# Shear Modulus (GPa) = 23.65679 39.19963 31.42821
#
# Velocity S-wave (km/s) = 3.13639 4.03731 3.61503
# Velocity P-wave (km/s) = 4.24183 6.33967 5.39373
#
# Compressibility (1/GPa) = 0.08525688
#
# Stress axis : x y z
#
# Youngs Moduli (GPa) = 136.00457 23.50185 53.22186
#
# Poissons Ratio (x) = -0.03625 -0.05756
# Poissons Ratio (y) = -0.20978 -0.30116
# Poissons Ratio (z) = -0.14709 -0.13299
#
# Static dielectric constant tensor:
#      x y z
#    x 1.987260 -0.065510 -0.005250 
#    y -0.065510 2.003150 -0.003930 
#    z -0.005250 -0.003930 2.006610 
# 
# From -- ./inp_files/448317.got.cif
#   From: 2010.05.17/outbox.cif.g08.bks.cpg/sg2_225_cif.got.tgz:448317.got - 2010.06.03 11:33:40.
