data_PCOD9092089
_publ_section_title
;
Structure prediction by ZEFSAII (Michael W. Deem and Ramdas Pophale) SiO2 
 PCOD9092089
Probable space group: P -1
;
_chemical_formula_sum "Si O2"
_cell_formula_units_Z 16
_cell_length_a 8.939824
_cell_length_b 19.773334
_cell_length_c 8.008207
_cell_angle_alpha 50.567738
_cell_angle_beta 49.589596
_cell_angle_gamma 52.048089
_cell_volume 781.226841
_symmetry_space_group_name_H-M "P -1"
_symmetry_group_IT_number 2
_symmetry_cell_setting 'triclinic'
loop_
_space_group_symop_operation_xyz
x,y,z
-x,-y,-z
loop_
_atom_site_type_symbol
_atom_site_label
_atom_site_fract_x
_atom_site_fract_y
_atom_site_fract_z
Si Si1 0.065874 0.903048 0.505848
Si Si2 0.080259 0.255816 0.992688
Si Si3 0.513356 0.897097 0.089791
Si Si4 0.681907 0.563509 0.933776
Si Si5 0.672528 0.910455 0.587168
Si Si6 0.785577 0.438192 0.738815
Si Si7 0.749767 0.448468 0.385684
Si Si8 0.872938 0.709762 0.706340
O O1 0.043901 0.815697 0.762147
O O2 0.298416 0.881997 0.306595
O O3 0.889964 0.923008 0.459142
O O4 0.000000 0.000000 0.500000
O O5 0.128948 0.288915 0.090475
O O6 0.954724 0.344702 0.834932
O O7 0.289359 0.189564 0.852852
O O8 0.566761 0.894051 0.860706
O O9 0.500000 0.000000 0.000000
O O10 0.746687 0.520124 0.772629
O O11 0.750273 0.648857 0.806356
O O12 0.432437 0.582842 0.089522
O O13 0.791576 0.487785 0.117011
O O14 0.751313 0.815643 0.574451
O O15 0.500000 0.000000 0.500000
O O16 0.829557 0.470183 0.473100
O O17 0.500000 0.500000 0.500000
O O18 0.881397 0.337688 0.447550
#
# Coordination Sequence:
#
# PCOD9092089 Si02
#       8
#     2   2   2   2   2   2   2   2
#     4  10  19  40  66  86 126 175 208 267 325 369
#     4  10  22  39  62  92 132 166 220 269 321 390
#     4  10  19  40  66  91 124 173 216 258 322 385
#     4  10  21  42  63  83 135 162 206 273 320 377
#     4  10  24  41  63  97 135 164 216 273 322 386
#     4  10  22  40  61  96 118 169 218 258 325 391
#     4  10  21  39  65  89 126 167 210 263 323 383
#     4  10  21  43  58  88 131 169 204 274 329 371
#
# _framework density 20.480606999999999
#
# number of rings (size 3 to 8) (size 9 to 14) (size 15 to 20)
#    0.000    2.250    3.750    0.375    0.000    3.000 
#   20.250    0.000    0.000    0.000    0.000    0.000 
#    0.000    0.000    0.000    0.000    0.000    0.000 
#
# Total GULP energy -89139.348275 kJ/mol
# GULP energy per Si atom -5571.209267 kJ/mol
# Density = 2.043399 g / cm^3
# Si number density = 20.480607 Si / 1000 Ang^3
#
#
#
# Elastic Constant Matrix: (Units=GPa)
#
#
# Indices 1 2 3 4 5 6 
#
# 1 107.1340 64.5271 52.3759 -3.9040 -8.6145 -4.7171
# 2 64.5271 168.4848 34.1976 6.2557 -7.5282 -7.8519
# 3 52.3759 34.1976 52.0137 18.2184 -12.7639 0.7488
# 4 -3.9040 6.2557 18.2184 34.5948 -3.7793 -3.6876
# 5 -8.6145 -7.5282 -12.7639 -3.7793 51.9092 4.2469
# 6 -4.7171 -7.8519 0.7488 -3.6876 4.2469 48.9631
#
#
#
# Elastic Compliance Matrix: (Units=1/GPa)
#
#
# Indices 1 2 3 4 5 6 
#
# 1 0.032533 -0.005400 -0.039037 0.025359 -0.003552 0.005083
# 2 -0.005400 0.007887 0.001232 -0.002596 0.000321 0.000502
# 3 -0.039037 0.001232 0.075833 -0.044439 0.009841 -0.008923
# 4 0.025359 -0.002596 -0.044439 0.056017 -0.003609 0.007238
# 5 -0.003552 0.000321 0.009841 -0.003609 0.021087 -0.002542
# 6 0.005083 0.000502 -0.008923 0.007238 -0.002542 0.021896
#
#
# Mechanical properties :
#
#
# Convention : Reuss Voigt Hill
#
# Bulk Modulus (GPa) = 33.50619 69.98153 51.74386
# Shear Modulus (GPa) = 16.04576 38.86221 27.45398
#
# Velocity S-wave (km/s) = 2.80207 4.36077 3.66524
# Velocity P-wave (km/s) = 5.18308 7.72003 6.57508
#
# Compressibility (1/GPa) = 0.02984523
#
# Stress axis : x y z
#
# Youngs Moduli (GPa) = 30.73811 126.78702 13.18691
#
# Poissons Ratio (x) = 0.68461 0.51477
# Poissons Ratio (y) = 0.16598 -0.01625
# Poissons Ratio (z) = 1.19991 -0.15625
#
# Static dielectric constant tensor:
#      x y z
#    x 1.660440 0.025070 0.070110 
#    y 0.025070 1.748810 -0.031240 
#    z 0.070110 -0.031240 1.729470 
# 
# From -- ./inp_files/216956.got.cif
#   From: 2010.05.17/outbox.cif.g08.bks.cpg/sg2_109_cif.got.tgz:216956.got - 2010.06.03 11:33:40.
