data_PCOD9092427
_publ_section_title
;
Structure prediction by ZEFSAII (Michael W. Deem and Ramdas Pophale) SiO2 
 PCOD9092427
Probable space group: P -1
;
_chemical_formula_sum "Si O2"
_cell_formula_units_Z 14
_cell_length_a 15.935480
_cell_length_b 8.807083
_cell_length_c 5.449617
_cell_angle_alpha 62.003731
_cell_angle_beta 55.435539
_cell_angle_gamma 65.274050
_cell_volume 543.841845
_symmetry_space_group_name_H-M "P -1"
_symmetry_group_IT_number 2
_symmetry_cell_setting 'triclinic'
loop_
_space_group_symop_operation_xyz
x,y,z
-x,-y,-z
loop_
_atom_site_type_symbol
_atom_site_label
_atom_site_fract_x
_atom_site_fract_y
_atom_site_fract_z
Si Si1 0.313356 0.175468 0.343235
Si Si2 0.656887 0.501066 0.198768
Si Si3 0.884768 0.992120 0.789666
Si Si4 0.097504 0.343322 0.707456
Si Si5 0.656729 0.025335 0.039552
Si Si6 0.494814 0.661564 0.710068
Si Si7 0.119669 0.673315 0.161489
O O1 0.188180 0.231759 0.469657
O O2 0.331443 0.092585 0.643176
O O3 0.348012 0.359583 0.119276
O O4 0.362250 0.054041 0.130696
O O5 0.603905 0.620151 0.418972
O O6 0.589894 0.358040 0.347201
O O7 0.776477 0.409654 0.096415
O O8 0.877218 0.126861 0.930270
O O9 0.772682 0.069622 0.789569
O O10 0.000000 0.000000 0.500000
O O11 0.888499 0.783575 0.982869
O O12 0.115293 0.542776 0.504531
O O13 0.983559 0.339229 0.803502
O O14 0.557789 0.172946 0.168123
O O15 0.500000 0.500000 0.000000
#
# Coordination Sequence:
#
# PCOD9092427 Si02
#       7
#     2   2   2   2   2   2   2
#     4  10  24  45  71 100 139 176 226 283 344 403
#     4  10  24  45  66  96 133 181 229 283 346 406
#     4  11  22  37  62  99 138 180 227 273 348 404
#     4   9  21  38  65  99 136 174 231 275 332 425
#     4  11  25  45  69 100 137 177 230 286 337 409
#     4  11  26  43  67  97 134 176 235 284 337 420
#     4  10  19  41  64  92 135 183 221 281 346 399
#
# _framework density 25.742775999999999
#
# number of rings (size 3 to 8) (size 9 to 14) (size 15 to 20)
#    0.000    1.714    1.429    1.286    6.000    4.000 
#    0.000    2.857    0.000    0.000    0.000    0.000 
#    0.000    0.000    0.000    0.000    0.000    0.000 
#
# Total GULP energy -78192.534167 kJ/mol
# GULP energy per Si atom -5585.181012 kJ/mol
# Density = 2.568418 g / cm^3
# Si number density = 25.742776 Si / 1000 Ang^3
#
#
#
# Elastic Constant Matrix: (Units=GPa)
#
#
# Indices 1 2 3 4 5 6 
#
# 1 90.4989 47.9496 30.5662 27.5684 -19.3572 -4.5127
# 2 47.9496 110.8879 48.3501 34.3713 -13.3339 -20.4636
# 3 30.5662 48.3501 109.7700 13.8528 -8.7427 -13.4736
# 4 27.5684 34.3713 13.8528 53.0269 -14.9193 -0.1092
# 5 -19.3572 -13.3339 -8.7427 -14.9193 37.3217 6.9754
# 6 -4.5127 -20.4636 -13.4736 -0.1092 6.9754 43.9781
#
#
#
# Elastic Compliance Matrix: (Units=1/GPa)
#
#
# Indices 1 2 3 4 5 6 
#
# 1 0.016343 -0.005021 -0.001751 -0.003286 0.005342 -0.002051
# 2 -0.005021 0.016166 -0.004216 -0.007273 -0.001843 0.005989
# 3 -0.001751 -0.004216 0.011555 0.000719 0.000328 0.001349
# 4 -0.003286 -0.007273 0.000719 0.027226 0.007617 -0.004641
# 5 0.005342 -0.001843 0.000328 0.007617 0.033043 -0.005431
# 6 -0.002051 0.005989 0.001349 -0.004641 -0.005431 0.026578
#
#
# Mechanical properties :
#
#
# Convention : Reuss Voigt Hill
#
# Bulk Modulus (GPa) = 45.27396 62.76539 54.01967
# Shear Modulus (GPa) = 31.20116 39.15140 35.17628
#
# Velocity S-wave (km/s) = 3.48521 3.90406 3.70057
# Velocity P-wave (km/s) = 5.81556 6.69006 6.26808
#
# Compressibility (1/GPa) = 0.02208775
#
# Stress axis : x y z
#
# Youngs Moduli (GPa) = 61.18850 61.85940 86.53976
#
# Poissons Ratio (x) = 0.31062 0.15151
# Poissons Ratio (y) = 0.30725 0.36486
# Poissons Ratio (z) = 0.10712 0.26080
#
# Static dielectric constant tensor:
#      x y z
#    x 2.067290 0.014270 -0.013880 
#    y 0.014270 1.998770 -0.050320 
#    z -0.013880 -0.050320 2.103250 
# 
# From -- ./inp_files/36908.got.cif
#   From: 2010.05.17/outbox.cif.g08.bks.cpg/sg2_19_cif.got.tgz:36908.got - 2010.06.03 11:33:40.
