data_PCOD9092327
_publ_section_title
;
Structure prediction by ZEFSAII (Michael W. Deem and Ramdas Pophale) SiO2 
 PCOD9092327
Probable space group: P -1
;
_chemical_formula_sum "Si O2"
_cell_formula_units_Z 14
_cell_length_a 9.729702
_cell_length_b 20.332758
_cell_length_c 7.838424
_cell_angle_alpha 55.157949
_cell_angle_beta 97.598711
_cell_angle_gamma 142.451526
_cell_volume 595.177117
_symmetry_space_group_name_H-M "P -1"
_symmetry_group_IT_number 2
_symmetry_cell_setting 'triclinic'
loop_
_space_group_symop_operation_xyz
x,y,z
-x,-y,-z
loop_
_atom_site_type_symbol
_atom_site_label
_atom_site_fract_x
_atom_site_fract_y
_atom_site_fract_z
Si Si1 0.837327 0.186331 0.740859
Si Si2 0.502690 0.225730 0.215574
Si Si3 0.762938 0.186467 0.342290
Si Si4 0.159402 0.512582 0.395156
Si Si5 0.687645 0.685108 0.385552
Si Si6 0.284071 0.379943 0.982819
Si Si7 0.894492 0.866696 0.504738
O O1 0.868018 0.204337 0.513287
O O2 0.949447 0.328760 0.614644
O O3 0.030104 0.211235 0.810270
O O4 0.500000 0.000000 0.000000
O O5 0.651489 0.218818 0.301084
O O6 0.343957 0.188392 0.401439
O O7 0.743802 0.402235 0.897920
O O8 0.227951 0.066886 0.278630
O O9 0.028528 0.314752 0.062030
O O10 0.500000 0.000000 0.500000
O O11 0.466839 0.634996 0.338709
O O12 0.000000 0.500000 0.500000
O O13 0.813983 0.791445 0.419317
O O14 0.489271 0.507204 0.671943
O O15 0.145989 0.222550 0.223319
O O16 0.500000 0.500000 0.000000
#
# Coordination Sequence:
#
# PCOD9092327 Si02
#       7
#     2   2   2   2   2   2   2
#     4  12  29  48  73 107 143 191 243 287 362 429
#     4  11  25  42  69 107 143 178 240 288 361 411
#     4  12  24  45  76 102 137 187 239 297 341 425
#     4  12  30  47  69 107 152 190 230 297 359 424
#     4  11  24  48  74  98 143 190 238 293 353 426
#     4  10  19  40  72  97 129 176 237 281 341 405
#     4  10  22  42  72 105 134 182 236 298 349 415
#
# _framework density 23.522411000000002
#
# number of rings (size 3 to 8) (size 9 to 14) (size 15 to 20)
#    0.000    0.857    4.286    2.143   10.000    3.429 
#    0.000    0.000    0.000    0.000    0.000    0.000 
#    0.000    0.000    0.000    0.000    0.000    0.000 
#
# Total GULP energy -78401.153867 kJ/mol
# GULP energy per Si atom -5600.082419 kJ/mol
# Density = 2.346887 g / cm^3
# Si number density = 23.522411 Si / 1000 Ang^3
#
#
#
# Elastic Constant Matrix: (Units=GPa)
#
#
# Indices 1 2 3 4 5 6 
#
# 1 184.6555 41.7908 26.8320 -22.1003 -11.1523 18.4710
# 2 41.7908 96.7555 17.7837 -16.0252 -1.7998 -9.2454
# 3 26.8320 17.7837 84.9952 -24.2734 -10.1163 4.0656
# 4 -22.1003 -16.0252 -24.2734 34.1463 8.6019 3.8466
# 5 -11.1523 -1.7998 -10.1163 8.6019 38.8636 -8.2767
# 6 18.4710 -9.2454 4.0656 3.8466 -8.2767 35.4519
#
#
#
# Elastic Compliance Matrix: (Units=1/GPa)
#
#
# Indices 1 2 3 4 5 6 
#
# 1 0.006998 -0.002827 -0.000409 0.003440 0.000007 -0.004708
# 2 -0.002827 0.012674 -0.001201 0.002795 -0.000182 0.004570
# 3 -0.000409 -0.001201 0.015274 0.010085 0.000993 -0.002714
# 4 0.003440 0.002795 0.010085 0.042879 -0.007590 -0.008644
# 5 0.000007 -0.000182 0.000993 -0.007590 0.029258 0.007489
# 6 -0.004708 0.004570 -0.002714 -0.008644 0.007489 0.034850
#
#
# Mechanical properties :
#
#
# Convention : Reuss Voigt Hill
#
# Bulk Modulus (GPa) = 38.35821 59.91323 49.13572
# Shear Modulus (GPa) = 31.34853 40.35899 35.85376
#
# Velocity S-wave (km/s) = 3.65459 4.14668 3.90838
# Velocity P-wave (km/s) = 5.84384 6.96079 6.42663
#
# Compressibility (1/GPa) = 0.02607004
#
# Stress axis : x y z
#
# Youngs Moduli (GPa) = 142.89991 78.90449 65.47108
#
# Poissons Ratio (x) = 0.22309 0.02679
# Poissons Ratio (y) = 0.40402 0.07864
# Poissons Ratio (z) = 0.05846 0.09478
#
# Static dielectric constant tensor:
#      x y z
#    x 1.742670 -0.082650 0.059410 
#    y -0.082650 1.877980 0.075810 
#    z 0.059410 0.075810 1.871340 
# 
# From -- ./inp_files/223012.got.cif
#   From: 2010.05.17/outbox.cif.g08.bks.cpg/sg2_112_cif.got.tgz:223012.got - 2010.06.03 11:33:40.
