data_PCOD9092679
_publ_section_title
;
Structure prediction by ZEFSAII (Michael W. Deem and Ramdas Pophale) SiO2 
 PCOD9092679
Probable space group: P -1
;
_chemical_formula_sum "Si O2"
_cell_formula_units_Z 14
_cell_length_a 8.018649
_cell_length_b 9.602821
_cell_length_c 16.159125
_cell_angle_alpha 144.481725
_cell_angle_beta 106.729495
_cell_angle_gamma 73.779473
_cell_volume 690.011077
_symmetry_space_group_name_H-M "P -1"
_symmetry_group_IT_number 2
_symmetry_cell_setting 'triclinic'
loop_
_space_group_symop_operation_xyz
x,y,z
-x,-y,-z
loop_
_atom_site_type_symbol
_atom_site_label
_atom_site_fract_x
_atom_site_fract_y
_atom_site_fract_z
Si Si1 0.253808 0.199576 0.606689
Si Si2 0.625585 0.584618 0.632191
Si Si3 0.836541 0.846589 0.250364
Si Si4 0.287994 0.500225 0.060001
Si Si5 0.627584 0.338462 0.683959
Si Si6 0.451879 0.880248 0.162974
Si Si7 0.985298 0.342599 0.503307
O O1 0.143371 0.240758 0.694896
O O2 0.448929 0.281933 0.677387
O O3 0.153894 0.330669 0.579543
O O4 0.277690 0.914107 0.454330
O O5 0.500000 0.500000 0.500000
O O6 0.575269 0.497767 0.673727
O O7 0.817642 0.461256 0.584397
O O8 0.625376 0.872341 0.766668
O O9 0.629137 0.940377 0.264840
O O10 0.946886 0.065755 0.348420
O O11 0.844167 0.640557 0.082551
O O12 0.257433 0.540684 0.171814
O O13 0.323285 0.750531 0.141966
O O14 0.468343 0.324385 0.988395
O O15 0.000000 0.500000 0.500000
#
# Coordination Sequence:
#
# PCOD9092679 Si02
#       7
#     2   2   2   2   2   2   2
#     4  11  22  38  64  92 126 157 210 253 305 370
#     4  12  22  38  61  91 127 159 205 260 303 359
#     4  10  19  42  63  87 123 165 199 247 309 361
#     4   9  19  38  65  94 117 161 210 249 303 368
#     4  11  22  37  66  98 115 163 211 254 303 364
#     4   9  18  36  64  89 120 156 205 246 303 358
#     4  12  26  39  61  94 127 164 202 259 313 357
#
# _framework density 20.289529000000002
#
# number of rings (size 3 to 8) (size 9 to 14) (size 15 to 20)
#    0.857    0.571    4.286    1.286    4.000    0.571 
#    0.000    2.143    0.000    4.286    0.000    0.000 
#    0.000    0.000    0.000    0.000    0.000    0.000 
#
# Total GULP energy -78138.293737 kJ/mol
# GULP energy per Si atom -5581.306696 kJ/mol
# Density = 2.024335 g / cm^3
# Si number density = 20.289529 Si / 1000 Ang^3
#
#
#
# Elastic Constant Matrix: (Units=GPa)
#
#
# Indices 1 2 3 4 5 6 
#
# 1 47.4145 12.9502 20.9753 -2.2649 1.4194 5.7577
# 2 12.9502 141.6117 63.1270 -5.4281 4.0688 16.8876
# 3 20.9753 63.1270 107.4392 -14.9454 3.1205 10.9268
# 4 -2.2649 -5.4281 -14.9454 37.9928 -2.1325 -3.5040
# 5 1.4194 4.0688 3.1205 -2.1325 19.0546 0.6825
# 6 5.7577 16.8876 10.9268 -3.5040 0.6825 35.8324
#
#
#
# Elastic Compliance Matrix: (Units=1/GPa)
#
#
# Indices 1 2 3 4 5 6 
#
# 1 0.023320 0.000153 -0.004445 -0.000625 -0.001022 -0.002505
# 2 0.000153 0.009937 -0.005682 -0.001158 -0.001222 -0.003065
# 3 -0.004445 -0.005682 0.014190 0.004445 -0.000264 -0.000495
# 4 -0.000625 -0.001158 0.004445 0.028200 0.002650 0.001998
# 5 -0.001022 -0.001222 -0.000264 0.002650 0.053155 0.000068
# 6 -0.002505 -0.003065 -0.000495 0.001998 0.000068 0.030100
#
#
# Mechanical properties :
#
#
# Convention : Reuss Voigt Hill
#
# Bulk Modulus (GPa) = 36.36509 54.50784 45.43647
# Shear Modulus (GPa) = 26.59333 31.87015 29.23174
#
# Velocity S-wave (km/s) = 3.62428 3.96759 3.79981
# Velocity P-wave (km/s) = 5.95616 6.92188 6.45710
#
# Compressibility (1/GPa) = 0.02749890
#
# Stress axis : x y z
#
# Youngs Moduli (GPa) = 42.88126 100.63615 70.47018
#
# Poissons Ratio (x) = -0.01541 0.31325
# Poissons Ratio (y) = -0.00657 0.40042
# Poissons Ratio (z) = 0.19062 0.57183
#
# Static dielectric constant tensor:
#      x y z
#    x 1.766150 0.006970 -0.003690 
#    y 0.006970 1.712230 -0.033350 
#    z -0.003690 -0.033350 1.746170 
# 
# From -- ./inp_files/305757.got.cif
#   From: 2010.05.17/outbox.cif.g08.bks.cpg/sg2_153_cif.got.tgz:305757.got - 2010.06.03 11:33:40.
