data_PCOD9092738
_publ_section_title
;
Structure prediction by ZEFSAII (Michael W. Deem and Ramdas Pophale) SiO2 
 PCOD9092738
Probable space group: P -1
;
_chemical_formula_sum "Si O2"
_cell_formula_units_Z 16
_cell_length_a 17.375129
_cell_length_b 9.090213
_cell_length_c 9.335993
_cell_angle_alpha 120.018488
_cell_angle_beta 99.540965
_cell_angle_gamma 37.511389
_cell_volume 698.796918
_symmetry_space_group_name_H-M "P -1"
_symmetry_group_IT_number 2
_symmetry_cell_setting 'triclinic'
loop_
_space_group_symop_operation_xyz
x,y,z
-x,-y,-z
loop_
_atom_site_type_symbol
_atom_site_label
_atom_site_fract_x
_atom_site_fract_y
_atom_site_fract_z
Si Si1 0.490385 0.050790 0.694104
Si Si2 0.710386 0.922444 0.832457
Si Si3 0.876146 0.079980 0.419571
Si Si4 0.004165 0.790810 0.899078
Si Si5 0.051892 0.689055 0.537225
Si Si6 0.888479 0.549073 0.972709
Si Si7 0.682408 0.332888 0.091723
Si Si8 0.425087 0.476174 0.534023
O O1 0.351924 0.416976 0.856639
O O2 0.500000 0.000000 0.500000
O O3 0.606607 0.967517 0.759276
O O4 0.509682 0.822745 0.643036
O O5 0.860053 0.622821 0.655554
O O6 0.752367 0.828771 0.968981
O O7 0.657073 0.209918 0.931551
O O8 0.857021 0.304708 0.463107
O O9 0.738333 0.226494 0.414533
O O10 0.911362 0.989557 0.552940
O O11 0.018564 0.759409 0.231932
O O12 0.025655 0.701150 0.698967
O O13 0.125760 0.494818 0.892771
O O14 0.849486 0.020495 0.020703
O O15 0.000000 0.000000 0.000000
O O16 0.000000 0.500000 0.000000
O O17 0.586124 0.494128 0.282400
O O18 0.500000 0.500000 0.500000
#
# Coordination Sequence:
#
# PCOD9092738 Si02
#       8
#     2   2   2   2   2   2   2   2
#     4  10  24  45  72  98 138 191 239 294 354 416
#     4  11  22  45  77  98 143 191 237 290 367 423
#     4  10  19  42  66  97 145 177 231 294 365 420
#     4  12  23  41  70 105 145 182 239 291 365 429
#     4  10  22  38  72 108 133 185 233 298 361 428
#     4  11  21  41  69 102 139 185 223 302 366 417
#     4  11  24  47  67 103 147 190 235 300 351 424
#     4  11  22  45  71 102 138 193 243 291 356 432
#
# _framework density 22.896495000000002
#
# number of rings (size 3 to 8) (size 9 to 14) (size 15 to 20)
#    0.000    1.250    5.000    0.375    1.750    0.500 
#   11.250    0.625    0.000    0.000    0.000    0.000 
#    0.000    0.000    0.000    0.000    0.000    0.000 
#
# Total GULP energy -89294.811887 kJ/mol
# GULP energy per Si atom -5580.925743 kJ/mol
# Density = 2.284438 g / cm^3
# Si number density = 22.896495 Si / 1000 Ang^3
#
#
#
# Elastic Constant Matrix: (Units=GPa)
#
#
# Indices 1 2 3 4 5 6 
#
# 1 119.4318 31.5506 30.0018 -0.3272 22.5017 8.6097
# 2 31.5506 85.1677 36.2255 -10.3413 -0.3301 0.0708
# 3 30.0018 36.2255 96.6077 2.9572 15.3981 21.1316
# 4 -0.3272 -10.3413 2.9572 49.9836 8.9710 5.9468
# 5 22.5017 -0.3301 15.3981 8.9710 37.0472 1.4535
# 6 8.6097 0.0708 21.1316 5.9468 1.4535 32.5201
#
#
#
# Elastic Compliance Matrix: (Units=1/GPa)
#
#
# Indices 1 2 3 4 5 6 
#
# 1 0.010895 -0.003796 -0.000395 0.000784 -0.006580 -0.002469
# 2 -0.003796 0.016330 -0.006770 0.002383 0.004502 0.004732
# 3 -0.000395 -0.006770 0.016209 -0.000054 -0.006147 -0.010129
# 4 0.000784 0.002383 -0.000054 0.021983 -0.005601 -0.003947
# 5 -0.006580 0.004502 -0.006147 -0.005601 0.034736 0.005198
# 6 -0.002469 0.004732 -0.010129 -0.003947 0.005198 0.038465
#
#
# Mechanical properties :
#
#
# Convention : Reuss Voigt Hill
#
# Bulk Modulus (GPa) = 46.48645 55.19590 50.84118
# Shear Modulus (GPa) = 29.81295 37.47214 33.64254
#
# Velocity S-wave (km/s) = 3.61234 4.04987 3.83734
# Velocity P-wave (km/s) = 6.14375 6.78436 6.47199
#
# Compressibility (1/GPa) = 0.02151164
#
# Stress axis : x y z
#
# Youngs Moduli (GPa) = 91.78593 61.23551 61.69228
#
# Poissons Ratio (x) = 0.23246 0.02438
# Poissons Ratio (y) = 0.34844 0.41766
# Poissons Ratio (z) = 0.03628 0.41457
#
# Static dielectric constant tensor:
#      x y z
#    x 1.887590 0.001870 0.040910 
#    y 0.001870 1.949320 -0.042010 
#    z 0.040910 -0.042010 1.884740 
# 
# From -- ./inp_files/329462.got.cif
#   From: 2010.05.17/outbox.cif.g08.bks.cpg/sg2_165_cif.got.tgz:329462.got - 2010.06.03 11:33:40.
