data_PCOD9092908
_publ_section_title
;
Structure prediction by ZEFSAII (Michael W. Deem and Ramdas Pophale) SiO2 
 PCOD9092908
Probable space group: P -1
;
_chemical_formula_sum "Si O2"
_cell_formula_units_Z 14
_cell_length_a 9.000921
_cell_length_b 7.011078
_cell_length_c 12.496575
_cell_angle_alpha 106.942996
_cell_angle_beta 45.994339
_cell_angle_gamma 107.581070
_cell_volume 536.890003
_symmetry_space_group_name_H-M "P -1"
_symmetry_group_IT_number 2
_symmetry_cell_setting 'triclinic'
loop_
_space_group_symop_operation_xyz
x,y,z
-x,-y,-z
loop_
_atom_site_type_symbol
_atom_site_label
_atom_site_fract_x
_atom_site_fract_y
_atom_site_fract_z
Si Si1 0.303403 0.122211 0.135947
Si Si2 0.483104 0.315823 0.868502
Si Si3 0.720257 0.976533 0.632788
Si Si4 0.951112 0.399067 0.622729
Si Si5 0.811389 0.949338 0.339472
Si Si6 0.683884 0.360084 0.381543
Si Si7 0.224820 0.465706 0.843869
O O1 0.303388 0.162780 0.271730
O O2 0.063663 0.015115 0.222699
O O3 0.353807 0.263505 0.030967
O O4 0.500000 0.000000 0.000000
O O5 0.720871 0.417862 0.781086
O O6 0.371453 0.453038 0.869033
O O7 0.525340 0.106629 0.757716
O O8 0.732266 0.903959 0.493473
O O9 0.085698 0.840576 0.415890
O O10 0.000000 0.500000 0.500000
O O11 0.121081 0.500584 0.636317
O O12 0.701906 0.141854 0.388163
O O13 0.772311 0.747807 0.254350
O O14 0.500000 0.500000 0.500000
O O15 0.711056 0.352355 0.239893
O O16 0.000000 0.500000 0.000000
#
# Coordination Sequence:
#
# PCOD9092908 Si02
#       7
#     2   2   2   2   2   2   2
#     4  10  21  42  70 113 156 199 263 312 396 468
#     4   9  22  44  75 108 157 209 254 319 395 470
#     4   9  20  41  75 113 150 201 260 328 388 465
#     4  10  19  43  75 109 154 195 251 322 385 465
#     4  12  25  47  76 114 160 203 268 333 382 470
#     4  12  26  47  80 118 153 206 257 323 402 473
#     4  12  28  50  74 109 162 212 265 322 402 468
#
# _framework density 26.076101999999999
#
# number of rings (size 3 to 8) (size 9 to 14) (size 15 to 20)
#    0.857    0.571    1.429    3.857    0.000    4.571 
#    2.571    4.286    0.000    0.000    0.000    0.000 
#    0.000    0.000    0.000    0.000    0.000    0.000 
#
# Total GULP energy -78241.658648 kJ/mol
# GULP energy per Si atom -5588.689903 kJ/mol
# Density = 2.601675 g / cm^3
# Si number density = 26.076102 Si / 1000 Ang^3
#
#
#
# Elastic Constant Matrix: (Units=GPa)
#
#
# Indices 1 2 3 4 5 6 
#
# 1 157.5868 60.9350 28.8033 -12.4166 -2.8840 -9.3206
# 2 60.9350 158.9475 73.9758 -5.1427 14.6406 -14.2480
# 3 28.8033 73.9758 166.8800 -22.7759 11.9296 5.7548
# 4 -12.4166 -5.1427 -22.7759 67.8055 -9.5522 9.8421
# 5 -2.8840 14.6406 11.9296 -9.5522 47.5009 -11.3962
# 6 -9.3206 -14.2480 5.7548 9.8421 -11.3962 36.3882
#
#
#
# Elastic Compliance Matrix: (Units=1/GPa)
#
#
# Indices 1 2 3 4 5 6 
#
# 1 0.007702 -0.002994 0.000003 0.001301 0.001901 0.001044
# 2 -0.002994 0.009764 -0.004087 -0.001954 -0.001668 0.003709
# 3 0.000003 -0.004087 0.008438 0.002946 -0.001256 -0.004124
# 4 0.001301 -0.001954 0.002946 0.016827 0.002182 -0.004766
# 5 0.001901 -0.001668 -0.001256 0.002182 0.024114 0.006995
# 6 0.001044 0.003709 -0.004124 -0.004766 0.006995 0.033333
#
#
# Mechanical properties :
#
#
# Convention : Reuss Voigt Hill
#
# Bulk Modulus (GPa) = 85.11400 90.09361 87.60381
# Shear Modulus (GPa) = 42.28414 51.65226 46.96820
#
# Velocity S-wave (km/s) = 4.03124 4.45548 4.24866
# Velocity P-wave (km/s) = 7.37423 7.81624 7.59845
#
# Compressibility (1/GPa) = 0.01174895
#
# Stress axis : x y z
#
# Youngs Moduli (GPa) = 129.84190 102.41741 118.51770
#
# Poissons Ratio (x) = 0.30660 -0.00040
# Poissons Ratio (y) = 0.38870 0.48437
# Poissons Ratio (z) = -0.00043 0.41857
#
# Static dielectric constant tensor:
#      x y z
#    x 2.034480 -0.027150 -0.026880 
#    y -0.027150 2.024790 0.063530 
#    z -0.026880 0.063530 2.029300 
# 
# From -- ./inp_files/379378.got.cif
#   From: 2010.05.17/outbox.cif.g08.bks.cpg/sg2_190_cif.got.tgz:379378.got - 2010.06.03 11:33:40.
