data_PCOD9092747
_publ_section_title
;
Structure prediction by ZEFSAII (Michael W. Deem and Ramdas Pophale) SiO2 
 PCOD9092747
Probable space group: P -1
;
_chemical_formula_sum "Si O2"
_cell_formula_units_Z 16
_cell_length_a 12.158936
_cell_length_b 9.675469
_cell_length_c 8.352393
_cell_angle_alpha 97.427179
_cell_angle_beta 58.164466
_cell_angle_gamma 122.688932
_cell_volume 685.727541
_symmetry_space_group_name_H-M "P -1"
_symmetry_group_IT_number 2
_symmetry_cell_setting 'triclinic'
loop_
_space_group_symop_operation_xyz
x,y,z
-x,-y,-z
loop_
_atom_site_type_symbol
_atom_site_label
_atom_site_fract_x
_atom_site_fract_y
_atom_site_fract_z
Si Si1 0.121983 0.212366 0.881141
Si Si2 0.235009 0.752887 0.917808
Si Si3 0.603339 0.936480 0.358517
Si Si4 0.092718 0.408101 0.395187
Si Si5 0.399449 0.619441 0.973668
Si Si6 0.430847 0.329122 0.827670
Si Si7 0.878010 0.533310 0.270409
Si Si8 0.095726 0.934029 0.686326
O O1 0.248788 0.212758 0.895345
O O2 0.185984 0.394997 0.796583
O O3 0.075051 0.088341 0.746909
O O4 0.981871 0.159455 0.099831
O O5 0.309182 0.946445 0.847940
O O6 0.183192 0.650856 0.772871
O O7 0.360369 0.729076 0.909728
O O8 0.068910 0.654549 0.125641
O O9 0.721571 0.978358 0.418894
O O10 0.500000 0.000000 0.500000
O O11 0.504410 0.740045 0.362025
O O12 0.230764 0.490894 0.170884
O O13 0.167007 0.442176 0.517441
O O14 0.000000 0.500000 0.500000
O O15 0.981457 0.210318 0.408275
O O16 0.519843 0.701733 0.042798
O O17 0.459750 0.512063 0.829563
#
# Coordination Sequence:
#
# PCOD9092747 Si02
#       8
#     2   2   2   2   2   2   2   2
#     4  10  19  42  67  90 122 174 217 253 319 396
#     4  11  22  41  65  97 128 169 217 260 323 386
#     4  11  25  41  67  96 130 170 212 268 321 381
#     4  12  23  36  63 100 129 162 210 278 317 365
#     4  11  23  43  67  92 131 173 216 258 319 392
#     4  10  23  43  64  91 129 180 209 252 330 385
#     4  11  22  36  66 101 127 159 219 273 316 373
#     4  10  21  39  66  89 129 170 212 259 324 383
#
# _framework density 23.332882000000001
#
# number of rings (size 3 to 8) (size 9 to 14) (size 15 to 20)
#    0.000    1.250    5.000    0.750    3.500    1.000 
#    0.000    6.250    0.000    0.000    0.000    0.000 
#    0.000    0.000    0.000    0.000    0.000    0.000 
#
# Total GULP energy -89203.095149 kJ/mol
# GULP energy per Si atom -5575.193447 kJ/mol
# Density = 2.327978 g / cm^3
# Si number density = 23.332882 Si / 1000 Ang^3
#
#
#
# Elastic Constant Matrix: (Units=GPa)
#
#
# Indices 1 2 3 4 5 6 
#
# 1 112.7613 24.1760 -0.0319 8.6782 -3.8406 1.1020
# 2 24.1760 108.9670 8.7754 30.3069 -5.0841 8.2861
# 3 -0.0319 8.7754 34.8116 17.9322 -14.5644 -0.2654
# 4 8.6782 30.3069 17.9322 36.6501 -8.1355 2.3950
# 5 -3.8406 -5.0841 -14.5644 -8.1355 24.5076 4.6466
# 6 1.1020 8.2861 -0.2654 2.3950 4.6466 35.0300
#
#
#
# Elastic Compliance Matrix: (Units=1/GPa)
#
#
# Indices 1 2 3 4 5 6 
#
# 1 0.009413 -0.001808 0.001854 -0.001243 0.001790 -0.000007
# 2 -0.001808 0.012643 0.002829 -0.011094 0.000766 -0.002255
# 3 0.001854 0.002829 0.048640 -0.021326 0.023076 -0.001962
# 4 -0.001243 -0.011094 -0.021326 0.047403 0.000724 -0.000835
# 5 0.001790 0.000766 0.023076 0.000724 0.056643 -0.007626
# 6 -0.000007 -0.002255 -0.001962 -0.000835 -0.007626 0.030134
#
#
# Mechanical properties :
#
#
# Convention : Reuss Voigt Hill
#
# Bulk Modulus (GPa) = 13.08134 35.81986 24.45060
# Shear Modulus (GPa) = 22.26100 34.14556 28.20328
#
# Velocity S-wave (km/s) = 3.09214 3.82960 3.48046
# Velocity P-wave (km/s) = 4.28567 5.91096 5.16268
#
# Compressibility (1/GPa) = 0.07644478
#
# Stress axis : x y z
#
# Youngs Moduli (GPa) = 106.23436 79.09478 20.55941
#
# Poissons Ratio (x) = 0.14300 -0.03811
# Poissons Ratio (y) = 0.19207 -0.05816
# Poissons Ratio (z) = -0.19692 -0.22375
#
# Static dielectric constant tensor:
#      x y z
#    x 1.948780 -0.010130 -0.024060 
#    y -0.010130 1.917740 -0.010070 
#    z -0.024060 -0.010070 1.956960 
# 
# From -- ./inp_files/301264.got.cif
#   From: 2010.05.17/outbox.cif.g08.bks.cpg/sg2_151_cif.got.tgz:301264.got - 2010.06.03 11:33:40.
