data_PCOD9092381
_publ_section_title
;
Structure prediction by ZEFSAII (Michael W. Deem and Ramdas Pophale) SiO2 
 PCOD9092381
Probable space group: P -1
;
_chemical_formula_sum "Si O2"
_cell_formula_units_Z 16
_cell_length_a 12.673153
_cell_length_b 17.931899
_cell_length_c 24.274653
_cell_angle_alpha 160.837975
_cell_angle_beta 29.119074
_cell_angle_gamma 151.053640
_cell_volume 837.114139
_symmetry_space_group_name_H-M "P -1"
_symmetry_group_IT_number 2
_symmetry_cell_setting 'triclinic'
loop_
_space_group_symop_operation_xyz
x,y,z
-x,-y,-z
loop_
_atom_site_type_symbol
_atom_site_label
_atom_site_fract_x
_atom_site_fract_y
_atom_site_fract_z
Si Si1 0.695641 0.752719 0.385144
Si Si2 0.553796 0.032151 0.433822
Si Si3 0.280348 0.571776 0.168492
Si Si4 0.518783 0.196908 0.081347
Si Si5 0.678258 0.146497 0.753499
Si Si6 0.861205 0.236467 0.856160
Si Si7 0.016228 0.232895 0.311650
Si Si8 0.148855 0.093682 0.945106
O O1 0.507853 0.766388 0.434626
O O2 0.655944 0.477086 0.227389
O O3 0.931068 0.868282 0.324349
O O4 0.691498 0.905295 0.548689
O O5 0.824129 0.086609 0.340545
O O6 0.500000 0.000000 0.500000
O O7 0.391835 0.795019 0.312727
O O8 0.187455 0.652368 0.211355
O O9 0.500000 0.500000 0.000000
O O10 0.119304 0.342792 0.112308
O O11 0.264351 0.208214 0.192785
O O12 0.657644 0.137168 0.923809
O O13 0.500000 0.000000 0.000000
O O14 0.759556 0.217106 0.827399
O O15 0.413659 0.131487 0.862308
O O16 0.000000 0.500000 0.000000
O O17 0.000000 0.500000 0.500000
O O18 0.928971 0.099616 0.201694
O O19 0.000000 0.000000 0.000000
#
# Coordination Sequence:
#
# PCOD9092381 Si02
#       8
#     2   2   2   2   2   2   2   2
#     4  10  21  44  61  93 125 172 218 259 323 380
#     4  11  23  38  67  96 124 166 220 271 317 377
#     4   9  19  38  56  89 124 159 213 256 316 376
#     4  11  25  43  61  95 133 169 214 261 327 388
#     4  10  19  41  62  87 125 162 219 267 312 381
#     4  10  23  39  64  89 119 166 209 260 318 381
#     4  12  23  43  65  93 133 173 211 267 327 375
#     4  11  22  36  61  92 130 168 208 265 326 379
#
# _framework density 19.113282999999999
#
# number of rings (size 3 to 8) (size 9 to 14) (size 15 to 20)
#    0.000    1.500    5.000    1.125    3.500    6.000 
#    0.000    0.625    0.000    0.000    0.000    0.000 
#    0.000    0.000    0.000    0.000    0.000    0.000 
#
# Total GULP energy -89085.290316 kJ/mol
# GULP energy per Si atom -5567.830645 kJ/mol
# Density = 1.906978 g / cm^3
# Si number density = 19.113283 Si / 1000 Ang^3
#
#
#
# Elastic Constant Matrix: (Units=GPa)
#
#
# Indices 1 2 3 4 5 6 
#
# 1 124.0707 65.5375 48.7150 -5.9907 16.0891 -11.5659
# 2 65.5375 136.2161 54.4602 -16.0163 6.0685 -25.5595
# 3 48.7150 54.4602 74.3671 -4.4233 3.1003 -14.7009
# 4 -5.9907 -16.0163 -4.4233 42.3661 -4.4919 -5.4429
# 5 16.0891 6.0685 3.1003 -4.4919 29.8102 -11.6098
# 6 -11.5659 -25.5595 -14.7009 -5.4429 -11.6098 41.1268
#
#
#
# Elastic Compliance Matrix: (Units=1/GPa)
#
#
# Indices 1 2 3 4 5 6 
#
# 1 0.013317 -0.004598 -0.005840 -0.001679 -0.007248 -0.003468
# 2 -0.004598 0.013397 -0.005289 0.005146 0.003761 0.006885
# 3 -0.005840 -0.005289 0.021788 0.000325 0.003530 0.003898
# 4 -0.001679 0.005146 0.000325 0.027202 0.007227 0.008482
# 5 -0.007248 0.003761 0.003530 0.007227 0.043136 0.014695
# 6 -0.003468 0.006885 0.003898 0.008482 0.014695 0.034283
#
#
# Mechanical properties :
#
#
# Convention : Reuss Voigt Hill
#
# Bulk Modulus (GPa) = 58.65162 74.67551 66.66357
# Shear Modulus (GPa) = 26.27987 33.72336 30.00162
#
# Velocity S-wave (km/s) = 3.71206 4.20503 3.96621
# Velocity P-wave (km/s) = 7.00895 7.92030 7.47852
#
# Compressibility (1/GPa) = 0.01704983
#
# Stress axis : x y z
#
# Youngs Moduli (GPa) = 75.09251 74.64154 45.89636
#
# Poissons Ratio (x) = 0.34317 0.26802
# Poissons Ratio (y) = 0.34524 0.24275
# Poissons Ratio (z) = 0.43852 0.39478
#
# Static dielectric constant tensor:
#      x y z
#    x 1.727720 0.080230 -0.054080 
#    y 0.080230 1.785440 -0.058710 
#    z -0.054080 -0.058710 1.733970 
# 
# From -- ./inp_files/610718.got.cif
#   From: 2010.05.17/outbox.cif.g08.bks.cpg/sg2_306_cif.got.tgz:610718.got - 2010.06.03 11:33:40.
