data_PCOD9092487
_publ_section_title
;
Structure prediction by ZEFSAII (Michael W. Deem and Ramdas Pophale) SiO2 
 PCOD9092487
Probable space group: P -1
;
_chemical_formula_sum "Si O2"
_cell_formula_units_Z 14
_cell_length_a 10.467896
_cell_length_b 22.604237
_cell_length_c 10.475700
_cell_angle_alpha 159.371229
_cell_angle_beta 140.351189
_cell_angle_gamma 38.430854
_cell_volume 535.076268
_symmetry_space_group_name_H-M "P -1"
_symmetry_group_IT_number 2
_symmetry_cell_setting 'triclinic'
loop_
_space_group_symop_operation_xyz
x,y,z
-x,-y,-z
loop_
_atom_site_type_symbol
_atom_site_label
_atom_site_fract_x
_atom_site_fract_y
_atom_site_fract_z
Si Si1 0.404669 0.763335 0.260627
Si Si2 0.668722 0.632043 0.954151
Si Si3 0.230704 0.718632 0.286477
Si Si4 0.801233 0.872105 0.893277
Si Si5 0.970434 0.238937 0.412609
Si Si6 0.798237 0.849082 0.133106
Si Si7 0.583354 0.262739 0.283637
O O1 0.494591 0.680597 0.028941
O O2 0.322789 0.657815 0.095184
O O3 0.596490 0.819316 0.585223
O O4 0.224474 0.943816 0.458890
O O5 0.820528 0.757729 0.344085
O O6 0.820879 0.438710 0.699414
O O7 0.552057 0.651980 0.770481
O O8 0.346760 0.637844 0.341189
O O9 0.986861 0.732853 0.126929
O O10 0.239630 0.920060 0.705657
O O11 0.967239 0.808114 0.779863
O O12 0.846777 0.794987 0.914234
O O13 0.808912 0.148024 0.171910
O O14 0.575736 0.832629 0.970717
#
# Coordination Sequence:
#
# PCOD9092487 Si02
#       7
#     2   2   2   2   2   2   2
#     4  10  19  41  66  91 122 169 202 244 308 376
#     4  10  24  44  66  87 123 167 210 244 303 372
#     4  11  22  38  64  94 128 157 204 253 310 362
#     4  10  19  41  66  91 122 169 202 244 308 376
#     4  10  24  44  66  87 123 167 210 244 303 372
#     4  11  22  38  64  94 128 157 204 253 310 362
#     4  12  23  41  62  97 126 155 204 263 307 351
#
# _framework density 26.164494000000001
#
# number of rings (size 3 to 8) (size 9 to 14) (size 15 to 20)
#    0.000    1.429    2.857    3.857    4.000    1.143 
#    0.000    1.429    0.000    0.000    0.000    0.000 
#    0.000    0.000    0.000    0.000    0.000    0.000 
#
# Total GULP energy -78367.481437 kJ/mol
# GULP energy per Si atom -5597.677245 kJ/mol
# Density = 2.610494 g / cm^3
# Si number density = 26.164494 Si / 1000 Ang^3
#
#
#
# Elastic Constant Matrix: (Units=GPa)
#
#
# Indices 1 2 3 4 5 6 
#
# 1 233.4626 61.8876 43.9997 -19.4521 -21.9415 -7.8526
# 2 61.8876 136.0149 41.6945 -48.0984 -17.3498 8.8472
# 3 43.9997 41.6945 75.7380 -29.5929 -11.7310 -9.4933
# 4 -19.4521 -48.0984 -29.5929 40.8566 -12.0294 -2.0614
# 5 -21.9415 -17.3498 -11.7310 -12.0294 53.3279 -6.3024
# 6 -7.8526 8.8472 -9.4933 -2.0614 -6.3024 45.7240
#
#
#
# Elastic Compliance Matrix: (Units=1/GPa)
#
#
# Indices 1 2 3 4 5 6 
#
# 1 0.005255 -0.002148 -0.002127 -0.001281 0.000816 0.000931
# 2 -0.002148 0.017932 0.003102 0.025656 0.011364 -0.000471
# 3 -0.002127 0.003102 0.025175 0.024791 0.012097 0.007046
# 4 -0.001281 0.025656 0.024791 0.082083 0.032756 0.008179
# 5 0.000816 0.011364 0.012097 0.032756 0.033611 0.006562
# 6 0.000931 -0.000471 0.007046 0.008179 0.006562 0.024858
#
#
# Mechanical properties :
#
#
# Convention : Reuss Voigt Hill
#
# Bulk Modulus (GPa) = 21.73222 82.26433 51.99827
# Shear Modulus (GPa) = 24.20154 47.82395 36.01274
#
# Velocity S-wave (km/s) = 3.04464 4.27994 3.71401
# Velocity P-wave (km/s) = 4.54795 7.47886 6.18939
#
# Compressibility (1/GPa) = 0.04601463
#
# Stress axis : x y z
#
# Youngs Moduli (GPa) = 190.29058 55.76742 39.72213
#
# Poissons Ratio (x) = 0.11980 0.08451
# Poissons Ratio (y) = 0.40878 -0.12323
# Poissons Ratio (z) = 0.40484 -0.17300
#
# Static dielectric constant tensor:
#      x y z
#    x 2.118370 0.049030 0.076780 
#    y 0.049030 2.083930 0.073670 
#    z 0.076780 0.073670 2.100740 
# 
# From -- ./inp_files/224406.got.cif
#   From: 2010.05.17/outbox.cif.g08.bks.cpg/sg2_113_cif.got.tgz:224406.got - 2010.06.03 11:33:40.
