data_PCOD9092152
_publ_section_title
;
Structure prediction by ZEFSAII (Michael W. Deem and Ramdas Pophale) SiO2 
 PCOD9092152
Probable space group: P -1
;
_chemical_formula_sum "Si O2"
_cell_formula_units_Z 14
_cell_length_a 18.494335
_cell_length_b 11.389874
_cell_length_c 5.226282
_cell_angle_alpha 85.525499
_cell_angle_beta 94.423272
_cell_angle_gamma 152.121325
_cell_volume 513.137195
_symmetry_space_group_name_H-M "P -1"
_symmetry_group_IT_number 2
_symmetry_cell_setting 'triclinic'
loop_
_space_group_symop_operation_xyz
x,y,z
-x,-y,-z
loop_
_atom_site_type_symbol
_atom_site_label
_atom_site_fract_x
_atom_site_fract_y
_atom_site_fract_z
Si Si1 0.856888 0.165385 0.641255
Si Si2 0.262515 0.350109 0.713862
Si Si3 0.451140 0.202159 0.970377
Si Si4 0.332946 0.315232 0.222226
Si Si5 0.572423 0.161377 0.742530
Si Si6 0.839050 0.333131 0.167567
Si Si7 0.863918 0.585618 0.452391
O O1 0.828472 0.229153 0.425803
O O2 0.977101 0.377786 0.860373
O O3 0.966061 0.226105 0.510413
O O4 0.706172 0.878608 0.736521
O O5 0.281841 0.301980 0.473925
O O6 0.148384 0.296688 0.655497
O O7 0.429929 0.642786 0.791469
O O8 0.232470 0.225584 0.975990
O O9 0.490628 0.389978 0.839904
O O10 0.525696 0.229157 0.761041
O O11 0.286057 0.903239 0.016380
O O12 0.757039 0.420149 0.701187
O O13 0.500000 0.000000 0.500000
O O14 0.500000 0.000000 0.000000
O O15 0.791662 0.393019 0.255070
#
# Coordination Sequence:
#
# PCOD9092152 Si02
#       7
#     2   2   2   2   2   2   2
#     4   9  21  43  70  97 143 195 234 271 347 419
#     4  10  22  40  68 107 133 177 223 295 355 399
#     4  10  22  37  68 103 136 169 235 288 349 394
#     4  10  23  42  69 101 141 175 236 279 352 413
#     4  12  22  35  64 102 136 168 215 284 351 394
#     4   9  20  41  71  99 140 188 236 284 337 417
#     4  10  19  40  67 105 140 180 225 293 343 422
#
# _framework density 27.283152000000001
#
# number of rings (size 3 to 8) (size 9 to 14) (size 15 to 20)
#    1.714    0.286    2.857    0.857    0.000    1.714 
#    0.000    3.571    3.143    2.571    0.000    0.000 
#    0.000    0.000    0.000    0.000    0.000    0.000 
#
# Total GULP energy -78251.697359 kJ/mol
# GULP energy per Si atom -5589.406954 kJ/mol
# Density = 2.722105 g / cm^3
# Si number density = 27.283152 Si / 1000 Ang^3
#
#
#
# Elastic Constant Matrix: (Units=GPa)
#
#
# Indices 1 2 3 4 5 6 
#
# 1 76.9965 11.9159 7.8099 4.4910 -7.7682 -7.2387
# 2 11.9159 130.8113 4.6730 -12.4246 -19.8152 -15.0408
# 3 7.8099 4.6730 130.7936 2.5815 -6.0199 -16.2167
# 4 4.4910 -12.4246 2.5815 28.3936 -8.3359 -10.2396
# 5 -7.7682 -19.8152 -6.0199 -8.3359 30.2794 -6.9907
# 6 -7.2387 -15.0408 -16.2167 -10.2396 -6.9907 60.3235
#
#
#
# Elastic Compliance Matrix: (Units=1/GPa)
#
#
# Indices 1 2 3 4 5 6 
#
# 1 0.013647 -0.000677 -0.000440 -0.000960 0.003063 0.001543
# 2 -0.000677 0.011097 0.000707 0.010423 0.011477 0.005975
# 3 -0.000440 0.000707 0.008121 0.001605 0.003085 0.002937
# 4 -0.000960 0.010423 0.001605 0.052317 0.024680 0.014656
# 5 0.003063 0.011477 0.003085 0.024680 0.052026 0.014277
# 6 0.001543 0.005975 0.002937 0.014656 0.014277 0.023184
#
#
# Mechanical properties :
#
#
# Convention : Reuss Voigt Hill
#
# Bulk Modulus (GPa) = 31.20545 43.04431 37.12488
# Shear Modulus (GPa) = 29.08795 44.74615 36.91705
#
# Velocity S-wave (km/s) = 3.26874 4.05417 3.68245
# Velocity P-wave (km/s) = 5.07037 6.14216 5.63182
#
# Compressibility (1/GPa) = 0.03204568
#
# Stress axis : x y z
#
# Youngs Moduli (GPa) = 73.27628 90.11756 123.13729
#
# Poissons Ratio (x) = 0.06104 0.05412
# Poissons Ratio (y) = 0.04963 -0.08710
# Poissons Ratio (z) = 0.03221 -0.06374
#
# Static dielectric constant tensor:
#      x y z
#    x 2.307340 0.068160 -0.006480 
#    y 0.068160 2.214930 -0.031060 
#    z -0.006480 -0.031060 2.086870 
# 
# From -- ./inp_files/118671.got.cif
#   From: 2010.05.17/outbox.cif.g08.bks.cpg/sg2_60_cif.got.tgz:118671.got - 2010.06.03 11:33:40.
