data_PCOD9092390
_publ_section_title
;
Structure prediction by ZEFSAII (Michael W. Deem and Ramdas Pophale) SiO2 
 PCOD9092390
Probable space group: P -1
;
_chemical_formula_sum "Si O2"
_cell_formula_units_Z 16
_cell_length_a 10.110007
_cell_length_b 11.668027
_cell_length_c 15.240187
_cell_angle_alpha 23.142031
_cell_angle_beta 118.059532
_cell_angle_gamma 116.181938
_cell_volume 623.308748
_symmetry_space_group_name_H-M "P -1"
_symmetry_group_IT_number 2
_symmetry_cell_setting 'triclinic'
loop_
_space_group_symop_operation_xyz
x,y,z
-x,-y,-z
loop_
_atom_site_type_symbol
_atom_site_label
_atom_site_fract_x
_atom_site_fract_y
_atom_site_fract_z
Si Si1 0.400089 0.715994 0.186153
Si Si2 0.183766 0.745099 0.259876
Si Si3 0.634659 0.686507 0.043085
Si Si4 0.448583 0.895499 0.653353
Si Si5 0.287814 0.798281 0.905768
Si Si6 0.157423 0.235933 0.304935
Si Si7 0.055983 0.269062 0.444155
Si Si8 0.345120 0.670969 0.519213
O O1 0.316468 0.710668 0.254774
O O2 0.514538 0.459097 0.396822
O O3 0.289842 0.742932 0.050237
O O4 0.500000 0.000000 0.000000
O O5 0.055638 0.565555 0.292506
O O6 0.205567 0.599334 0.463943
O O7 0.617643 0.430612 0.144625
O O8 0.460041 0.789422 0.933210
O O9 0.662450 0.492337 0.276986
O O10 0.772522 0.922671 0.930188
O O11 0.500000 0.000000 0.500000
O O12 0.311250 0.104350 0.482658
O O13 0.597149 0.992064 0.687192
O O14 0.194972 0.500099 0.063499
O O15 0.201109 0.084299 0.650402
O O16 0.064700 0.312205 0.310742
O O17 0.078409 0.965515 0.419911
#
# Coordination Sequence:
#
# PCOD9092390 Si02
#       8
#     2   2   2   2   2   2   2   2
#     4  11  18  31  52  85 120 145 180 241 298 341
#     4  12  22  34  54  87 123 151 189 234 301 352
#     4  10  23  35  58  91 116 150 192 249 292 334
#     4  10  19  41  63  84 115 154 200 250 283 332
#     4  11  20  37  58  89 117 149 196 240 297 341
#     4  11  22  44  59  85 122 153 202 237 282 353
#     4  11  26  36  61  89 120 163 185 234 298 359
#     4  10  20  33  56  84 114 150 188 244 296 332
#
# _framework density 25.669463
#
# number of rings (size 3 to 8) (size 9 to 14) (size 15 to 20)
#    0.000    1.250    7.500    1.500    3.500    0.500 
#    0.000    0.625    0.000    3.000    0.000    0.000 
#    0.000    0.000    0.000    0.000    0.000    0.000 
#
# Total GULP energy -89219.769007 kJ/mol
# GULP energy per Si atom -5576.235563 kJ/mol
# Density = 2.561104 g / cm^3
# Si number density = 25.669463 Si / 1000 Ang^3
#
#
#
# Elastic Constant Matrix: (Units=GPa)
#
#
# Indices 1 2 3 4 5 6 
#
# 1 26.5074 11.7566 7.3316 2.3789 5.7547 8.9623
# 2 11.7566 163.1513 30.5357 -28.3498 -2.3128 10.6637
# 3 7.3316 30.5357 74.3251 -24.6266 6.3700 13.8021
# 4 2.3789 -28.3498 -24.6266 45.7157 5.2006 -13.8227
# 5 5.7547 -2.3128 6.3700 5.2006 28.2512 -6.4704
# 6 8.9623 10.6637 13.8021 -13.8227 -6.4704 26.7790
#
#
#
# Elastic Compliance Matrix: (Units=1/GPa)
#
#
# Indices 1 2 3 4 5 6 
#
# 1 0.052529 -0.004155 -0.001683 -0.012082 -0.014094 -0.024700
# 2 -0.004155 0.007387 -0.001678 0.004296 0.001471 0.001887
# 3 -0.001683 -0.001678 0.018671 0.008112 -0.006839 -0.005857
# 4 -0.012082 0.004296 0.008112 0.034425 -0.001807 0.015484
# 5 -0.014094 0.001471 -0.006839 -0.001807 0.044251 0.017416
# 6 -0.024700 0.001887 -0.005857 0.015484 0.017416 0.060077
#
#
# Mechanical properties :
#
#
# Convention : Reuss Voigt Hill
#
# Bulk Modulus (GPa) = 15.73426 40.35907 28.04667
# Shear Modulus (GPa) = 19.71940 34.43984 27.07962
#
# Velocity S-wave (km/s) = 2.77466 3.66685 3.25150
# Velocity P-wave (km/s) = 4.05066 5.80383 5.00461
#
# Compressibility (1/GPa) = 0.06355558
#
# Stress axis : x y z
#
# Youngs Moduli (GPa) = 19.03715 135.37680 53.55759
#
# Poissons Ratio (x) = 0.56249 0.09014
# Poissons Ratio (y) = 0.07910 0.08986
# Poissons Ratio (z) = 0.03204 0.22714
#
# Static dielectric constant tensor:
#      x y z
#    x 2.102700 0.104160 0.047660 
#    y 0.104160 2.334300 -0.094220 
#    z 0.047660 -0.094220 2.258860 
# 
# From -- ./inp_files/569914.got.cif
#   From: 2010.05.17/outbox.cif.g08.bks.cpg/sg2_285_cif.got.tgz:569914.got - 2010.06.03 11:33:40.
