data_PCOD9092555
_publ_section_title
;
Structure prediction by ZEFSAII (Michael W. Deem and Ramdas Pophale) SiO2 
 PCOD9092555
Probable space group: P -1
;
_chemical_formula_sum "Si O2"
_cell_formula_units_Z 16
_cell_length_a 11.577463
_cell_length_b 11.113382
_cell_length_c 9.067164
_cell_angle_alpha 133.321545
_cell_angle_beta 78.185976
_cell_angle_gamma 121.597064
_cell_volume 700.012972
_symmetry_space_group_name_H-M "P -1"
_symmetry_group_IT_number 2
_symmetry_cell_setting 'triclinic'
loop_
_space_group_symop_operation_xyz
x,y,z
-x,-y,-z
loop_
_atom_site_type_symbol
_atom_site_label
_atom_site_fract_x
_atom_site_fract_y
_atom_site_fract_z
Si Si1 0.599527 0.899444 0.523728
Si Si2 0.128147 0.487035 0.392504
Si Si3 0.816958 0.770806 0.664806
Si Si4 0.845346 0.556290 0.188743
Si Si5 0.671506 0.331044 0.778926
Si Si6 0.422335 0.184408 0.196531
Si Si7 0.906402 0.066833 0.657228
Si Si8 0.705273 0.251068 0.171008
O O1 0.627627 0.114253 0.663050
O O2 0.756948 0.948689 0.515836
O O3 0.473595 0.728575 0.315792
O O4 0.562982 0.844502 0.658130
O O5 0.108499 0.279726 0.270172
O O6 0.195735 0.569729 0.285250
O O7 0.252032 0.637916 0.594453
O O8 0.000000 0.500000 0.500000
O O9 0.817950 0.657981 0.421450
O O10 0.661158 0.707825 0.704166
O O11 0.885017 0.991087 0.767928
O O12 0.823681 0.363382 0.111684
O O13 0.999446 0.702846 0.207752
O O14 0.731138 0.481903 0.026376
O O15 0.572936 0.257054 0.151907
O O16 0.330000 0.964440 0.974346
O O17 0.000000 0.000000 0.500000
#
# Coordination Sequence:
#
# PCOD9092555 Si02
#       8
#     2   2   2   2   2   2   2   2
#     4  10  21  38  64  93 132 167 206 271 330 370
#     4  11  25  41  63  95 131 168 213 269 330 385
#     4   9  22  43  65  90 128 171 216 266 324 378
#     4  10  21  39  66  97 124 168 227 255 313 392
#     4  11  23  40  63  97 132 164 212 273 327 383
#     4  10  19  41  68  94 125 166 221 265 315 385
#     4   9  20  40  62  91 124 170 215 261 317 384
#     4  10  21  39  69  97 121 171 222 254 316 394
#
# _framework density 22.856721
#
# number of rings (size 3 to 8) (size 9 to 14) (size 15 to 20)
#    0.000    2.000    2.500    0.000    5.250    4.500 
#    2.250    8.125    0.000    0.000    0.000    0.000 
#    0.000    0.000    0.000    0.000    0.000    0.000 
#
# Total GULP energy -89144.314385 kJ/mol
# GULP energy per Si atom -5571.519649 kJ/mol
# Density = 2.280470 g / cm^3
# Si number density = 22.856721 Si / 1000 Ang^3
#
#
#
# Elastic Constant Matrix: (Units=GPa)
#
#
# Indices 1 2 3 4 5 6 
#
# 1 108.6438 26.7561 -7.4626 -7.6178 -22.2754 15.2205
# 2 26.7561 91.2979 15.9747 -0.7597 -0.2586 11.1742
# 3 -7.4626 15.9747 37.9655 -11.8580 -0.6549 11.4596
# 4 -7.6178 -0.7597 -11.8580 20.7651 3.4754 2.5433
# 5 -22.2754 -0.2586 -0.6549 3.4754 25.4664 -4.1338
# 6 15.2205 11.1742 11.4596 2.5433 -4.1338 38.0457
#
#
#
# Elastic Compliance Matrix: (Units=1/GPa)
#
#
# Indices 1 2 3 4 5 6 
#
# 1 0.015355 -0.005415 0.011123 0.010861 0.010973 -0.007437
# 2 -0.005415 0.013986 -0.009194 -0.006181 -0.003854 0.000822
# 3 0.011123 -0.009194 0.048191 0.032902 0.003449 -0.018090
# 4 0.010861 -0.006181 0.032902 0.073295 -0.002579 -0.017620
# 5 0.010973 -0.003854 0.003449 -0.002579 0.049470 0.001251
# 6 -0.007437 0.000822 -0.018090 -0.017620 0.001251 0.035780
#
#
# Mechanical properties :
#
#
# Convention : Reuss Voigt Hill
#
# Bulk Modulus (GPa) = 14.17239 34.27148 24.22193
# Shear Modulus (GPa) = 18.75693 30.36471 24.56082
#
# Velocity S-wave (km/s) = 2.86777 3.64879 3.28160
# Velocity P-wave (km/s) = 4.14482 5.72522 4.99788
#
# Compressibility (1/GPa) = 0.07055974
#
# Stress axis : x y z
#
# Youngs Moduli (GPa) = 65.12524 71.50152 20.75081
#
# Poissons Ratio (x) = 0.38715 -0.23081
# Poissons Ratio (y) = 0.35262 0.19079
# Poissons Ratio (z) = -0.72438 0.65740
#
# Static dielectric constant tensor:
#      x y z
#    x 1.916380 -0.007950 0.007020 
#    y -0.007950 2.011010 0.077460 
#    z 0.007020 0.077460 1.900910 
# 
# From -- ./inp_files/263466.got.cif
#   From: 2010.05.17/outbox.cif.g08.bks.cpg/sg2_132_cif.got.tgz:263466.got - 2010.06.03 11:33:40.
