data_PCOD9092009
_publ_section_title
;
Structure prediction by ZEFSAII (Michael W. Deem and Ramdas Pophale) SiO2 
 PCOD9092009
Probable space group: P -1
;
_chemical_formula_sum "Si O2"
_cell_formula_units_Z 12
_cell_length_a 12.400458
_cell_length_b 9.087195
_cell_length_c 7.857912
_cell_angle_alpha 76.685457
_cell_angle_beta 37.007057
_cell_angle_gamma 79.244643
_cell_volume 518.645586
_symmetry_space_group_name_H-M "P -1"
_symmetry_group_IT_number 2
_symmetry_cell_setting 'triclinic'
loop_
_space_group_symop_operation_xyz
x,y,z
-x,-y,-z
loop_
_atom_site_type_symbol
_atom_site_label
_atom_site_fract_x
_atom_site_fract_y
_atom_site_fract_z
Si Si1 0.577732 0.334328 0.908331
Si Si2 0.551248 0.335132 0.548273
Si Si3 0.042304 0.675786 0.424630
Si Si4 0.237699 0.119793 0.427744
Si Si5 0.798988 0.868951 0.898337
Si Si6 0.299383 0.936393 0.731787
O O1 0.624751 0.335928 0.647942
O O2 0.747981 0.305953 0.819031
O O3 0.500000 0.500000 0.000000
O O4 0.421175 0.215146 0.174837
O O5 0.500000 0.500000 0.500000
O O6 0.678911 0.241030 0.285990
O O7 0.370089 0.236363 0.819109
O O8 0.000000 0.500000 0.500000
O O9 0.927773 0.762431 0.400917
O O10 0.954950 0.751418 0.684619
O O11 0.234205 0.046609 0.262940
O O12 0.235871 0.008351 0.615472
O O13 0.818790 0.990278 0.988847
O O14 0.500000 0.000000 0.500000
#
# Coordination Sequence:
#
# PCOD9092009 Si02
#       6
#     2   2   2   2   2   2
#     4  11  21  38  68  96 124 176 218 266 330 379
#     4  10  22  39  62  99 129 165 224 268 320 396
#     4  10  19  40  64  98 135 167 223 268 319 389
#     4   9  21  40  67  93 131 171 219 262 328 380
#     4   8  20  39  65  91 132 171 213 262 336 370
#     4  10  21  40  68  93 131 177 214 266 333 387
#
# _framework density 23.137187000000001
#
# number of rings (size 3 to 8) (size 9 to 14) (size 15 to 20)
#    1.000    1.333    1.667    0.000    4.667    6.000 
#    0.000    6.667    0.000    0.000    0.000    0.000 
#    0.000    0.000    0.000    0.000    0.000    0.000 
#
# Total GULP energy -67083.510600 kJ/mol
# GULP energy per Si atom -5590.292550 kJ/mol
# Density = 2.308453 g / cm^3
# Si number density = 23.137187 Si / 1000 Ang^3
#
#
#
# Elastic Constant Matrix: (Units=GPa)
#
#
# Indices 1 2 3 4 5 6 
#
# 1 158.7276 84.8793 71.4420 9.7491 6.7989 -18.6477
# 2 84.8793 172.7546 56.1918 34.1023 21.7305 -0.7974
# 3 71.4420 56.1918 94.7526 28.2758 3.3380 6.2789
# 4 9.7491 34.1023 28.2758 41.4393 5.7607 2.0909
# 5 6.7989 21.7305 3.3380 5.7607 51.5156 6.4852
# 6 -18.6477 -0.7974 6.2789 2.0909 6.4852 39.7334
#
#
#
# Elastic Compliance Matrix: (Units=1/GPa)
#
#
# Indices 1 2 3 4 5 6 
#
# 1 0.014171 -0.004868 -0.010564 0.007616 -0.000989 0.007983
# 2 -0.004868 0.009784 -0.000024 -0.006463 -0.002594 -0.001321
# 3 -0.010564 -0.000024 0.022885 -0.013029 0.002421 -0.008285
# 4 0.007616 -0.006463 -0.013029 0.036633 -0.002023 0.003906
# 5 -0.000989 -0.002594 0.002421 -0.002023 0.021242 -0.004259
# 6 0.007983 -0.001321 -0.008285 0.003906 -0.004259 0.030687
#
#
# Mechanical properties :
#
#
# Convention : Reuss Voigt Hill
#
# Bulk Modulus (GPa) = 62.78809 94.58454 78.68631
# Shear Modulus (GPa) = 29.13338 40.78578 34.95958
#
# Velocity S-wave (km/s) = 3.55231 4.20310 3.89134
# Velocity P-wave (km/s) = 6.63487 8.03265 7.36698
#
# Compressibility (1/GPa) = 0.01592659
#
# Stress axis : x y z
#
# Youngs Moduli (GPa) = 70.56752 102.20262 43.69656
#
# Poissons Ratio (x) = 0.49757 0.46162
# Poissons Ratio (y) = 0.34356 0.00106
# Poissons Ratio (z) = 0.74549 0.00247
#
# Static dielectric constant tensor:
#      x y z
#    x 1.860110 -0.001710 0.017790 
#    y -0.001710 1.847680 -0.005330 
#    z 0.017790 -0.005330 1.956800 
# 
# From -- ./inp_files/231395.got.cif
#   From: 2010.05.17/outbox.cif.g08.bks.cpg/sg2_116_cif.got.tgz:231395.got - 2010.06.03 11:33:40.
