data_PCOD9092591
_publ_section_title
;
Structure prediction by ZEFSAII (Michael W. Deem and Ramdas Pophale) SiO2 
 PCOD9092591
Probable space group: P -1
;
_chemical_formula_sum "Si O2"
_cell_formula_units_Z 16
_cell_length_a 14.859605
_cell_length_b 8.993799
_cell_length_c 9.571847
_cell_angle_alpha 113.096428
_cell_angle_beta 42.433309
_cell_angle_gamma 95.968052
_cell_volume 757.636124
_symmetry_space_group_name_H-M "P -1"
_symmetry_group_IT_number 2
_symmetry_cell_setting 'triclinic'
loop_
_space_group_symop_operation_xyz
x,y,z
-x,-y,-z
loop_
_atom_site_type_symbol
_atom_site_label
_atom_site_fract_x
_atom_site_fract_y
_atom_site_fract_z
Si Si1 0.933829 0.391216 0.638498
Si Si2 0.123455 0.409415 0.931454
Si Si3 0.787911 0.895828 0.789044
Si Si4 0.375895 0.946469 0.696987
Si Si5 0.565029 0.635926 0.538774
Si Si6 0.456304 0.200476 0.082835
Si Si7 0.748800 0.174334 0.695185
Si Si8 0.141930 0.014908 0.777665
O O1 0.799697 0.338667 0.720370
O O2 0.000000 0.500000 0.500000
O O3 0.052104 0.210509 0.449085
O O4 0.903599 0.491440 0.854983
O O5 0.273509 0.410079 0.703185
O O6 0.134554 0.211956 0.861232
O O7 0.000000 0.500000 0.000000
O O8 0.694848 0.778096 0.799279
O O9 0.762241 0.063491 0.782537
O O10 0.734673 0.935719 0.023441
O O11 0.468092 0.803287 0.638846
O O12 0.500000 0.000000 0.500000
O O13 0.275481 0.912545 0.679573
O O14 0.500000 0.500000 0.500000
O O15 0.553900 0.676136 0.729806
O O16 0.586512 0.217718 0.851463
O O17 0.500000 0.000000 0.000000
O O18 0.837961 0.056065 0.428610
O O19 0.000000 0.000000 0.000000
#
# Coordination Sequence:
#
# PCOD9092591 Si02
#       8
#     2   2   2   2   2   2   2   2
#     4  12  26  44  63  98 140 173 216 278 341 390
#     4  12  26  45  68  98 139 179 221 275 338 403
#     4  11  23  43  74  95 127 182 229 267 323 409
#     4  12  24  44  71 103 137 174 226 284 341 394
#     4  12  25  43  69 104 136 174 224 282 337 401
#     4  10  19  41  69  96 123 165 231 266 316 394
#     4  11  22  44  69  95 127 176 231 265 320 409
#     4  12  26  44  69 100 136 179 227 281 337 395
#
# _framework density 21.118317000000001
#
# number of rings (size 3 to 8) (size 9 to 14) (size 15 to 20)
#    0.000    0.500    3.750    7.125    1.750    0.000 
#    2.250    0.625    0.000    0.000    0.000    0.000 
#    0.000    0.000    0.000    0.000    0.000    0.000 
#
# Total GULP energy -89385.154889 kJ/mol
# GULP energy per Si atom -5586.572181 kJ/mol
# Density = 2.107025 g / cm^3
# Si number density = 21.118317 Si / 1000 Ang^3
#
#
#
# Elastic Constant Matrix: (Units=GPa)
#
#
# Indices 1 2 3 4 5 6 
#
# 1 85.0055 13.7979 29.9999 -8.2904 -3.5224 25.3871
# 2 13.7979 42.2670 27.2958 -13.7104 8.5987 33.4744
# 3 29.9999 27.2958 160.0426 -8.4095 14.0783 25.2950
# 4 -8.2904 -13.7104 -8.4095 33.9911 11.9410 -7.1143
# 5 -3.5224 8.5987 14.0783 11.9410 55.1545 2.3474
# 6 25.3871 33.4744 25.2950 -7.1143 2.3474 41.6633
#
#
#
# Elastic Compliance Matrix: (Units=1/GPa)
#
#
# Indices 1 2 3 4 5 6 
#
# 1 0.015968 0.010083 -0.001949 0.004256 -0.000299 -0.015904
# 2 0.010083 0.093545 -0.003243 0.029822 -0.016448 -0.073314
# 3 -0.001949 -0.003243 0.007418 0.000501 -0.001598 -0.000535
# 4 0.004256 0.029822 0.000501 0.043285 -0.013080 -0.018730
# 5 -0.000299 -0.016448 -0.001598 -0.013080 0.023456 0.010813
# 6 -0.015904 -0.073314 -0.000535 -0.018730 0.010813 0.089115
#
#
# Mechanical properties :
#
#
# Convention : Reuss Voigt Hill
#
# Bulk Modulus (GPa) = 7.89190 47.72246 27.80718
# Shear Modulus (GPa) = 16.38047 40.57656 28.47852
#
# Velocity S-wave (km/s) = 2.78807 4.38812 3.67621
# Velocity P-wave (km/s) = 3.75627 6.95132 5.58706
#
# Compressibility (1/GPa) = 0.12671219
#
# Stress axis : x y z
#
# Youngs Moduli (GPa) = 62.62675 10.69007 134.80189
#
# Poissons Ratio (x) = -0.10779 0.26276
# Poissons Ratio (y) = -0.63147 0.43717
# Poissons Ratio (z) = 0.12207 0.03467
#
# Static dielectric constant tensor:
#      x y z
#    x 1.768900 -0.016140 0.020770 
#    y -0.016140 1.723420 -0.036640 
#    z 0.020770 -0.036640 1.712550 
# 
# From -- ./inp_files/245154.got.cif
#   From: 2010.05.17/outbox.cif.g08.bks.cpg/sg2_123_cif.got.tgz:245154.got - 2010.06.03 11:33:40.
