data_PCOD9092347
_publ_section_title
;
Structure prediction by ZEFSAII (Michael W. Deem and Ramdas Pophale) SiO2 
 PCOD9092347
Probable space group: P -1
;
_chemical_formula_sum "Si O2"
_cell_formula_units_Z 14
_cell_length_a 8.142830
_cell_length_b 12.185400
_cell_length_c 7.493850
_cell_angle_alpha 79.411350
_cell_angle_beta 109.680778
_cell_angle_gamma 121.104607
_cell_volume 599.425598
_symmetry_space_group_name_H-M "P -1"
_symmetry_group_IT_number 2
_symmetry_cell_setting 'triclinic'
loop_
_space_group_symop_operation_xyz
x,y,z
-x,-y,-z
loop_
_atom_site_type_symbol
_atom_site_label
_atom_site_fract_x
_atom_site_fract_y
_atom_site_fract_z
Si Si1 0.734645 0.206786 0.715073
Si Si2 0.987851 0.183948 0.514337
Si Si3 0.228437 0.557674 0.136523
Si Si4 0.327316 0.097272 0.441081
Si Si5 0.787696 0.704862 0.767022
Si Si6 0.213482 0.003330 0.049037
Si Si7 0.660363 0.741904 0.107590
O O1 0.760208 0.340689 0.745624
O O2 0.503614 0.112287 0.622337
O O3 0.808412 0.136591 0.905920
O O4 0.847397 0.221873 0.565197
O O5 0.011154 0.215341 0.304130
O O6 0.197107 0.255878 0.680542
O O7 0.877353 0.030226 0.546100
O O8 0.259551 0.438978 0.239141
O O9 0.425122 0.641059 0.060718
O O10 0.000000 0.500000 0.000000
O O11 0.332249 0.232507 0.391603
O O12 0.348158 0.069206 0.252080
O O13 0.750886 0.721065 0.959458
O O14 0.314832 0.115312 0.909802
O O15 0.000000 0.000000 0.000000
#
# Coordination Sequence:
#
# PCOD9092347 Si02
#       7
#     2   2   2   2   2   2   2
#     4  11  24  43  69 110 147 181 243 296 355 428
#     4  11  22  44  76 105 143 180 239 302 360 425
#     4  12  29  46  68 101 145 196 245 295 346 428
#     4  10  22  41  71 109 145 179 239 299 353 430
#     4  11  26  44  72 100 142 194 241 280 366 413
#     4  10  19  40  76 104 138 183 226 295 375 414
#     4  11  24  46  73 105 139 187 245 296 352 431
#
# _framework density 23.355692999999999
#
# number of rings (size 3 to 8) (size 9 to 14) (size 15 to 20)
#    0.000    1.143    2.857    4.286    2.000    6.857 
#    0.000    0.000    0.000    0.857    0.000    0.000 
#    0.000    0.000    0.000    0.000    0.000    0.000 
#
# Total GULP energy -77974.116774 kJ/mol
# GULP energy per Si atom -5569.579770 kJ/mol
# Density = 2.330253 g / cm^3
# Si number density = 23.355693 Si / 1000 Ang^3
#
#
#
# Elastic Constant Matrix: (Units=GPa)
#
#
# Indices 1 2 3 4 5 6 
#
# 1 144.1505 48.0560 78.3934 7.8458 6.0940 -1.5597
# 2 48.0560 153.2061 23.9415 -20.3156 4.8622 -36.1380
# 3 78.3934 23.9415 109.2164 12.6770 -5.1213 1.3989
# 4 7.8458 -20.3156 12.6770 31.6031 7.8621 3.7627
# 5 6.0940 4.8622 -5.1213 7.8621 51.7484 13.6349
# 6 -1.5597 -36.1380 1.3989 3.7627 13.6349 67.6768
#
#
#
# Elastic Compliance Matrix: (Units=1/GPa)
#
#
# Indices 1 2 3 4 5 6 
#
# 1 0.012547 -0.002898 -0.008307 -0.001148 -0.001672 -0.000686
# 2 -0.002898 0.010122 -0.001291 0.007927 -0.003421 0.005613
# 3 -0.008307 -0.001291 0.016327 -0.006133 0.004096 -0.001702
# 4 -0.001148 0.007927 -0.006133 0.041140 -0.008455 0.003749
# 5 -0.001672 -0.003421 0.004096 -0.008455 0.023151 -0.006144
# 6 -0.000686 0.005613 -0.001702 0.003749 -0.006144 0.018822
#
#
# Mechanical properties :
#
#
# Convention : Reuss Voigt Hill
#
# Bulk Modulus (GPa) = 71.40902 78.59497 75.00199
# Shear Modulus (GPa) = 32.94493 47.28446 40.11470
#
# Velocity S-wave (km/s) = 3.75984 4.50437 4.14884
# Velocity P-wave (km/s) = 7.03487 7.79595 7.42517
#
# Compressibility (1/GPa) = 0.01400383
#
# Stress axis : x y z
#
# Youngs Moduli (GPa) = 79.70245 98.79805 61.24770
#
# Poissons Ratio (x) = 0.28637 0.50877
# Poissons Ratio (y) = 0.23102 0.07905
# Poissons Ratio (z) = 0.66206 0.12751
#
# Static dielectric constant tensor:
#      x y z
#    x 1.971780 -0.019290 -0.036670 
#    y -0.019290 1.930480 -0.005280 
#    z -0.036670 -0.005280 1.879150 
# 
# From -- ./inp_files/169868.got.cif
#   From: 2010.05.17/outbox.cif.g08.bks.cpg/sg2_85_cif.got.tgz:169868.got - 2010.06.03 11:33:40.
