data_PCOD9092125
_publ_section_title
;
Structure prediction by ZEFSAII (Michael W. Deem and Ramdas Pophale) SiO2 
 PCOD9092125
Probable space group: P -1
;
_chemical_formula_sum "Si O2"
_cell_formula_units_Z 14
_cell_length_a 25.489294
_cell_length_b 32.765276
_cell_length_c 16.056524
_cell_angle_alpha 16.673670
_cell_angle_beta 18.125188
_cell_angle_gamma 9.313430
_cell_volume 618.971885
_symmetry_space_group_name_H-M "P -1"
_symmetry_group_IT_number 2
_symmetry_cell_setting 'triclinic'
loop_
_space_group_symop_operation_xyz
x,y,z
-x,-y,-z
loop_
_atom_site_type_symbol
_atom_site_label
_atom_site_fract_x
_atom_site_fract_y
_atom_site_fract_z
Si Si1 0.372028 0.018772 0.073003
Si Si2 0.023491 0.422876 0.470708
Si Si3 0.489820 0.232406 0.877421
Si Si4 0.180695 0.658459 0.926732
Si Si5 0.735502 0.318928 0.423105
Si Si6 0.305478 0.484086 0.508695
Si Si7 0.231503 0.139673 0.538183
O O1 0.072298 0.128986 0.323146
O O2 0.625048 0.723505 0.229082
O O3 0.209321 0.272060 0.777460
O O4 0.500000 0.000000 0.000000
O O5 0.050142 0.308224 0.569465
O O6 0.408152 0.189008 0.354315
O O7 0.885258 0.427901 0.745469
O O8 0.685999 0.191087 0.724151
O O9 0.233640 0.498855 0.684965
O O10 0.334242 0.215228 0.193140
O O11 0.804771 0.966280 0.866138
O O12 0.339642 0.545429 0.815882
O O13 0.393932 0.621438 0.728753
O O14 0.500000 0.500000 0.500000
O O15 0.015660 0.754446 0.360844
#
# Coordination Sequence:
#
# PCOD9092125 Si02
#       7
#     2   2   2   2   2   2   2
#     4  12  23  41  64 100 124 167 217 275 317 378
#     4  10  23  40  62  92 137 166 212 259 340 373
#     4  10  19  40  66  94 122 170 223 256 313 389
#     4  10  21  42  65  94 125 179 214 259 323 392
#     4  11  22  39  65  95 131 167 216 267 319 381
#     4  11  20  39  70  94 123 169 227 258 309 388
#     4  10  21  39  63  95 128 171 210 264 314 391
#
# _framework density 22.618151000000001
#
# number of rings (size 3 to 8) (size 9 to 14) (size 15 to 20)
#    0.000    1.429    4.286    2.143    0.000    1.143 
#    0.000    0.000    0.000    2.571    0.000    0.000 
#    0.000    0.000    0.000    0.000    0.000    0.000 
#
# Total GULP energy -77949.312223 kJ/mol
# GULP energy per Si atom -5567.808016 kJ/mol
# Density = 2.256667 g / cm^3
# Si number density = 22.618151 Si / 1000 Ang^3
#
#
#
# Elastic Constant Matrix: (Units=GPa)
#
#
# Indices 1 2 3 4 5 6 
#
# 1 119.9841 44.1917 17.7967 16.4043 -17.1729 -16.1146
# 2 44.1917 55.0784 44.1712 7.7233 8.1247 -10.5804
# 3 17.7967 44.1712 36.3103 11.2109 -13.1605 9.5379
# 4 16.4043 7.7233 11.2109 34.5388 0.2990 5.4691
# 5 -17.1729 8.1247 -13.1605 0.2990 36.0723 9.3356
# 6 -16.1146 -10.5804 9.5379 5.4691 9.3356 41.9073
#
#
#
# Elastic Compliance Matrix: (Units=1/GPa)
#
#
# Indices 1 2 3 4 5 6 
#
# 1 0.009839 0.003763 -0.011547 -0.003062 -0.002504 0.008319
# 2 0.003763 -0.018668 0.035395 -0.006838 0.022991 -0.015551
# 3 -0.011547 0.035395 -0.024564 0.003309 -0.026484 0.015555
# 4 -0.003062 -0.006838 0.003309 0.032193 0.003243 -0.008581
# 5 -0.002504 0.022991 -0.026484 0.003243 0.009507 0.008328
# 6 0.008319 -0.015551 0.015555 -0.008581 0.008328 0.018859
#
#
# Mechanical properties :
#
#
# Convention : Reuss Voigt Hill
#
# Bulk Modulus (GPa) = 45.81324 47.07690 46.44507
# Shear Modulus (GPa) = -240.62209 29.51790 -105.55209
#
# Velocity S-wave (km/s) = -10.32548 3.61647 -6.83874
# Velocity P-wave (km/s) = 11.03879 6.18849 6.46365
#
# Compressibility (1/GPa) = 0.02182775
#
# Stress axis : x y z
#
# Youngs Moduli (GPa) = 101.63837 -53.56665 -40.71001
#
# Poissons Ratio (x) = 0.20155 -0.47007
# Poissons Ratio (y) = -0.38243 1.44092
# Poissons Ratio (z) = 1.17359 1.89597
#
# Static dielectric constant tensor:
#      x y z
#    x 1.938900 0.227000 -0.005890 
#    y 0.227000 2.412220 -0.114470 
#    z -0.005890 -0.114470 1.847130 
# 
# From -- ./inp_files/543468.got.cif
#   From: 2010.05.17/outbox.cif.g08.bks.cpg/sg2_272_cif.got.tgz:543468.got - 2010.06.03 11:33:40.
