data_PCOD9092432
_publ_section_title
;
Structure prediction by ZEFSAII (Michael W. Deem and Ramdas Pophale) SiO2 
 PCOD9092432
Probable space group: P -1
;
_chemical_formula_sum "Si O2"
_cell_formula_units_Z 16
_cell_length_a 7.948084
_cell_length_b 12.438979
_cell_length_c 9.630320
_cell_angle_alpha 87.503840
_cell_angle_beta 49.138116
_cell_angle_gamma 105.711334
_cell_volume 660.546455
_symmetry_space_group_name_H-M "P -1"
_symmetry_group_IT_number 2
_symmetry_cell_setting 'triclinic'
loop_
_space_group_symop_operation_xyz
x,y,z
-x,-y,-z
loop_
_atom_site_type_symbol
_atom_site_label
_atom_site_fract_x
_atom_site_fract_y
_atom_site_fract_z
Si Si1 0.346433 0.412839 0.968560
Si Si2 0.923246 0.356946 0.395292
Si Si3 0.216381 0.237913 0.651467
Si Si4 0.381870 0.137992 0.328656
Si Si5 0.925426 0.123013 0.395672
Si Si6 0.299798 0.466724 0.441717
Si Si7 0.714949 0.065515 0.984010
Si Si8 0.781072 0.835138 0.029531
O O1 0.437835 0.484785 0.774398
O O2 0.388136 0.291075 0.942439
O O3 0.500000 0.500000 0.000000
O O4 0.075279 0.379245 0.169343
O O5 0.109019 0.410744 0.421070
O O6 0.816955 0.218507 0.482450
O O7 0.744898 0.422107 0.486074
O O8 0.402846 0.212410 0.451553
O O9 0.246751 0.367570 0.589772
O O10 0.209557 0.206689 0.817737
O O11 0.948453 0.141858 0.762817
O O12 0.627541 0.148408 0.120796
O O13 0.188340 0.158672 0.328139
O O14 0.249849 0.002977 0.452189
O O15 0.984107 0.125005 0.200276
O O16 0.738546 0.954763 0.052761
O O17 0.500000 0.000000 0.000000
#
# Coordination Sequence:
#
# PCOD9092432 Si02
#       8
#     2   2   2   2   2   2   2   2
#     4   9  21  41  65  94 126 171 224 272 317 393
#     4   9  19  36  62  95 122 165 224 275 310 385
#     4  12  26  45  62 102 148 170 212 284 349 389
#     4  11  22  39  68  95 132 176 224 275 323 398
#     4  10  19  41  64  96 133 171 221 278 330 383
#     4  10  21  37  64  90 129 174 214 267 332 392
#     4  12  25  41  71 101 130 181 236 269 321 410
#     4  11  24  44  68  98 143 173 209 289 346 384
#
# _framework density 24.222369
#
# number of rings (size 3 to 8) (size 9 to 14) (size 15 to 20)
#    0.000    1.500    3.750    1.125    1.750    4.000 
#    0.000    2.500    0.000    0.000    0.000    0.000 
#    0.000    0.000    0.000    0.000    0.000    0.000 
#
# Total GULP energy -89453.767817 kJ/mol
# GULP energy per Si atom -5590.860489 kJ/mol
# Density = 2.416724 g / cm^3
# Si number density = 24.222369 Si / 1000 Ang^3
#
#
#
# Elastic Constant Matrix: (Units=GPa)
#
#
# Indices 1 2 3 4 5 6 
#
# 1 38.0051 19.0358 23.5283 0.6721 15.3893 -6.4886
# 2 19.0358 150.7485 44.5352 3.9793 10.1657 -25.4424
# 3 23.5283 44.5352 132.7775 -0.2315 17.8647 -24.3537
# 4 0.6721 3.9793 -0.2315 53.6578 -3.5900 4.5254
# 5 15.3893 10.1657 17.8647 -3.5900 30.2197 -4.1239
# 6 -6.4886 -25.4424 -24.3537 4.5254 -4.1239 30.1700
#
#
#
# Elastic Compliance Matrix: (Units=1/GPa)
#
#
# Indices 1 2 3 4 5 6 
#
# 1 0.036072 -0.002275 -0.003294 -0.001451 -0.015658 0.001258
# 2 -0.002275 0.008296 -0.001332 -0.001076 -0.000213 0.005564
# 3 -0.003294 -0.001332 0.010067 -0.000524 -0.003075 0.005952
# 4 -0.001451 -0.001076 -0.000524 0.019289 0.003142 -0.004106
# 5 -0.015658 -0.000213 -0.003075 0.003142 0.043247 -0.000590
# 6 0.001258 0.005564 0.005952 -0.004106 -0.000590 0.043448
#
#
# Mechanical properties :
#
#
# Convention : Reuss Voigt Hill
#
# Bulk Modulus (GPa) = 24.61151 55.08109 39.84630
# Shear Modulus (GPa) = 26.62897 38.43829 32.53363
#
# Velocity S-wave (km/s) = 3.31925 3.98790 3.66884
# Velocity P-wave (km/s) = 4.98724 6.63277 5.86797
#
# Compressibility (1/GPa) = 0.04063140
#
# Stress axis : x y z
#
# Youngs Moduli (GPa) = 27.72254 120.53641 99.33915
#
# Poissons Ratio (x) = 0.27427 0.32722
# Poissons Ratio (y) = 0.06308 0.13234
# Poissons Ratio (z) = 0.09132 0.16057
#
# Static dielectric constant tensor:
#      x y z
#    x 2.022910 0.039240 0.005100 
#    y 0.039240 1.797000 -0.033230 
#    z 0.005100 -0.033230 1.864030 
# 
# From -- ./inp_files/186456.got.cif
#   From: 2010.05.17/outbox.cif.g08.bks.cpg/sg2_94_cif.got.tgz:186456.got - 2010.06.03 11:33:40.
