data_PCOD9092556
_publ_section_title
;
Structure prediction by ZEFSAII (Michael W. Deem and Ramdas Pophale) SiO2 
 PCOD9092556
Probable space group: P -1
;
_chemical_formula_sum "Si O2"
_cell_formula_units_Z 15
_cell_length_a 11.296029
_cell_length_b 13.575942
_cell_length_c 8.007761
_cell_angle_alpha 57.373397
_cell_angle_beta 126.042384
_cell_angle_gamma 136.247555
_cell_volume 672.213089
_symmetry_space_group_name_H-M "P -1"
_symmetry_group_IT_number 2
_symmetry_cell_setting 'triclinic'
loop_
_space_group_symop_operation_xyz
x,y,z
-x,-y,-z
loop_
_atom_site_type_symbol
_atom_site_label
_atom_site_fract_x
_atom_site_fract_y
_atom_site_fract_z
Si Si1 0.240824 0.486021 0.826209
Si Si2 0.323640 0.090817 0.993410
Si Si3 0.406499 0.383261 0.808456
Si Si4 0.833553 0.292509 0.379636
Si Si5 0.667777 0.273446 0.897770
Si Si6 0.068198 0.775437 0.990557
Si Si7 0.821937 0.598030 0.629300
Si Si8 0.500000 0.000000 0.500000
O O1 0.351248 0.467903 0.796069
O O2 0.200907 0.602184 0.648289
O O3 0.382101 0.542907 0.049131
O O4 0.054051 0.336417 0.862526
O O5 0.426531 0.063492 0.243723
O O6 0.307248 0.215721 0.928902
O O7 0.456331 0.161423 0.874789
O O8 0.137455 0.938430 0.931167
O O9 0.332313 0.382723 0.566494
O O10 0.710572 0.134265 0.501069
O O11 0.038726 0.351411 0.457383
O O12 0.768759 0.296043 0.135299
O O13 0.733582 0.429476 0.742728
O O14 0.747391 0.213523 0.893517
O O15 0.943241 0.700221 0.791395
#
# Coordination Sequence:
#
# PCOD9092556 Si02
#       8
#     2   2   2   2   2   2   2   1
#     4  11  22  45  66  91 136 175 224 266 322 387
#     4  11  24  43  64  97 142 170 215 276 334 387
#     4  11  26  42  63  99 137 175 214 274 332 392
#     4  10  19  41  68  95 127 168 226 269 309 395
#     4  10  19  42  68  96 127 168 221 282 310 385
#     4  11  22  40  71  96 128 175 223 273 320 388
#     4  11  22  41  72 100 125 174 224 270 328 387
#     4  10  22  40  66  92 132 178 206 270 334 378
#
# _framework density 22.314350999999998
#
# number of rings (size 3 to 8) (size 9 to 14) (size 15 to 20)
#    0.000    1.333    5.333    1.200    1.867    4.800 
#    0.000    0.000    2.933    0.000    0.000    0.000 
#    0.000    0.000    0.000    0.000    0.000    0.000 
#
# Total GULP energy -83553.609574 kJ/mol
# GULP energy per Si atom -5570.240638 kJ/mol
# Density = 2.226356 g / cm^3
# Si number density = 22.314351 Si / 1000 Ang^3
#
#
#
# Elastic Constant Matrix: (Units=GPa)
#
#
# Indices 1 2 3 4 5 6 
#
# 1 59.8856 3.4677 -1.4758 -8.7232 -3.1142 11.9815
# 2 3.4677 105.8701 26.5668 -29.3310 -3.2909 18.9628
# 3 -1.4758 26.5668 86.7912 -16.6181 4.7191 18.2800
# 4 -8.7232 -29.3310 -16.6181 30.7806 7.0030 -8.7392
# 5 -3.1142 -3.2909 4.7191 7.0030 22.6855 -3.5793
# 6 11.9815 18.9628 18.2800 -8.7392 -3.5793 37.8294
#
#
#
# Elastic Compliance Matrix: (Units=1/GPa)
#
#
# Indices 1 2 3 4 5 6 
#
# 1 0.018915 0.001768 0.002496 0.006693 -0.000775 -0.006611
# 2 0.001768 0.013743 -0.000751 0.012424 -0.002140 -0.004418
# 3 0.002496 -0.000751 0.014964 0.007659 -0.006264 -0.006468
# 4 0.006693 0.012424 0.007659 0.053581 -0.015594 -0.001146
# 5 -0.000775 -0.002140 -0.006264 -0.015594 0.050654 0.005535
# 6 -0.006611 -0.004418 -0.006468 -0.001146 0.005535 0.034128
#
#
# Mechanical properties :
#
#
# Convention : Reuss Voigt Hill
#
# Bulk Modulus (GPa) = 18.29871 34.40714 26.35292
# Shear Modulus (GPa) = 25.35835 33.19162 29.27499
#
# Velocity S-wave (km/s) = 3.37473 3.86094 3.62599
# Velocity P-wave (km/s) = 4.83770 5.94378 5.41903
#
# Compressibility (1/GPa) = 0.05464867
#
# Stress axis : x y z
#
# Youngs Moduli (GPa) = 52.86856 72.76472 66.82843
#
# Poissons Ratio (x) = -0.12866 -0.16683
# Poissons Ratio (y) = -0.09348 0.05018
# Poissons Ratio (z) = -0.13198 0.05464
#
# Static dielectric constant tensor:
#      x y z
#    x 1.859580 -0.030110 -0.028870 
#    y -0.030110 1.823750 0.085490 
#    z -0.028870 0.085490 1.847400 
# 
# From -- ./inp_files/256539.got.cif
#   From: 2010.05.17/outbox.cif.g08.bks.cpg/sg2_129_cif.got.tgz:256539.got - 2010.06.03 11:33:40.
