data_PCOD9092351
_publ_section_title
;
Structure prediction by ZEFSAII (Michael W. Deem and Ramdas Pophale) SiO2 
 PCOD9092351
Probable space group: P -1
;
_chemical_formula_sum "Si O2"
_cell_formula_units_Z 14
_cell_length_a 11.300268
_cell_length_b 9.356030
_cell_length_c 9.569886
_cell_angle_alpha 54.188430
_cell_angle_beta 115.599122
_cell_angle_gamma 138.428377
_cell_volume 544.417616
_symmetry_space_group_name_H-M "P -1"
_symmetry_group_IT_number 2
_symmetry_cell_setting 'triclinic'
loop_
_space_group_symop_operation_xyz
x,y,z
-x,-y,-z
loop_
_atom_site_type_symbol
_atom_site_label
_atom_site_fract_x
_atom_site_fract_y
_atom_site_fract_z
Si Si1 0.314213 0.001258 0.863128
Si Si2 0.392975 0.245206 0.024572
Si Si3 0.738849 0.247626 0.257903
Si Si4 0.829903 0.673317 0.219865
Si Si5 0.133777 0.546866 0.236924
Si Si6 0.693690 0.635195 0.460112
Si Si7 0.794602 0.152002 0.641087
O O1 0.397112 0.963720 0.799700
O O2 0.227702 0.097824 0.688748
O O3 0.218285 0.772305 0.049189
O O4 0.448066 0.219324 0.917761
O O5 0.367308 0.080669 0.225175
O O6 0.500000 0.500000 0.000000
O O7 0.197483 0.153246 0.947660
O O8 0.767894 0.478073 0.180956
O O9 0.732931 0.148354 0.459846
O O10 0.922731 0.358216 0.211820
O O11 0.699322 0.549470 0.358671
O O12 0.028061 0.807230 0.295355
O O13 0.210272 0.418123 0.357712
O O14 0.148085 0.635799 0.351493
O O15 0.500000 0.500000 0.500000
#
# Coordination Sequence:
#
# PCOD9092351 Si02
#       7
#     2   2   2   2   2   2   2
#     4  10  25  42  66 101 135 178 226 280 346 397
#     4  10  23  44  65  97 141 183 222 276 342 417
#     4  11  20  41  70 106 128 171 230 289 339 396
#     4  10  20  43  69  98 133 174 232 283 331 412
#     4  10  20  44  69  98 142 177 223 283 341 413
#     4  11  23  43  66  96 139 184 229 277 336 410
#     4  10  19  40  77  99 126 181 229 276 343 399
#
# _framework density 25.715551999999999
#
# number of rings (size 3 to 8) (size 9 to 14) (size 15 to 20)
#    0.000    1.714    2.857    1.714    0.000    4.571 
#   12.857    1.429    0.000    0.000    0.000    0.000 
#    0.000    0.000    0.000    0.000    0.000    0.000 
#
# Total GULP energy -78148.295485 kJ/mol
# GULP energy per Si atom -5582.021106 kJ/mol
# Density = 2.565702 g / cm^3
# Si number density = 25.715552 Si / 1000 Ang^3
#
#
#
# Elastic Constant Matrix: (Units=GPa)
#
#
# Indices 1 2 3 4 5 6 
#
# 1 130.8744 11.6193 47.9575 2.8530 19.6977 -18.6357
# 2 11.6193 84.4130 30.7485 11.2702 -13.7962 -30.8119
# 3 47.9575 30.7485 163.1231 -6.3655 -3.3452 -21.7249
# 4 2.8530 11.2702 -6.3655 43.6807 -17.8758 -11.3218
# 5 19.6977 -13.7962 -3.3452 -17.8758 56.8928 0.8310
# 6 -18.6357 -30.8119 -21.7249 -11.3218 0.8310 33.2598
#
#
#
# Elastic Compliance Matrix: (Units=1/GPa)
#
#
# Indices 1 2 3 4 5 6 
#
# 1 0.009729 0.000571 -0.002624 -0.001839 -0.004017 0.003741
# 2 0.000571 0.019242 -0.001313 0.001214 0.004516 0.017589
# 3 -0.002624 -0.001313 0.007792 0.003400 0.002065 0.003509
# 4 -0.001839 0.001214 0.003400 0.030791 0.010623 0.012531
# 5 -0.004017 0.004516 0.002065 0.010623 0.023430 0.006312
# 6 0.003741 0.017589 0.003509 0.012531 0.006312 0.054856
#
#
# Mechanical properties :
#
#
# Convention : Reuss Voigt Hill
#
# Bulk Modulus (GPa) = 33.29791 62.11792 47.70791
# Shear Modulus (GPa) = 30.75387 45.97234 38.36310
#
# Velocity S-wave (km/s) = 3.46197 4.23274 3.86661
# Velocity P-wave (km/s) = 5.38117 6.93515 6.20698
#
# Compressibility (1/GPa) = 0.03003191
#
# Stress axis : x y z
#
# Youngs Moduli (GPa) = 102.78528 51.96914 128.34404
#
# Poissons Ratio (x) = -0.02968 0.33676
# Poissons Ratio (y) = -0.05870 0.16846
# Poissons Ratio (z) = 0.26970 0.06821
#
# Static dielectric constant tensor:
#      x y z
#    x 2.085130 0.040070 0.070770 
#    y 0.040070 2.128330 0.040200 
#    z 0.070770 0.040200 2.060250 
# 
# From -- ./inp_files/242665.got.cif
#   From: 2010.05.17/outbox.cif.g08.bks.cpg/sg2_122_cif.got.tgz:242665.got - 2010.06.03 11:33:40.
