data_PCOD9092260
_publ_section_title
;
Structure prediction by ZEFSAII (Michael W. Deem and Ramdas Pophale) SiO2 
 PCOD9092260
Probable space group: P -1
;
_chemical_formula_sum "Si O2"
_cell_formula_units_Z 12
_cell_length_a 16.247932
_cell_length_b 5.161799
_cell_length_c 11.243425
_cell_angle_alpha 62.526850
_cell_angle_beta 148.073046
_cell_angle_gamma 107.926795
_cell_volume 435.336667
_symmetry_space_group_name_H-M "P -1"
_symmetry_group_IT_number 2
_symmetry_cell_setting 'triclinic'
loop_
_space_group_symop_operation_xyz
x,y,z
-x,-y,-z
loop_
_atom_site_type_symbol
_atom_site_label
_atom_site_fract_x
_atom_site_fract_y
_atom_site_fract_z
Si Si1 0.686465 0.443122 0.260669
Si Si2 0.739532 0.471316 0.716039
Si Si3 0.224895 0.928989 0.781249
Si Si4 0.596657 0.621768 0.748401
Si Si5 0.911282 0.281286 0.756340
Si Si6 0.857404 0.893699 0.117679
O O1 0.721695 0.770875 0.259699
O O2 0.755454 0.242010 0.499542
O O3 0.774186 0.281274 0.287312
O O4 0.500000 0.500000 0.000000
O O5 0.667372 0.679317 0.692117
O O6 0.588628 0.348998 0.504289
O O7 0.844902 0.529326 0.720916
O O8 0.847166 0.208904 0.976277
O O9 0.098766 0.063156 0.701161
O O10 0.348251 0.712489 0.064071
O O11 0.684154 0.806572 0.907798
O O12 0.027914 0.332349 0.780116
O O13 0.000000 0.000000 0.000000
#
# Coordination Sequence:
#
# PCOD9092260 Si02
#       6
#     2   2   2   2   2   2
#     4  12  26  49  74 107 141 187 236 295 350 418
#     4   9  20  38  65 101 142 191 239 288 346 424
#     4  11  24  45  73 101 139 183 241 288 351 417
#     4  10  19  40  69 103 139 188 239 292 350 414
#     4  10  24  47  66 106 146 188 234 290 357 420
#     4  10  21  41  68 101 142 186 234 293 355 416
#
# _framework density 27.564871
#
# number of rings (size 3 to 8) (size 9 to 14) (size 15 to 20)
#    0.000    1.667    1.667    2.000    0.000    2.000 
#   21.000    0.000    0.000    0.000    0.000    0.000 
#    0.000    0.000    0.000    0.000    0.000    0.000 
#
# Total GULP energy -67002.331635 kJ/mol
# GULP energy per Si atom -5583.527636 kJ/mol
# Density = 2.750213 g / cm^3
# Si number density = 27.564871 Si / 1000 Ang^3
#
#
#
# Elastic Constant Matrix: (Units=GPa)
#
#
# Indices 1 2 3 4 5 6 
#
# 1 135.1112 29.1958 62.1062 8.9588 -28.9055 -38.2597
# 2 29.1958 122.1822 36.1281 2.8317 -16.5467 -27.8906
# 3 62.1062 36.1281 163.1333 6.8488 -12.2174 -11.5256
# 4 8.9588 2.8317 6.8488 41.1301 -5.6480 -17.0256
# 5 -28.9055 -16.5467 -12.2174 -5.6480 46.8171 8.5037
# 6 -38.2597 -27.8906 -11.5256 -17.0256 8.5037 32.2735
#
#
#
# Elastic Compliance Matrix: (Units=1/GPa)
#
#
# Indices 1 2 3 4 5 6 
#
# 1 0.016500 0.003598 -0.005261 0.007463 0.006821 0.022931
# 2 0.003598 0.012175 -0.002921 0.005955 0.003585 0.015941
# 3 -0.005261 -0.002921 0.008318 -0.003159 -0.001194 -0.007143
# 4 0.007463 0.005955 -0.003159 0.036157 0.004673 0.030710
# 5 0.006821 0.003585 -0.001194 0.004673 0.025930 0.006391
# 6 0.022931 0.015941 -0.007143 0.030710 0.006391 0.083912
#
#
# Mechanical properties :
#
#
# Convention : Reuss Voigt Hill
#
# Bulk Modulus (GPa) = 35.93890 75.03188 55.48539
# Shear Modulus (GPa) = 24.82190 43.57723 34.19957
#
# Velocity S-wave (km/s) = 3.00407 3.98036 3.52617
# Velocity P-wave (km/s) = 5.00987 6.95727 6.06228
#
# Compressibility (1/GPa) = 0.02782500
#
# Stress axis : x y z
#
# Youngs Moduli (GPa) = 60.60609 82.13623 120.21535
#
# Poissons Ratio (x) = -0.29554 0.63244
# Poissons Ratio (y) = -0.21807 0.35120
# Poissons Ratio (z) = 0.31884 0.23996
#
# Static dielectric constant tensor:
#      x y z
#    x 2.229540 -0.008790 0.047290 
#    y -0.008790 2.137390 -0.011730 
#    z 0.047290 -0.011730 2.200110 
# 
# From -- ./inp_files/408275.got.cif
#   From: 2010.05.17/outbox.cif.g08.bks.cpg/sg2_205_cif.got.tgz:408275.got - 2010.06.03 11:33:40.
