data_PCOD9092063
_publ_section_title
;
Structure prediction by ZEFSAII (Michael W. Deem and Ramdas Pophale) SiO2 
 PCOD9092063
Probable space group: P -1
;
_chemical_formula_sum "Si O2"
_cell_formula_units_Z 14
_cell_length_a 11.161259
_cell_length_b 10.991938
_cell_length_c 7.727880
_cell_angle_alpha 106.500845
_cell_angle_beta 51.001269
_cell_angle_gamma 129.997721
_cell_volume 552.777096
_symmetry_space_group_name_H-M "P -1"
_symmetry_group_IT_number 2
_symmetry_cell_setting 'triclinic'
loop_
_space_group_symop_operation_xyz
x,y,z
-x,-y,-z
loop_
_atom_site_type_symbol
_atom_site_label
_atom_site_fract_x
_atom_site_fract_y
_atom_site_fract_z
Si Si1 0.627668 0.729605 0.127388
Si Si2 0.255883 0.783776 0.882101
Si Si3 0.871155 0.158912 0.657567
Si Si4 0.657335 0.851369 0.505508
Si Si5 0.257495 0.652985 0.342559
Si Si6 0.050250 0.455875 0.152903
Si Si7 0.316206 0.346145 0.326203
O O1 0.730016 0.829364 0.249537
O O2 0.485044 0.771341 0.217902
O O3 0.470924 0.540021 0.249593
O O4 0.718451 0.729963 0.865327
O O5 0.469259 0.849595 0.648725
O O6 0.074369 0.720969 0.890865
O O7 0.260325 0.889926 0.071068
O O8 0.166355 0.609175 0.982517
O O9 0.817170 0.253845 0.630347
O O10 0.097572 0.272070 0.554405
O O11 0.817361 0.011440 0.532097
O O12 0.599208 0.709680 0.633941
O O13 0.132549 0.568162 0.594428
O O14 0.202129 0.515742 0.197117
#
# Coordination Sequence:
#
# PCOD9092063 Si02
#       7
#     2   2   2   2   2   2   2
#     4  11  24  45  70  97 124 171 226 268 320 372
#     4  10  20  37  64  95 126 162 218 266 318 376
#     4  11  25  42  64  96 135 171 209 262 334 387
#     4  12  25  45  65  96 136 174 212 262 326 396
#     4  10  19  40  65  95 131 157 217 277 316 378
#     4   9  17  32  62  95 121 156 205 273 316 358
#     4  11  25  46  66  92 134 173 219 268 314 388
#
# _framework density 25.326664000000001
#
# number of rings (size 3 to 8) (size 9 to 14) (size 15 to 20)
#    0.000    1.429    1.429    5.571    2.000    2.286 
#   10.286    0.000    0.000    0.000    0.000    0.000 
#    0.000    0.000    0.000    0.000    0.000    0.000 
#
# Total GULP energy -78202.330555 kJ/mol
# GULP energy per Si atom -5585.880754 kJ/mol
# Density = 2.526902 g / cm^3
# Si number density = 25.326664 Si / 1000 Ang^3
#
#
#
# Elastic Constant Matrix: (Units=GPa)
#
#
# Indices 1 2 3 4 5 6 
#
# 1 59.8215 17.6808 15.0728 13.8640 5.6265 2.2297
# 2 17.6808 51.1736 5.8113 15.1883 9.5622 14.7426
# 3 15.0728 5.8113 84.1875 17.5795 12.7672 -1.0267
# 4 13.8640 15.1883 17.5795 37.5320 17.4554 10.2000
# 5 5.6265 9.5622 12.7672 17.4554 37.0890 15.0967
# 6 2.2297 14.7426 -1.0267 10.2000 15.0967 30.8417
#
#
#
# Elastic Compliance Matrix: (Units=1/GPa)
#
#
# Indices 1 2 3 4 5 6 
#
# 1 0.020061 -0.006126 -0.002184 -0.004876 0.000442 0.002801
# 2 -0.006126 0.026314 0.000241 -0.006211 0.001356 -0.010737
# 3 -0.002184 0.000241 0.013953 -0.005187 -0.003743 0.004055
# 4 -0.004876 -0.006211 -0.005187 0.040676 -0.013516 -0.003688
# 5 0.000442 0.001356 -0.003743 -0.013516 0.040840 -0.016325
# 6 0.002801 -0.010737 0.004055 -0.003688 -0.016325 0.046699
#
#
# Mechanical properties :
#
#
# Convention : Reuss Voigt Hill
#
# Bulk Modulus (GPa) = 22.62932 30.25693 26.44312
# Shear Modulus (GPa) = 22.78828 31.53372 27.16100
#
# Velocity S-wave (km/s) = 3.00288 3.53240 3.27835
# Velocity P-wave (km/s) = 4.58011 5.34880 4.97931
#
# Compressibility (1/GPa) = 0.04419046
#
# Stress axis : x y z
#
# Youngs Moduli (GPa) = 49.84775 38.00287 71.66978
#
# Poissons Ratio (x) = 0.23280 0.15650
# Poissons Ratio (y) = 0.30536 -0.01726
# Poissons Ratio (z) = 0.10885 -0.00915
#
# Static dielectric constant tensor:
#      x y z
#    x 2.045950 0.017950 0.055900 
#    y 0.017950 2.067480 0.054090 
#    z 0.055900 0.054090 2.000750 
# 
# From -- ./inp_files/262767.got.cif
#   From: 2010.05.17/outbox.cif.g08.bks.cpg/sg2_132_cif.got.tgz:262767.got - 2010.06.03 11:33:40.
