data_PCOD9092297
_publ_section_title
;
Structure prediction by ZEFSAII (Michael W. Deem and Ramdas Pophale) SiO2 
 PCOD9092297
Probable space group: P -1
;
_chemical_formula_sum "Si O2"
_cell_formula_units_Z 16
_cell_length_a 10.702977
_cell_length_b 7.727790
_cell_length_c 14.001845
_cell_angle_alpha 99.476463
_cell_angle_beta 68.327084
_cell_angle_gamma 138.110318
_cell_volume 707.155425
_symmetry_space_group_name_H-M "P -1"
_symmetry_group_IT_number 2
_symmetry_cell_setting 'triclinic'
loop_
_space_group_symop_operation_xyz
x,y,z
-x,-y,-z
loop_
_atom_site_type_symbol
_atom_site_label
_atom_site_fract_x
_atom_site_fract_y
_atom_site_fract_z
Si Si1 0.226007 0.137041 0.835153
Si Si2 0.021852 0.011665 0.689874
Si Si3 0.608730 0.682351 0.763387
Si Si4 0.703395 0.165128 0.515730
Si Si5 0.966623 0.528339 0.866700
Si Si6 0.230105 0.517659 0.903381
Si Si7 0.106898 0.516197 0.330917
Si Si8 0.697590 0.749649 0.522929
O O1 0.465734 0.381996 0.811388
O O2 0.146964 0.238115 0.917087
O O3 0.113956 0.844751 0.853316
O O4 0.193023 0.159658 0.735154
O O5 0.824378 0.921687 0.772869
O O6 0.934762 0.731138 0.678234
O O7 0.118709 0.166384 0.576816
O O8 0.457708 0.698998 0.821509
O O9 0.666833 0.700693 0.639164
O O10 0.718872 0.273227 0.623563
O O11 0.901448 0.406230 0.419847
O O12 0.500000 0.000000 0.500000
O O13 0.722266 0.978755 0.515992
O O14 0.103439 0.499163 0.858774
O O15 0.873435 0.413977 0.778290
O O16 0.800626 0.406199 0.983479
O O17 0.500000 0.500000 0.500000
#
# Coordination Sequence:
#
# PCOD9092297 Si02
#       8
#     2   2   2   2   2   2   2   2
#     4   9  20  38  63  91 124 167 210 261 320 372
#     4  10  20  39  62  86 128 166 207 264 313 387
#     4  10  22  37  58  93 124 161 217 254 317 378
#     4  10  23  39  62  88 127 156 207 262 309 388
#     4  10  19  40  70  88 132 170 212 268 314 378
#     4   9  21  38  66  97 121 173 219 257 322 372
#     4   9  22  39  61  94 118 170 205 253 328 368
#     4  11  21  38  59  91 120 167 207 251 324 375
#
# _framework density 22.625858999999998
#
# number of rings (size 3 to 8) (size 9 to 14) (size 15 to 20)
#    0.750    1.500    1.250    0.750    3.500    1.000 
#    2.250    2.500    2.750    2.250    0.000    0.000 
#    0.000    0.000    0.000    0.000    0.000    0.000 
#
# Total GULP energy -89244.402815 kJ/mol
# GULP energy per Si atom -5577.775176 kJ/mol
# Density = 2.257436 g / cm^3
# Si number density = 22.625859 Si / 1000 Ang^3
#
#
#
# Elastic Constant Matrix: (Units=GPa)
#
#
# Indices 1 2 3 4 5 6 
#
# 1 82.9815 23.7191 34.1448 -7.4978 -11.6186 11.6932
# 2 23.7191 64.1700 10.9289 6.7197 -4.1329 11.7908
# 3 34.1448 10.9289 91.4464 -0.4268 2.7676 21.4614
# 4 -7.4978 6.7197 -0.4268 25.7068 5.8712 0.9653
# 5 -11.6186 -4.1329 2.7676 5.8712 31.7537 1.0799
# 6 11.6932 11.7908 21.4614 0.9653 1.0799 37.5100
#
#
#
# Elastic Compliance Matrix: (Units=1/GPa)
#
#
# Indices 1 2 3 4 5 6 
#
# 1 0.017288 -0.005504 -0.005780 0.005229 0.005168 -0.000635
# 2 -0.005504 0.019174 0.000761 -0.006851 0.001839 -0.004623
# 3 -0.005780 0.000761 0.014667 -0.000719 -0.002933 -0.006726
# 4 0.005229 -0.006851 -0.000719 0.043806 -0.007016 0.000010
# 5 0.005168 0.001839 -0.002933 -0.007016 0.035221 -0.001345
# 6 -0.000635 -0.004623 -0.006726 0.000010 -0.001345 0.032198
#
#
# Mechanical properties :
#
#
# Convention : Reuss Voigt Hill
#
# Bulk Modulus (GPa) = 33.24206 41.79817 37.52011
# Shear Modulus (GPa) = 25.84959 30.31443 28.08201
#
# Velocity S-wave (km/s) = 3.38373 3.66432 3.52681
# Velocity P-wave (km/s) = 5.47632 6.03462 5.76224
#
# Compressibility (1/GPa) = 0.03008238
#
# Stress axis : x y z
#
# Youngs Moduli (GPa) = 57.84368 52.15468 68.18232
#
# Poissons Ratio (x) = 0.28704 0.39411
# Poissons Ratio (y) = 0.31835 -0.05188
# Poissons Ratio (z) = 0.33435 -0.03968
#
# Static dielectric constant tensor:
#      x y z
#    x 1.913980 -0.016340 -0.056850 
#    y -0.016340 1.892130 0.013590 
#    z -0.056850 0.013590 1.890470 
# 
# From -- ./inp_files/514442.got.cif
#   From: 2010.05.17/outbox.cif.g08.bks.cpg/sg2_258_cif.got.tgz:514442.got - 2010.06.03 11:33:40.
