data_PCOD9092430
_publ_section_title
;
Structure prediction by ZEFSAII (Michael W. Deem and Ramdas Pophale) SiO2 
 PCOD9092430
Probable space group: P -1
;
_chemical_formula_sum "Si O2"
_cell_formula_units_Z 16
_cell_length_a 9.138293
_cell_length_b 15.761851
_cell_length_c 14.106723
_cell_angle_alpha 42.116536
_cell_angle_beta 26.350214
_cell_angle_gamma 48.241491
_cell_volume 604.821343
_symmetry_space_group_name_H-M "P -1"
_symmetry_group_IT_number 2
_symmetry_cell_setting 'triclinic'
loop_
_space_group_symop_operation_xyz
x,y,z
-x,-y,-z
loop_
_atom_site_type_symbol
_atom_site_label
_atom_site_fract_x
_atom_site_fract_y
_atom_site_fract_z
Si Si1 0.838074 0.870625 0.241061
Si Si2 0.234477 0.272143 0.205874
Si Si3 0.612374 0.459379 0.194519
Si Si4 0.852103 0.723888 0.033393
Si Si5 0.833180 0.620524 0.319851
Si Si6 0.457856 0.684642 0.817455
Si Si7 0.296114 0.902891 0.402343
Si Si8 0.369725 0.880012 0.050258
O O1 0.886660 0.748210 0.246092
O O2 0.452986 0.889910 0.425573
O O3 0.982700 0.859091 0.272577
O O4 0.000000 0.000000 0.000000
O O5 0.490543 0.179953 0.079586
O O6 0.306695 0.408218 0.008601
O O7 0.873642 0.223335 0.429447
O O8 0.302925 0.266944 0.281678
O O9 0.949751 0.374915 0.068434
O O10 0.682247 0.648264 0.280774
O O11 0.399965 0.382773 0.302100
O O12 0.398617 0.464013 0.409973
O O13 0.171315 0.778162 0.862285
O O14 0.592859 0.809250 0.056928
O O15 0.205358 0.586524 0.100169
O O16 0.545124 0.971004 0.128663
O O17 0.000000 0.000000 0.500000
#
# Coordination Sequence:
#
# PCOD9092430 Si02
#       8
#     2   2   2   2   2   2   2   2
#     4  10  20  40  67  92 129 176 226 278 331 397
#     4  11  19  39  66  97 136 176 221 279 340 394
#     4   9  21  37  70  97 135 181 223 272 337 396
#     4   8  21  39  64  96 140 167 228 278 316 408
#     4   9  19  41  62  94 136 175 217 279 334 388
#     4   8  20  39  63  97 139 168 226 279 320 408
#     4   9  22  35  66 102 128 173 224 274 341 401
#     4  10  19  41  64  95 132 178 222 279 334 395
#
# _framework density 26.454091999999999
#
# number of rings (size 3 to 8) (size 9 to 14) (size 15 to 20)
#    1.500    1.000    1.250    0.375    3.500    1.000 
#    0.000    6.250    2.750    0.000    0.000    0.875 
#    0.000    0.000    0.000    0.000    0.000    0.000 
#
# Total GULP energy -89220.645891 kJ/mol
# GULP energy per Si atom -5576.290368 kJ/mol
# Density = 2.639388 g / cm^3
# Si number density = 26.454092 Si / 1000 Ang^3
#
#
#
# Elastic Constant Matrix: (Units=GPa)
#
#
# Indices 1 2 3 4 5 6 
#
# 1 223.9938 37.7584 83.3356 -4.2461 -2.8875 -38.9152
# 2 37.7584 68.6065 41.2896 -3.8703 5.0225 -14.1250
# 3 83.3356 41.2896 114.3636 -18.1840 -6.5738 -17.6544
# 4 -4.2461 -3.8703 -18.1840 37.8051 0.4645 -2.2453
# 5 -2.8875 5.0225 -6.5738 0.4645 55.1229 13.4087
# 6 -38.9152 -14.1250 -17.6544 -2.2453 13.4087 48.4126
#
#
#
# Elastic Compliance Matrix: (Units=1/GPa)
#
#
# Indices 1 2 3 4 5 6 
#
# 1 0.006860 -0.000176 -0.004563 -0.001187 -0.001147 0.004061
# 2 -0.000176 0.019789 -0.006736 -0.000944 -0.003613 0.004133
# 3 -0.004563 -0.006736 0.015579 0.006247 0.002249 -0.000285
# 4 -0.001187 -0.000944 0.006247 0.029371 -0.000070 0.002430
# 5 -0.001147 -0.003613 0.002249 -0.000070 0.020331 -0.006790
# 6 0.004061 0.004133 -0.000285 0.002430 -0.006790 0.027016
#
#
# Mechanical properties :
#
#
# Convention : Reuss Voigt Hill
#
# Bulk Modulus (GPa) = 51.87197 81.30345 66.58771
# Shear Modulus (GPa) = 33.71036 44.57348 39.14192
#
# Velocity S-wave (km/s) = 3.57360 4.10925 3.85075
# Velocity P-wave (km/s) = 6.05627 7.30172 6.70796
#
# Compressibility (1/GPa) = 0.01927823
#
# Stress axis : x y z
#
# Youngs Moduli (GPa) = 145.77164 50.53354 64.18703
#
# Poissons Ratio (x) = 0.00891 0.29288
# Poissons Ratio (y) = 0.02569 0.43236
# Poissons Ratio (z) = 0.66514 0.34039
#
# Static dielectric constant tensor:
#      x y z
#    x 2.112980 -0.046330 -0.033200 
#    y -0.046330 2.146220 0.029170 
#    z -0.033200 0.029170 2.252060 
# 
# From -- ./inp_files/562386.got.cif
#   From: 2010.05.17/outbox.cif.g08.bks.cpg/sg2_282_cif.got.tgz:562386.got - 2010.06.03 11:33:40.
