data_PCOD9092505
_publ_section_title
;
Structure prediction by ZEFSAII (Michael W. Deem and Ramdas Pophale) SiO2 
 PCOD9092505
Probable space group: P -1
;
_chemical_formula_sum "Si O2"
_cell_formula_units_Z 16
_cell_length_a 8.957422
_cell_length_b 16.469982
_cell_length_c 16.396348
_cell_angle_alpha 30.363674
_cell_angle_beta 69.242130
_cell_angle_gamma 46.703160
_cell_volume 680.064487
_symmetry_space_group_name_H-M "P -1"
_symmetry_group_IT_number 2
_symmetry_cell_setting 'triclinic'
loop_
_space_group_symop_operation_xyz
x,y,z
-x,-y,-z
loop_
_atom_site_type_symbol
_atom_site_label
_atom_site_fract_x
_atom_site_fract_y
_atom_site_fract_z
Si Si1 0.816256 0.246284 0.165777
Si Si2 0.349084 0.217058 0.504020
Si Si3 0.487659 0.528138 0.379803
Si Si4 0.777864 0.993979 0.828827
Si Si5 0.292017 0.172219 0.732595
Si Si6 0.032413 0.705760 0.589311
Si Si7 0.977467 0.203135 0.876870
Si Si8 0.042907 0.293064 0.213968
O O1 0.951411 0.245038 0.068568
O O2 0.903644 0.264361 0.215156
O O3 0.906832 0.986819 0.369862
O O4 0.500000 0.500000 0.000000
O O5 0.380789 0.092787 0.690489
O O6 0.159104 0.265272 0.442341
O O7 0.199212 0.504072 0.306754
O O8 0.638790 0.001725 0.593953
O O9 0.500000 0.500000 0.500000
O O10 0.227854 0.730318 0.197462
O O11 0.694085 0.496267 0.339271
O O12 0.625210 0.242970 0.583520
O O13 0.546904 0.047376 0.836619
O O14 0.874987 0.976592 0.913751
O O15 0.000000 0.500000 0.500000
O O16 0.200792 0.092050 0.868999
O O17 0.070637 0.618166 0.749955
O O18 0.000000 0.500000 0.000000
#
# Coordination Sequence:
#
# PCOD9092505 Si02
#       8
#     2   2   2   2   2   2   2   2
#     4  11  25  45  68  98 143 180 226 293 354 418
#     4  11  22  43  69  96 137 179 232 295 349 407
#     4  11  24  47  66 100 146 182 228 291 354 423
#     4  11  23  42  69 106 129 185 240 281 351 422
#     4  10  19  41  67 100 133 177 224 292 345 404
#     4  11  26  42  69 101 135 184 232 288 360 412
#     4  11  24  40  75  98 137 183 235 287 354 419
#     4  12  26  45  68 101 138 183 244 288 347 423
#
# _framework density 23.527180999999999
#
# number of rings (size 3 to 8) (size 9 to 14) (size 15 to 20)
#    0.000    1.000    3.750    3.375    7.000    0.500 
#    2.250    0.000    0.000    0.000    0.000    0.000 
#    0.000    0.000    0.000    0.000    0.000    0.000 
#
# Total GULP energy -89424.345157 kJ/mol
# GULP energy per Si atom -5589.021572 kJ/mol
# Density = 2.347363 g / cm^3
# Si number density = 23.527181 Si / 1000 Ang^3
#
#
#
# Elastic Constant Matrix: (Units=GPa)
#
#
# Indices 1 2 3 4 5 6 
#
# 1 189.2473 57.8797 55.0962 1.0739 54.2613 4.5837
# 2 57.8797 122.6578 35.6618 33.5636 29.9571 -8.4875
# 3 55.0962 35.6618 134.5686 6.7909 22.9570 -7.3484
# 4 1.0739 33.5636 6.7909 34.2478 4.5067 12.4406
# 5 54.2613 29.9571 22.9570 4.5067 50.6665 2.1178
# 6 4.5837 -8.4875 -7.3484 12.4406 2.1178 53.6499
#
#
#
# Elastic Compliance Matrix: (Units=1/GPa)
#
#
# Indices 1 2 3 4 5 6 
#
# 1 0.009015 -0.003705 -0.001948 0.005614 -0.006970 -0.002650
# 2 -0.003705 0.016599 -0.000873 -0.018037 -0.004146 0.007169
# 3 -0.001948 -0.000873 0.008840 -0.001231 -0.001360 0.001578
# 4 0.005614 -0.018037 -0.001231 0.052497 0.001197 -0.015722
# 5 -0.006970 -0.004146 -0.001360 0.001197 0.030234 -0.001718
# 6 -0.002650 0.007169 0.001578 -0.015722 -0.001718 0.023930
#
#
# Mechanical properties :
#
#
# Convention : Reuss Voigt Hill
#
# Bulk Modulus (GPa) = 46.72350 82.63882 64.68116
# Shear Modulus (GPa) = 30.99761 47.56856 39.28309
#
# Velocity S-wave (km/s) = 3.63371 4.50138 4.09062
# Velocity P-wave (km/s) = 6.12434 7.88782 7.06135
#
# Compressibility (1/GPa) = 0.02140251
#
# Stress axis : x y z
#
# Youngs Moduli (GPa) = 110.92318 60.24381 113.11768
#
# Poissons Ratio (x) = 0.22321 0.22037
# Poissons Ratio (y) = 0.41098 0.09874
# Poissons Ratio (z) = 0.21610 0.05259
#
# Static dielectric constant tensor:
#      x y z
#    x 1.865370 0.028380 -0.049850 
#    y 0.028380 2.025610 -0.165270 
#    z -0.049850 -0.165270 2.096450 
# 
# From -- ./inp_files/505265.got.cif
#   From: 2010.05.17/outbox.cif.g08.bks.cpg/sg2_253_cif.got.tgz:505265.got - 2010.06.03 11:33:40.
