data_PCOD9092689
_publ_section_title
;
Structure prediction by ZEFSAII (Michael W. Deem and Ramdas Pophale) SiO2 
 PCOD9092689
Probable space group: P -1
;
_chemical_formula_sum "Si O2"
_cell_formula_units_Z 16
_cell_length_a 8.042060
_cell_length_b 13.029062
_cell_length_c 11.126440
_cell_angle_alpha 42.505547
_cell_angle_beta 93.224939
_cell_angle_gamma 118.308084
_cell_volume 603.323391
_symmetry_space_group_name_H-M "P -1"
_symmetry_group_IT_number 2
_symmetry_cell_setting 'triclinic'
loop_
_space_group_symop_operation_xyz
x,y,z
-x,-y,-z
loop_
_atom_site_type_symbol
_atom_site_label
_atom_site_fract_x
_atom_site_fract_y
_atom_site_fract_z
Si Si1 0.750566 0.637973 0.058517
Si Si2 0.343124 0.271563 0.279526
Si Si3 0.637136 0.762380 0.170915
Si Si4 0.837808 0.511448 0.846340
Si Si5 0.225825 0.941144 0.898472
Si Si6 0.440093 0.055161 0.203200
Si Si7 0.177051 0.603564 0.316135
Si Si8 0.247933 0.895304 0.570052
O O1 0.596597 0.408041 0.211562
O O2 0.689769 0.653490 0.179233
O O3 0.008985 0.781198 0.952913
O O4 0.691390 0.712580 0.877709
O O5 0.262284 0.376639 0.251111
O O6 0.222659 0.045711 0.499073
O O7 0.390796 0.626658 0.327545
O O8 0.641474 0.899548 0.953453
O O9 0.781006 0.901950 0.168524
O O10 0.906068 0.504135 0.722028
O O11 0.643670 0.279089 0.065253
O O12 0.059550 0.669569 0.790830
O O13 0.237711 0.813177 0.108225
O O14 0.443401 0.034422 0.751001
O O15 0.248438 0.924362 0.401760
O O16 0.000000 0.500000 0.500000
O O17 0.500000 0.000000 0.500000
#
# Coordination Sequence:
#
# PCOD9092689 Si02
#       8
#     2   2   2   2   2   2   2   2
#     4  11  21  40  69  94 124 182 216 267 333 384
#     4  11  22  44  63  91 136 170 217 269 326 398
#     4  10  19  42  63  97 124 167 225 258 333 394
#     4  10  23  44  66  95 129 179 215 261 338 390
#     4  10  23  36  67  95 128 165 225 270 322 394
#     4  10  21  44  63  98 130 173 213 271 331 392
#     4  10  22  40  65  93 131 173 209 273 334 383
#     4  12  27  39  68  99 128 171 226 274 323 396
#
# _framework density 26.519777000000001
#
# number of rings (size 3 to 8) (size 9 to 14) (size 15 to 20)
#    0.000    1.750    3.750    3.000    8.750    0.500 
#    0.000    0.625    0.000    0.000    0.000    0.000 
#    0.000    0.000    0.000    0.000    0.000    0.000 
#
# Total GULP energy -89388.365926 kJ/mol
# GULP energy per Si atom -5586.772870 kJ/mol
# Density = 2.645942 g / cm^3
# Si number density = 26.519777 Si / 1000 Ang^3
#
#
#
# Elastic Constant Matrix: (Units=GPa)
#
#
# Indices 1 2 3 4 5 6 
#
# 1 47.5869 18.4826 -10.0619 1.9496 -6.6929 -7.4543
# 2 18.4826 143.1777 31.4396 -28.8738 -3.2098 -12.8102
# 3 -10.0619 31.4396 102.9882 -11.5515 -12.1343 -10.5398
# 4 1.9496 -28.8738 -11.5515 46.6439 -5.2893 -13.9962
# 5 -6.6929 -3.2098 -12.1343 -5.2893 14.9944 0.2753
# 6 -7.4543 -12.8102 -10.5398 -13.9962 0.2753 55.3986
#
#
#
# Elastic Compliance Matrix: (Units=1/GPa)
#
#
# Indices 1 2 3 4 5 6 
#
# 1 0.026773 -0.003865 0.006298 0.001160 0.016553 0.004118
# 2 -0.003865 0.009550 -0.002171 0.006500 0.000801 0.002913
# 3 0.006298 -0.002171 0.013702 0.004710 0.015022 0.004068
# 4 0.001160 0.006500 0.004710 0.031611 0.016680 0.010459
# 5 0.016553 0.000801 0.015022 0.016680 0.092126 0.009027
# 6 0.004118 0.002913 0.004068 0.010459 0.009027 0.022650
#
#
# Mechanical properties :
#
#
# Convention : Reuss Voigt Hill
#
# Bulk Modulus (GPa) = 19.78376 41.49705 30.64040
# Shear Modulus (GPa) = 23.50301 40.33353 31.91827
#
# Velocity S-wave (km/s) = 2.98022 3.90408 3.47301
# Velocity P-wave (km/s) = 4.39528 6.00034 5.25940
#
# Compressibility (1/GPa) = 0.05054651
#
# Stress axis : x y z
#
# Youngs Moduli (GPa) = 37.35158 104.71664 72.97978
#
# Poissons Ratio (x) = 0.40477 -0.45959
# Poissons Ratio (y) = 0.14438 0.15846
# Poissons Ratio (z) = -0.23522 0.22736
#
# Static dielectric constant tensor:
#      x y z
#    x 2.161650 0.014770 -0.003470 
#    y 0.014770 2.154290 0.018480 
#    z -0.003470 0.018480 2.074360 
# 
# From -- ./inp_files/392105.got.cif
#   From: 2010.05.17/outbox.cif.g08.bks.cpg/sg2_197_cif.got.tgz:392105.got - 2010.06.03 11:33:40.
