data_PCOD9092728
_publ_section_title
;
Structure prediction by ZEFSAII (Michael W. Deem and Ramdas Pophale) SiO2 
 PCOD9092728
Probable space group: P -1
;
_chemical_formula_sum "Si O2"
_cell_formula_units_Z 16
_cell_length_a 16.482775
_cell_length_b 11.582936
_cell_length_c 18.687696
_cell_angle_alpha 44.566841
_cell_angle_beta 22.087836
_cell_angle_gamma 32.961270
_cell_volume 692.075583
_symmetry_space_group_name_H-M "P -1"
_symmetry_group_IT_number 2
_symmetry_cell_setting 'triclinic'
loop_
_space_group_symop_operation_xyz
x,y,z
-x,-y,-z
loop_
_atom_site_type_symbol
_atom_site_label
_atom_site_fract_x
_atom_site_fract_y
_atom_site_fract_z
Si Si1 0.702555 0.077194 0.032636
Si Si2 0.992258 0.232179 0.644289
Si Si3 0.685746 0.800061 0.834590
Si Si4 0.333906 0.844874 0.233867
Si Si5 0.767049 0.367774 0.258514
Si Si6 0.731526 0.160830 0.508825
Si Si7 0.604242 0.690046 0.675996
Si Si8 0.619927 0.546438 0.579792
O O1 0.842685 0.171674 0.842746
O O2 0.425022 0.184975 0.160666
O O3 0.625682 0.143019 0.148627
O O4 0.931705 0.810914 0.950478
O O5 0.154973 0.289419 0.530050
O O6 0.763310 0.443937 0.685878
O O7 0.223421 0.019207 0.498441
O O8 0.034229 0.597814 0.645370
O O9 0.608399 0.027334 0.819868
O O10 0.509746 0.783332 0.043526
O O11 0.418038 0.625269 0.292395
O O12 0.988130 0.021731 0.418861
O O13 0.816186 0.272405 0.339785
O O14 0.592336 0.628018 0.293110
O O15 0.547125 0.356042 0.401602
O O16 0.497158 0.712991 0.673243
#
# Coordination Sequence:
#
# PCOD9092728 Si02
#       8
#     2   2   2   2   2   2   2   2
#     4  11  23  42  63  92 132 172 209 258 321 383
#     4  10  20  40  64  95 122 167 213 271 309 366
#     4  11  22  38  67  95 125 166 217 259 317 382
#     4  11  22  39  68  97 129 161 213 272 313 381
#     4  10  23  40  66  93 135 171 195 266 339 378
#     4  10  19  42  66  91 131 170 199 255 337 384
#     4  11  23  37  65  93 124 169 226 260 299 375
#     4  12  24  41  64  98 128 166 216 272 311 364
#
# _framework density 23.118860000000002
#
# number of rings (size 3 to 8) (size 9 to 14) (size 15 to 20)
#    0.000    1.250    5.000    2.250    0.000    1.500 
#    0.000    7.500    0.000    0.000    0.000    0.000 
#    0.000    0.000    0.000    0.000    0.000    0.000 
#
# Total GULP energy -89538.646159 kJ/mol
# GULP energy per Si atom -5596.165385 kJ/mol
# Density = 2.306624 g / cm^3
# Si number density = 23.118860 Si / 1000 Ang^3
#
#
#
# Elastic Constant Matrix: (Units=GPa)
#
#
# Indices 1 2 3 4 5 6 
#
# 1 102.6523 8.5334 10.9524 2.4366 5.6234 17.2959
# 2 8.5334 58.8916 12.5388 11.1554 2.7721 10.3746
# 3 10.9524 12.5388 80.5732 -0.1164 10.8510 -0.9367
# 4 2.4366 11.1554 -0.1164 44.3463 6.0193 4.0317
# 5 5.6234 2.7721 10.8510 6.0193 34.2304 3.0188
# 6 17.2959 10.3746 -0.9367 4.0317 3.0188 32.7686
#
#
#
# Elastic Compliance Matrix: (Units=1/GPa)
#
#
# Indices 1 2 3 4 5 6 
#
# 1 0.010908 -0.000267 -0.001393 0.000093 -0.000847 -0.005646
# 2 -0.000267 0.019503 -0.003173 -0.004490 0.000757 -0.005642
# 3 -0.001393 -0.003173 0.013701 0.001278 -0.004291 0.002369
# 4 0.000093 -0.004490 0.001278 0.024361 -0.004235 -0.001198
# 5 -0.000847 0.000757 -0.004291 -0.004235 0.031600 -0.002305
# 6 -0.005646 -0.005642 0.002369 -0.001198 -0.002305 0.035711
#
#
# Mechanical properties :
#
#
# Convention : Reuss Voigt Hill
#
# Bulk Modulus (GPa) = 29.02958 34.01848 31.52403
# Shear Modulus (GPa) = 31.86089 36.27523 34.06806
#
# Velocity S-wave (km/s) = 3.71635 3.96545 3.84292
# Velocity P-wave (km/s) = 5.56767 5.97603 5.77546
#
# Compressibility (1/GPa) = 0.03444762
#
# Stress axis : x y z
#
# Youngs Moduli (GPa) = 91.67655 51.27338 72.98504
#
# Poissons Ratio (x) = 0.01369 0.10164
# Poissons Ratio (y) = 0.02448 0.23157
# Poissons Ratio (z) = 0.12767 0.16268
#
# Static dielectric constant tensor:
#      x y z
#    x 1.862350 0.008300 0.025110 
#    y 0.008300 1.866030 0.016320 
#    z 0.025110 0.016320 1.886320 
# 
# From -- ./inp_files/600056.got.cif
#   From: 2010.05.17/outbox.cif.g08.bks.cpg/sg2_301_cif.got.tgz:600056.got - 2010.06.03 11:33:40.
