data_PCOD9092350
_publ_section_title
;
Structure prediction by ZEFSAII (Michael W. Deem and Ramdas Pophale) SiO2 
 PCOD9092350
Probable space group: P -1
;
_chemical_formula_sum "Si O2"
_cell_formula_units_Z 16
_cell_length_a 12.255226
_cell_length_b 9.185205
_cell_length_c 8.196348
_cell_angle_alpha 64.176306
_cell_angle_beta 99.675348
_cell_angle_gamma 121.210518
_cell_volume 708.306786
_symmetry_space_group_name_H-M "P -1"
_symmetry_group_IT_number 2
_symmetry_cell_setting 'triclinic'
loop_
_space_group_symop_operation_xyz
x,y,z
-x,-y,-z
loop_
_atom_site_type_symbol
_atom_site_label
_atom_site_fract_x
_atom_site_fract_y
_atom_site_fract_z
Si Si1 0.917025 0.807595 0.472049
Si Si2 0.902803 0.280072 0.940773
Si Si3 0.094660 0.663248 0.694793
Si Si4 0.783889 0.865841 0.101968
Si Si5 0.368460 0.498105 0.948492
Si Si6 0.290126 0.565943 0.246919
Si Si7 0.374853 0.841599 0.632398
Si Si8 0.550353 0.893283 0.181510
O O1 0.869537 0.847327 0.272151
O O2 0.787548 0.643763 0.602975
O O3 0.004731 0.712599 0.542373
O O4 0.000000 0.000000 0.500000
O O5 0.800774 0.343886 0.834594
O O6 0.035394 0.443241 0.821923
O O7 0.905317 0.271916 0.145566
O O8 0.860676 0.078491 0.957490
O O9 0.227852 0.752967 0.588119
O O10 0.741038 0.703445 0.039501
O O11 0.650369 0.843338 0.150015
O O12 0.390794 0.663462 0.752441
O O13 0.500000 0.500000 0.000000
O O14 0.331400 0.552157 0.082034
O O15 0.422238 0.708690 0.300577
O O16 0.500000 0.000000 0.500000
O O17 0.375447 0.953088 0.739116
O O18 0.500000 0.000000 0.000000
#
# Coordination Sequence:
#
# PCOD9092350 Si02
#       8
#     2   2   2   2   2   2   2   2
#     4  11  24  41  67  99 136 175 224 284 339 396
#     4  10  19  40  77  92 123 184 236 262 315 427
#     4  10  20  43  70  93 128 182 233 262 329 416
#     4  12  23  40  69 108 135 169 226 287 344 386
#     4  12  25  43  63 105 139 169 222 291 341 386
#     4  11  23  42  71  94 132 183 229 271 332 412
#     4  12  26  44  70  98 139 174 219 283 342 399
#     4  12  20  43  72  96 126 184 238 262 328 422
#
# _framework density 22.589082000000001
#
# number of rings (size 3 to 8) (size 9 to 14) (size 15 to 20)
#    0.000    0.750    7.500    0.000    1.750    2.500 
#    0.000    3.125    0.000    0.000    0.000    0.000 
#    0.000    0.000    0.000    0.000    0.000    0.000 
#
# Total GULP energy -89442.620928 kJ/mol
# GULP energy per Si atom -5590.163808 kJ/mol
# Density = 2.253767 g / cm^3
# Si number density = 22.589082 Si / 1000 Ang^3
#
#
#
# Elastic Constant Matrix: (Units=GPa)
#
#
# Indices 1 2 3 4 5 6 
#
# 1 105.4266 13.9991 32.4794 -14.0842 7.6558 18.2539
# 2 13.9991 144.0709 29.3210 -33.9694 6.9333 13.8003
# 3 32.4794 29.3210 49.1341 -25.8638 6.1349 1.7539
# 4 -14.0842 -33.9694 -25.8638 38.7999 11.5669 -4.1290
# 5 7.6558 6.9333 6.1349 11.5669 29.4803 -7.7555
# 6 18.2539 13.8003 1.7539 -4.1290 -7.7555 36.7765
#
#
#
# Elastic Compliance Matrix: (Units=1/GPa)
#
#
# Indices 1 2 3 4 5 6 
#
# 1 0.013801 0.001736 -0.008472 0.001499 -0.004913 -0.007965
# 2 0.001736 0.010566 0.000390 0.012331 -0.009280 -0.005418
# 3 -0.008472 0.000390 0.046467 0.034577 -0.020775 0.001344
# 4 0.001499 0.012331 0.034577 0.071432 -0.040496 -0.007540
# 5 -0.004913 -0.009280 -0.020775 -0.040496 0.061633 0.015363
# 6 -0.007965 -0.005418 0.001344 -0.007540 0.015363 0.035507
#
#
# Mechanical properties :
#
#
# Convention : Reuss Voigt Hill
#
# Bulk Modulus (GPa) = 17.19920 50.02563 33.61241
# Shear Modulus (GPa) = 18.41767 35.86679 27.14223
#
# Velocity S-wave (km/s) = 2.85850 3.98904 3.47012
# Velocity P-wave (km/s) = 4.30409 6.58867 5.56488
#
# Compressibility (1/GPa) = 0.05814225
#
# Stress axis : x y z
#
# Youngs Moduli (GPa) = 72.45873 94.64418 21.52059
#
# Poissons Ratio (x) = -0.16431 0.18232
# Poissons Ratio (y) = -0.12580 -0.00839
# Poissons Ratio (z) = 0.61387 -0.03692
#
# Static dielectric constant tensor:
#      x y z
#    x 1.870770 0.064100 -0.050070 
#    y 0.064100 1.944410 -0.011070 
#    z -0.050070 -0.011070 1.899010 
# 
# From -- ./inp_files/242579.got.cif
#   From: 2010.05.17/outbox.cif.g08.bks.cpg/sg2_122_cif.got.tgz:242579.got - 2010.06.03 11:33:40.
