data_PCOD9092259
_publ_section_title
;
Structure prediction by ZEFSAII (Michael W. Deem and Ramdas Pophale) SiO2 
 PCOD9092259
Probable space group: P -1
;
_chemical_formula_sum "Si O2"
_cell_formula_units_Z 14
_cell_length_a 8.753882
_cell_length_b 7.126589
_cell_length_c 11.135028
_cell_angle_alpha 58.219926
_cell_angle_beta 116.879659
_cell_angle_gamma 105.831737
_cell_volume 526.163347
_symmetry_space_group_name_H-M "P -1"
_symmetry_group_IT_number 2
_symmetry_cell_setting 'triclinic'
loop_
_space_group_symop_operation_xyz
x,y,z
-x,-y,-z
loop_
_atom_site_type_symbol
_atom_site_label
_atom_site_fract_x
_atom_site_fract_y
_atom_site_fract_z
Si Si1 0.818203 0.155016 0.764948
Si Si2 0.263767 0.520654 0.043959
Si Si3 0.818311 0.982536 0.085384
Si Si4 0.435197 0.142257 0.605449
Si Si5 0.787214 0.292907 0.280679
Si Si6 0.382172 0.408842 0.732010
Si Si7 0.146222 0.341498 0.293438
O O1 0.633228 0.123584 0.648696
O O2 0.839388 0.407729 0.734388
O O3 0.994434 0.096821 0.784092
O O4 0.807119 0.998498 0.931968
O O5 0.452070 0.492910 0.172294
O O6 0.144255 0.368040 0.139568
O O7 0.248764 0.518465 0.896478
O O8 0.221324 0.773634 0.969225
O O9 0.679179 0.815993 0.149057
O O10 0.425985 0.332841 0.639941
O O11 0.312269 0.216074 0.431934
O O12 0.346220 0.915524 0.701345
O O13 0.762760 0.414642 0.358103
O O14 0.978913 0.232766 0.334820
#
# Coordination Sequence:
#
# PCOD9092259 Si02
#       7
#     2   2   2   2   2   2   2
#     4  10  21  40  72  99 136 183 233 280 343 410
#     4  11  23  44  74 102 136 185 233 292 342 405
#     4  10  19  40  69 103 132 175 234 284 337 402
#     4  12  25  47  73  99 146 186 224 289 349 419
#     4  12  26  45  70 106 140 182 236 286 343 415
#     4  12  23  43  71 105 140 178 233 285 351 408
#     4  11  24  46  70 101 144 185 229 285 354 409
#
# _framework density 26.607704999999999
#
# number of rings (size 3 to 8) (size 9 to 14) (size 15 to 20)
#    0.000    0.857    5.714    3.000    0.000    0.571 
#    2.571    0.714    3.143    0.000    0.000    0.000 
#    0.000    0.000    0.000    0.000    0.000    0.000 
#
# Total GULP energy -78522.393006 kJ/mol
# GULP energy per Si atom -5608.742358 kJ/mol
# Density = 2.654714 g / cm^3
# Si number density = 26.607705 Si / 1000 Ang^3
#
#
#
# Elastic Constant Matrix: (Units=GPa)
#
#
# Indices 1 2 3 4 5 6 
#
# 1 134.3604 33.3821 44.5994 -0.0076 11.1225 9.3674
# 2 33.3821 80.3282 9.9291 -7.1536 -6.6412 -3.3379
# 3 44.5994 9.9291 105.5456 -2.8341 14.5772 4.2113
# 4 -0.0076 -7.1536 -2.8341 22.7159 11.1760 -4.0621
# 5 11.1225 -6.6412 14.5772 11.1760 35.9991 2.0288
# 6 9.3674 -3.3379 4.2113 -4.0621 2.0288 57.5921
#
#
#
# Elastic Compliance Matrix: (Units=1/GPa)
#
#
# Indices 1 2 3 4 5 6 
#
# 1 0.009863 -0.003986 -0.003484 -0.000999 -0.001973 -0.001581
# 2 -0.003986 0.014727 -0.000054 0.003563 0.002771 0.001660
# 3 -0.003484 -0.000054 0.011726 0.003880 -0.004895 0.000152
# 4 -0.000999 0.003563 0.003880 0.055332 -0.018044 0.004624
# 5 -0.001973 0.002771 -0.004895 -0.018044 0.036580 -0.001722
# 6 -0.001581 0.001660 0.000152 0.004624 -0.001722 0.018093
#
#
# Mechanical properties :
#
#
# Convention : Reuss Voigt Hill
#
# Bulk Modulus (GPa) = 47.01917 55.11727 51.06822
# Shear Modulus (GPa) = 29.68084 38.74966 34.21525
#
# Velocity S-wave (km/s) = 3.34353 3.82033 3.58986
# Velocity P-wave (km/s) = 5.71097 6.34190 6.03469
#
# Compressibility (1/GPa) = 0.02126792
#
# Stress axis : x y z
#
# Youngs Moduli (GPa) = 101.38979 67.90051 85.28003
#
# Poissons Ratio (x) = 0.27064 0.29711
# Poissons Ratio (y) = 0.40413 0.00464
# Poissons Ratio (z) = 0.35324 0.00369
#
# Static dielectric constant tensor:
#      x y z
#    x 2.065240 -0.007460 0.002640 
#    y -0.007460 2.051280 0.043310 
#    z 0.002640 0.043310 2.077650 
# 
# From -- ./inp_files/381132.got.cif
#   From: 2010.05.17/outbox.cif.g08.bks.cpg/sg2_191_cif.got.tgz:381132.got - 2010.06.03 11:33:40.
