data_PCOD9092362
_publ_section_title
;
Structure prediction by ZEFSAII (Michael W. Deem and Ramdas Pophale) SiO2 
 PCOD9092362
Probable space group: P -1
;
_chemical_formula_sum "Si O2"
_cell_formula_units_Z 16
_cell_length_a 8.916917
_cell_length_b 17.387216
_cell_length_c 16.578544
_cell_angle_alpha 23.279106
_cell_angle_beta 133.243633
_cell_angle_gamma 131.034619
_cell_volume 736.669256
_symmetry_space_group_name_H-M "P -1"
_symmetry_group_IT_number 2
_symmetry_cell_setting 'triclinic'
loop_
_space_group_symop_operation_xyz
x,y,z
-x,-y,-z
loop_
_atom_site_type_symbol
_atom_site_label
_atom_site_fract_x
_atom_site_fract_y
_atom_site_fract_z
Si Si1 0.000681 0.364569 0.280336
Si Si2 0.543374 0.784633 0.251518
Si Si3 0.446715 0.618492 0.945586
Si Si4 0.551049 0.696162 0.526695
Si Si5 0.380994 0.009444 0.266308
Si Si6 0.265684 0.396295 0.790914
Si Si7 0.098337 0.658501 0.175290
Si Si8 0.013893 0.106326 0.681218
O O1 0.224410 0.382211 0.304456
O O2 0.006182 0.527915 0.194289
O O3 0.979005 0.166966 0.517429
O O4 0.799460 0.384695 0.133755
O O5 0.542898 0.775471 0.356648
O O6 0.344882 0.649060 0.278455
O O7 0.781193 0.766281 0.333891
O O8 0.500000 0.000000 0.000000
O O9 0.532243 0.848264 0.765778
O O10 0.500000 0.500000 0.000000
O O11 0.572253 0.529268 0.149918
O O12 0.357512 0.531401 0.623145
O O13 0.531632 0.874360 0.408945
O O14 0.306330 0.167006 0.022294
O O15 0.187210 0.872688 0.360299
O O16 0.035174 0.397435 0.739586
O O17 0.055289 0.880810 0.924435
#
# Coordination Sequence:
#
# PCOD9092362 Si02
#       8
#     2   2   2   2   2   2   2   2
#     4  11  22  36  62  88 122 155 206 247 292 355
#     4   9  21  39  65  89 118 156 207 244 301 357
#     4  10  20  41  64  90 116 162 205 245 290 356
#     4  11  23  39  57  91 125 160 191 253 302 359
#     4   9  21  39  59  86 127 154 193 249 302 342
#     4   9  21  39  60  85 126 152 205 243 300 354
#     4  10  19  41  60  88 119 156 204 256 290 346
#     4   9  19  38  60  88 116 155 203 245 289 358
#
# _framework density 21.719380000000001
#
# number of rings (size 3 to 8) (size 9 to 14) (size 15 to 20)
#    0.750    1.500    1.250    0.750    0.000    7.000 
#    2.250    8.125    0.000    0.000    0.000    0.000 
#    0.000    0.000    0.000    0.000    0.000    0.000 
#
# Total GULP energy -89190.417081 kJ/mol
# GULP energy per Si atom -5574.401068 kJ/mol
# Density = 2.166995 g / cm^3
# Si number density = 21.719380 Si / 1000 Ang^3
#
#
#
# Elastic Constant Matrix: (Units=GPa)
#
#
# Indices 1 2 3 4 5 6 
#
# 1 87.7593 24.0743 30.0514 -11.8466 4.3156 29.1067
# 2 24.0743 89.4889 16.2673 6.0861 -2.9722 32.0490
# 3 30.0514 16.2673 61.2266 -12.2003 -1.8821 11.7514
# 4 -11.8466 6.0861 -12.2003 34.4858 5.5336 -2.0439
# 5 4.3156 -2.9722 -1.8821 5.5336 32.9818 1.7766
# 6 29.1067 32.0490 11.7514 -2.0439 1.7766 27.7048
#
#
#
# Elastic Compliance Matrix: (Units=1/GPa)
#
#
# Indices 1 2 3 4 5 6 
#
# 1 0.020582 0.003340 -0.006064 0.003334 -0.002084 -0.022535
# 2 0.003340 0.021158 -0.003069 -0.005897 0.003758 -0.027359
# 3 -0.006064 -0.003069 0.021051 0.005883 0.000657 0.001384
# 4 0.003334 -0.005897 0.005883 0.034554 -0.006634 0.003798
# 5 -0.002084 0.003758 0.000657 -0.006634 0.032351 -0.005000
# 6 -0.022535 -0.027359 0.001384 0.003798 -0.005000 0.091433
#
#
# Mechanical properties :
#
#
# Convention : Reuss Voigt Hill
#
# Bulk Modulus (GPa) = 19.52943 42.14009 30.83476
# Shear Modulus (GPa) = 20.01737 30.23994 25.12866
#
# Velocity S-wave (km/s) = 3.03914 3.73540 3.40512
# Velocity P-wave (km/s) = 4.61805 6.16835 5.44862
#
# Compressibility (1/GPa) = 0.05120478
#
# Stress axis : x y z
#
# Youngs Moduli (GPa) = 48.58674 47.26389 47.50295
#
# Poissons Ratio (x) = -0.15787 0.28805
# Poissons Ratio (y) = -0.16228 0.14580
# Poissons Ratio (z) = 0.29462 0.14507
#
# Static dielectric constant tensor:
#      x y z
#    x 1.810250 0.037430 -0.029570 
#    y 0.037430 1.799950 0.005480 
#    z -0.029570 0.005480 1.855740 
# 
# From -- ./inp_files/591768.got.cif
#   From: 2010.05.17/outbox.cif.g08.bks.cpg/sg2_296_cif.got.tgz:591768.got - 2010.06.03 11:33:40.
