data_PCOD9092852
_publ_section_title
;
Structure prediction by ZEFSAII (Michael W. Deem and Ramdas Pophale) SiO2 
 PCOD9092852
Probable space group: P -1
;
_chemical_formula_sum "Si O2"
_cell_formula_units_Z 14
_cell_length_a 8.885778
_cell_length_b 8.631891
_cell_length_c 6.947881
_cell_angle_alpha 89.650080
_cell_angle_beta 77.139454
_cell_angle_gamma 78.925363
_cell_volume 509.492497
_symmetry_space_group_name_H-M "P -1"
_symmetry_group_IT_number 2
_symmetry_cell_setting 'triclinic'
loop_
_space_group_symop_operation_xyz
x,y,z
-x,-y,-z
loop_
_atom_site_type_symbol
_atom_site_label
_atom_site_fract_x
_atom_site_fract_y
_atom_site_fract_z
Si Si1 0.179376 0.476403 0.018919
Si Si2 0.065443 0.882662 0.739752
Si Si3 0.718185 0.875517 0.377012
Si Si4 0.581280 0.820037 0.021747
Si Si5 0.267579 0.584643 0.584685
Si Si6 0.941766 0.209045 0.808573
Si Si7 0.546477 0.701623 0.669074
O O1 0.248271 0.298727 0.073633
O O2 0.178899 0.626656 0.158036
O O3 0.000000 0.500000 0.000000
O O4 0.109305 0.237406 0.682785
O O5 0.267315 0.507661 0.797726
O O6 0.110565 0.720845 0.608362
O O7 0.043655 0.834425 0.966658
O O8 0.928368 0.035720 0.725319
O O9 0.780015 0.035755 0.314225
O O10 0.376484 0.147221 0.405390
O O11 0.609051 0.831826 0.239831
O O12 0.486933 0.723316 0.905710
O O13 0.500000 0.000000 0.000000
O O14 0.411611 0.675234 0.562715
O O15 0.316256 0.445954 0.421482
#
# Coordination Sequence:
#
# PCOD9092852 Si02
#       7
#     2   2   2   2   2   2   2
#     4  11  19  41  69  90 130 177 212 265 330 380
#     4   8  16  33  69  91 117 170 220 255 310 386
#     4  10  19  43  65  94 128 173 209 269 325 374
#     4  12  26  40  65 101 128 170 224 266 319 397
#     4  10  21  40  63  94 132 171 216 264 327 386
#     4   8  16  33  68  94 116 174 217 252 323 382
#     4  11  24  41  62  96 132 177 210 267 328 393
#
# _framework density 27.478323
#
# number of rings (size 3 to 8) (size 9 to 14) (size 15 to 20)
#    0.857    1.143    2.857    0.857    0.000    2.857 
#    0.000    2.857    0.000    2.571    0.000    0.000 
#    0.000    0.000    0.000    0.000    0.000    0.000 
#
# Total GULP energy -77942.013770 kJ/mol
# GULP energy per Si atom -5567.286698 kJ/mol
# Density = 2.741578 g / cm^3
# Si number density = 27.478323 Si / 1000 Ang^3
#
#
#
# Elastic Constant Matrix: (Units=GPa)
#
#
# Indices 1 2 3 4 5 6 
#
# 1 72.5380 43.8666 30.7165 -19.6522 -16.4402 8.5656
# 2 43.8666 161.7708 53.4347 44.7244 -18.1826 -45.1142
# 3 30.7165 53.4347 125.6594 38.5062 -2.8455 -12.2329
# 4 -19.6522 44.7244 38.5062 64.6445 -6.5606 -16.7293
# 5 -16.4402 -18.1826 -2.8455 -6.5606 32.2924 2.1497
# 6 8.5656 -45.1142 -12.2329 -16.7293 2.1497 53.0857
#
#
#
# Elastic Compliance Matrix: (Units=1/GPa)
#
#
# Indices 1 2 3 4 5 6 
#
# 1 0.051162 -0.022051 -0.016032 0.037389 0.021130 -0.019762
# 2 -0.022051 0.019953 0.004293 -0.019511 -0.004612 0.015542
# 3 -0.016032 0.004293 0.015428 -0.016588 -0.008081 0.004890
# 4 0.037389 -0.019511 -0.016588 0.048941 0.017310 -0.011715
# 5 0.021130 -0.004612 -0.008081 0.017310 0.042295 -0.005448
# 6 -0.019762 0.015542 0.004890 -0.011715 -0.005448 0.032890
#
#
# Mechanical properties :
#
#
# Convention : Reuss Voigt Hill
#
# Bulk Modulus (GPa) = 52.73510 68.44485 60.58997
# Shear Modulus (GPa) = 17.57034 45.46787 31.51910
#
# Velocity S-wave (km/s) = 2.53143 4.07219 3.39049
# Velocity P-wave (km/s) = 5.27042 6.86098 6.11762
#
# Compressibility (1/GPa) = 0.01896270
#
# Stress axis : x y z
#
# Youngs Moduli (GPa) = 19.54575 50.11670 64.81876
#
# Poissons Ratio (x) = 1.10513 1.03917
# Poissons Ratio (y) = 0.43100 -0.27826
# Poissons Ratio (z) = 0.31336 -0.21515
#
# Static dielectric constant tensor:
#      x y z
#    x 2.176930 -0.048850 0.053420 
#    y -0.048850 2.242490 0.015730 
#    z 0.053420 0.015730 2.211220 
# 
# From -- ./inp_files/265516.got.cif
#   From: 2010.05.17/outbox.cif.g08.bks.cpg/sg2_133_cif.got.tgz:265516.got - 2010.06.03 11:33:40.
