data_PCOD9092209
_publ_section_title
;
Structure prediction by ZEFSAII (Michael W. Deem and Ramdas Pophale) SiO2 
 PCOD9092209
Probable space group: P -1
;
_chemical_formula_sum "Si O2"
_cell_formula_units_Z 16
_cell_length_a 14.630299
_cell_length_b 24.346203
_cell_length_c 9.504820
_cell_angle_alpha 48.567567
_cell_angle_beta 135.725145
_cell_angle_gamma 160.637623
_cell_volume 782.195421
_symmetry_space_group_name_H-M "P -1"
_symmetry_group_IT_number 2
_symmetry_cell_setting 'triclinic'
loop_
_space_group_symop_operation_xyz
x,y,z
-x,-y,-z
loop_
_atom_site_type_symbol
_atom_site_label
_atom_site_fract_x
_atom_site_fract_y
_atom_site_fract_z
Si Si1 0.712758 0.259313 0.125687
Si Si2 0.189325 0.167680 0.448366
Si Si3 0.606673 0.023500 0.867331
Si Si4 0.459395 0.568276 0.839384
Si Si5 0.029591 0.721703 0.404827
Si Si6 0.057250 0.812145 0.753672
Si Si7 0.470953 0.422783 0.786035
Si Si8 0.611234 0.368586 0.826733
O O1 0.771252 0.229192 0.361754
O O2 0.039492 0.436605 0.120368
O O3 0.491920 0.110583 0.023545
O O4 0.589788 0.274848 0.017132
O O5 0.292459 0.262321 0.260097
O O6 0.479271 0.299729 0.640501
O O7 0.000587 0.131373 0.390727
O O8 0.000000 0.000000 0.500000
O O9 0.780606 0.132357 0.735691
O O10 0.300221 0.913458 0.735097
O O11 0.804966 0.141077 0.022151
O O12 0.163238 0.426764 0.660585
O O13 0.500000 0.500000 0.000000
O O14 0.460661 0.584368 0.978700
O O15 0.803873 0.660121 0.348888
O O16 0.751099 0.615020 0.732243
O O17 0.445462 0.347764 0.767785
#
# Coordination Sequence:
#
# PCOD9092209 Si02
#       8
#     2   2   2   2   2   2   2   2
#     4  11  23  42  61  92 140 172 210 265 347 390
#     4  12  24  44  68  96 133 178 223 271 332 399
#     4  11  23  38  64  98 132 167 215 282 324 389
#     4  10  19  40  67  97 124 168 221 272 320 383
#     4  11  21  40  69  92 129 174 222 267 331 392
#     4  11  21  39  67  97 127 168 227 271 323 387
#     4  11  21  42  73  97 124 171 233 275 311 396
#     4  11  25  41  66  96 132 175 216 274 331 390
#
# _framework density 20.455245999999999
#
# number of rings (size 3 to 8) (size 9 to 14) (size 15 to 20)
#    0.000    1.000    6.250    1.875    1.750    1.000 
#    2.250    1.875    0.000    0.000    0.000    0.000 
#    0.000    0.000    0.000    0.000    0.000    0.000 
#
# Total GULP energy -89384.045048 kJ/mol
# GULP energy per Si atom -5586.502816 kJ/mol
# Density = 2.040869 g / cm^3
# Si number density = 20.455246 Si / 1000 Ang^3
#
#
#
# Elastic Constant Matrix: (Units=GPa)
#
#
# Indices 1 2 3 4 5 6 
#
# 1 96.8781 50.9503 30.8048 -13.6123 9.7004 -7.5241
# 2 50.9503 110.6446 27.1338 -19.6334 1.4920 -3.3758
# 3 30.8048 27.1338 71.3983 1.9475 5.1192 -6.9883
# 4 -13.6123 -19.6334 1.9475 25.7137 -7.0069 2.1863
# 5 9.7004 1.4920 5.1192 -7.0069 27.0305 1.4663
# 6 -7.5241 -3.3758 -6.9883 2.1863 1.4663 34.3915
#
#
#
# Elastic Compliance Matrix: (Units=1/GPa)
#
#
# Indices 1 2 3 4 5 6 
#
# 1 0.015500 -0.005413 -0.004260 0.003213 -0.003730 0.001949
# 2 -0.005413 0.014006 -0.003690 0.009417 0.004382 -0.001345
# 3 -0.004260 -0.003690 0.018030 -0.007746 -0.003854 0.003026
# 4 0.003213 0.009417 -0.007746 0.052397 0.013586 -0.003857
# 5 -0.003730 0.004382 -0.003854 0.013586 0.042552 -0.003847
# 6 0.001949 -0.001345 0.003026 -0.003857 -0.003847 0.030395
#
#
# Mechanical properties :
#
#
# Convention : Reuss Voigt Hill
#
# Bulk Modulus (GPa) = 48.05277 55.18874 51.62076
# Shear Modulus (GPa) = 24.20796 28.76263 26.48529
#
# Velocity S-wave (km/s) = 3.44388 3.75390 3.60223
# Velocity P-wave (km/s) = 6.27347 6.76963 6.52626
#
# Compressibility (1/GPa) = 0.02081045
#
# Stress axis : x y z
#
# Youngs Moduli (GPa) = 64.51701 71.39620 55.46314
#
# Poissons Ratio (x) = 0.38646 0.23626
# Poissons Ratio (y) = 0.34923 0.20467
# Poissons Ratio (z) = 0.27483 0.26346
#
# Static dielectric constant tensor:
#      x y z
#    x 1.725420 -0.002830 -0.012020 
#    y -0.002830 1.747080 0.046860 
#    z -0.012020 0.046860 1.774040 
# 
# From -- ./inp_files/320275.got.cif
#   From: 2010.05.17/outbox.cif.g08.bks.cpg/sg2_161_cif.got.tgz:320275.got - 2010.06.03 11:33:40.
