data_PCOD9092446
_publ_section_title
;
Structure prediction by ZEFSAII (Michael W. Deem and Ramdas Pophale) SiO2 
 PCOD9092446
Probable space group: P -1
;
_chemical_formula_sum "Si O2"
_cell_formula_units_Z 12
_cell_length_a 14.721424
_cell_length_b 7.757182
_cell_length_c 9.099506
_cell_angle_alpha 57.691086
_cell_angle_beta 42.416851
_cell_angle_gamma 40.553941
_cell_volume 454.881342
_symmetry_space_group_name_H-M "P -1"
_symmetry_group_IT_number 2
_symmetry_cell_setting 'triclinic'
loop_
_space_group_symop_operation_xyz
x,y,z
-x,-y,-z
loop_
_atom_site_type_symbol
_atom_site_label
_atom_site_fract_x
_atom_site_fract_y
_atom_site_fract_z
Si Si1 0.246688 0.595826 0.359788
Si Si2 0.426473 0.305466 0.740236
Si Si3 0.083326 0.353200 0.813390
Si Si4 0.235421 0.811659 0.554807
Si Si5 0.872863 0.273730 0.890429
Si Si6 0.590462 0.061708 0.244892
O O1 0.167611 0.471237 0.587890
O O2 0.197854 0.829851 0.418785
O O3 0.175573 0.669729 0.248204
O O4 0.456250 0.362341 0.219724
O O5 0.358830 0.500551 0.592011
O O6 0.635913 0.124623 0.592852
O O7 0.378806 0.118126 0.848893
O O8 0.319209 0.526592 0.893944
O O9 0.232154 0.048649 0.832652
O O10 0.958639 0.381624 0.826809
O O11 0.000000 0.500000 0.000000
O O12 0.059442 0.965111 0.792363
O O13 0.500000 0.000000 0.500000
#
# Coordination Sequence:
#
# PCOD9092446 Si02
#       6
#     2   2   2   2   2   2
#     4  11  24  42  64  94 131 167 203 271 324 365
#     4  11  23  41  68  94 121 175 216 258 313 377
#     4  11  21  41  66  94 122 166 218 257 309 382
#     4  11  23  43  65  90 133 170 213 255 314 386
#     4  12  25  42  64  99 131 161 214 265 322 374
#     4  10  19  41  65  89 122 164 215 256 310 373
#
# _framework density 26.380504999999999
#
# number of rings (size 3 to 8) (size 9 to 14) (size 15 to 20)
#    0.000    1.000    5.000    3.500    2.333    1.333 
#    3.000    0.000    0.000    0.000    0.000    0.000 
#    0.000    0.000    0.000    0.000    0.000    0.000 
#
# Total GULP energy -67071.614727 kJ/mol
# GULP energy per Si atom -5589.301227 kJ/mol
# Density = 2.632046 g / cm^3
# Si number density = 26.380505 Si / 1000 Ang^3
#
#
#
# Elastic Constant Matrix: (Units=GPa)
#
#
# Indices 1 2 3 4 5 6 
#
# 1 166.5142 9.6467 44.4352 17.8769 15.7605 -15.5970
# 2 9.6467 48.0668 32.5856 31.5625 2.4475 -5.2780
# 3 44.4352 32.5856 104.0039 27.9249 9.7024 -6.8323
# 4 17.8769 31.5625 27.9249 39.5501 0.4950 2.1848
# 5 15.7605 2.4475 9.7024 0.4950 49.8655 15.6548
# 6 -15.5970 -5.2780 -6.8323 2.1848 15.6548 39.3356
#
#
#
# Elastic Compliance Matrix: (Units=1/GPa)
#
#
# Indices 1 2 3 4 5 6 
#
# 1 0.007877 0.004674 -0.002620 -0.005675 -0.003756 0.005105
# 2 0.004674 0.051819 -0.006154 -0.039730 -0.006343 0.012469
# 3 -0.002620 -0.006154 0.013992 -0.003846 -0.002056 0.001597
# 4 -0.005675 -0.039730 -0.003846 0.063003 0.008634 -0.015185
# 5 -0.003756 -0.006343 -0.002056 0.008634 0.026128 -0.013575
# 6 0.005105 0.012469 0.001597 -0.015185 -0.013575 0.035643
#
#
# Mechanical properties :
#
#
# Convention : Reuss Voigt Hill
#
# Bulk Modulus (GPa) = 15.27012 54.65774 34.96393
# Shear Modulus (GPa) = 21.88266 41.21141 31.54703
#
# Velocity S-wave (km/s) = 2.88323 3.95675 3.46185
# Velocity P-wave (km/s) = 4.10914 6.45278 5.40941
#
# Compressibility (1/GPa) = 0.06548736
#
# Stress axis : x y z
#
# Youngs Moduli (GPa) = 126.95358 19.29798 71.46929
#
# Poissons Ratio (x) = -0.09020 0.18726
# Poissons Ratio (y) = -0.59337 0.43982
# Poissons Ratio (z) = 0.33265 0.11876
#
# Static dielectric constant tensor:
#      x y z
#    x 2.075590 0.003790 -0.039150 
#    y 0.003790 2.077090 0.027960 
#    z -0.039150 0.027960 2.102970 
# 
# From -- ./inp_files/146342.got.cif
#   From: 2010.05.17/outbox.cif.g08.bks.cpg/sg2_74_cif.got.tgz:146342.got - 2010.06.03 11:33:40.
