data_PCOD9092628
_publ_section_title
;
Structure prediction by ZEFSAII (Michael W. Deem and Ramdas Pophale) SiO2 
 PCOD9092628
Probable space group: P -1
;
_chemical_formula_sum "Si O2"
_cell_formula_units_Z 14
_cell_length_a 8.304074
_cell_length_b 7.713596
_cell_length_c 12.177393
_cell_angle_alpha 65.899826
_cell_angle_beta 124.837439
_cell_angle_gamma 89.927642
_cell_volume 555.042690
_symmetry_space_group_name_H-M "P -1"
_symmetry_group_IT_number 2
_symmetry_cell_setting 'triclinic'
loop_
_space_group_symop_operation_xyz
x,y,z
-x,-y,-z
loop_
_atom_site_type_symbol
_atom_site_label
_atom_site_fract_x
_atom_site_fract_y
_atom_site_fract_z
Si Si1 0.190165 0.052678 0.505715
Si Si2 0.110378 0.396589 0.236307
Si Si3 0.766509 0.228471 0.603705
Si Si4 0.906801 0.864248 0.077247
Si Si5 0.495570 0.817362 0.862062
Si Si6 0.454678 0.571269 0.315122
Si Si7 0.724366 0.358311 0.999687
O O1 0.255897 0.937927 0.445207
O O2 0.377428 0.971897 0.683554
O O3 0.110889 0.282616 0.379486
O O4 0.000000 0.000000 0.500000
O O5 0.306803 0.559201 0.544559
O O6 0.002854 0.632571 0.140658
O O7 0.970541 0.323737 0.113521
O O8 0.343957 0.394924 0.311503
O O9 0.628471 0.291186 0.645729
O O10 0.998036 0.143281 0.762486
O O11 0.665953 0.897098 0.964466
O O12 0.000000 0.000000 0.000000
O O13 0.612078 0.594354 0.917904
O O14 0.337446 0.770605 0.897579
O O15 0.373841 0.681402 0.142092
#
# Coordination Sequence:
#
# PCOD9092628 Si02
#       7
#     2   2   2   2   2   2   2
#     4  12  24  45  72 108 147 183 242 299 363 433
#     4  10  23  40  73 107 138 186 239 298 359 425
#     4  10  24  43  67 104 143 186 234 298 358 427
#     4  10  24  47  70 104 146 189 242 295 358 430
#     4  10  22  41  72 104 141 197 236 291 360 430
#     4  10  21  42  69 104 143 188 241 297 358 418
#     4  10  19  41  71 105 142 188 248 290 354 431
#
# _framework density 25.223286000000002
#
# number of rings (size 3 to 8) (size 9 to 14) (size 15 to 20)
#    0.000    1.714    2.857    0.429    2.000    5.143 
#    0.000    8.571    0.000    0.000    0.000    0.000 
#    0.000    0.000    0.000    0.000    0.000    0.000 
#
# Total GULP energy -78243.911177 kJ/mol
# GULP energy per Si atom -5588.850798 kJ/mol
# Density = 2.516588 g / cm^3
# Si number density = 25.223286 Si / 1000 Ang^3
#
#
#
# Elastic Constant Matrix: (Units=GPa)
#
#
# Indices 1 2 3 4 5 6 
#
# 1 65.7215 44.0871 42.4609 0.9971 2.2851 15.1624
# 2 44.0871 111.3813 55.7847 -14.8274 -2.8149 10.5677
# 3 42.4609 55.7847 220.8532 9.7301 2.1349 16.8925
# 4 0.9971 -14.8274 9.7301 41.4744 4.1597 -3.9023
# 5 2.2851 -2.8149 2.1349 4.1597 45.6647 -3.4395
# 6 15.1624 10.5677 16.8925 -3.9023 -3.4395 37.9345
#
#
#
# Elastic Compliance Matrix: (Units=1/GPa)
#
#
# Indices 1 2 3 4 5 6 
#
# 1 0.023656 -0.008372 -0.001729 -0.003623 -0.001808 -0.006890
# 2 -0.008372 0.014142 -0.002313 0.005810 0.000954 0.001121
# 3 -0.001729 -0.002313 0.005654 -0.002224 -0.000226 -0.001431
# 4 -0.003623 0.005810 -0.002224 0.027283 -0.001580 0.003483
# 5 -0.001808 0.000954 -0.000226 -0.001580 0.022385 0.002424
# 6 -0.006890 0.001121 -0.001431 0.003483 0.002424 0.030018
#
#
# Mechanical properties :
#
#
# Convention : Reuss Voigt Hill
#
# Bulk Modulus (GPa) = 53.69659 75.84682 64.77170
# Shear Modulus (GPa) = 32.43047 42.05628 37.24337
#
# Velocity S-wave (km/s) = 3.58961 4.08776 3.84676
# Velocity P-wave (km/s) = 6.20605 7.23983 6.74278
#
# Compressibility (1/GPa) = 0.01862316
#
# Stress axis : x y z
#
# Youngs Moduli (GPa) = 42.27200 70.71304 176.85397
#
# Poissons Ratio (x) = 0.59199 0.30586
# Poissons Ratio (y) = 0.35389 0.40913
# Poissons Ratio (z) = 0.07311 0.16359
#
# Static dielectric constant tensor:
#      x y z
#    x 2.004090 -0.012490 0.044680 
#    y -0.012490 2.064470 0.004530 
#    z 0.044680 0.004530 2.054770 
# 
# From -- ./inp_files/381523.got.cif
#   From: 2010.05.17/outbox.cif.g08.bks.cpg/sg2_191_cif.got.tgz:381523.got - 2010.06.03 11:33:40.
