data_PCOD9092987
_publ_section_title
;
Structure prediction by ZEFSAII (Michael W. Deem and Ramdas Pophale) SiO2 
 PCOD9092987
Probable space group: P -1
;
_chemical_formula_sum "Si O2"
_cell_formula_units_Z 14
_cell_length_a 21.291976
_cell_length_b 5.027036
_cell_length_c 9.749407
_cell_angle_alpha 106.309680
_cell_angle_beta 148.650579
_cell_angle_gamma 75.931836
_cell_volume 521.045580
_symmetry_space_group_name_H-M "P -1"
_symmetry_group_IT_number 2
_symmetry_cell_setting 'triclinic'
loop_
_space_group_symop_operation_xyz
x,y,z
-x,-y,-z
loop_
_atom_site_type_symbol
_atom_site_label
_atom_site_fract_x
_atom_site_fract_y
_atom_site_fract_z
Si Si1 0.619017 0.851104 0.150908
Si Si2 0.757174 0.343618 0.404090
Si Si3 0.357331 0.972474 0.073657
Si Si4 0.377625 0.264574 0.440864
Si Si5 0.037239 0.959261 0.717935
Si Si6 0.006916 0.413820 0.193378
Si Si7 0.767089 0.178048 0.751308
O O1 0.723085 0.085541 0.398789
O O2 0.647403 0.559855 0.228541
O O3 0.616175 0.826955 0.977099
O O4 0.500000 0.000000 0.000000
O O5 0.876528 0.523350 0.670369
O O6 0.751449 0.210562 0.219784
O O7 0.479312 0.788436 0.290601
O O8 0.340572 0.141920 0.205282
O O9 0.326220 0.571812 0.400498
O O10 0.310859 0.094151 0.411567
O O11 0.163986 0.808514 0.967055
O O12 0.042830 0.274707 0.829585
O O13 0.000000 0.000000 0.500000
O O14 0.950217 0.758218 0.615965
O O15 0.893479 0.226004 0.911892
#
# Coordination Sequence:
#
# PCOD9092987 Si02
#       7
#     2   2   2   2   2   2   2
#     4  10  22  40  60  87 110 142 190 241 296 330
#     4  10  22  36  59  86 115 143 183 244 285 338
#     4   9  26  34  60  78 119 149 195 224 284 322
#     4  11  22  38  51  83 118 161 186 222 260 344
#     4  10  20  30  45  75 105 148 187 225 260 328
#     4  10  20  34  49  82 110 148 186 225 291 323
#     4  10  22  33  54  74 118 158 190 217 268 336
#
# _framework density 26.869050999999999
#
# number of rings (size 3 to 8) (size 9 to 14) (size 15 to 20)
#    1.714    0.286    1.429    1.714    6.000    1.143 
#    0.000    0.000    0.000    0.000    0.000    6.000 
#    0.000    0.000    0.000    0.000    0.000    0.000 
#
# Total GULP energy -78216.840670 kJ/mol
# GULP energy per Si atom -5586.917191 kJ/mol
# Density = 2.680790 g / cm^3
# Si number density = 26.869051 Si / 1000 Ang^3
#
#
#
# Elastic Constant Matrix: (Units=GPa)
#
#
# Indices 1 2 3 4 5 6 
#
# 1 95.3882 31.8974 17.6629 15.8887 -1.3635 20.7021
# 2 31.8974 156.7331 15.7791 -15.4434 -9.4431 26.2811
# 3 17.6629 15.7791 76.9335 15.0033 2.3855 -3.4890
# 4 15.8887 -15.4434 15.0033 50.4763 -0.5417 0.1059
# 5 -1.3635 -9.4431 2.3855 -0.5417 32.0028 -0.5339
# 6 20.7021 26.2811 -3.4890 0.1059 -0.5339 47.5428
#
#
#
# Elastic Compliance Matrix: (Units=1/GPa)
#
#
# Indices 1 2 3 4 5 6 
#
# 1 0.013303 -0.002129 -0.002006 -0.004233 -0.000063 -0.004754
# 2 -0.002129 0.008193 -0.002192 0.003863 0.002493 -0.003743
# 3 -0.002006 -0.002192 0.014992 -0.004522 -0.001873 0.003174
# 4 -0.004233 0.003863 -0.004522 0.023689 0.001687 -0.000658
# 5 -0.000063 0.002493 -0.001873 0.001687 0.032129 -0.001131
# 6 -0.004754 -0.003743 0.003174 -0.000658 -0.001131 0.025395
#
#
# Mechanical properties :
#
#
# Convention : Reuss Voigt Hill
#
# Bulk Modulus (GPa) = 41.95576 51.08150 46.51863
# Shear Modulus (GPa) = 36.15343 43.58542 39.86942
#
# Velocity S-wave (km/s) = 3.67214 4.03195 3.85625
# Velocity P-wave (km/s) = 5.79899 6.38185 6.09739
#
# Compressibility (1/GPa) = 0.02383463
#
# Stress axis : x y z
#
# Youngs Moduli (GPa) = 75.17181 122.05918 66.70131
#
# Poissons Ratio (x) = 0.25988 0.13377
# Poissons Ratio (y) = 0.16005 0.14620
# Poissons Ratio (z) = 0.15076 0.26754
#
# Static dielectric constant tensor:
#      x y z
#    x 2.286070 0.013360 -0.102310 
#    y 0.013360 2.016130 0.022260 
#    z -0.102310 0.022260 2.192150 
# 
# From -- ./inp_files/80560.got.cif
#   From: 2010.05.17/outbox.cif.g08.bks.cpg/sg2_41_cif.got.tgz:80560.got - 2010.06.03 11:33:40.
