data_PCOD9092146
_publ_section_title
;
Structure prediction by ZEFSAII (Michael W. Deem and Ramdas Pophale) SiO2 
 PCOD9092146
Probable space group: P -1
;
_chemical_formula_sum "Si O2"
_cell_formula_units_Z 16
_cell_length_a 9.276635
_cell_length_b 17.227742
_cell_length_c 16.372490
_cell_angle_alpha 33.671708
_cell_angle_beta 71.584673
_cell_angle_gamma 45.613187
_cell_volume 767.796030
_symmetry_space_group_name_H-M "P -1"
_symmetry_group_IT_number 2
_symmetry_cell_setting 'triclinic'
loop_
_space_group_symop_operation_xyz
x,y,z
-x,-y,-z
loop_
_atom_site_type_symbol
_atom_site_label
_atom_site_fract_x
_atom_site_fract_y
_atom_site_fract_z
Si Si1 0.007523 0.414733 0.418567
Si Si2 0.023039 0.260770 0.068697
Si Si3 0.071359 0.104376 0.370198
Si Si4 0.024477 0.831911 0.102571
Si Si5 0.669049 0.968181 0.164887
Si Si6 0.561872 0.112765 0.807337
Si Si7 0.323432 0.438768 0.285310
Si Si8 0.140326 0.503624 0.809685
O O1 0.729334 0.613518 0.346462
O O2 0.965810 0.387966 0.358291
O O3 0.250222 0.167187 0.646889
O O4 0.098544 0.503678 0.304908
O O5 0.957105 0.243449 0.181896
O O6 0.286310 0.980601 0.225789
O O7 0.071311 0.394257 0.946078
O O8 0.782763 0.428683 0.899083
O O9 0.978938 0.288894 0.291315
O O10 0.396377 0.854108 0.519106
O O11 0.000000 0.000000 0.500000
O O12 0.950347 0.787913 0.228967
O O13 0.306070 0.578505 0.230146
O O14 0.784994 0.993074 0.937206
O O15 0.000000 0.000000 0.000000
O O16 0.506384 0.998992 0.099972
O O17 0.468791 0.249633 0.970866
#
# Coordination Sequence:
#
# PCOD9092146 Si02
#       8
#     2   2   2   2   2   2   2   2
#     4  11  21  38  71 106 124 161 220 282 324 381
#     4   9  22  41  69  92 120 173 218 272 321 378
#     4  12  27  44  63  88 133 179 221 265 322 395
#     4  11  23  38  63  96 141 173 206 263 331 403
#     4  11  21  37  69  97 127 173 215 266 330 382
#     4  10  19  40  66  99 135 161 217 271 327 390
#     4  10  23  41  65  96 125 165 221 268 323 387
#     4  10  23  42  64  94 133 164 220 275 318 381
#
# _framework density 20.838868000000002
#
# number of rings (size 3 to 8) (size 9 to 14) (size 15 to 20)
#    0.000    1.500    2.500    3.375    3.500    3.500 
#    4.500    0.625    0.000    0.000    0.000    0.000 
#    0.000    0.000    0.000    0.000    0.000    0.000 
#
# Total GULP energy -89139.526203 kJ/mol
# GULP energy per Si atom -5571.220388 kJ/mol
# Density = 2.079144 g / cm^3
# Si number density = 20.838868 Si / 1000 Ang^3
#
#
#
# Elastic Constant Matrix: (Units=GPa)
#
#
# Indices 1 2 3 4 5 6 
#
# 1 49.3186 53.0803 40.5915 6.3869 -9.7960 19.4275
# 2 53.0803 153.1238 73.6657 -4.8800 -14.6683 40.0710
# 3 40.5915 73.6657 106.1689 4.9704 9.1700 26.7847
# 4 6.3869 -4.8800 4.9704 43.8775 -5.7127 -5.8721
# 5 -9.7960 -14.6683 9.1700 -5.7127 19.6915 -5.2655
# 6 19.4275 40.0710 26.7847 -5.8721 -5.2655 26.6177
#
#
#
# Elastic Compliance Matrix: (Units=1/GPa)
#
#
# Indices 1 2 3 4 5 6 
#
# 1 0.044385 -0.005066 -0.012929 -0.003976 0.020901 -0.008502
# 2 -0.005066 0.015541 -0.007775 0.003647 0.011377 -0.008820
# 3 -0.012929 -0.007775 0.025764 -0.007406 -0.029655 -0.012285
# 4 -0.003976 0.003647 -0.007406 0.028676 0.016365 0.014427
# 5 0.020901 0.011377 -0.029655 0.016365 0.093442 0.019554
# 6 -0.008502 -0.008820 -0.012285 0.014427 0.019554 0.076465
#
#
# Mechanical properties :
#
#
# Convention : Reuss Voigt Hill
#
# Bulk Modulus (GPa) = 29.28168 71.47626 50.37897
# Shear Modulus (GPa) = 14.40109 27.45558 20.92833
#
# Velocity S-wave (km/s) = 2.63167 3.63370 3.17250
# Velocity P-wave (km/s) = 4.82869 7.20965 6.13576
#
# Compressibility (1/GPa) = 0.03415104
#
# Stress axis : x y z
#
# Youngs Moduli (GPa) = 22.53011 64.34469 38.81372
#
# Poissons Ratio (x) = 0.32596 0.50182
# Poissons Ratio (y) = 0.11413 0.30177
# Poissons Ratio (z) = 0.29129 0.50027
#
# Static dielectric constant tensor:
#      x y z
#    x 1.796640 -0.026030 0.002100 
#    y -0.026030 1.787660 -0.014550 
#    z 0.002100 -0.014550 1.759850 
# 
# From -- ./inp_files/505256.got.cif
#   From: 2010.05.17/outbox.cif.g08.bks.cpg/sg2_253_cif.got.tgz:505256.got - 2010.06.03 11:33:40.
