data_PCOD9092701
_publ_section_title
;
Structure prediction by ZEFSAII (Michael W. Deem and Ramdas Pophale) SiO2 
 PCOD9092701
Probable space group: P -1
;
_chemical_formula_sum "Si O2"
_cell_formula_units_Z 14
_cell_length_a 12.059718
_cell_length_b 23.825706
_cell_length_c 6.298503
_cell_angle_alpha 125.861638
_cell_angle_beta 55.228885
_cell_angle_gamma 156.581411
_cell_volume 579.912326
_symmetry_space_group_name_H-M "P -1"
_symmetry_group_IT_number 2
_symmetry_cell_setting 'triclinic'
loop_
_space_group_symop_operation_xyz
x,y,z
-x,-y,-z
loop_
_atom_site_type_symbol
_atom_site_label
_atom_site_fract_x
_atom_site_fract_y
_atom_site_fract_z
Si Si1 0.147406 0.095602 0.260052
Si Si2 0.409984 0.097452 0.176217
Si Si3 0.816573 0.220548 0.683376
Si Si4 0.135018 0.883205 0.308510
Si Si5 0.640436 0.474620 0.002982
Si Si6 0.845538 0.650071 0.792877
Si Si7 0.334399 0.656020 0.478349
O O1 0.136329 0.020270 0.251763
O O2 0.478466 0.262273 0.326105
O O3 0.003118 0.105191 0.465231
O O4 0.000000 0.000000 0.000000
O O5 0.594621 0.233386 0.415832
O O6 0.365787 0.009642 0.165271
O O7 0.554525 0.143161 0.896903
O O8 0.791875 0.131046 0.602133
O O9 0.897221 0.252860 0.422446
O O10 0.082930 0.381510 0.850126
O O11 0.932574 0.742204 0.085524
O O12 0.712882 0.526723 0.793169
O O13 0.565504 0.360086 0.822401
O O14 0.390963 0.412605 0.211622
O O15 0.000000 0.500000 0.500000
#
# Coordination Sequence:
#
# PCOD9092701 Si02
#       7
#     2   2   2   2   2   2   2
#     4  10  23  43  69 102 137 179 239 280 343 421
#     4  10  23  42  67  98 141 183 227 288 348 405
#     4  11  23  40  67 102 138 175 238 288 343 410
#     4  11  23  43  67  99 136 191 228 286 347 416
#     4  10  19  42  64  98 129 178 228 279 354 407
#     4  10  22  38  68  94 138 178 225 284 346 417
#     4  10  20  42  74  93 136 183 230 286 354 402
#
# _framework density 24.141580000000001
#
# number of rings (size 3 to 8) (size 9 to 14) (size 15 to 20)
#    0.857    0.857    2.857    1.286    2.000    0.571 
#    5.143    0.714    0.000    0.000    0.000    0.000 
#    0.000    0.000    0.000    0.000    0.000    0.000 
#
# Total GULP energy -78020.130917 kJ/mol
# GULP energy per Si atom -5572.866494 kJ/mol
# Density = 2.408663 g / cm^3
# Si number density = 24.141580 Si / 1000 Ang^3
#
#
#
# Elastic Constant Matrix: (Units=GPa)
#
#
# Indices 1 2 3 4 5 6 
#
# 1 103.0230 18.5836 48.9939 5.2937 -19.2980 3.6698
# 2 18.5836 54.3836 25.5735 15.8652 7.0099 -6.1402
# 3 48.9939 25.5735 117.0390 4.7156 -20.9812 5.8313
# 4 5.2937 15.8652 4.7156 46.5721 7.2219 -1.7086
# 5 -19.2980 7.0099 -20.9812 7.2219 35.0803 12.3792
# 6 3.6698 -6.1402 5.8313 -1.7086 12.3792 44.5148
#
#
#
# Elastic Compliance Matrix: (Units=1/GPa)
#
#
# Indices 1 2 3 4 5 6 
#
# 1 0.013649 -0.004302 -0.003114 -0.001143 0.008005 -0.003581
# 2 -0.004302 0.027555 -0.006916 -0.005722 -0.013904 0.008708
# 3 -0.003114 -0.006916 0.013328 -0.000300 0.009500 -0.005097
# 4 -0.001143 -0.005722 -0.000300 0.024472 -0.005326 0.001765
# 5 0.008005 -0.013904 0.009500 -0.005326 0.048663 -0.017559
# 6 -0.003581 0.008708 -0.005097 0.001765 -0.017559 0.029579
#
#
# Mechanical properties :
#
#
# Convention : Reuss Voigt Hill
#
# Bulk Modulus (GPa) = 38.65841 51.19419 44.92630
# Shear Modulus (GPa) = 25.70254 37.31973 31.51114
#
# Velocity S-wave (km/s) = 3.26645 3.93602 3.61676
# Velocity P-wave (km/s) = 5.50220 6.47365 6.00760
#
# Compressibility (1/GPa) = 0.02586759
#
# Stress axis : x y z
#
# Youngs Moduli (GPa) = 73.26363 36.29139 75.02953
#
# Poissons Ratio (x) = 0.15613 0.23367
# Poissons Ratio (y) = 0.31520 0.51889
# Poissons Ratio (z) = 0.22817 0.25098
#
# Static dielectric constant tensor:
#      x y z
#    x 2.016170 0.014010 0.040500 
#    y 0.014010 1.975570 -0.034890 
#    z 0.040500 -0.034890 1.955900 
# 
# From -- ./inp_files/101627.got.cif
#   From: 2010.05.17/outbox.cif.g08.bks.cpg/sg2_51_cif.got.tgz:101627.got - 2010.06.03 11:33:40.
