data_PCOD9092000
_publ_section_title
;
Structure prediction by ZEFSAII (Michael W. Deem and Ramdas Pophale) SiO2 
 PCOD9092000
Probable space group: P -1
;
_chemical_formula_sum "Si O2"
_cell_formula_units_Z 12
_cell_length_a 9.390578
_cell_length_b 14.923898
_cell_length_c 8.912555
_cell_angle_alpha 141.326474
_cell_angle_beta 51.622940
_cell_angle_gamma 110.365478
_cell_volume 587.567152
_symmetry_space_group_name_H-M "P -1"
_symmetry_group_IT_number 2
_symmetry_cell_setting 'triclinic'
loop_
_space_group_symop_operation_xyz
x,y,z
-x,-y,-z
loop_
_atom_site_type_symbol
_atom_site_label
_atom_site_fract_x
_atom_site_fract_y
_atom_site_fract_z
Si Si1 0.343619 0.456959 0.849121
Si Si2 0.660130 0.862473 0.649209
Si Si3 0.023070 0.259741 0.205691
Si Si4 0.939757 0.245546 0.585752
Si Si5 0.296355 0.442010 0.219599
Si Si6 0.860565 0.986746 0.438448
O O1 0.390337 0.293922 0.533673
O O2 0.510970 0.533629 0.813867
O O3 0.151999 0.580623 0.088779
O O4 0.320602 0.433086 0.011479
O O5 0.707900 0.918722 0.528272
O O6 0.853536 0.820916 0.565156
O O7 0.500000 0.000000 0.000000
O O8 0.218936 0.306477 0.148219
O O9 0.958338 0.228711 0.372651
O O10 0.867834 0.406547 0.439361
O O11 0.040711 0.126862 0.904683
O O12 0.806296 0.149041 0.611044
O O13 0.000000 0.000000 0.500000
#
# Coordination Sequence:
#
# PCOD9092000 Si02
#       6
#     2   2   2   2   2   2
#     4  10  20  41  62  91 126 160 210 248 304 367
#     4  11  24  42  63  91 125 166 204 253 311 366
#     4  10  19  40  64  95 122 158 211 251 304 365
#     4  10  23  40  64  94 123 162 205 257 307 355
#     4   9  20  35  66  92 120 165 201 256 306 358
#     4  10  22  40  62  89 127 164 199 252 314 361
#
# _framework density 20.423196999999998
#
# number of rings (size 3 to 8) (size 9 to 14) (size 15 to 20)
#    0.000    2.000    1.667    1.000    4.667    1.333 
#    3.000    3.333    0.000    0.000    0.000    0.000 
#    0.000    0.000    0.000    0.000    0.000    0.000 
#
# Total GULP energy -66940.101229 kJ/mol
# GULP energy per Si atom -5578.341769 kJ/mol
# Density = 2.037671 g / cm^3
# Si number density = 20.423197 Si / 1000 Ang^3
#
#
#
# Elastic Constant Matrix: (Units=GPa)
#
#
# Indices 1 2 3 4 5 6 
#
# 1 55.2711 29.4535 44.7289 15.5354 -3.2863 9.4819
# 2 29.4535 105.9358 31.9775 11.6143 6.1507 -0.9950
# 3 44.7289 31.9775 137.6122 32.4160 4.1929 3.4891
# 4 15.5354 11.6143 32.4160 29.8319 6.8678 2.3020
# 5 -3.2863 6.1507 4.1929 6.8678 29.6705 1.4395
# 6 9.4819 -0.9950 3.4891 2.3020 1.4395 20.2338
#
#
#
# Elastic Compliance Matrix: (Units=1/GPa)
#
#
# Indices 1 2 3 4 5 6 
#
# 1 0.032401 -0.006661 -0.007151 -0.007352 0.008363 -0.014037
# 2 -0.006661 0.011688 -0.000541 -0.000052 -0.003268 0.004028
# 3 -0.007151 -0.000541 0.011779 -0.008957 -0.000385 0.002339
# 4 -0.007352 -0.000052 -0.008957 0.049633 -0.011032 0.000125
# 5 0.008363 -0.003268 -0.000385 -0.011032 0.038181 -0.005475
# 6 -0.014037 0.004028 0.002339 0.000125 -0.005475 0.056170
#
#
# Mechanical properties :
#
#
# Convention : Reuss Voigt Hill
#
# Bulk Modulus (GPa) = 36.81622 56.79322 46.80472
# Shear Modulus (GPa) = 21.04270 28.79118 24.91694
#
# Velocity S-wave (km/s) = 3.21336 3.75871 3.49668
# Velocity P-wave (km/s) = 5.64211 6.83416 6.26654
#
# Compressibility (1/GPa) = 0.02716194
#
# Stress axis : x y z
#
# Youngs Moduli (GPa) = 30.86341 85.55507 84.89651
#
# Poissons Ratio (x) = 0.56991 0.60706
# Poissons Ratio (y) = 0.20559 0.04595
# Poissons Ratio (z) = 0.22069 0.04630
#
# Static dielectric constant tensor:
#      x y z
#    x 1.736700 0.028560 -0.010870 
#    y 0.028560 1.756690 0.001360 
#    z -0.010870 0.001360 1.702940 
# 
# From -- ./inp_files/145981.got.cif
#   From: 2010.05.17/outbox.cif.g08.bks.cpg/sg2_73_cif.got.tgz:145981.got - 2010.06.03 11:33:40.
