data_PCOD9092237
_publ_section_title
;
Structure prediction by ZEFSAII (Michael W. Deem and Ramdas Pophale) SiO2 
 PCOD9092237
Probable space group: P -1
;
_chemical_formula_sum "Si O2"
_cell_formula_units_Z 16
_cell_length_a 17.377291
_cell_length_b 8.946701
_cell_length_c 11.966269
_cell_angle_alpha 113.420898
_cell_angle_beta 28.042687
_cell_angle_gamma 127.863502
_cell_volume 636.217878
_symmetry_space_group_name_H-M "P -1"
_symmetry_group_IT_number 2
_symmetry_cell_setting 'triclinic'
loop_
_space_group_symop_operation_xyz
x,y,z
-x,-y,-z
loop_
_atom_site_type_symbol
_atom_site_label
_atom_site_fract_x
_atom_site_fract_y
_atom_site_fract_z
Si Si1 0.467663 0.503302 0.908517
Si Si2 0.792150 0.316032 0.150103
Si Si3 0.367216 0.949472 0.330986
Si Si4 0.036844 0.568895 0.698106
Si Si5 0.660600 0.693090 0.504702
Si Si6 0.626384 0.852752 0.233232
Si Si7 0.753134 0.280715 0.805718
Si Si8 0.791627 0.700250 0.113951
O O1 0.669491 0.650267 0.611299
O O2 0.371070 0.280168 0.909871
O O3 0.500000 0.500000 0.000000
O O4 0.346971 0.601934 0.064317
O O5 0.872267 0.411762 0.953163
O O6 0.713688 0.083331 0.165818
O O7 0.000000 0.500000 0.000000
O O8 0.597260 0.273302 0.455259
O O9 0.280503 0.748117 0.459181
O O10 0.253528 0.838308 0.327573
O O11 0.327323 0.107147 0.467949
O O12 0.603078 0.099883 0.033616
O O13 0.964130 0.711766 0.829120
O O14 0.972098 0.433910 0.630800
O O15 0.805827 0.698689 0.228427
O O16 0.429196 0.506775 0.704077
O O17 0.777141 0.873889 0.142079
#
# Coordination Sequence:
#
# PCOD9092237 Si02
#       8
#     2   2   2   2   2   2   2   2
#     4  10  20  39  65  94 125 173 218 266 319 394
#     4  11  27  42  63 102 133 170 218 271 335 401
#     4  10  22  36  65  94 125 167 215 272 317 375
#     4  12  22  40  68  95 129 165 223 277 314 385
#     4   9  18  36  60  91 122 161 212 253 323 378
#     4  10  23  47  67  88 142 180 206 269 347 378
#     4  10  22  43  60  93 130 170 226 259 324 389
#     4  10  19  40  68  93 126 167 218 268 314 393
#
# _framework density 25.148619
#
# number of rings (size 3 to 8) (size 9 to 14) (size 15 to 20)
#    0.000    1.750    3.750    2.625    1.750    5.500 
#    6.750    0.000    0.000    4.500    0.000    0.000 
#    0.000    0.000    0.000    0.000    0.000    0.000 
#
# Total GULP energy -89196.330773 kJ/mol
# GULP energy per Si atom -5574.770673 kJ/mol
# Density = 2.509138 g / cm^3
# Si number density = 25.148619 Si / 1000 Ang^3
#
#
#
# Elastic Constant Matrix: (Units=GPa)
#
#
# Indices 1 2 3 4 5 6 
#
# 1 65.8843 12.3355 45.9723 -4.1827 29.5182 -0.5301
# 2 12.3355 128.2564 71.7270 -21.1696 4.0348 5.2072
# 3 45.9723 71.7270 124.6834 4.8496 27.9785 1.9879
# 4 -4.1827 -21.1696 4.8496 60.1877 10.9362 5.6878
# 5 29.5182 4.0348 27.9785 10.9362 39.3644 5.2334
# 6 -0.5301 5.2072 1.9879 5.6878 5.2334 35.2939
#
#
#
# Elastic Compliance Matrix: (Units=1/GPa)
#
#
# Indices 1 2 3 4 5 6 
#
# 1 0.029783 0.004281 -0.009676 0.007491 -0.018223 0.001856
# 2 0.004281 0.014171 -0.010205 0.006127 0.001237 -0.002623
# 3 -0.009676 -0.010205 0.018436 -0.005260 -0.003567 0.001698
# 4 0.007491 0.006127 -0.005260 0.021446 -0.008099 -0.002750
# 5 -0.018223 0.001237 -0.003567 -0.008099 0.044464 -0.005543
# 6 0.001856 -0.002623 0.001698 -0.002750 -0.005543 0.029918
#
#
# Mechanical properties :
#
#
# Convention : Reuss Voigt Hill
#
# Bulk Modulus (GPa) = 32.06028 64.32152 48.19090
# Shear Modulus (GPa) = 25.02326 39.55516 32.28921
#
# Velocity S-wave (km/s) = 3.15781 3.97023 3.58709
# Velocity P-wave (km/s) = 5.10604 6.83001 6.02995
#
# Compressibility (1/GPa) = 0.03119124
#
# Stress axis : x y z
#
# Youngs Moduli (GPa) = 33.57601 70.56674 54.24075
#
# Poissons Ratio (x) = -0.30211 0.52484
# Poissons Ratio (y) = -0.14375 0.55351
# Poissons Ratio (z) = 0.32488 0.72011
#
# Static dielectric constant tensor:
#      x y z
#    x 2.188110 -0.129600 0.172900 
#    y -0.129600 2.040560 -0.120070 
#    z 0.172900 -0.120070 2.165650 
# 
# From -- ./inp_files/433251.got.cif
#   From: 2010.05.17/outbox.cif.g08.bks.cpg/sg2_217_cif.got.tgz:433251.got - 2010.06.03 11:33:40.
