data_PCOD9092677
_publ_section_title
;
Structure prediction by ZEFSAII (Michael W. Deem and Ramdas Pophale) SiO2 
 PCOD9092677
Probable space group: P -1
;
_chemical_formula_sum "Si O2"
_cell_formula_units_Z 16
_cell_length_a 15.114046
_cell_length_b 15.320101
_cell_length_c 11.289418
_cell_angle_alpha 36.706223
_cell_angle_beta 37.209607
_cell_angle_gamma 26.464400
_cell_volume 665.184508
_symmetry_space_group_name_H-M "P -1"
_symmetry_group_IT_number 2
_symmetry_cell_setting 'triclinic'
loop_
_space_group_symop_operation_xyz
x,y,z
-x,-y,-z
loop_
_atom_site_type_symbol
_atom_site_label
_atom_site_fract_x
_atom_site_fract_y
_atom_site_fract_z
Si Si1 0.861219 0.510552 0.042425
Si Si2 0.726921 0.338034 0.491275
Si Si3 0.500711 0.337919 0.070406
Si Si4 0.962666 0.267981 0.801173
Si Si5 0.832996 0.701432 0.253579
Si Si6 0.579102 0.597952 0.598709
Si Si7 0.184544 0.941135 0.748453
Si Si8 0.402860 0.865756 0.066744
O O1 0.870600 0.331380 0.260025
O O2 0.616083 0.723892 0.069089
O O3 0.000000 0.500000 0.000000
O O4 0.953657 0.472861 0.855241
O O5 0.500000 0.500000 0.500000
O O6 0.695464 0.457903 0.511320
O O7 0.752340 0.150747 0.701331
O O8 0.262135 0.504457 0.182925
O O9 0.653957 0.172886 0.188400
O O10 0.555891 0.468133 0.843067
O O11 0.532381 0.234960 0.024292
O O12 0.122490 0.254755 0.716104
O O13 0.942350 0.120541 0.043620
O O14 0.033517 0.180240 0.686699
O O15 0.705916 0.644369 0.459791
O O16 0.704997 0.903880 0.087363
O O17 0.338113 0.826017 0.597720
#
# Coordination Sequence:
#
# PCOD9092677 Si02
#       8
#     2   2   2   2   2   2   2   2
#     4  11  22  42  64  88 122 156 195 253 302 347
#     4   9  20  40  64  86 116 160 202 243 296 354
#     4  10  19  42  63  84 119 164 201 241 293 355
#     4  10  20  36  62  87 117 157 202 241 291 352
#     4  12  23  39  61  92 125 155 193 253 305 349
#     4  10  21  37  60  89 124 155 195 251 301 345
#     4  10  21  39  63  88 117 164 204 241 290 358
#     4  10  22  40  64  87 120 159 199 242 298 361
#
# _framework density 24.053477000000001
#
# number of rings (size 3 to 8) (size 9 to 14) (size 15 to 20)
#    0.000    1.750    3.750    1.500    1.750    1.500 
#    0.000   10.000    0.000    0.000    0.000    0.000 
#    0.000    0.000    0.000    0.000    0.000    0.000 
#
# Total GULP energy -89435.105362 kJ/mol
# GULP energy per Si atom -5589.694085 kJ/mol
# Density = 2.399873 g / cm^3
# Si number density = 24.053477 Si / 1000 Ang^3
#
#
#
# Elastic Constant Matrix: (Units=GPa)
#
#
# Indices 1 2 3 4 5 6 
#
# 1 97.8329 -4.9638 17.8331 -16.0502 -33.5551 -8.3037
# 2 -4.9638 68.4961 24.7719 0.1531 -18.0603 -15.7453
# 3 17.8331 24.7719 114.4014 -0.9023 -25.2442 -5.9001
# 4 -16.0502 0.1531 -0.9023 29.1422 -1.0213 3.9999
# 5 -33.5551 -18.0603 -25.2442 -1.0213 36.6580 1.1686
# 6 -8.3037 -15.7453 -5.9001 3.9999 1.1686 24.1930
#
#
#
# Elastic Compliance Matrix: (Units=1/GPa)
#
#
# Indices 1 2 3 4 5 6 
#
# 1 0.022845 0.011247 0.000641 0.011827 0.026839 0.012066
# 2 0.011247 0.025936 -0.001639 0.004206 0.021468 0.018608
# 3 0.000641 -0.001639 0.010630 0.000764 0.007081 0.001278
# 4 0.011827 0.004206 0.000764 0.041420 0.014596 -0.000570
# 5 0.026839 0.021468 0.007081 0.014596 0.067092 0.019257
# 6 0.012066 0.018608 0.001278 -0.000570 0.019257 0.057061
#
#
# Mechanical properties :
#
#
# Convention : Reuss Voigt Hill
#
# Bulk Modulus (GPa) = 12.51404 39.55701 26.03552
# Shear Modulus (GPa) = 21.63361 34.20461 27.91911
#
# Velocity S-wave (km/s) = 3.00225 3.77506 3.41062
# Velocity P-wave (km/s) = 4.15113 5.95673 5.13393
#
# Compressibility (1/GPa) = 0.07991023
#
# Stress axis : x y z
#
# Youngs Moduli (GPa) = 43.77324 38.55690 94.06931
#
# Poissons Ratio (x) = -0.43366 -0.06034
# Poissons Ratio (y) = -0.49233 0.15419
# Poissons Ratio (z) = -0.02808 0.06320
#
# Static dielectric constant tensor:
#      x y z
#    x 1.890510 0.010770 -0.003390 
#    y 0.010770 1.989600 0.010540 
#    z -0.003390 0.010540 1.867910 
# 
# From -- ./inp_files/454508.got.cif
#   From: 2010.05.17/outbox.cif.g08.bks.cpg/sg2_228_cif.got.tgz:454508.got - 2010.06.03 11:33:40.
