data_PCOD9092464
_publ_section_title
;
Structure prediction by ZEFSAII (Michael W. Deem and Ramdas Pophale) SiO2 
 PCOD9092464
Probable space group: P -1
;
_chemical_formula_sum "Si O2"
_cell_formula_units_Z 15
_cell_length_a 8.622850
_cell_length_b 11.588516
_cell_length_c 13.376716
_cell_angle_alpha 34.060131
_cell_angle_beta 77.802563
_cell_angle_gamma 100.074033
_cell_volume 562.675843
_symmetry_space_group_name_H-M "P -1"
_symmetry_group_IT_number 2
_symmetry_cell_setting 'triclinic'
loop_
_space_group_symop_operation_xyz
x,y,z
-x,-y,-z
loop_
_atom_site_type_symbol
_atom_site_label
_atom_site_fract_x
_atom_site_fract_y
_atom_site_fract_z
Si Si1 0.111196 0.875527 0.055814
Si Si2 0.500000 0.000000 0.000000
Si Si3 0.511247 0.279521 0.934468
Si Si4 0.392751 0.649009 0.687687
Si Si5 0.246224 0.750633 0.449019
Si Si6 0.910782 0.212226 0.105176
Si Si7 0.369002 0.648513 0.900843
Si Si8 0.927317 0.966218 0.645990
O O1 0.927821 0.558354 0.331136
O O2 0.166282 0.897396 0.915825
O O3 0.327703 0.039292 0.964825
O O4 0.000000 0.000000 0.000000
O O5 0.342203 0.686356 0.194322
O O6 0.372082 0.943718 0.196746
O O7 0.432693 0.442095 0.809149
O O8 0.577400 0.328723 0.005717
O O9 0.406079 0.793198 0.480419
O O10 0.502021 0.792586 0.676875
O O11 0.148851 0.470468 0.869894
O O12 0.138256 0.863288 0.431593
O O13 0.911798 0.009329 0.319048
O O14 0.796096 0.304588 0.106156
O O15 0.270282 0.346407 0.103643
O O16 0.000000 0.000000 0.500000
#
# Coordination Sequence:
#
# PCOD9092464 Si02
#       8
#     2   1   2   2   2   2   2   2
#     4  11  25  49  76  99 140 197 244 311 364 417
#     4  12  26  48  74  96 142 192 252 302 358 418
#     4  12  25  46  67 105 140 190 240 296 360 425
#     4  10  21  41  69  95 144 180 221 292 362 427
#     4  11  24  44  71 107 134 189 243 284 374 440
#     4  10  19  41  65  99 138 182 231 289 358 423
#     4  11  21  40  66 104 150 179 225 294 359 430
#     4  11  21  37  68 108 141 185 233 284 363 456
#
# _framework density 26.658332000000001
#
# number of rings (size 3 to 8) (size 9 to 14) (size 15 to 20)
#    0.000    1.067    4.000    6.000    0.000    1.067 
#    2.400    4.000    0.000    0.000    0.000    0.000 
#    0.000    0.000    0.000    0.000    0.000    0.000 
#
# Total GULP energy -83693.917110 kJ/mol
# GULP energy per Si atom -5579.594474 kJ/mol
# Density = 2.659766 g / cm^3
# Si number density = 26.658332 Si / 1000 Ang^3
#
#
#
# Elastic Constant Matrix: (Units=GPa)
#
#
# Indices 1 2 3 4 5 6 
#
# 1 133.6506 38.8736 39.5207 -13.3180 37.2994 -10.0388
# 2 38.8736 134.5616 28.1174 -5.8613 29.9830 0.4218
# 3 39.5207 28.1174 110.8455 -9.6746 27.8422 3.2641
# 4 -13.3180 -5.8613 -9.6746 54.3068 -0.1008 24.9028
# 5 37.2994 29.9830 27.8422 -0.1008 59.5447 -4.6651
# 6 -10.0388 0.4218 3.2641 24.9028 -4.6651 62.4417
#
#
#
# Elastic Compliance Matrix: (Units=1/GPa)
#
#
# Indices 1 2 3 4 5 6 
#
# 1 0.009945 -0.001384 -0.001928 0.001604 -0.004572 0.000728
# 2 -0.001384 0.008760 -0.000824 0.000824 -0.003220 -0.000808
# 3 -0.001928 -0.000824 0.011129 0.002384 -0.003743 -0.002117
# 4 0.001604 0.000824 0.002384 0.023702 -0.003244 -0.009568
# 5 -0.004572 -0.003220 -0.003743 -0.003244 0.023221 0.002511
# 6 0.000728 -0.000808 -0.002117 -0.009568 0.002511 0.020251
#
#
# Mechanical properties :
#
#
# Convention : Reuss Voigt Hill
#
# Bulk Modulus (GPa) = 46.37889 65.78679 56.08284
# Shear Modulus (GPa) = 44.45777 53.42839 48.94308
#
# Velocity S-wave (km/s) = 4.08816 4.48168 4.28943
# Velocity P-wave (km/s) = 6.30233 7.17718 6.75394
#
# Compressibility (1/GPa) = 0.02156154
#
# Stress axis : x y z
#
# Youngs Moduli (GPa) = 100.55114 114.16163 89.85931
#
# Poissons Ratio (x) = 0.15800 0.17324
# Poissons Ratio (y) = 0.13916 0.07404
# Poissons Ratio (z) = 0.19385 0.09406
#
# Static dielectric constant tensor:
#      x y z
#    x 2.186390 0.170710 -0.063960 
#    y 0.170710 1.850500 -0.076530 
#    z -0.063960 -0.076530 2.227470 
# 
# From -- ./inp_files/499726.got.cif
#   From: 2010.05.17/outbox.cif.g08.bks.cpg/sg2_250_cif.got.tgz:499726.got - 2010.06.03 11:33:40.
