data_PCOD9092936
_publ_section_title
;
Structure prediction by ZEFSAII (Michael W. Deem and Ramdas Pophale) SiO2 
 PCOD9092936
Probable space group: P -1
;
_chemical_formula_sum "Si O2"
_cell_formula_units_Z 14
_cell_length_a 9.668237
_cell_length_b 12.146765
_cell_length_c 8.650081
_cell_angle_alpha 58.565284
_cell_angle_beta 45.288289
_cell_angle_gamma 64.697232
_cell_volume 612.892532
_symmetry_space_group_name_H-M "P -1"
_symmetry_group_IT_number 2
_symmetry_cell_setting 'triclinic'
loop_
_space_group_symop_operation_xyz
x,y,z
-x,-y,-z
loop_
_atom_site_type_symbol
_atom_site_label
_atom_site_fract_x
_atom_site_fract_y
_atom_site_fract_z
Si Si1 0.646643 0.769263 0.279528
Si Si2 0.310124 0.340230 0.340559
Si Si3 0.360418 0.447676 0.779783
Si Si4 0.669960 0.369150 0.863778
Si Si5 0.011324 0.794746 0.468470
Si Si6 0.195365 0.727380 0.704790
Si Si7 0.954156 0.946238 0.906980
O O1 0.725905 0.703394 0.425137
O O2 0.716611 0.676611 0.148771
O O3 0.412649 0.771871 0.472029
O O4 0.733702 0.906261 0.099733
O O5 0.251850 0.493936 0.257151
O O6 0.191941 0.259204 0.375627
O O7 0.542622 0.318731 0.139265
O O8 0.500000 0.500000 0.500000
O O9 0.501872 0.405800 0.840327
O O10 0.214456 0.573768 0.839140
O O11 0.833824 0.271954 0.729166
O O12 0.083730 0.753466 0.611111
O O13 0.004421 0.946859 0.330066
O O14 0.087930 0.814965 0.857175
O O15 0.000000 0.000000 0.000000
#
# Coordination Sequence:
#
# PCOD9092936 Si02
#       7
#     2   2   2   2   2   2   2
#     4  11  23  47  71  99 136 183 225 284 337 401
#     4  11  24  40  71 103 138 173 225 283 345 391
#     4  10  19  44  72 101 131 174 227 279 344 400
#     4  11  23  43  70 104 137 176 221 282 350 398
#     4  12  25  46  65 103 139 177 230 279 327 413
#     4  11  25  46  73  97 141 178 225 285 340 402
#     4  12  29  45  68 103 137 184 235 270 336 408
#
# _framework density 22.842504000000002
#
# number of rings (size 3 to 8) (size 9 to 14) (size 15 to 20)
#    0.000    0.857    7.143    0.857    4.000    2.857 
#    2.571    0.000    0.000    0.000    0.000    0.000 
#    0.000    0.000    0.000    0.000    0.000    0.000 
#
# Total GULP energy -78386.337490 kJ/mol
# GULP energy per Si atom -5599.024106 kJ/mol
# Density = 2.279051 g / cm^3
# Si number density = 22.842504 Si / 1000 Ang^3
#
#
#
# Elastic Constant Matrix: (Units=GPa)
#
#
# Indices 1 2 3 4 5 6 
#
# 1 90.3299 -20.6113 28.1023 -26.8259 -4.6232 20.7453
# 2 -20.6113 19.1688 24.0610 4.3007 -1.0481 15.1741
# 3 28.1023 24.0610 73.9142 -7.2782 -12.7047 12.5506
# 4 -26.8259 4.3007 -7.2782 44.1298 6.9598 -7.6014
# 5 -4.6232 -1.0481 -12.7047 6.9598 33.1941 -6.3267
# 6 20.7453 15.1741 12.5506 -7.6014 -6.3267 38.4126
#
#
#
# Elastic Compliance Matrix: (Units=1/GPa)
#
#
# Indices 1 2 3 4 5 6 
#
# 1 -0.009802 -0.051925 0.018643 0.004792 0.007293 0.021864
# 2 -0.051925 -0.103179 0.046546 -0.007363 0.019415 0.055334
# 3 0.018643 0.046546 -0.004467 0.001890 -0.003215 -0.027151
# 4 0.004792 -0.007363 0.001890 0.028002 -0.003834 0.004613
# 5 0.007293 0.019415 -0.003215 -0.003834 0.030117 -0.006356
# 6 0.021864 0.055334 -0.027151 0.004613 -0.006356 0.001103
#
#
# Mechanical properties :
#
#
# Convention : Reuss Voigt Hill
#
# Bulk Modulus (GPa) = -10.99850 27.39078 8.19614
# Shear Modulus (GPa) = -43.45510 33.27138 -5.09186
#
# Velocity S-wave (km/s) = -4.36636 3.82063 -1.49464
# Velocity P-wave (km/s) = 5.49959 5.61071 0.78568
#
# Compressibility (1/GPa) = -0.09092149
#
# Stress axis : x y z
#
# Youngs Moduli (GPa) = -102.01480 -9.69186 -223.86555
#
# Poissons Ratio (x) = -0.50325 4.17349
# Poissons Ratio (y) = -5.29714 10.42006
# Poissons Ratio (z) = 1.90185 0.45112
#
# Static dielectric constant tensor:
#      x y z
#    x 1.835920 0.012260 -0.005860 
#    y 0.012260 1.846380 0.019830 
#    z -0.005860 0.019830 1.885320 
# 
# From -- ./inp_files/180820.got.cif
#   From: 2010.05.17/outbox.cif.g08.bks.cpg/sg2_91_cif.got.tgz:180820.got - 2010.06.03 11:33:40.
