data_PCOD9092765
_publ_section_title
;
Structure prediction by ZEFSAII (Michael W. Deem and Ramdas Pophale) SiO2 
 PCOD9092765
Probable space group: P -1
;
_chemical_formula_sum "Si O2"
_cell_formula_units_Z 16
_cell_length_a 9.313522
_cell_length_b 13.768473
_cell_length_c 12.240843
_cell_angle_alpha 84.826968
_cell_angle_beta 127.029110
_cell_angle_gamma 59.717659
_cell_volume 888.166547
_symmetry_space_group_name_H-M "P -1"
_symmetry_group_IT_number 2
_symmetry_cell_setting 'triclinic'
loop_
_space_group_symop_operation_xyz
x,y,z
-x,-y,-z
loop_
_atom_site_type_symbol
_atom_site_label
_atom_site_fract_x
_atom_site_fract_y
_atom_site_fract_z
Si Si1 0.046315 0.643731 0.001920
Si Si2 0.414487 0.622019 0.025344
Si Si3 0.610051 0.888262 0.919700
Si Si4 0.777160 0.180653 0.494598
Si Si5 0.796296 0.581619 0.736007
Si Si6 0.829726 0.816017 0.260700
Si Si7 0.897379 0.561649 0.327373
Si Si8 0.775694 0.139448 0.241603
O O1 0.249050 0.639352 0.044623
O O2 0.154885 0.536609 0.161508
O O3 0.802351 0.792860 0.921052
O O4 0.956799 0.602757 0.871261
O O5 0.657450 0.586409 0.185577
O O6 0.500000 0.500000 0.000000
O O7 0.256438 0.759559 0.866377
O O8 0.458340 0.846360 0.881628
O O9 0.390582 0.050187 0.781772
O O10 0.762001 0.864336 0.098660
O O11 0.498111 0.280017 0.405051
O O12 0.760439 0.181435 0.355405
O O13 0.910881 0.230489 0.584278
O O14 0.967856 0.021523 0.635050
O O15 0.899037 0.532099 0.666128
O O16 0.829484 0.701283 0.282548
O O17 0.000000 0.500000 0.500000
#
# Coordination Sequence:
#
# PCOD9092765 Si02
#       8
#     2   2   2   2   2   2   2   2
#     4  11  22  38  69  95 117 165 218 261 301 366
#     4  12  24  41  64  93 126 168 209 258 317 370
#     4  10  19  42  68  89 118 170 212 252 304 372
#     4  10  22  36  69  95 121 168 208 261 303 371
#     4  11  22  42  64  92 126 161 218 258 303 371
#     4  10  22  39  65  90 129 164 204 250 316 378
#     4  12  27  44  61  94 134 167 203 260 320 375
#     4  10  20  41  64  93 127 161 216 253 309 372
#
# _framework density 18.01464
#
# number of rings (size 3 to 8) (size 9 to 14) (size 15 to 20)
#    0.000    1.250    5.000    0.750    3.500    1.500 
#    2.250    1.250    0.000    0.000    0.000    0.000 
#    0.000    0.000    0.000    0.000    0.000    0.000 
#
# Total GULP energy -89375.856536 kJ/mol
# GULP energy per Si atom -5585.991033 kJ/mol
# Density = 1.797364 g / cm^3
# Si number density = 18.014640 Si / 1000 Ang^3
#
#
#
# Elastic Constant Matrix: (Units=GPa)
#
#
# Indices 1 2 3 4 5 6 
#
# 1 139.3079 66.9411 60.4019 -10.1580 6.0661 -10.7910
# 2 66.9411 92.8630 34.4159 2.9119 0.9956 -1.4097
# 3 60.4019 34.4159 100.7759 6.7152 0.6183 4.2923
# 4 -10.1580 2.9119 6.7152 26.2236 -1.1329 7.9663
# 5 6.0661 0.9956 0.6183 -1.1329 27.4569 9.0988
# 6 -10.7910 -1.4097 4.2923 7.9663 9.0988 25.6331
#
#
#
# Elastic Compliance Matrix: (Units=1/GPa)
#
#
# Indices 1 2 3 4 5 6 
#
# 1 0.015714 -0.008721 -0.007145 0.006504 -0.005084 0.007116
# 2 -0.008721 0.017260 -0.000294 -0.004577 0.001737 -0.001867
# 3 -0.007145 -0.000294 0.014827 -0.004918 0.002687 -0.004933
# 4 0.006504 -0.004577 -0.004918 0.046576 0.005056 -0.012960
# 5 -0.005084 0.001737 0.002687 0.005056 0.044173 -0.019746
# 6 0.007116 -0.001867 -0.004933 -0.012960 -0.019746 0.053768
#
#
# Mechanical properties :
#
#
# Convention : Reuss Voigt Hill
#
# Bulk Modulus (GPa) = 64.59224 72.94049 68.76637
# Shear Modulus (GPa) = 21.75822 27.27525 24.51673
#
# Velocity S-wave (km/s) = 3.47912 3.89531 3.69309
# Velocity P-wave (km/s) = 7.21612 7.79800 7.51269
#
# Compressibility (1/GPa) = 0.01548173
#
# Stress axis : x y z
#
# Youngs Moduli (GPa) = 63.63809 57.93607 67.44275
#
# Poissons Ratio (x) = 0.50524 0.48191
# Poissons Ratio (y) = 0.55497 0.01981
# Poissons Ratio (z) = 0.45472 0.01702
#
# Static dielectric constant tensor:
#      x y z
#    x 1.585800 0.000560 -0.005390 
#    y 0.000560 1.627130 -0.011800 
#    z -0.005390 -0.011800 1.632060 
# 
# From -- ./inp_files/182586.got.cif
#   From: 2010.05.17/outbox.cif.g08.bks.cpg/sg2_92_cif.got.tgz:182586.got - 2010.06.03 11:33:40.
