data_PCOD9092893
_publ_section_title
;
Structure prediction by ZEFSAII (Michael W. Deem and Ramdas Pophale) SiO2 
 PCOD9092893
Probable space group: P -1
;
_chemical_formula_sum "Si O2"
_cell_formula_units_Z 16
_cell_length_a 10.897541
_cell_length_b 6.958959
_cell_length_c 11.357893
_cell_angle_alpha 61.878622
_cell_angle_beta 70.740301
_cell_angle_gamma 103.438800
_cell_volume 634.561481
_symmetry_space_group_name_H-M "P -1"
_symmetry_group_IT_number 2
_symmetry_cell_setting 'triclinic'
loop_
_space_group_symop_operation_xyz
x,y,z
-x,-y,-z
loop_
_atom_site_type_symbol
_atom_site_label
_atom_site_fract_x
_atom_site_fract_y
_atom_site_fract_z
Si Si1 0.967843 0.963101 0.743154
Si Si2 0.161735 0.732841 0.395776
Si Si3 0.973999 0.264469 0.991967
Si Si4 0.110785 0.691449 0.688432
Si Si5 0.445173 0.603396 0.093919
Si Si6 0.597237 0.924899 0.405690
Si Si7 0.281634 0.377233 0.423126
Si Si8 0.362547 0.003326 0.894717
O O1 0.967831 0.733794 0.737569
O O2 0.121035 0.179303 0.578663
O O3 0.976996 0.894317 0.894923
O O4 0.845458 0.048521 0.735828
O O5 0.176142 0.785286 0.513781
O O6 0.275250 0.634928 0.354349
O O7 0.000000 0.500000 0.500000
O O8 0.070118 0.410825 0.806550
O O9 0.809589 0.104582 0.046333
O O10 0.000000 0.500000 0.000000
O O11 0.236945 0.857352 0.691131
O O12 0.326587 0.376954 0.274099
O O13 0.429760 0.230441 0.898563
O O14 0.500000 0.500000 0.000000
O O15 0.387049 0.783755 0.005406
O O16 0.564498 0.921708 0.279748
O O17 0.500000 0.000000 0.500000
O O18 0.607715 0.683591 0.517122
#
# Coordination Sequence:
#
# PCOD9092893 Si02
#       8
#     2   2   2   2   2   2   2   2
#     4   9  19  41  66 105 141 191 241 292 374 447
#     4  10  22  39  61 102 143 186 239 294 370 443
#     4  10  19  43  72 104 150 187 240 307 371 447
#     4  10  21  40  68 104 150 190 242 298 376 446
#     4  11  27  50  73 105 146 203 260 310 383 442
#     4  11  23  45  74 109 145 192 251 311 374 456
#     4  10  22  45  68  99 145 185 247 308 372 441
#     4  11  24  48  75 106 148 194 254 311 376 457
#
# _framework density 25.214261
#
# number of rings (size 3 to 8) (size 9 to 14) (size 15 to 20)
#    0.000    1.750    3.750    1.125    5.250    0.500 
#    6.750    3.750    2.750    0.000    0.000    0.000 
#    0.000    0.000    0.000    0.000    0.000    0.000 
#
# Total GULP energy -89488.359168 kJ/mol
# GULP energy per Si atom -5593.022448 kJ/mol
# Density = 2.515687 g / cm^3
# Si number density = 25.214261 Si / 1000 Ang^3
#
#
#
# Elastic Constant Matrix: (Units=GPa)
#
#
# Indices 1 2 3 4 5 6 
#
# 1 103.9589 57.5128 70.5733 6.5553 14.0893 10.5602
# 2 57.5128 123.7314 63.3955 -3.8801 16.4222 -8.3533
# 3 70.5733 63.3955 198.9957 -18.0757 40.9558 -19.1675
# 4 6.5553 -3.8801 -18.0757 34.3961 1.4021 8.0856
# 5 14.0893 16.4222 40.9558 1.4021 37.2834 -0.7990
# 6 10.5602 -8.3533 -19.1675 8.0856 -0.7990 42.6147
#
#
#
# Elastic Compliance Matrix: (Units=1/GPa)
#
#
# Indices 1 2 3 4 5 6 
#
# 1 0.018021 -0.006243 -0.006218 -0.005798 0.002831 -0.007333
# 2 -0.006243 0.011883 -0.000691 0.001491 -0.002102 0.003243
# 3 -0.006218 -0.000691 0.010213 0.005711 -0.008678 0.004753
# 4 -0.005798 0.001491 0.005711 0.034134 -0.006071 -0.002293
# 5 0.002831 -0.002102 -0.008678 -0.006071 0.036371 -0.003183
# 6 -0.007333 0.003243 0.004753 -0.002293 -0.003183 0.028432
#
#
# Mechanical properties :
#
#
# Convention : Reuss Voigt Hill
#
# Bulk Modulus (GPa) = 72.39726 89.96102 81.17914
# Shear Modulus (GPa) = 29.41846 38.53912 33.97879
#
# Velocity S-wave (km/s) = 3.41946 3.91380 3.67495
# Velocity P-wave (km/s) = 6.66074 7.49532 7.09032
#
# Compressibility (1/GPa) = 0.01381268
#
# Stress axis : x y z
#
# Youngs Moduli (GPa) = 55.49105 84.15527 97.91460
#
# Poissons Ratio (x) = 0.52541 0.60880
# Poissons Ratio (y) = 0.34645 0.06765
# Poissons Ratio (z) = 0.34503 0.05815
#
# Static dielectric constant tensor:
#      x y z
#    x 1.601300 -0.700470 -0.985950 
#    y -0.700470 0.864830 -1.639330 
#    z -0.985950 -1.639330 -0.147290 
# 
# From -- ./inp_files/414074.got.cif
#   From: 2010.05.17/outbox.cif.g08.bks.cpg/sg2_208_cif.got.tgz:414074.got - 2010.06.03 11:33:40.
