data_PCOD9092725
_publ_section_title
;
Structure prediction by ZEFSAII (Michael W. Deem and Ramdas Pophale) SiO2 
 PCOD9092725
Probable space group: P -1
;
_chemical_formula_sum "Si O2"
_cell_formula_units_Z 16
_cell_length_a 23.210007
_cell_length_b 15.513016
_cell_length_c 8.715199
_cell_angle_alpha 134.328419
_cell_angle_beta 42.264971
_cell_angle_gamma 162.452094
_cell_volume 635.952927
_symmetry_space_group_name_H-M "P -1"
_symmetry_group_IT_number 2
_symmetry_cell_setting 'triclinic'
loop_
_space_group_symop_operation_xyz
x,y,z
-x,-y,-z
loop_
_atom_site_type_symbol
_atom_site_label
_atom_site_fract_x
_atom_site_fract_y
_atom_site_fract_z
Si Si1 0.800248 0.964982 0.050267
Si Si2 0.079151 0.464309 0.325634
Si Si3 0.445340 0.660478 0.547577
Si Si4 0.739331 0.010607 0.668416
Si Si5 0.566639 0.016258 0.543132
Si Si6 0.802161 0.827352 0.368968
Si Si7 0.700500 0.001814 0.053156
Si Si8 0.242273 0.342564 0.095344
O O1 0.609057 0.786229 0.290021
O O2 0.783793 0.981958 0.927791
O O3 0.771826 0.791895 0.935215
O O4 0.008237 0.285982 0.107769
O O5 0.310379 0.752506 0.283820
O O6 0.000000 0.500000 0.500000
O O7 0.938289 0.244755 0.469522
O O8 0.572103 0.855796 0.694763
O O9 0.266904 0.349324 0.577773
O O10 0.413494 0.734338 0.590558
O O11 0.681800 0.800541 0.570254
O O12 0.779427 0.135671 0.898071
O O13 0.500000 0.000000 0.500000
O O14 0.735552 0.141579 0.292057
O O15 0.772400 0.720764 0.131241
O O16 0.042797 0.160252 0.310819
O O17 0.456807 0.679875 0.115100
#
# Coordination Sequence:
#
# PCOD9092725 Si02
#       8
#     2   2   2   2   2   2   2   2
#     4  10  21  41  66  92 127 180 212 270 315 392
#     4  11  20  44  70  88 126 179 227 252 324 397
#     4  10  19  42  66  90 127 177 218 253 322 399
#     4  11  21  39  70  96 127 175 218 273 313 398
#     4  11  26  45  68  94 134 175 213 277 330 381
#     4  11  22  37  65 101 132 173 216 264 333 395
#     4  11  23  40  64  99 130 168 223 272 326 379
#     4  11  22  37  62 100 138 166 215 272 333 382
#
# _framework density 25.159095000000001
#
# number of rings (size 3 to 8) (size 9 to 14) (size 15 to 20)
#    0.000    1.250    7.500    1.500    1.750    1.500 
#    2.250    3.750    0.000    0.000    0.000    0.000 
#    0.000    0.000    0.000    0.000    0.000    0.000 
#
# Total GULP energy -89439.943198 kJ/mol
# GULP energy per Si atom -5589.996450 kJ/mol
# Density = 2.510183 g / cm^3
# Si number density = 25.159095 Si / 1000 Ang^3
#
#
#
# Elastic Constant Matrix: (Units=GPa)
#
#
# Indices 1 2 3 4 5 6 
#
# 1 162.1469 40.2034 17.7493 -5.5515 11.1132 -28.8954
# 2 40.2034 73.7249 -3.1600 3.8728 0.3773 0.9627
# 3 17.7493 -3.1600 42.0231 0.0655 17.8673 0.2860
# 4 -5.5515 3.8728 0.0655 24.0804 -2.6210 5.8378
# 5 11.1132 0.3773 17.8673 -2.6210 38.6764 2.9364
# 6 -28.8954 0.9627 0.2860 5.8378 2.9364 39.5446
#
#
#
# Elastic Compliance Matrix: (Units=1/GPa)
#
#
# Indices 1 2 3 4 5 6 
#
# 1 0.009264 -0.005362 -0.003819 0.001210 -0.001283 0.006844
# 2 -0.005362 0.016856 0.003659 -0.003039 -0.000225 -0.003889
# 3 -0.003819 0.003659 0.031445 -0.002608 -0.013511 -0.001719
# 4 0.001210 -0.003039 -0.002608 0.044196 0.004328 -0.005869
# 5 -0.001283 -0.000225 -0.013511 0.004328 0.033060 -0.003928
# 6 0.006844 -0.003889 -0.001719 -0.005869 -0.003928 0.031554
#
#
# Mechanical properties :
#
#
# Convention : Reuss Voigt Hill
#
# Bulk Modulus (GPa) = 21.49538 43.05335 32.27437
# Shear Modulus (GPa) = 25.91685 35.33377 30.62531
#
# Velocity S-wave (km/s) = 3.21303 3.75162 3.49272
# Velocity P-wave (km/s) = 4.72515 5.99298 5.39643
#
# Compressibility (1/GPa) = 0.04652162
#
# Stress axis : x y z
#
# Youngs Moduli (GPa) = 107.94949 59.32571 31.80152
#
# Poissons Ratio (x) = 0.31808 0.12144
# Poissons Ratio (y) = 0.57878 -0.11636
# Poissons Ratio (z) = 0.41224 -0.21707
#
# Static dielectric constant tensor:
#      x y z
#    x 2.062650 -0.025140 -0.021600 
#    y -0.025140 2.036250 0.065730 
#    z -0.021600 0.065730 2.027810 
# 
# From -- ./inp_files/354584.got.cif
#   From: 2010.05.17/outbox.cif.g08.bks.cpg/sg2_178_cif.got.tgz:354584.got - 2010.06.03 11:33:40.
