data_PCOD9092984
_publ_section_title
;
Structure prediction by ZEFSAII (Michael W. Deem and Ramdas Pophale) SiO2 
 PCOD9092984
Probable space group: P -1
;
_chemical_formula_sum "Si O2"
_cell_formula_units_Z 16
_cell_length_a 16.874429
_cell_length_b 8.533560
_cell_length_c 8.419787
_cell_angle_alpha 108.854844
_cell_angle_beta 47.930267
_cell_angle_gamma 136.614818
_cell_volume 585.473388
_symmetry_space_group_name_H-M "P -1"
_symmetry_group_IT_number 2
_symmetry_cell_setting 'triclinic'
loop_
_space_group_symop_operation_xyz
x,y,z
-x,-y,-z
loop_
_atom_site_type_symbol
_atom_site_label
_atom_site_fract_x
_atom_site_fract_y
_atom_site_fract_z
Si Si1 0.985410 0.721045 0.943574
Si Si2 0.559618 0.307706 0.571114
Si Si3 0.527107 0.106987 0.245691
Si Si4 0.740070 0.744383 0.710288
Si Si5 0.698487 0.051804 0.777460
Si Si6 0.978530 0.742936 0.607406
Si Si7 0.775093 0.904493 0.035521
Si Si8 0.064619 0.430547 0.713833
O O1 0.921898 0.688784 0.845451
O O2 0.062760 0.624789 0.792384
O O3 0.123664 0.999467 0.908305
O O4 0.877155 0.575679 0.197510
O O5 0.549723 0.121930 0.616923
O O6 0.654022 0.530969 0.634725
O O7 0.387774 0.194409 0.748096
O O8 0.598613 0.320104 0.338553
O O9 0.395964 0.035063 0.285919
O O10 0.649167 0.147265 0.985655
O O11 0.651593 0.822441 0.841154
O O12 0.912194 0.974602 0.483972
O O13 0.753699 0.733805 0.878908
O O14 0.882036 0.238801 0.570620
O O15 0.878291 0.579111 0.533407
O O16 0.886473 0.161919 0.876444
#
# Coordination Sequence:
#
# PCOD9092984 Si02
#       8
#     2   2   2   2   2   2   2   2
#     4   9  15  27  44  70  98 123 152 199 254 289
#     4  11  19  31  47  69  94 143 156 193 237 288
#     4  10  20  30  45  64  99 128 174 196 226 275
#     4   9  19  31  47  66  99 135 161 192 242 285
#     4   9  18  34  43  67  97 131 154 210 228 279
#     4   9  16  30  48  68  99 129 156 194 248 289
#     4   9  16  29  44  67  96 129 158 194 239 290
#     4   8  16  26  43  69 100 123 148 203 251 290
#
# _framework density 27.328312
#
# number of rings (size 3 to 8) (size 9 to 14) (size 15 to 20)
#    1.500    1.250    1.250    1.500    0.000    0.500 
#    0.000    0.000    0.000    0.000    0.000    0.000 
#    0.000  126.000    0.250    0.000    0.000    0.000 
#
# Total GULP energy -89501.120096 kJ/mol
# GULP energy per Si atom -5593.820006 kJ/mol
# Density = 2.726611 g / cm^3
# Si number density = 27.328312 Si / 1000 Ang^3
#
#
#
# Elastic Constant Matrix: (Units=GPa)
#
#
# Indices 1 2 3 4 5 6 
#
# 1 126.2806 37.9430 73.7226 16.6768 30.5529 25.8251
# 2 37.9430 92.9297 62.8603 41.7939 8.8977 23.8567
# 3 73.7226 62.8603 206.6351 46.1502 46.3052 13.5249
# 4 16.6768 41.7939 46.1502 49.9164 4.8882 9.0378
# 5 30.5529 8.8977 46.3052 4.8882 57.3467 8.6792
# 6 25.8251 23.8567 13.5249 9.0378 8.6792 26.8940
#
#
#
# Elastic Compliance Matrix: (Units=1/GPa)
#
#
# Indices 1 2 3 4 5 6 
#
# 1 0.012421 -0.000968 -0.003342 0.001650 -0.002529 -0.009126
# 2 -0.000968 0.022749 -0.003321 -0.013401 0.002933 -0.014022
# 3 -0.003342 -0.003321 0.008969 -0.004775 -0.005290 0.004956
# 4 0.001650 -0.013401 -0.004775 0.034858 0.002034 0.000334
# 5 -0.002529 0.002933 -0.005290 0.002034 0.023293 -0.005713
# 6 -0.009126 -0.014022 0.004956 0.000334 -0.005713 0.057625
#
#
# Mechanical properties :
#
#
# Convention : Reuss Voigt Hill
#
# Bulk Modulus (GPa) = 34.62987 86.09969 60.36478
# Shear Modulus (GPa) = 27.05602 43.58606 35.32104
#
# Velocity S-wave (km/s) = 3.14990 3.99796 3.59899
# Velocity P-wave (km/s) = 5.09200 7.27225 6.27750
#
# Compressibility (1/GPa) = 0.02887680
#
# Stress axis : x y z
#
# Youngs Moduli (GPa) = 80.51009 43.95839 111.48987
#
# Poissons Ratio (x) = 0.04257 0.37254
# Poissons Ratio (y) = 0.07797 0.37028
# Poissons Ratio (z) = 0.26903 0.14599
#
# Static dielectric constant tensor:
#      x y z
#    x 2.191340 -0.031930 -0.000540 
#    y -0.031930 2.161740 -0.007310 
#    z -0.000540 -0.007310 2.162080 
# 
# From -- ./inp_files/356749.got.cif
#   From: 2010.05.17/outbox.cif.g08.bks.cpg/sg2_179_cif.got.tgz:356749.got - 2010.06.03 11:33:40.
