data_PCOD9092568
_publ_section_title
;
Structure prediction by ZEFSAII (Michael W. Deem and Ramdas Pophale) SiO2 
 PCOD9092568
Probable space group: P -1
;
_chemical_formula_sum "Si O2"
_cell_formula_units_Z 14
_cell_length_a 7.524243
_cell_length_b 14.399879
_cell_length_c 8.812792
_cell_angle_alpha 124.804171
_cell_angle_beta 86.853476
_cell_angle_gamma 130.575490
_cell_volume 513.206002
_symmetry_space_group_name_H-M "P -1"
_symmetry_group_IT_number 2
_symmetry_cell_setting 'triclinic'
loop_
_space_group_symop_operation_xyz
x,y,z
-x,-y,-z
loop_
_atom_site_type_symbol
_atom_site_label
_atom_site_fract_x
_atom_site_fract_y
_atom_site_fract_z
Si Si1 0.895419 0.585409 0.491547
Si Si2 0.102767 0.219066 0.532549
Si Si3 0.112167 0.305908 0.941568
Si Si4 0.485327 0.883965 0.245544
Si Si5 0.214639 0.605973 0.227409
Si Si6 0.392282 0.773687 0.811478
Si Si7 0.916143 0.017402 0.861900
O O1 0.786448 0.645638 0.477203
O O2 0.068601 0.602190 0.366947
O O3 0.116784 0.709136 0.728044
O O4 0.675176 0.389402 0.372190
O O5 0.205764 0.306668 0.773383
O O6 0.127929 0.101450 0.371821
O O7 0.774980 0.082470 0.419751
O O8 0.789581 0.175560 0.808666
O O9 0.123287 0.209589 0.969973
O O10 0.247883 0.489578 0.153609
O O11 0.457464 0.789829 0.306172
O O12 0.477265 0.816801 0.022007
O O13 0.000000 0.500000 0.000000
O O14 0.624863 0.930017 0.836939
O O15 0.000000 0.000000 0.000000
#
# Coordination Sequence:
#
# PCOD9092568 Si02
#       7
#     2   2   2   2   2   2   2
#     4  11  23  42  72 101 126 168 227 280 324 379
#     4  12  24  42  68  97 134 174 220 268 329 395
#     4  11  23  43  68  95 131 173 225 274 320 382
#     4  11  21  40  73 101 125 164 228 283 324 373
#     4  10  19  41  68  99 126 159 217 286 323 370
#     4  11  24  43  66 101 132 172 219 273 334 383
#     4  12  28  44  62  94 146 181 211 257 334 406
#
# _framework density 27.279495000000001
#
# number of rings (size 3 to 8) (size 9 to 14) (size 15 to 20)
#    0.000    0.857    7.143    1.714    4.000    1.714 
#    0.000    0.714    0.000    0.000    0.000    0.000 
#    0.000    0.000    0.000    0.000    0.000    0.000 
#
# Total GULP energy -78520.946594 kJ/mol
# GULP energy per Si atom -5608.639042 kJ/mol
# Density = 2.721741 g / cm^3
# Si number density = 27.279495 Si / 1000 Ang^3
#
#
#
# Elastic Constant Matrix: (Units=GPa)
#
#
# Indices 1 2 3 4 5 6 
#
# 1 78.4608 22.4324 23.5585 -12.7967 -10.2956 -7.8454
# 2 22.4324 137.2269 19.5156 -1.8830 -7.8496 -39.9252
# 3 23.5585 19.5156 105.3863 -5.2387 -19.3286 -8.0051
# 4 -12.7967 -1.8830 -5.2387 32.4807 -3.9854 -4.2317
# 5 -10.2956 -7.8496 -19.3286 -3.9854 43.9276 2.5942
# 6 -7.8454 -39.9252 -8.0051 -4.2317 2.5942 55.6148
#
#
#
# Elastic Compliance Matrix: (Units=1/GPa)
#
#
# Indices 1 2 3 4 5 6 
#
# 1 0.015346 -0.001662 -0.002232 0.006062 0.002810 0.000981
# 2 -0.001662 0.009634 -0.000751 0.000725 0.000678 0.006597
# 3 -0.002232 -0.000751 0.011036 0.001468 0.004294 0.000646
# 4 0.006062 0.000725 0.001468 0.034599 0.005100 0.003982
# 5 0.002810 0.000678 0.004294 0.005100 0.025856 0.000683
# 6 0.000981 0.006597 0.000646 0.003982 0.000683 0.023219
#
#
# Mechanical properties :
#
#
# Convention : Reuss Voigt Hill
#
# Bulk Modulus (GPa) = 37.41527 50.23187 43.82357
# Shear Modulus (GPa) = 36.26104 43.44245 39.85175
#
# Velocity S-wave (km/s) = 3.64983 3.99494 3.82628
# Velocity P-wave (km/s) = 5.61311 6.30342 5.96825
#
# Compressibility (1/GPa) = 0.02672706
#
# Stress axis : x y z
#
# Youngs Moduli (GPa) = 65.16387 103.80170 90.60895
#
# Poissons Ratio (x) = 0.17252 0.20220
# Poissons Ratio (y) = 0.10830 0.06805
# Poissons Ratio (z) = 0.14541 0.07796
#
# Static dielectric constant tensor:
#      x y z
#    x 2.203710 0.006390 0.012880 
#    y 0.006390 2.080830 0.002580 
#    z 0.012880 0.002580 2.091900 
# 
# From -- ./inp_files/203731.got.cif
#   From: 2010.05.17/outbox.cif.g08.bks.cpg/sg2_102_cif.got.tgz:203731.got - 2010.06.03 11:33:40.
