data_PCOD9092924
_publ_section_title
;
Structure prediction by ZEFSAII (Michael W. Deem and Ramdas Pophale) SiO2 
 PCOD9092924
Probable space group: P -1
;
_chemical_formula_sum "Si O2"
_cell_formula_units_Z 16
_cell_length_a 10.496212
_cell_length_b 18.314183
_cell_length_c 8.458600
_cell_angle_alpha 54.911147
_cell_angle_beta 43.920167
_cell_angle_gamma 35.761699
_cell_volume 658.962860
_symmetry_space_group_name_H-M "P -1"
_symmetry_group_IT_number 2
_symmetry_cell_setting 'triclinic'
loop_
_space_group_symop_operation_xyz
x,y,z
-x,-y,-z
loop_
_atom_site_type_symbol
_atom_site_label
_atom_site_fract_x
_atom_site_fract_y
_atom_site_fract_z
Si Si1 0.585540 0.683212 0.186363
Si Si2 0.448320 0.979031 0.822587
Si Si3 0.248159 0.560377 0.511535
Si Si4 0.686548 0.459466 0.024909
Si Si5 0.791054 0.620267 0.721533
Si Si6 0.543060 0.118857 0.405693
Si Si7 0.909411 0.743346 0.876784
Si Si8 0.926307 0.037974 0.699809
O O1 0.644627 0.570488 0.357661
O O2 0.288734 0.811687 0.285043
O O3 0.700518 0.647943 0.951283
O O4 0.740100 0.711449 0.096567
O O5 0.495908 0.909405 0.700404
O O6 0.696748 0.885765 0.830996
O O7 0.405318 0.096034 0.673334
O O8 0.211726 0.006559 0.071057
O O9 0.477910 0.538103 0.257323
O O10 0.035391 0.601818 0.523631
O O11 0.093726 0.662263 0.661542
O O12 0.895220 0.316837 0.076666
O O13 0.500000 0.500000 0.000000
O O14 0.824168 0.505404 0.801814
O O15 0.572448 0.743268 0.663262
O O16 0.836891 0.021877 0.321621
O O17 0.000000 0.000000 0.500000
#
# Coordination Sequence:
#
# PCOD9092924 Si02
#       8
#     2   2   2   2   2   2   2   2
#     4  10  20  41  73  94 129 178 229 281 334 397
#     4  10  23  43  72 103 129 180 238 282 333 394
#     4  11  21  41  71  97 125 179 225 276 341 400
#     4  12  27  40  63 104 140 174 217 276 345 414
#     4  11  22  44  67 101 133 173 226 285 334 395
#     4  11  23  43  71  96 139 177 234 285 327 396
#     4  10  19  44  67  99 133 169 228 281 331 404
#     4  11  25  43  65 102 140 182 223 279 346 405
#
# _framework density 24.280581999999999
#
# number of rings (size 3 to 8) (size 9 to 14) (size 15 to 20)
#    0.000    1.250    6.250    1.500    1.750    3.000 
#    4.500    0.000    0.000    0.000    0.000    0.000 
#    0.000    0.000    0.000    0.000    0.000    0.000 
#
# Total GULP energy -89554.728320 kJ/mol
# GULP energy per Si atom -5597.170520 kJ/mol
# Density = 2.422532 g / cm^3
# Si number density = 24.280582 Si / 1000 Ang^3
#
#
#
# Elastic Constant Matrix: (Units=GPa)
#
#
# Indices 1 2 3 4 5 6 
#
# 1 91.2300 34.3199 0.7562 1.1615 6.5236 -37.5055
# 2 34.3199 74.6993 19.2072 -6.9050 9.2910 -27.4419
# 3 0.7562 19.2072 86.0632 -12.8003 -12.5000 0.7662
# 4 1.1615 -6.9050 -12.8003 36.9747 -3.1219 -3.2215
# 5 6.5236 9.2910 -12.5000 -3.1219 30.0409 0.4328
# 6 -37.5055 -27.4419 0.7662 -3.2215 0.4328 40.0832
#
#
#
# Elastic Compliance Matrix: (Units=1/GPa)
#
#
# Indices 1 2 3 4 5 6 
#
# 1 0.018613 -0.002093 -0.000396 -0.000036 -0.003794 0.016029
# 2 -0.002093 0.022254 -0.005967 0.002603 -0.008838 0.013696
# 3 -0.000396 -0.005967 0.014906 0.004399 0.008655 -0.004480
# 4 -0.000036 0.002603 0.004399 0.029749 0.004067 0.004011
# 5 -0.003794 -0.008838 0.008655 0.004067 0.041012 -0.009882
# 6 0.016029 0.013696 -0.004480 0.004011 -0.009882 0.049838
#
#
# Mechanical properties :
#
#
# Convention : Reuss Voigt Hill
#
# Bulk Modulus (GPa) = 25.73143 40.06213 32.89678
# Shear Modulus (GPa) = 24.24411 34.60035 29.42223
#
# Velocity S-wave (km/s) = 3.16333 3.77904 3.48481
# Velocity P-wave (km/s) = 4.89518 5.96465 5.45618
#
# Compressibility (1/GPa) = 0.03886298
#
# Stress axis : x y z
#
# Youngs Moduli (GPa) = 53.72454 44.93570 67.08860
#
# Poissons Ratio (x) = 0.09405 0.02654
# Poissons Ratio (y) = 0.11244 0.40029
# Poissons Ratio (z) = 0.02126 0.26811
#
# Static dielectric constant tensor:
#      x y z
#    x 1.982610 0.024690 0.024380 
#    y 0.024690 1.917840 0.026450 
#    z 0.024380 0.026450 1.921530 
# 
# From -- ./inp_files/282857.got.cif
#   From: 2010.05.17/outbox.cif.g08.bks.cpg/sg2_142_cif.got.tgz:282857.got - 2010.06.03 11:33:40.
