data_PCOD9092980
_publ_section_title
;
Structure prediction by ZEFSAII (Michael W. Deem and Ramdas Pophale) SiO2 
 PCOD9092980
Probable space group: P -1
;
_chemical_formula_sum "Si O2"
_cell_formula_units_Z 12
_cell_length_a 5.201054
_cell_length_b 13.946006
_cell_length_c 9.825070
_cell_angle_alpha 78.825859
_cell_angle_beta 105.048118
_cell_angle_gamma 64.853703
_cell_volume 584.074100
_symmetry_space_group_name_H-M "P -1"
_symmetry_group_IT_number 2
_symmetry_cell_setting 'triclinic'
loop_
_space_group_symop_operation_xyz
x,y,z
-x,-y,-z
loop_
_atom_site_type_symbol
_atom_site_label
_atom_site_fract_x
_atom_site_fract_y
_atom_site_fract_z
Si Si1 0.280837 0.385640 0.744096
Si Si2 0.608756 0.272560 0.562431
Si Si3 0.424911 0.478784 0.341298
Si Si4 0.228489 0.183463 0.847900
Si Si5 0.802562 0.961358 0.894394
Si Si6 0.239888 0.974693 0.420849
O O1 0.315370 0.349643 0.598296
O O2 0.461264 0.454954 0.758441
O O3 0.376513 0.263961 0.855854
O O4 0.939446 0.465766 0.729016
O O5 0.587749 0.343237 0.405489
O O6 0.626231 0.155634 0.565980
O O7 0.908313 0.245048 0.702995
O O8 0.500000 0.500000 0.500000
O O9 0.454575 0.067221 0.832356
O O10 0.178015 0.145804 0.999106
O O11 0.901007 0.952297 0.755193
O O12 0.000000 0.000000 0.000000
O O13 0.500000 0.000000 0.500000
O O14 0.000000 0.000000 0.500000
#
# Coordination Sequence:
#
# PCOD9092980 Si02
#       6
#     2   2   2   2   2   2
#     4  11  19  33  54  92 122 154 192 256 317 357
#     4  11  21  37  57  87 128 161 195 258 306 356
#     4  10  20  29  54  86 128 149 193 248 324 358
#     4  11  20  34  63  86 125 157 202 251 314 349
#     4  11  23  39  61  90 121 169 208 253 308 358
#     4  12  27  42  61  89 126 169 208 245 302 371
#
# _framework density 20.545338000000001
#
# number of rings (size 3 to 8) (size 9 to 14) (size 15 to 20)
#    0.000    1.000    6.667    3.000    2.333    0.000 
#    0.000    0.000    0.000    0.000    0.000    7.000 
#    0.000    0.000    0.000    0.000    0.000    0.000 
#
# Total GULP energy -66946.096897 kJ/mol
# GULP energy per Si atom -5578.841408 kJ/mol
# Density = 2.049858 g / cm^3
# Si number density = 20.545338 Si / 1000 Ang^3
#
#
#
# Elastic Constant Matrix: (Units=GPa)
#
#
# Indices 1 2 3 4 5 6 
#
# 1 157.8679 42.2102 55.0855 -14.8809 -28.5124 15.9151
# 2 42.2102 72.3898 32.7164 -31.2159 -17.0486 23.1941
# 3 55.0855 32.7164 94.4137 -10.0987 -32.5511 11.8980
# 4 -14.8809 -31.2159 -10.0987 34.1530 9.9453 -9.8872
# 5 -28.5124 -17.0486 -32.5511 9.9453 41.1840 -15.6191
# 6 15.9151 23.1941 11.8980 -9.8872 -15.6191 37.7796
#
#
#
# Elastic Compliance Matrix: (Units=1/GPa)
#
#
# Indices 1 2 3 4 5 6 
#
# 1 0.008710 -0.003651 -0.003139 -0.001093 0.002404 0.000269
# 2 -0.003651 0.031531 -0.006419 0.023307 -0.004572 -0.011589
# 3 -0.003139 -0.006419 0.017723 -0.004388 0.011481 0.003280
# 4 -0.001093 0.023307 -0.004388 0.050327 -0.007664 -0.002464
# 5 0.002404 -0.004572 0.011481 -0.007664 0.039761 0.012611
# 6 0.000269 -0.011589 0.003280 -0.002464 0.012611 0.037007
#
#
# Mechanical properties :
#
#
# Convention : Reuss Voigt Hill
#
# Bulk Modulus (GPa) = 31.69930 64.96619 48.33274
# Shear Modulus (GPa) = 22.52346 35.60062 29.06204
#
# Velocity S-wave (km/s) = 3.31460 4.16719 3.76511
# Velocity P-wave (km/s) = 5.48737 7.40564 6.51747
#
# Compressibility (1/GPa) = 0.03154644
#
# Stress axis : x y z
#
# Youngs Moduli (GPa) = 114.81212 31.71506 56.42447
#
# Poissons Ratio (x) = 0.11581 0.17709
# Poissons Ratio (y) = 0.41923 0.36216
# Poissons Ratio (z) = 0.36034 0.20357
#
# Static dielectric constant tensor:
#      x y z
#    x 1.819680 -0.000950 -0.020890 
#    y -0.000950 1.803920 -0.081160 
#    z -0.020890 -0.081160 1.769740 
# 
# From -- ./inp_files/133133.got.cif
#   From: 2010.05.17/outbox.cif.g08.bks.cpg/sg2_67_cif.got.tgz:133133.got - 2010.06.03 11:33:40.
