data_PCOD9092862
_publ_section_title
;
Structure prediction by ZEFSAII (Michael W. Deem and Ramdas Pophale) SiO2 
 PCOD9092862
Probable space group: P -1
;
_chemical_formula_sum "Si O2"
_cell_formula_units_Z 16
_cell_length_a 7.939511
_cell_length_b 7.946403
_cell_length_c 16.543319
_cell_angle_alpha 127.419891
_cell_angle_beta 66.436546
_cell_angle_gamma 128.398043
_cell_volume 649.227614
_symmetry_space_group_name_H-M "P -1"
_symmetry_group_IT_number 2
_symmetry_cell_setting 'triclinic'
loop_
_space_group_symop_operation_xyz
x,y,z
-x,-y,-z
loop_
_atom_site_type_symbol
_atom_site_label
_atom_site_fract_x
_atom_site_fract_y
_atom_site_fract_z
Si Si1 0.061205 0.673910 0.791380
Si Si2 0.597962 0.396054 0.362999
Si Si3 0.514411 0.646492 0.896192
Si Si4 0.300582 0.596673 0.325868
Si Si5 0.869220 0.832273 0.157789
Si Si6 0.175266 0.351799 0.448738
Si Si7 0.824650 0.186550 0.021620
Si Si8 0.744775 0.882866 0.373113
O O1 0.295377 0.713024 0.745927
O O2 0.017925 0.675989 0.894296
O O3 0.875805 0.428441 0.710822
O O4 0.074959 0.905957 0.811543
O O5 0.342225 0.253901 0.379843
O O6 0.716853 0.451990 0.442569
O O7 0.667575 0.662150 0.387557
O O8 0.615169 0.574318 0.781209
O O9 0.363780 0.384953 0.892305
O O10 0.343698 0.723796 0.925325
O O11 0.695846 0.890472 0.976966
O O12 0.188633 0.477527 0.397258
O O13 0.522244 0.854346 0.375219
O O14 0.849754 0.839095 0.260206
O O15 0.048723 0.779780 0.075500
O O16 0.932324 0.136656 0.448083
#
# Coordination Sequence:
#
# PCOD9092862 Si02
#       8
#     2   2   2   2   2   2   2   2
#     4  12  23  41  57  93 130 158 192 259 306 355
#     4  10  24  39  66  92 119 153 210 253 297 358
#     4  10  22  40  63  87 115 168 206 246 289 363
#     4  10  21  39  61  87 129 156 193 249 312 351
#     4  11  22  38  62  85 123 159 199 245 306 352
#     4  10  19  43  67  87 116 163 205 248 298 362
#     4  11  22  40  62  86 121 160 211 246 292 353
#     4  10  20  42  65  86 118 165 202 247 295 364
#
# _framework density 24.644672
#
# number of rings (size 3 to 8) (size 9 to 14) (size 15 to 20)
#    0.000    1.500    2.500    3.375    0.000    2.000 
#    6.750    0.625    0.000    0.000    0.000    0.000 
#    0.000    0.000    0.000    0.000    0.000    0.000 
#
# Total GULP energy -89489.239405 kJ/mol
# GULP energy per Si atom -5593.077463 kJ/mol
# Density = 2.458858 g / cm^3
# Si number density = 24.644672 Si / 1000 Ang^3
#
#
#
# Elastic Constant Matrix: (Units=GPa)
#
#
# Indices 1 2 3 4 5 6 
#
# 1 73.4523 23.1879 10.3682 7.2397 11.7653 21.5192
# 2 23.1879 77.5059 2.3658 6.4033 3.1089 23.6196
# 3 10.3682 2.3658 63.1642 -9.5014 4.4308 -6.2040
# 4 7.2397 6.4033 -9.5014 32.0561 -0.2698 8.8585
# 5 11.7653 3.1089 4.4308 -0.2698 50.2533 6.5530
# 6 21.5192 23.6196 -6.2040 8.8585 6.5530 28.8057
#
#
#
# Elastic Compliance Matrix: (Units=1/GPa)
#
#
# Indices 1 2 3 4 5 6 
#
# 1 0.019018 -0.001358 -0.004452 -0.001774 -0.002292 -0.012986
# 2 -0.001358 0.017623 -0.001894 0.000152 0.001244 -0.014173
# 3 -0.004452 -0.001894 0.018186 0.004636 -0.001422 0.007694
# 4 -0.001774 0.000152 0.004636 0.035441 0.001362 -0.009010
# 5 -0.002292 0.001244 -0.001422 0.001362 0.021122 -0.004838
# 6 -0.012986 -0.014173 0.007694 -0.009010 -0.004838 0.061566
#
#
# Mechanical properties :
#
#
# Convention : Reuss Voigt Hill
#
# Bulk Modulus (GPa) = 25.36822 31.77401 28.57112
# Shear Modulus (GPa) = 24.81329 34.10304 29.45817
#
# Velocity S-wave (km/s) = 3.17652 3.72397 3.46108
# Velocity P-wave (km/s) = 4.87541 5.60459 5.25267
#
# Compressibility (1/GPa) = 0.03941940
#
# Stress axis : x y z
#
# Youngs Moduli (GPa) = 52.58209 56.74362 54.98627
#
# Poissons Ratio (x) = 0.07705 0.24482
# Poissons Ratio (y) = 0.07140 0.10412
# Poissons Ratio (z) = 0.23412 0.10745
#
# Static dielectric constant tensor:
#      x y z
#    x 1.991200 0.038110 -0.004750 
#    y 0.038110 1.958100 0.038860 
#    z -0.004750 0.038860 1.977250 
# 
# From -- ./inp_files/492988.got.cif
#   From: 2010.05.17/outbox.cif.g08.bks.cpg/sg2_247_cif.got.tgz:492988.got - 2010.06.03 11:33:40.
