data_PCOD9092699
_publ_section_title
;
Structure prediction by ZEFSAII (Michael W. Deem and Ramdas Pophale) SiO2 
 PCOD9092699
Probable space group: P -1
;
_chemical_formula_sum "Si O2"
_cell_formula_units_Z 14
_cell_length_a 9.013520
_cell_length_b 16.499312
_cell_length_c 11.898781
_cell_angle_alpha 155.720136
_cell_angle_beta 113.647299
_cell_angle_gamma 72.421091
_cell_volume 656.958179
_symmetry_space_group_name_H-M "P -1"
_symmetry_group_IT_number 2
_symmetry_cell_setting 'triclinic'
loop_
_space_group_symop_operation_xyz
x,y,z
-x,-y,-z
loop_
_atom_site_type_symbol
_atom_site_label
_atom_site_fract_x
_atom_site_fract_y
_atom_site_fract_z
Si Si1 0.106452 0.995644 0.140366
Si Si2 0.550920 0.983121 0.809326
Si Si3 0.576260 0.715752 0.692276
Si Si4 0.246929 0.465535 0.180351
Si Si5 0.097226 0.322477 0.165948
Si Si6 0.639091 0.408039 0.860250
Si Si7 0.065410 0.426716 0.707377
O O1 0.280390 0.926834 0.086443
O O2 0.141585 0.227964 0.477564
O O3 0.000000 0.000000 0.000000
O O4 0.004132 0.864255 0.038435
O O5 0.607907 0.867361 0.788903
O O6 0.437445 0.811034 0.486595
O O7 0.457692 0.151442 0.043503
O O8 0.411082 0.567270 0.422739
O O9 0.735057 0.617024 0.637839
O O10 0.155156 0.292310 0.015717
O O11 0.298727 0.450196 0.048830
O O12 0.106829 0.608074 0.320776
O O13 0.990687 0.498002 0.335069
O O14 0.500000 0.500000 0.000000
O O15 0.797642 0.407940 0.986112
#
# Coordination Sequence:
#
# PCOD9092699 Si02
#       7
#     2   2   2   2   2   2   2
#     4  12  22  42  64  97 134 165 211 268 326 376
#     4  10  22  37  68  94 124 174 211 263 316 388
#     4  10  19  42  64  95 128 164 214 263 327 373
#     4   9  22  41  65  93 125 169 215 261 314 384
#     4  10  24  40  64 100 128 165 215 265 322 384
#     4  11  21  43  67  90 130 175 217 259 320 378
#     4  10  24  43  64  94 130 174 213 257 326 380
#
# _framework density 21.310337000000001
#
# number of rings (size 3 to 8) (size 9 to 14) (size 15 to 20)
#    0.857    0.857    2.857    1.714    4.000    0.571 
#    2.571    3.571    0.000    0.000    0.000    0.000 
#    0.000    0.000    0.000    0.000    0.000    0.000 
#
# Total GULP energy -78068.709711 kJ/mol
# GULP energy per Si atom -5576.336408 kJ/mol
# Density = 2.126183 g / cm^3
# Si number density = 21.310337 Si / 1000 Ang^3
#
#
#
# Elastic Constant Matrix: (Units=GPa)
#
#
# Indices 1 2 3 4 5 6 
#
# 1 94.7289 44.2273 38.8971 -9.2505 18.6894 5.7866
# 2 44.2273 66.8631 9.4000 9.4032 6.8167 7.4442
# 3 38.8971 9.4000 71.1581 -14.0921 5.4081 -11.1195
# 4 -9.2505 9.4032 -14.0921 18.4097 -3.5978 9.4892
# 5 18.6894 6.8167 5.4081 -3.5978 30.0520 -5.8589
# 6 5.7866 7.4442 -11.1195 9.4892 -5.8589 37.7045
#
#
#
# Elastic Compliance Matrix: (Units=1/GPa)
#
#
# Indices 1 2 3 4 5 6 
#
# 1 0.026691 -0.016537 -0.009662 0.017350 -0.010932 -0.009746
# 2 -0.016537 0.028541 0.001019 -0.023553 0.001462 0.003358
# 3 -0.009662 0.001019 0.021582 0.008826 0.004133 0.006068
# 4 0.017350 -0.023553 0.008826 0.091344 0.000323 -0.018348
# 5 -0.010932 0.001462 0.004133 0.000323 0.040765 0.008861
# 6 -0.009746 0.003358 0.006068 -0.018348 0.008861 0.035139
#
#
# Mechanical properties :
#
#
# Convention : Reuss Voigt Hill
#
# Bulk Modulus (GPa) = 37.80243 46.42209 42.11226
# Shear Modulus (GPa) = 16.48861 26.58162 21.53511
#
# Velocity S-wave (km/s) = 2.78463 3.53563 3.18236
# Velocity P-wave (km/s) = 5.30249 6.20473 5.77127
#
# Compressibility (1/GPa) = 0.02645333
#
# Stress axis : x y z
#
# Youngs Moduli (GPa) = 37.46584 35.03761 46.33531
#
# Poissons Ratio (x) = 0.57942 0.44768
# Poissons Ratio (y) = 0.61958 -0.04720
# Poissons Ratio (z) = 0.36198 -0.03569
#
# Static dielectric constant tensor:
#      x y z
#    x 1.808550 0.023580 -0.012160 
#    y 0.023580 1.799720 0.005540 
#    z -0.012160 0.005540 1.790110 
# 
# From -- ./inp_files/401582.got.cif
#   From: 2010.05.17/outbox.cif.g08.bks.cpg/sg2_201_cif.got.tgz:401582.got - 2010.06.03 11:33:40.
