data_PCOD9092447
_publ_section_title
;
Structure prediction by ZEFSAII (Michael W. Deem and Ramdas Pophale) SiO2 
 PCOD9092447
Probable space group: P -1
;
_chemical_formula_sum "Si O2"
_cell_formula_units_Z 16
_cell_length_a 19.753597
_cell_length_b 21.075585
_cell_length_c 13.705751
_cell_angle_alpha 21.217610
_cell_angle_beta 29.686540
_cell_angle_gamma 19.097527
_cell_volume 672.065784
_symmetry_space_group_name_H-M "P -1"
_symmetry_group_IT_number 2
_symmetry_cell_setting 'triclinic'
loop_
_space_group_symop_operation_xyz
x,y,z
-x,-y,-z
loop_
_atom_site_type_symbol
_atom_site_label
_atom_site_fract_x
_atom_site_fract_y
_atom_site_fract_z
Si Si1 0.335770 0.931454 0.565418
Si Si2 0.568405 0.841790 0.740550
Si Si3 0.171237 0.973600 0.352755
Si Si4 0.224508 0.163175 0.162749
Si Si5 0.224557 0.648601 0.907954
Si Si6 0.339163 0.434108 0.603891
Si Si7 0.630301 0.383675 0.884789
Si Si8 0.744506 0.135674 0.811504
O O1 0.545681 0.628098 0.703490
O O2 0.386126 0.061956 0.370906
O O3 0.219999 0.083344 0.390627
O O4 0.241797 0.880605 0.832774
O O5 0.500000 0.000000 0.500000
O O6 0.768716 0.537442 0.893744
O O7 0.395189 0.865228 0.952386
O O8 0.083428 0.219079 0.173272
O O9 0.283134 0.743189 0.622631
O O10 0.272285 0.915521 0.205950
O O11 0.000000 0.000000 0.500000
O O12 0.447019 0.876584 0.248643
O O13 0.208455 0.387720 0.862484
O O14 0.417519 0.483079 0.977367
O O15 0.987619 0.900295 0.877431
O O16 0.275597 0.613930 0.331840
O O17 0.327995 0.592239 0.475863
#
# Coordination Sequence:
#
# PCOD9092447 Si02
#       8
#     2   2   2   2   2   2   2   2
#     4  10  21  36  67  93 124 176 214 267 336 382
#     4  12  24  42  67  98 128 172 230 270 321 399
#     4  10  22  41  62  95 134 168 214 271 327 396
#     4  10  21  37  66  98 128 168 224 272 323 395
#     4  11  22  43  63  94 136 167 216 279 321 396
#     4  10  20  38  63  96 129 166 224 269 321 397
#     4  10  19  41  65  89 128 172 217 266 332 399
#     4  11  25  39  67  96 133 176 214 272 342 377
#
# _framework density 23.807193999999999
#
# number of rings (size 3 to 8) (size 9 to 14) (size 15 to 20)
#    0.000    1.500    5.000    0.000    7.000    1.500 
#    0.000    5.000    0.000    4.500    0.000    0.000 
#    0.000    0.000    0.000    0.000    0.000    0.000 
#
# Total GULP energy -89186.690180 kJ/mol
# GULP energy per Si atom -5574.168136 kJ/mol
# Density = 2.375301 g / cm^3
# Si number density = 23.807194 Si / 1000 Ang^3
#
#
#
# Elastic Constant Matrix: (Units=GPa)
#
#
# Indices 1 2 3 4 5 6 
#
# 1 147.1512 26.9685 58.5088 -5.5789 -19.6756 31.5136
# 2 26.9685 81.0943 36.8156 -8.8687 -2.9595 8.9484
# 3 58.5088 36.8156 134.3144 6.4703 -34.9992 8.9332
# 4 -5.5789 -8.8687 6.4703 30.5707 14.5643 -1.1495
# 5 -19.6756 -2.9595 -34.9992 14.5643 42.4013 -8.0156
# 6 31.5136 8.9484 8.9332 -1.1495 -8.0156 31.6832
#
#
#
# Elastic Compliance Matrix: (Units=1/GPa)
#
#
# Indices 1 2 3 4 5 6 
#
# 1 0.010558 -0.000064 -0.004603 0.003420 -0.001882 -0.009538
# 2 -0.000064 0.017032 -0.007323 0.010824 -0.009490 -0.004690
# 3 -0.004603 -0.007323 0.016048 -0.014006 0.016505 0.005789
# 4 0.003420 0.010824 -0.014006 0.052903 -0.028883 -0.007898
# 5 -0.001882 -0.009490 0.016505 -0.028883 0.047655 0.010907
# 6 -0.009538 -0.004690 0.005789 -0.007898 0.010907 0.043215
#
#
# Mechanical properties :
#
#
# Convention : Reuss Voigt Hill
#
# Bulk Modulus (GPa) = 50.86702 67.46064 59.16383
# Shear Modulus (GPa) = 22.94176 36.94885 29.94531
#
# Velocity S-wave (km/s) = 3.10764 3.94382 3.55043
# Velocity P-wave (km/s) = 5.85569 7.00971 6.45853
#
# Compressibility (1/GPa) = 0.01965910
#
# Stress axis : x y z
#
# Youngs Moduli (GPa) = 94.71397 58.71260 62.31333
#
# Poissons Ratio (x) = 0.00375 0.28680
# Poissons Ratio (y) = 0.00604 0.45633
# Poissons Ratio (z) = 0.43593 0.42996
#
# Static dielectric constant tensor:
#      x y z
#    x 2.248720 -0.078360 0.013420 
#    y -0.078360 2.118710 -0.001710 
#    z 0.013420 -0.001710 1.984530 
# 
# From -- ./inp_files/543280.got.cif
#   From: 2010.05.17/outbox.cif.g08.bks.cpg/sg2_272_cif.got.tgz:543280.got - 2010.06.03 11:33:40.
