data_PCOD9092954
_publ_section_title
;
Structure prediction by ZEFSAII (Michael W. Deem and Ramdas Pophale) SiO2 
 PCOD9092954
Probable space group: P -1
;
_chemical_formula_sum "Si O2"
_cell_formula_units_Z 16
_cell_length_a 10.731005
_cell_length_b 8.725175
_cell_length_c 10.821504
_cell_angle_alpha 126.277721
_cell_angle_beta 94.570855
_cell_angle_gamma 55.968300
_cell_volume 627.139182
_symmetry_space_group_name_H-M "P -1"
_symmetry_group_IT_number 2
_symmetry_cell_setting 'triclinic'
loop_
_space_group_symop_operation_xyz
x,y,z
-x,-y,-z
loop_
_atom_site_type_symbol
_atom_site_label
_atom_site_fract_x
_atom_site_fract_y
_atom_site_fract_z
Si Si1 0.345143 0.255075 0.870930
Si Si2 0.025020 0.099956 0.698858
Si Si3 0.574760 0.426854 0.269984
Si Si4 0.845678 0.856901 0.022409
Si Si5 0.297309 0.518382 0.455343
Si Si6 0.719659 0.852470 0.670755
Si Si7 0.887908 0.616357 0.309354
Si Si8 0.686231 0.291600 0.815731
O O1 0.256521 0.215446 0.953098
O O2 0.246952 0.325435 0.770660
O O3 0.526011 0.006773 0.740936
O O4 0.354051 0.466996 0.011528
O O5 0.039408 0.176298 0.873973
O O6 0.056000 0.238977 0.674407
O O7 0.851101 0.177296 0.701999
O O8 0.165445 0.809248 0.568176
O O9 0.449119 0.419221 0.334296
O O10 0.642103 0.516957 0.414310
O O11 0.463599 0.614268 0.241011
O O12 0.721508 0.143918 0.112421
O O13 0.963799 0.674443 0.835943
O O14 0.222118 0.385848 0.360281
O O15 0.808939 0.730087 0.489376
O O16 0.730483 0.067351 0.795737
#
# Coordination Sequence:
#
# PCOD9092954 Si02
#       8
#     2   2   2   2   2   2   2   2
#     4  11  22  45  69 100 137 178 225 282 334 404
#     4  10  21  44  71  98 136 180 231 276 331 403
#     4  10  23  41  73 100 130 181 232 277 327 408
#     4  10  19  45  75  95 127 184 236 271 319 411
#     4  10  23  45  66  98 139 182 228 273 332 408
#     4  12  27  41  67 106 140 178 219 286 343 397
#     4  11  22  42  77 100 128 184 235 273 325 409
#     4  12  25  43  70 104 138 177 223 284 344 395
#
# _framework density 25.512678000000001
#
# number of rings (size 3 to 8) (size 9 to 14) (size 15 to 20)
#    0.000    1.250    3.750    2.250    5.250    3.000 
#    0.000    5.000    0.000    0.000    0.000    0.000 
#    0.000    0.000    0.000    0.000    0.000    0.000 
#
# Total GULP energy -89653.575132 kJ/mol
# GULP energy per Si atom -5603.348446 kJ/mol
# Density = 2.545461 g / cm^3
# Si number density = 25.512678 Si / 1000 Ang^3
#
#
#
# Elastic Constant Matrix: (Units=GPa)
#
#
# Indices 1 2 3 4 5 6 
#
# 1 62.1754 15.6314 10.6606 -1.4399 4.0289 -7.9190
# 2 15.6314 74.6708 13.9344 13.2316 19.5931 -6.5163
# 3 10.6606 13.9344 109.3216 16.1987 -0.9181 -14.8130
# 4 -1.4399 13.2316 16.1987 44.8061 0.0038 9.0396
# 5 4.0289 19.5931 -0.9181 0.0038 44.2108 11.8057
# 6 -7.9190 -6.5163 -14.8130 9.0396 11.8057 33.7557
#
#
#
# Elastic Compliance Matrix: (Units=1/GPa)
#
#
# Indices 1 2 3 4 5 6 
#
# 1 0.017550 -0.003158 -0.001094 0.001277 -0.001036 0.003048
# 2 -0.003158 0.018798 0.000074 -0.007395 -0.010313 0.008507
# 3 -0.001094 0.000074 0.010892 -0.005297 -0.001430 0.006456
# 4 0.001277 -0.007395 -0.005297 0.029204 0.006683 -0.013610
# 5 -0.001036 -0.010313 -0.001430 0.006683 0.031431 -0.015644
# 6 0.003048 0.008507 0.006456 -0.013610 -0.015644 0.043931
#
#
# Mechanical properties :
#
#
# Convention : Reuss Voigt Hill
#
# Bulk Modulus (GPa) = 25.71736 36.29118 31.00427
# Shear Modulus (GPa) = 28.88103 38.28393 33.58248
#
# Velocity S-wave (km/s) = 3.36821 3.87794 3.63203
# Velocity P-wave (km/s) = 5.02280 5.85721 5.45598
#
# Compressibility (1/GPa) = 0.03888424
#
# Stress axis : x y z
#
# Youngs Moduli (GPa) = 56.97998 53.19647 91.80765
#
# Poissons Ratio (x) = 0.16800 0.10042
# Poissons Ratio (y) = 0.17995 -0.00677
# Poissons Ratio (z) = 0.06233 -0.00393
#
# Static dielectric constant tensor:
#      x y z
#    x 1.977580 -0.030620 0.010420 
#    y -0.030620 2.017860 -0.037800 
#    z 0.010420 -0.037800 2.005390 
# 
# From -- ./inp_files/420023.got.cif
#   From: 2010.05.17/outbox.cif.g08.bks.cpg/sg2_211_cif.got.tgz:420023.got - 2010.06.03 11:33:40.
