data_PCOD9092645
_publ_section_title
;
Structure prediction by ZEFSAII (Michael W. Deem and Ramdas Pophale) SiO2 
 PCOD9092645
Probable space group: P -1
;
_chemical_formula_sum "Si O2"
_cell_formula_units_Z 12
_cell_length_a 7.574853
_cell_length_b 10.080046
_cell_length_c 8.485986
_cell_angle_alpha 89.301360
_cell_angle_beta 51.035448
_cell_angle_gamma 104.588813
_cell_volume 474.863715
_symmetry_space_group_name_H-M "P -1"
_symmetry_group_IT_number 2
_symmetry_cell_setting 'triclinic'
loop_
_space_group_symop_operation_xyz
x,y,z
-x,-y,-z
loop_
_atom_site_type_symbol
_atom_site_label
_atom_site_fract_x
_atom_site_fract_y
_atom_site_fract_z
Si Si1 0.801000 0.129745 0.920095
Si Si2 0.719918 0.582368 0.985579
Si Si3 0.983794 0.416870 0.674486
Si Si4 0.326086 0.315541 0.660581
Si Si5 0.072132 0.120671 0.291428
Si Si6 0.610507 0.882840 0.603569
O O1 0.806954 0.252573 0.787140
O O2 0.068679 0.191880 0.840791
O O3 0.790767 0.981962 0.854138
O O4 0.604992 0.116123 0.163799
O O5 0.894704 0.491350 0.868025
O O6 0.860827 0.734358 0.835714
O O7 0.500000 0.500000 0.000000
O O8 0.615526 0.607283 0.209341
O O9 0.000000 0.500000 0.500000
O O10 0.240862 0.411330 0.584756
O O11 0.472345 0.232399 0.486382
O O12 0.189296 0.155332 0.399577
O O13 0.786658 0.035438 0.446817
#
# Coordination Sequence:
#
# PCOD9092645 Si02
#       6
#     2   2   2   2   2   2
#     4   9  21  41  73  98 138 180 226 282 348 404
#     4  12  25  45  67 100 140 186 231 283 348 405
#     4  10  22  44  70  99 137 177 225 286 346 404
#     4   9  23  44  68 102 140 177 231 289 334 412
#     4  10  22  39  68 101 140 179 231 281 333 416
#     4  10  19  41  72  98 134 182 228 280 345 401
#
# _framework density 25.270408
#
# number of rings (size 3 to 8) (size 9 to 14) (size 15 to 20)
#    1.000    1.000    0.000    3.000    2.333    2.667 
#    3.000    5.833    0.000    0.000    0.000    1.167 
#    0.000    0.000    0.000    0.000    0.000    0.000 
#
# Total GULP energy -67091.700567 kJ/mol
# GULP energy per Si atom -5590.975047 kJ/mol
# Density = 2.521289 g / cm^3
# Si number density = 25.270408 Si / 1000 Ang^3
#
#
#
# Elastic Constant Matrix: (Units=GPa)
#
#
# Indices 1 2 3 4 5 6 
#
# 1 39.8234 19.8132 21.6470 16.7213 12.7860 8.5273
# 2 19.8132 131.8536 68.5023 21.3745 1.9604 -6.6600
# 3 21.6470 68.5023 161.3727 20.6046 -22.2185 12.8630
# 4 16.7213 21.3745 20.6046 53.3218 9.6040 9.3392
# 5 12.7860 1.9604 -22.2185 9.6040 31.9205 16.2656
# 6 8.5273 -6.6600 12.8630 9.3392 16.2656 30.4095
#
#
#
# Elastic Compliance Matrix: (Units=1/GPa)
#
#
# Indices 1 2 3 4 5 6 
#
# 1 0.037502 0.000022 -0.007802 -0.005917 -0.021891 0.006315
# 2 0.000022 0.013063 -0.008146 -0.002203 -0.012886 0.013870
# 3 -0.007802 -0.008146 0.015846 -0.001540 0.024864 -0.019126
# 4 -0.005917 -0.002203 -0.001540 0.023366 -0.003947 -0.003237
# 5 -0.021891 -0.012886 0.024864 -0.003947 0.085827 -0.051896
# 6 0.006315 0.013870 -0.019126 -0.003237 -0.051896 0.070994
#
#
# Mechanical properties :
#
#
# Convention : Reuss Voigt Hill
#
# Bulk Modulus (GPa) = 28.93717 61.44164 45.18941
# Shear Modulus (GPa) = 17.24329 38.00283 27.62306
#
# Velocity S-wave (km/s) = 2.61502 3.88215 3.30979
# Velocity P-wave (km/s) = 4.53802 6.66793 5.70328
#
# Compressibility (1/GPa) = 0.03455762
#
# Stress axis : x y z
#
# Youngs Moduli (GPa) = 26.66544 76.55486 63.10760
#
# Poissons Ratio (x) = -0.00166 0.49234
# Poissons Ratio (y) = -0.00058 0.51409
# Poissons Ratio (z) = 0.20803 0.62364
#
# Static dielectric constant tensor:
#      x y z
#    x 2.114020 0.006850 -0.022140 
#    y 0.006850 2.037630 -0.008990 
#    z -0.022140 -0.008990 2.076400 
# 
# From -- ./inp_files/159042.got.cif
#   From: 2010.05.17/outbox.cif.g08.bks.cpg/sg2_80_cif.got.tgz:159042.got - 2010.06.03 11:33:40.
