data_PCOD9092171
_publ_section_title
;
Structure prediction by ZEFSAII (Michael W. Deem and Ramdas Pophale) SiO2 
 PCOD9092171
Probable space group: P -1
;
_chemical_formula_sum "Si O2"
_cell_formula_units_Z 12
_cell_length_a 9.810395
_cell_length_b 16.783513
_cell_length_c 8.716820
_cell_angle_alpha 124.569025
_cell_angle_beta 106.927017
_cell_angle_gamma 121.560804
_cell_volume 549.168725
_symmetry_space_group_name_H-M "P -1"
_symmetry_group_IT_number 2
_symmetry_cell_setting 'triclinic'
loop_
_space_group_symop_operation_xyz
x,y,z
-x,-y,-z
loop_
_atom_site_type_symbol
_atom_site_label
_atom_site_fract_x
_atom_site_fract_y
_atom_site_fract_z
Si Si1 0.258909 0.867333 0.415346
Si Si2 0.845703 0.928285 0.708098
Si Si3 0.272807 0.046181 0.855178
Si Si4 0.358375 0.735358 0.491842
Si Si5 0.838577 0.482644 0.527634
Si Si6 0.843069 0.687069 0.844255
O O1 0.254793 0.767529 0.404072
O O2 0.500000 0.000000 0.500000
O O3 0.324683 0.995787 0.691158
O O4 0.945421 0.708265 0.065131
O O5 0.951624 0.902672 0.609120
O O6 0.509413 0.750102 0.440149
O O7 0.978261 0.109108 0.896289
O O8 0.000000 0.000000 0.000000
O O9 0.393872 0.084133 0.103515
O O10 0.493828 0.267472 0.139935
O O11 0.138952 0.546513 0.323748
O O12 0.933585 0.649416 0.725789
O O13 0.000000 0.500000 0.500000
O O14 0.500000 0.500000 0.500000
#
# Coordination Sequence:
#
# PCOD9092171 Si02
#       6
#     2   2   2   2   2   2
#     4  12  23  38  67 102 125 170 221 266 312 391
#     4  10  19  40  67  90 125 173 216 256 320 383
#     4   9  21  39  64  93 126 171 214 257 319 382
#     4   9  21  41  66  95 127 170 213 268 315 385
#     4  10  22  39  65  94 131 169 207 267 333 371
#     4  12  23  41  60  94 135 168 208 267 327 369
#
# _framework density 21.851208
#
# number of rings (size 3 to 8) (size 9 to 14) (size 15 to 20)
#    1.000    0.667    3.333    1.500    0.000    2.667 
#    0.000    0.000    0.000   10.000    0.000    0.000 
#    0.000    0.000    0.000    0.000    0.000    0.000 
#
# Total GULP energy -66866.883525 kJ/mol
# GULP energy per Si atom -5572.240294 kJ/mol
# Density = 2.180147 g / cm^3
# Si number density = 21.851208 Si / 1000 Ang^3
#
#
#
# Elastic Constant Matrix: (Units=GPa)
#
#
# Indices 1 2 3 4 5 6 
#
# 1 159.3331 62.5535 31.3289 -18.2300 -11.0270 4.4157
# 2 62.5535 93.9116 11.0026 -0.9971 6.3339 -9.4156
# 3 31.3289 11.0026 61.9594 -20.0645 5.0379 -0.3840
# 4 -18.2300 -0.9971 -20.0645 15.1255 1.6663 2.3119
# 5 -11.0270 6.3339 5.0379 1.6663 30.8778 -5.9831
# 6 4.4157 -9.4156 -0.3840 2.3119 -5.9831 43.4378
#
#
#
# Elastic Compliance Matrix: (Units=1/GPa)
#
#
# Indices 1 2 3 4 5 6 
#
# 1 0.011306 -0.007903 -0.000846 0.011916 0.004598 -0.002871
# 2 -0.007903 0.016815 -0.002450 -0.011867 -0.004368 0.004457
# 3 -0.000846 -0.002450 0.030987 0.041302 -0.007750 -0.003437
# 4 0.011916 -0.011867 0.041302 0.137409 -0.009806 -0.012082
# 5 0.004598 -0.004368 -0.007750 -0.009806 0.037533 0.004209
# 6 -0.002871 0.004457 -0.003437 -0.012082 0.004209 0.025472
#
#
# Mechanical properties :
#
#
# Convention : Reuss Voigt Hill
#
# Bulk Modulus (GPa) = 27.24148 58.33046 42.78597
# Shear Modulus (GPa) = 16.99773 31.90949 24.45361
#
# Velocity S-wave (km/s) = 2.79208 3.82554 3.34892
# Velocity P-wave (km/s) = 4.78416 6.80187 5.88020
#
# Compressibility (1/GPa) = 0.03670872
#
# Stress axis : x y z
#
# Youngs Moduli (GPa) = 88.44481 59.47040 32.27204
#
# Poissons Ratio (x) = 0.47002 0.02732
# Poissons Ratio (y) = 0.69901 0.07906
# Poissons Ratio (z) = 0.07487 0.14569
#
# Static dielectric constant tensor:
#      x y z
#    x 1.843900 0.007840 0.016290 
#    y 0.007840 1.869730 0.045260 
#    z 0.016290 0.045260 1.915220 
# 
# From -- ./inp_files/218669.got.cif
#   From: 2010.05.17/outbox.cif.g08.bks.cpg/sg2_110_cif.got.tgz:218669.got - 2010.06.03 11:33:40.
