data_PCOD9092246
_publ_section_title
;
Structure prediction by ZEFSAII (Michael W. Deem and Ramdas Pophale) SiO2 
 PCOD9092246
Probable space group: P -1
;
_chemical_formula_sum "Si O2"
_cell_formula_units_Z 16
_cell_length_a 8.671607
_cell_length_b 18.185630
_cell_length_c 8.510173
_cell_angle_alpha 81.730514
_cell_angle_beta 116.093475
_cell_angle_gamma 142.201315
_cell_volume 686.233907
_symmetry_space_group_name_H-M "P -1"
_symmetry_group_IT_number 2
_symmetry_cell_setting 'triclinic'
loop_
_space_group_symop_operation_xyz
x,y,z
-x,-y,-z
loop_
_atom_site_type_symbol
_atom_site_label
_atom_site_fract_x
_atom_site_fract_y
_atom_site_fract_z
Si Si1 0.535232 0.805806 0.782975
Si Si2 0.831771 0.694330 0.231170
Si Si3 0.721572 0.648142 0.564414
Si Si4 0.265117 0.118418 0.695338
Si Si5 0.057884 0.916360 0.148443
Si Si6 0.802452 0.264431 0.057741
Si Si7 0.183191 0.469904 0.890630
Si Si8 0.653975 0.345427 0.555210
O O1 0.316692 0.727079 0.856559
O O2 0.383527 0.723203 0.584789
O O3 0.834636 0.862494 0.925477
O O4 0.643059 0.929884 0.781910
O O5 0.825496 0.699751 0.415203
O O6 0.072515 0.833959 0.214431
O O7 0.840526 0.611746 0.205747
O O8 0.516545 0.609352 0.041814
O O9 0.500000 0.500000 0.500000
O O10 0.515292 0.638282 0.550767
O O11 0.002537 0.730788 0.776689
O O12 0.109004 0.107234 0.768793
O O13 0.478454 0.247138 0.652582
O O14 0.495927 0.139216 0.863196
O O15 0.000000 0.000000 0.500000
O O16 0.024523 0.387668 0.005586
O O17 0.996368 0.467505 0.722360
#
# Coordination Sequence:
#
# PCOD9092246 Si02
#       8
#     2   2   2   2   2   2   2   2
#     4  10  22  41  67  98 140 168 231 269 338 402
#     4  11  23  44  71  94 141 174 230 280 341 394
#     4  12  25  43  67 101 141 170 224 286 338 398
#     4  10  19  40  68  96 133 174 223 273 335 406
#     4  10  21  39  68 100 130 182 215 283 333 401
#     4  10  23  43  66 100 137 176 221 284 331 397
#     4  10  24  44  69 101 129 184 230 276 337 407
#     4  11  23  40  70  97 133 181 224 276 342 399
#
# _framework density 23.315664999999999
#
# number of rings (size 3 to 8) (size 9 to 14) (size 15 to 20)
#    0.000    1.500    3.750    0.750    1.750    2.500 
#    0.000    8.125    0.000    0.000    0.000    0.000 
#    0.000    0.000    0.000    0.000    0.000    0.000 
#
# Total GULP energy -89475.940054 kJ/mol
# GULP energy per Si atom -5592.246253 kJ/mol
# Density = 2.326260 g / cm^3
# Si number density = 23.315665 Si / 1000 Ang^3
#
#
#
# Elastic Constant Matrix: (Units=GPa)
#
#
# Indices 1 2 3 4 5 6 
#
# 1 61.7439 7.4704 36.9856 13.5900 16.7802 6.1833
# 2 7.4704 70.9413 22.7228 6.8304 0.4423 -9.8844
# 3 36.9856 22.7228 144.4919 17.9746 25.5396 -11.1422
# 4 13.5900 6.8304 17.9746 17.2300 7.5167 -1.0082
# 5 16.7802 0.4423 25.5396 7.5167 39.5369 -13.3074
# 6 6.1833 -9.8844 -11.1422 -1.0082 -13.3074 23.6572
#
#
#
# Elastic Compliance Matrix: (Units=1/GPa)
#
#
# Indices 1 2 3 4 5 6 
#
# 1 0.026568 -0.002746 -0.004146 -0.011191 -0.012312 -0.017447
# 2 -0.002746 0.016808 -0.001667 -0.004986 0.006503 0.010401
# 3 -0.004146 -0.001667 0.009508 -0.004777 -0.002327 0.003352
# 4 -0.011191 -0.004986 -0.004777 0.076976 -0.007541 -0.002369
# 5 -0.012312 0.006503 -0.002327 -0.007541 0.043055 0.028736
# 6 -0.017447 0.010401 0.003352 -0.002369 0.028736 0.068819
#
#
# Mechanical properties :
#
#
# Convention : Reuss Voigt Hill
#
# Bulk Modulus (GPa) = 27.96003 45.72608 36.84305
# Shear Modulus (GPa) = 18.46549 30.08471 24.27510
#
# Velocity S-wave (km/s) = 2.81726 3.59600 3.23019
# Velocity P-wave (km/s) = 4.75401 6.07420 5.45420
#
# Compressibility (1/GPa) = 0.03576534
#
# Stress axis : x y z
#
# Youngs Moduli (GPa) = 37.63918 59.49478 105.17109
#
# Poissons Ratio (x) = 0.16340 0.43601
# Poissons Ratio (y) = 0.10337 0.17537
# Poissons Ratio (z) = 0.15604 0.09921
#
# Static dielectric constant tensor:
#      x y z
#    x 1.873840 -0.016620 0.034350 
#    y -0.016620 1.877850 -0.018690 
#    z 0.034350 -0.018690 1.910020 
# 
# From -- ./inp_files/217531.got.cif
#   From: 2010.05.17/outbox.cif.g08.bks.cpg/sg2_109_cif.got.tgz:217531.got - 2010.06.03 11:33:40.
