data_PCOD9092631
_publ_section_title
;
Structure prediction by ZEFSAII (Michael W. Deem and Ramdas Pophale) SiO2 
 PCOD9092631
Probable space group: P -1
;
_chemical_formula_sum "Si O2"
_cell_formula_units_Z 14
_cell_length_a 12.903166
_cell_length_b 9.252353
_cell_length_c 11.718901
_cell_angle_alpha 81.603525
_cell_angle_beta 35.874549
_cell_angle_gamma 58.229163
_cell_volume 575.929250
_symmetry_space_group_name_H-M "P -1"
_symmetry_group_IT_number 2
_symmetry_cell_setting 'triclinic'
loop_
_space_group_symop_operation_xyz
x,y,z
-x,-y,-z
loop_
_atom_site_type_symbol
_atom_site_label
_atom_site_fract_x
_atom_site_fract_y
_atom_site_fract_z
Si Si1 0.710265 0.721964 0.166919
Si Si2 0.759592 0.583516 0.366197
Si Si3 0.237513 0.932595 0.441242
Si Si4 0.841859 0.489536 0.559382
Si Si5 0.723383 0.975525 0.838772
Si Si6 0.691986 0.257359 0.966847
Si Si7 0.447216 0.502605 0.707928
O O1 0.701178 0.745346 0.308586
O O2 0.454818 0.905136 0.307815
O O3 0.726438 0.533090 0.164842
O O4 0.959100 0.630007 0.893582
O O5 0.759484 0.613591 0.498744
O O6 0.551296 0.577998 0.534422
O O7 0.304614 0.735090 0.454391
O O8 0.282946 0.898792 0.269846
O O9 0.959646 0.146748 0.689478
O O10 0.600716 0.561390 0.829084
O O11 0.000000 0.500000 0.500000
O O12 0.029313 0.257463 0.376700
O O13 0.500000 0.000000 0.000000
O O14 0.710339 0.069696 0.957199
O O15 0.679141 0.344640 0.089427
#
# Coordination Sequence:
#
# PCOD9092631 Si02
#       7
#     2   2   2   2   2   2   2
#     4   9  21  40  69  97 127 179 217 267 325 387
#     4  10  19  41  71  92 132 175 220 265 330 379
#     4  10  24  40  62  96 131 172 217 269 326 389
#     4  11  24  40  65  98 129 174 215 271 330 388
#     4  12  24  41  63  94 133 172 220 271 324 390
#     4  11  22  41  62  92 132 173 205 273 329 375
#     4   9  22  41  66  97 129 167 219 266 322 390
#
# _framework density 24.308544000000001
#
# number of rings (size 3 to 8) (size 9 to 14) (size 15 to 20)
#    0.857    0.857    1.429    3.429    0.000    3.429 
#    0.000    2.857    0.000    2.571    0.000    0.000 
#    0.000    0.000    0.000    0.000    0.000    0.000 
#
# Total GULP energy -77954.907171 kJ/mol
# GULP energy per Si atom -5568.207655 kJ/mol
# Density = 2.425322 g / cm^3
# Si number density = 24.308544 Si / 1000 Ang^3
#
#
#
# Elastic Constant Matrix: (Units=GPa)
#
#
# Indices 1 2 3 4 5 6 
#
# 1 98.7454 0.8379 27.4748 6.5740 -16.6028 -8.3003
# 2 0.8379 36.9443 19.4027 6.0611 12.9720 -8.4427
# 3 27.4748 19.4027 160.5632 15.0509 -20.4195 -6.3011
# 4 6.5740 6.0611 15.0509 43.8372 2.7198 8.2792
# 5 -16.6028 12.9720 -20.4195 2.7198 43.7031 -1.5772
# 6 -8.3003 -8.4427 -6.3011 8.2792 -1.5772 32.7282
#
#
#
# Elastic Compliance Matrix: (Units=1/GPa)
#
#
# Indices 1 2 3 4 5 6 
#
# 1 0.011578 0.000044 -0.001109 -0.002281 0.004136 0.003510
# 2 0.000044 0.037204 -0.005406 -0.004190 -0.012966 0.009003
# 3 -0.001109 -0.005406 0.007953 -0.002258 0.005064 0.000671
# 4 -0.002281 -0.004190 -0.002258 0.026350 -0.002638 -0.008887
# 5 0.004136 -0.012966 0.005064 -0.002638 0.030862 0.000834
# 6 0.003510 0.009003 0.000671 -0.008887 0.000834 0.036185
#
#
# Mechanical properties :
#
#
# Convention : Reuss Voigt Hill
#
# Bulk Modulus (GPa) = 22.83501 43.52040 33.17771
# Shear Modulus (GPa) = 28.14194 40.62287 34.38241
#
# Velocity S-wave (km/s) = 3.40619 4.09239 3.76495
# Velocity P-wave (km/s) = 4.98836 6.34605 5.70772
#
# Compressibility (1/GPa) = 0.04379241
#
# Stress axis : x y z
#
# Youngs Moduli (GPa) = 86.37420 26.87903 125.73765
#
# Poissons Ratio (x) = -0.00119 0.13943
# Poissons Ratio (y) = -0.00381 0.67976
# Poissons Ratio (z) = 0.09578 0.14531
#
# Static dielectric constant tensor:
#      x y z
#    x 2.061420 -0.030030 -0.007080 
#    y -0.030030 1.988090 -0.037180 
#    z -0.007080 -0.037180 1.919210 
# 
# From -- ./inp_files/450067.got.cif
#   From: 2010.05.17/outbox.cif.g08.bks.cpg/sg2_226_cif.got.tgz:450067.got - 2010.06.03 11:33:40.
