data_PCOD9092831
_publ_section_title
;
Structure prediction by ZEFSAII (Michael W. Deem and Ramdas Pophale) SiO2 
 PCOD9092831
Probable space group: P -1
;
_chemical_formula_sum "Si O2"
_cell_formula_units_Z 16
_cell_length_a 14.379922
_cell_length_b 7.985562
_cell_length_c 8.720486
_cell_angle_alpha 101.916930
_cell_angle_beta 41.433943
_cell_angle_gamma 87.790346
_cell_volume 618.804112
_symmetry_space_group_name_H-M "P -1"
_symmetry_group_IT_number 2
_symmetry_cell_setting 'triclinic'
loop_
_space_group_symop_operation_xyz
x,y,z
-x,-y,-z
loop_
_atom_site_type_symbol
_atom_site_label
_atom_site_fract_x
_atom_site_fract_y
_atom_site_fract_z
Si Si1 0.639061 0.125455 0.614829
Si Si2 0.193232 0.819349 0.873743
Si Si3 0.300200 0.589885 0.201861
Si Si4 0.241204 0.393920 0.752129
Si Si5 0.454096 0.658976 0.716930
Si Si6 0.978896 0.812059 0.542157
Si Si7 0.896174 0.825486 0.324993
Si Si8 0.306664 0.241518 0.988010
O O1 0.742560 0.104837 0.334908
O O2 0.635850 0.318720 0.723946
O O3 0.739261 0.975574 0.576143
O O4 0.477305 0.121781 0.765210
O O5 0.200824 0.607248 0.813708
O O6 0.315867 0.809211 0.848686
O O7 0.023122 0.913295 0.134814
O O8 0.303425 0.385214 0.154510
O O9 0.128707 0.698992 0.414067
O O10 0.393274 0.609723 0.940536
O O11 0.392290 0.301470 0.454471
O O12 0.126773 0.305778 0.802701
O O13 0.274762 0.338257 0.878375
O O14 0.500000 0.500000 0.500000
O O15 0.957637 0.724773 0.387827
O O16 0.832556 0.827627 0.821165
O O17 0.000000 0.000000 0.500000
#
# Coordination Sequence:
#
# PCOD9092831 Si02
#       8
#     2   2   2   2   2   2   2   2
#     4  12  28  44  71 112 146 188 234 291 363 421
#     4  11  22  46  74 101 148 184 239 291 351 421
#     4  12  24  47  76 106 144 186 238 297 352 424
#     4  11  24  45  74 109 137 186 241 293 351 421
#     4  10  19  42  73  99 141 177 230 288 352 405
#     4  12  28  49  70 103 146 191 233 295 365 418
#     4  12  27  45  68 104 145 194 236 286 355 426
#     4  12  26  47  73 107 141 186 243 296 352 423
#
# _framework density 25.856324999999998
#
# number of rings (size 3 to 8) (size 9 to 14) (size 15 to 20)
#    0.000    0.500    6.250    2.250    5.250    3.000 
#    0.000    0.000    0.000    0.000    0.000    0.000 
#    0.000    0.000    0.000    0.000    0.000    0.000 
#
# Total GULP energy -89553.422000 kJ/mol
# GULP energy per Si atom -5597.088875 kJ/mol
# Density = 2.579747 g / cm^3
# Si number density = 25.856325 Si / 1000 Ang^3
#
#
#
# Elastic Constant Matrix: (Units=GPa)
#
#
# Indices 1 2 3 4 5 6 
#
# 1 117.2410 10.2979 31.2626 0.4291 -46.3776 -0.9845
# 2 10.2979 56.1733 29.0642 10.7352 -23.8468 4.6668
# 3 31.2626 29.0642 148.1932 -18.3897 -56.4013 1.9053
# 4 0.4291 10.7352 -18.3897 46.7056 2.2407 -6.4531
# 5 -46.3776 -23.8468 -56.4013 2.2407 57.2702 2.7116
# 6 -0.9845 4.6668 1.9053 -6.4531 2.7116 31.9442
#
#
#
# Elastic Compliance Matrix: (Units=1/GPa)
#
#
# Indices 1 2 3 4 5 6 
#
# 1 0.013238 0.002775 0.001805 -0.000910 0.013757 -0.001457
# 2 0.002775 0.025222 -0.002196 -0.008060 0.011187 -0.006046
# 3 0.001805 -0.002196 0.012028 0.004574 0.012235 -0.000455
# 4 -0.000910 -0.008060 0.004574 0.025972 -0.000898 0.006199
# 5 0.013757 0.011187 0.012235 -0.000898 0.045629 -0.005995
# 6 -0.001457 -0.006046 -0.000455 0.006199 -0.005995 0.033931
#
#
# Mechanical properties :
#
#
# Convention : Reuss Voigt Hill
#
# Bulk Modulus (GPa) = 18.09836 51.42854 34.76345
# Shear Modulus (GPa) = 29.46874 43.91620 36.69247
#
# Velocity S-wave (km/s) = 3.37962 4.12572 3.77117
# Velocity P-wave (km/s) = 4.71635 6.52907 5.69529
#
# Compressibility (1/GPa) = 0.05525361
#
# Stress axis : x y z
#
# Youngs Moduli (GPa) = 75.54253 39.64839 83.13865
#
# Poissons Ratio (x) = -0.11001 -0.15007
# Poissons Ratio (y) = -0.20959 0.18261
# Poissons Ratio (z) = -0.13636 0.08708
#
# Static dielectric constant tensor:
#      x y z
#    x 2.047950 0.034240 0.011820 
#    y 0.034240 2.079680 0.038570 
#    z 0.011820 0.038570 2.036460 
# 
# From -- ./inp_files/298478.got.cif
#   From: 2010.05.17/outbox.cif.g08.bks.cpg/sg2_150_cif.got.tgz:298478.got - 2010.06.03 11:33:40.
