data_PCOD9092899
_publ_section_title
;
Structure prediction by ZEFSAII (Michael W. Deem and Ramdas Pophale) SiO2 
 PCOD9092899
Probable space group: P -1
;
_chemical_formula_sum "Si O2"
_cell_formula_units_Z 16
_cell_length_a 10.847879
_cell_length_b 10.840959
_cell_length_c 9.147725
_cell_angle_alpha 121.630625
_cell_angle_beta 53.054220
_cell_angle_gamma 92.201772
_cell_volume 668.749528
_symmetry_space_group_name_H-M "P -1"
_symmetry_group_IT_number 2
_symmetry_cell_setting 'triclinic'
loop_
_space_group_symop_operation_xyz
x,y,z
-x,-y,-z
loop_
_atom_site_type_symbol
_atom_site_label
_atom_site_fract_x
_atom_site_fract_y
_atom_site_fract_z
Si Si1 0.161875 0.134415 0.562294
Si Si2 0.739634 0.380333 0.591023
Si Si3 0.905078 0.880637 0.826528
Si Si4 0.799473 0.146940 0.820130
Si Si5 0.841399 0.632383 0.511729
Si Si6 0.219436 0.462892 0.051254
Si Si7 0.312297 0.113681 0.752346
Si Si8 0.428147 0.516172 0.723121
O O1 0.238057 0.237889 0.478289
O O2 0.193969 0.149574 0.716590
O O3 0.963257 0.185634 0.695663
O O4 0.237675 0.951437 0.344030
O O5 0.762903 0.519941 0.567433
O O6 0.733479 0.430685 0.796562
O O7 0.564685 0.394268 0.659055
O O8 0.894888 0.213004 0.345426
O O9 0.869316 0.740117 0.685681
O O10 0.861945 0.024080 0.833917
O O11 0.781860 0.940427 0.088720
O O12 0.636072 0.300288 0.072211
O O13 0.021809 0.513800 0.247524
O O14 0.311893 0.279182 0.909123
O O15 0.264140 0.485488 0.865903
O O16 0.500000 0.000000 0.500000
O O17 0.500000 0.500000 0.500000
#
# Coordination Sequence:
#
# PCOD9092899 Si02
#       8
#     2   2   2   2   2   2   2   2
#     4  10  24  42  71  95 131 184 221 276 341 404
#     4  11  23  43  73  98 132 184 225 283 339 398
#     4  10  22  43  68  98 132 173 231 274 335 410
#     4  10  24  47  67  95 137 180 226 271 344 409
#     4  10  19  43  73  96 124 180 231 271 333 404
#     4  11  23  46  67  97 139 175 227 277 339 409
#     4  12  27  40  66 103 138 175 227 282 340 399
#     4  12  29  43  67 104 138 176 230 284 338 397
#
# _framework density 23.925249999999998
#
# number of rings (size 3 to 8) (size 9 to 14) (size 15 to 20)
#    0.000    1.250    3.750    1.125    8.750    2.000 
#    0.000    2.500    0.000    0.000    0.000    0.000 
#    0.000    0.000    0.000    0.000    0.000    0.000 
#
# Total GULP energy -89474.864971 kJ/mol
# GULP energy per Si atom -5592.179061 kJ/mol
# Density = 2.387079 g / cm^3
# Si number density = 23.925250 Si / 1000 Ang^3
#
#
#
# Elastic Constant Matrix: (Units=GPa)
#
#
# Indices 1 2 3 4 5 6 
#
# 1 51.0097 -1.3791 20.2442 -2.8888 5.8954 -10.8081
# 2 -1.3791 87.7336 26.9571 -21.3656 -1.1559 0.6357
# 3 20.2442 26.9571 158.9280 -10.2530 -1.6537 -5.9096
# 4 -2.8888 -21.3656 -10.2530 47.1498 -14.6831 0.2790
# 5 5.8954 -1.1559 -1.6537 -14.6831 20.7372 1.3672
# 6 -10.8081 0.6357 -5.9096 0.2790 1.3672 18.1595
#
#
#
# Elastic Compliance Matrix: (Units=1/GPa)
#
#
# Indices 1 2 3 4 5 6 
#
# 1 0.024882 0.000598 -0.002953 -0.001922 -0.009598 0.014579
# 2 0.000598 0.014010 -0.001930 0.007881 0.006126 -0.001345
# 3 -0.002953 -0.001930 0.007107 0.001132 0.002070 0.000450
# 4 -0.001922 0.007881 0.001132 0.032499 0.024310 -0.003381
# 5 -0.009598 0.006126 0.002070 0.024310 0.069386 -0.010850
# 6 0.014579 -0.001345 0.000450 -0.003381 -0.010850 0.064807
#
#
# Mechanical properties :
#
#
# Convention : Reuss Voigt Hill
#
# Bulk Modulus (GPa) = 26.71693 43.25731 34.98712
# Shear Modulus (GPa) = 21.39156 33.99924 27.69540
#
# Velocity S-wave (km/s) = 2.99339 3.77379 3.40601
# Velocity P-wave (km/s) = 4.81023 6.09164 5.48846
#
# Compressibility (1/GPa) = 0.03742945
#
# Stress axis : x y z
#
# Youngs Moduli (GPa) = 40.19044 71.37521 140.70651
#
# Poissons Ratio (x) = -0.04270 0.41545
# Poissons Ratio (y) = -0.02405 0.27163
# Poissons Ratio (z) = 0.11867 0.13779
#
# Static dielectric constant tensor:
#      x y z
#    x 1.956190 0.022010 -0.011600 
#    y 0.022010 1.950460 0.006930 
#    z -0.011600 0.006930 1.889200 
# 
# From -- ./inp_files/262914.got.cif
#   From: 2010.05.17/outbox.cif.g08.bks.cpg/sg2_132_cif.got.tgz:262914.got - 2010.06.03 11:33:40.
