data_PCOD9092892
_publ_section_title
;
Structure prediction by ZEFSAII (Michael W. Deem and Ramdas Pophale) SiO2 
 PCOD9092892
Probable space group: P -1
;
_chemical_formula_sum "Si O2"
_cell_formula_units_Z 16
_cell_length_a 14.581195
_cell_length_b 9.583072
_cell_length_c 11.452138
_cell_angle_alpha 136.648809
_cell_angle_beta 139.634633
_cell_angle_gamma 43.447514
_cell_volume 656.091345
_symmetry_space_group_name_H-M "P -1"
_symmetry_group_IT_number 2
_symmetry_cell_setting 'triclinic'
loop_
_space_group_symop_operation_xyz
x,y,z
-x,-y,-z
loop_
_atom_site_type_symbol
_atom_site_label
_atom_site_fract_x
_atom_site_fract_y
_atom_site_fract_z
Si Si1 0.647597 0.117629 0.383064
Si Si2 0.213787 0.965815 0.298273
Si Si3 0.715346 0.780663 0.893585
Si Si4 0.599469 0.761204 0.390427
Si Si5 0.886488 0.681884 0.245489
Si Si6 0.070631 0.650557 0.727627
Si Si7 0.694373 0.190242 0.972063
Si Si8 0.772487 0.411841 0.534233
O O1 0.468563 0.156000 0.228869
O O2 0.697766 0.250292 0.414402
O O3 0.691027 0.182840 0.593195
O O4 0.763519 0.866928 0.319614
O O5 0.261786 0.176618 0.476827
O O6 0.034169 0.088841 0.222091
O O7 0.251103 0.867742 0.145825
O O8 0.777052 0.573183 0.741086
O O9 0.740020 0.982518 0.975754
O O10 0.807687 0.719419 0.065923
O O11 0.487797 0.730252 0.167554
O O12 0.656636 0.572169 0.426064
O O13 0.500000 0.000000 0.500000
O O14 0.912275 0.445561 0.183123
O O15 0.052922 0.699476 0.411374
O O16 0.000000 0.500000 0.500000
O O17 0.228871 0.639601 0.818177
#
# Coordination Sequence:
#
# PCOD9092892 Si02
#       8
#     2   2   2   2   2   2   2   2
#     4  12  27  45  73 108 155 192 234 298 368 432
#     4  11  21  45  72 102 145 185 245 302 354 428
#     4  12  25  48  71 110 146 190 248 295 357 441
#     4  10  19  43  72 104 140 180 238 305 353 417
#     4  12  28  47  68 105 155 194 236 299 365 437
#     4  12  26  45  69 100 144 190 245 295 366 426
#     4  11  24  43  75 105 136 190 244 307 355 421
#     4  12  25  45  77 106 148 195 240 297 364 427
#
# _framework density 24.386846999999999
#
# number of rings (size 3 to 8) (size 9 to 14) (size 15 to 20)
#    0.000    0.500    6.250    2.625    5.250    1.000 
#    0.000    1.250    0.000    0.000    0.000    0.000 
#    0.000    0.000    0.000    0.000    0.000    0.000 
#
# Total GULP energy -89548.550652 kJ/mol
# GULP energy per Si atom -5596.784416 kJ/mol
# Density = 2.433134 g / cm^3
# Si number density = 24.386847 Si / 1000 Ang^3
#
#
#
# Elastic Constant Matrix: (Units=GPa)
#
#
# Indices 1 2 3 4 5 6 
#
# 1 81.6859 24.0451 8.0519 -2.0637 10.0270 1.9045
# 2 24.0451 84.8720 19.5390 -24.2006 1.7436 16.0666
# 3 8.0519 19.5390 94.5715 -9.0920 8.4552 16.1599
# 4 -2.0637 -24.2006 -9.0920 42.8045 11.1298 -2.1531
# 5 10.0270 1.7436 8.4552 11.1298 53.0325 -1.2680
# 6 1.9045 16.0666 16.1599 -2.1531 -1.2680 61.0989
#
#
#
# Elastic Compliance Matrix: (Units=1/GPa)
#
#
# Indices 1 2 3 4 5 6 
#
# 1 0.013741 -0.004252 -0.000337 -0.001224 -0.002131 0.000691
# 2 -0.004252 0.016621 -0.001454 0.009095 -0.001505 -0.003564
# 3 -0.000337 -0.001454 0.011770 0.002118 -0.002274 -0.002693
# 4 -0.001224 0.009095 0.002118 0.030582 -0.006871 -0.001979
# 5 -0.002131 -0.001505 -0.002274 -0.006871 0.021143 0.001260
# 6 0.000691 -0.003564 -0.002693 -0.001979 0.001260 0.017951
#
#
# Mechanical properties :
#
#
# Convention : Reuss Voigt Hill
#
# Bulk Modulus (GPa) = 33.28075 40.48904 36.88489
# Shear Modulus (GPa) = 37.33874 45.35341 41.34607
#
# Velocity S-wave (km/s) = 3.91717 4.31716 4.12202
# Velocity P-wave (km/s) = 5.84257 6.44122 6.14919
#
# Compressibility (1/GPa) = 0.03004740
#
# Stress axis : x y z
#
# Youngs Moduli (GPa) = 72.77344 60.16579 84.96111
#
# Poissons Ratio (x) = 0.25580 0.02861
# Poissons Ratio (y) = 0.30940 0.12353
# Poissons Ratio (z) = 0.02451 0.08748
#
# Static dielectric constant tensor:
#      x y z
#    x 1.741920 0.216270 -0.299080 
#    y 0.216270 1.693450 0.316290 
#    z -0.299080 0.316290 1.596640 
# 
# From -- ./inp_files/448252.got.cif
#   From: 2010.05.17/outbox.cif.g08.bks.cpg/sg2_225_cif.got.tgz:448252.got - 2010.06.03 11:33:40.
