data_PCOD9092410
_publ_section_title
;
Structure prediction by ZEFSAII (Michael W. Deem and Ramdas Pophale) SiO2 
 PCOD9092410
Probable space group: P -1
;
_chemical_formula_sum "Si O2"
_cell_formula_units_Z 16
_cell_length_a 12.166646
_cell_length_b 14.840359
_cell_length_c 15.829493
_cell_angle_alpha 41.727814
_cell_angle_beta 153.300393
_cell_angle_gamma 118.736092
_cell_volume 669.402860
_symmetry_space_group_name_H-M "P -1"
_symmetry_group_IT_number 2
_symmetry_cell_setting 'triclinic'
loop_
_space_group_symop_operation_xyz
x,y,z
-x,-y,-z
loop_
_atom_site_type_symbol
_atom_site_label
_atom_site_fract_x
_atom_site_fract_y
_atom_site_fract_z
Si Si1 0.064962 0.843988 0.535194
Si Si2 0.906581 0.601071 0.625217
Si Si3 0.729610 0.209912 0.840428
Si Si4 0.176698 0.798380 0.833070
Si Si5 0.564388 0.683119 0.695419
Si Si6 0.534097 0.902422 0.381546
Si Si7 0.368614 0.913017 0.560012
Si Si8 0.282222 0.574783 0.469022
O O1 0.928464 0.742114 0.502737
O O2 0.245333 0.781899 0.792168
O O3 0.279136 0.816737 0.624235
O O4 0.815210 0.051693 0.230118
O O5 0.577591 0.690708 0.382923
O O6 0.955214 0.466189 0.683506
O O7 0.162872 0.495599 0.948446
O O8 0.714714 0.078381 0.865328
O O9 0.715289 0.339578 0.675281
O O10 0.043444 0.103367 0.184625
O O11 0.818877 0.871879 0.547714
O O12 0.399174 0.617558 0.159092
O O13 0.658077 0.733558 0.640722
O O14 0.481487 0.822107 0.611676
O O15 0.286810 0.679752 0.475829
O O16 0.422598 0.055096 0.264533
#
# Coordination Sequence:
#
# PCOD9092410 Si02
#       8
#     2   2   2   2   2   2   2   2
#     4  10  22  39  64  87 128 166 206 250 304 375
#     4  12  22  40  64  95 120 168 207 252 314 361
#     4  11  23  39  65  97 123 156 210 264 311 359
#     4  10  19  41  63  95 123 159 204 266 310 351
#     4  11  24  41  63  91 131 164 204 253 311 372
#     4  10  20  39  66  90 120 162 205 258 310 358
#     4  11  25  42  60  94 129 168 203 249 309 372
#     4  11  23  38  64  93 127 157 207 265 308 359
#
# _framework density 23.901900000000001
#
# number of rings (size 3 to 8) (size 9 to 14) (size 15 to 20)
#    0.000    1.250    2.500    3.750    0.000    7.500 
#    0.000    0.625    0.000    0.000    0.000    0.000 
#    0.000    0.000    0.000    0.000    0.000    0.000 
#
# Total GULP energy -89504.443228 kJ/mol
# GULP energy per Si atom -5594.027702 kJ/mol
# Density = 2.384750 g / cm^3
# Si number density = 23.901900 Si / 1000 Ang^3
#
#
#
# Elastic Constant Matrix: (Units=GPa)
#
#
# Indices 1 2 3 4 5 6 
#
# 1 76.4951 15.5095 12.6090 -0.9886 -14.7193 7.2220
# 2 15.5095 155.1153 21.8169 15.3135 -17.1962 1.4056
# 3 12.6090 21.8169 70.6647 4.4676 -3.6403 5.2128
# 4 -0.9886 15.3135 4.4676 39.6553 -2.2111 -13.3997
# 5 -14.7193 -17.1962 -3.6403 -2.2111 15.4313 -3.1851
# 6 7.2220 1.4056 5.2128 -13.3997 -3.1851 38.4570
#
#
#
# Elastic Compliance Matrix: (Units=1/GPa)
#
#
# Indices 1 2 3 4 5 6 
#
# 1 0.016468 0.000283 -0.002209 0.001012 0.015404 -0.001175
# 2 0.000283 0.007829 -0.001874 -0.002438 0.008148 -0.000260
# 3 -0.002209 -0.001874 0.015354 -0.001942 -0.001345 -0.002386
# 4 0.001012 -0.002438 -0.001942 0.030410 0.004444 0.011126
# 5 0.015404 0.008148 -0.001345 0.004444 0.090136 0.006006
# 6 -0.001175 -0.000260 -0.002386 0.011126 0.006006 0.030931
#
#
# Mechanical properties :
#
#
# Convention : Reuss Voigt Hill
#
# Bulk Modulus (GPa) = 31.20340 44.68289 37.94314
# Shear Modulus (GPa) = 23.87634 35.53137 29.70385
#
# Velocity S-wave (km/s) = 3.16401 3.85976 3.52908
# Velocity P-wave (km/s) = 5.14112 6.21277 5.70218
#
# Compressibility (1/GPa) = 0.03204779
#
# Stress axis : x y z
#
# Youngs Moduli (GPa) = 60.72481 127.73684 65.13055
#
# Poissons Ratio (x) = -0.03610 0.14390
# Poissons Ratio (y) = -0.01716 0.12208
# Poissons Ratio (z) = 0.13417 0.23942
#
# Static dielectric constant tensor:
#      x y z
#    x 1.866190 -0.059090 0.026440 
#    y -0.059090 1.983120 -0.010230 
#    z 0.026440 -0.010230 1.907220 
# 
# From -- ./inp_files/455808.got.cif
#   From: 2010.05.17/outbox.cif.g08.bks.cpg/sg2_228_cif.got.tgz:455808.got - 2010.06.03 11:33:40.
