data_PCOD9092001
_publ_section_title
;
Structure prediction by ZEFSAII (Michael W. Deem and Ramdas Pophale) SiO2 
 PCOD9092001
Probable space group: P -1
;
_chemical_formula_sum "Si O2"
_cell_formula_units_Z 12
_cell_length_a 13.977778
_cell_length_b 9.612811
_cell_length_c 8.760353
_cell_angle_alpha 59.502258
_cell_angle_beta 90.423071
_cell_angle_gamma 136.211513
_cell_volume 560.395122
_symmetry_space_group_name_H-M "P -1"
_symmetry_group_IT_number 2
_symmetry_cell_setting 'triclinic'
loop_
_space_group_symop_operation_xyz
x,y,z
-x,-y,-z
loop_
_atom_site_type_symbol
_atom_site_label
_atom_site_fract_x
_atom_site_fract_y
_atom_site_fract_z
Si Si1 0.506438 0.190278 0.821763
Si Si2 0.120890 0.143075 0.569101
Si Si3 0.707872 0.054069 0.784763
Si Si4 0.974276 0.638948 0.000582
Si Si5 0.015102 0.291168 0.672655
Si Si6 0.426565 0.868633 0.738046
O O1 0.686277 0.532084 0.653846
O O2 0.475331 0.101998 0.697125
O O3 0.500000 0.000000 0.000000
O O4 0.351880 0.060282 0.979178
O O5 0.060305 0.175207 0.688676
O O6 0.000000 0.000000 0.500000
O O7 0.104356 0.941189 0.747195
O O8 0.827928 0.076668 0.721597
O O9 0.837878 0.389371 0.581620
O O10 0.532847 0.863032 0.804983
O O11 0.779293 0.431542 0.082666
O O12 0.000000 0.500000 0.000000
O O13 0.986549 0.667842 0.169909
O O14 0.500000 0.000000 0.500000
#
# Coordination Sequence:
#
# PCOD9092001 Si02
#       6
#     2   2   2   2   2   2
#     4  10  19  40  64  95 132 176 221 275 337 397
#     4  12  25  42  71 103 139 180 231 282 343 410
#     4  10  21  39  71  94 134 177 225 269 350 395
#     4  12  27  45  70 104 139 181 230 284 346 410
#     4  11  23  43  69 101 138 179 227 283 341 408
#     4  11  20  39  66 100 132 178 222 279 341 401
#
# _framework density 21.413463
#
# number of rings (size 3 to 8) (size 9 to 14) (size 15 to 20)
#    0.000    1.000    5.000    3.500    4.667    0.000 
#    0.000    8.333    0.000    0.000    0.000    0.000 
#    0.000    0.000    0.000    0.000    0.000    0.000 
#
# Total GULP energy -66968.645306 kJ/mol
# GULP energy per Si atom -5580.720442 kJ/mol
# Density = 2.136472 g / cm^3
# Si number density = 21.413463 Si / 1000 Ang^3
#
#
#
# Elastic Constant Matrix: (Units=GPa)
#
#
# Indices 1 2 3 4 5 6 
#
# 1 105.3585 16.7580 41.2452 -9.9796 -13.9631 -5.0403
# 2 16.7580 91.9841 57.2887 11.4807 -2.4980 -1.2005
# 3 41.2452 57.2887 154.6623 -6.8195 -6.1335 -7.3183
# 4 -9.9796 11.4807 -6.8195 44.2203 0.5086 -8.5527
# 5 -13.9631 -2.4980 -6.1335 0.5086 36.4520 -14.5851
# 6 -5.0403 -1.2005 -7.3183 -8.5527 -14.5851 34.1302
#
#
#
# Elastic Compliance Matrix: (Units=1/GPa)
#
#
# Indices 1 2 3 4 5 6 
#
# 1 0.011831 -0.001004 -0.002180 0.003421 0.005898 0.004622
# 2 -0.001004 0.015327 -0.005850 -0.005648 -0.001389 -0.002872
# 3 -0.002180 -0.005850 0.009546 0.003047 0.001497 0.002923
# 4 0.003421 -0.005648 0.003047 0.027183 0.005026 0.009919
# 5 0.005898 -0.001389 0.001497 0.005026 0.037081 0.018249
# 6 0.004622 -0.002872 0.002923 0.009919 0.018249 0.040792
#
#
# Mechanical properties :
#
#
# Convention : Reuss Voigt Hill
#
# Bulk Modulus (GPa) = 53.65666 64.73206 59.19436
# Shear Modulus (GPa) = 30.11329 38.74137 34.42733
#
# Velocity S-wave (km/s) = 3.75411 4.25809 4.01402
# Velocity P-wave (km/s) = 6.62593 7.38040 7.01332
#
# Compressibility (1/GPa) = 0.01863702
#
# Stress axis : x y z
#
# Youngs Moduli (GPa) = 84.52173 65.24303 104.75894
#
# Poissons Ratio (x) = 0.06553 0.22834
# Poissons Ratio (y) = 0.08490 0.61280
# Poissons Ratio (z) = 0.18423 0.38164
#
# Static dielectric constant tensor:
#      x y z
#    x 1.813210 0.104090 0.063140 
#    y 0.104090 1.510290 -0.351400 
#    z 0.063140 -0.351400 1.338950 
# 
# From -- ./inp_files/148072.got.cif
#   From: 2010.05.17/outbox.cif.g08.bks.cpg/sg2_75_cif.got.tgz:148072.got - 2010.06.03 11:33:40.
