data_PCOD9092986
_publ_section_title
;
Structure prediction by ZEFSAII (Michael W. Deem and Ramdas Pophale) SiO2 
 PCOD9092986
Probable space group: P -1
;
_chemical_formula_sum "Si O2"
_cell_formula_units_Z 16
_cell_length_a 5.533134
_cell_length_b 13.902640
_cell_length_c 24.025677
_cell_angle_alpha 31.338080
_cell_angle_beta 85.067232
_cell_angle_gamma 64.087006
_cell_volume 682.356495
_symmetry_space_group_name_H-M "P -1"
_symmetry_group_IT_number 2
_symmetry_cell_setting 'triclinic'
loop_
_space_group_symop_operation_xyz
x,y,z
-x,-y,-z
loop_
_atom_site_type_symbol
_atom_site_label
_atom_site_fract_x
_atom_site_fract_y
_atom_site_fract_z
Si Si1 0.195864 0.310810 0.863482
Si Si2 0.776480 0.211561 0.950016
Si Si3 0.007990 0.123497 0.780103
Si Si4 0.413637 0.910831 0.648411
Si Si5 0.886604 0.964855 0.577262
Si Si6 0.128260 0.439503 0.372645
Si Si7 0.606107 0.616737 0.403072
Si Si8 0.321586 0.075446 0.687296
O O1 0.027924 0.438920 0.744327
O O2 0.396870 0.372252 0.857215
O O3 0.912868 0.347869 0.885223
O O4 0.500000 0.000000 0.000000
O O5 0.843662 0.074012 0.074882
O O6 0.000000 0.000000 0.000000
O O7 0.034999 0.323219 0.700077
O O8 0.613693 0.282650 0.698369
O O9 0.191434 0.015438 0.769784
O O10 0.728308 0.838511 0.643811
O O11 0.124356 0.221584 0.487276
O O12 0.491105 0.886459 0.724676
O O13 0.204372 0.839148 0.673160
O O14 0.535927 0.256027 0.457905
O O15 0.000000 0.000000 0.500000
O O16 0.500000 0.500000 0.500000
O O17 0.480465 0.867738 0.313266
O O18 0.009846 0.362058 0.525126
#
# Coordination Sequence:
#
# PCOD9092986 Si02
#       8
#     2   2   2   2   2   2   2   2
#     4  10  20  33  48  71 103 136 185 210 251 302
#     4  10  21  33  47  66 107 143 180 215 245 286
#     4  11  20  31  48  72 107 151 175 209 249 308
#     4  10  22  35  58  75 108 138 173 215 269 311
#     4  10  23  39  56  78 105 135 178 222 265 312
#     4  10  21  31  57  75 104 152 170 213 266 303
#     4   9  18  28  44  63 107 134 184 201 242 294
#     4  10  20  30  45  74 103 139 178 204 250 320
#
# _framework density 23.448153999999999
#
# number of rings (size 3 to 8) (size 9 to 14) (size 15 to 20)
#    0.750    1.250    2.500    3.375    7.000    2.000 
#    0.000    0.000    0.000    0.000    0.000    0.000 
#    0.000    6.000    0.000    0.000    0.000    0.000 
#
# Total GULP energy -89148.204807 kJ/mol
# GULP energy per Si atom -5571.762800 kJ/mol
# Density = 2.339478 g / cm^3
# Si number density = 23.448154 Si / 1000 Ang^3
#
#
#
# Elastic Constant Matrix: (Units=GPa)
#
#
# Indices 1 2 3 4 5 6 
#
# 1 176.4566 21.1004 23.9484 1.5756 7.2210 12.5352
# 2 21.1004 63.6198 11.8054 19.0093 4.4526 0.7438
# 3 23.9484 11.8054 68.9266 21.6912 6.5736 -9.5469
# 4 1.5756 19.0093 21.6912 32.2089 -3.5492 0.4186
# 5 7.2210 4.4526 6.5736 -3.5492 43.6172 0.2147
# 6 12.5352 0.7438 -9.5469 0.4186 0.2147 31.2759
#
#
#
# Elastic Compliance Matrix: (Units=1/GPa)
#
#
# Indices 1 2 3 4 5 6 
#
# 1 0.006695 -0.002610 -0.003549 0.003653 0.000009 -0.003753
# 2 -0.002610 0.020509 0.002257 -0.013861 -0.003137 0.001454
# 3 -0.003549 0.002257 0.022190 -0.016695 -0.004387 0.008396
# 4 0.003653 -0.013861 -0.016695 0.051212 0.007528 -0.006967
# 5 0.000009 -0.003137 -0.004387 0.007528 0.024527 -0.001537
# 6 -0.003753 0.001454 0.008396 -0.006967 -0.001537 0.036110
#
#
# Mechanical properties :
#
#
# Convention : Reuss Voigt Hill
#
# Bulk Modulus (GPa) = 24.04490 46.96791 35.50641
# Shear Modulus (GPa) = 27.33575 38.23032 32.78303
#
# Velocity S-wave (km/s) = 3.41808 4.04223 3.74318
# Velocity P-wave (km/s) = 5.08473 6.46994 5.81870
#
# Compressibility (1/GPa) = 0.04158886
#
# Stress axis : x y z
#
# Youngs Moduli (GPa) = 149.37481 48.75824 45.06550
#
# Poissons Ratio (x) = 0.12726 0.15995
# Poissons Ratio (y) = 0.38986 -0.10170
# Poissons Ratio (z) = 0.53017 -0.11003
#
# Static dielectric constant tensor:
#      x y z
#    x 2.048770 0.034680 -0.089700 
#    y 0.034680 2.938200 0.107160 
#    z -0.089700 0.107160 1.964200 
# 
# From -- ./inp_files/583620.got.cif
#   From: 2010.05.17/outbox.cif.g08.bks.cpg/sg2_292_cif.got.tgz:583620.got - 2010.06.03 11:33:40.
