data_PCOD9092624
_publ_section_title
;
Structure prediction by ZEFSAII (Michael W. Deem and Ramdas Pophale) SiO2 
 PCOD9092624
Probable space group: P -1
;
_chemical_formula_sum "Si O2"
_cell_formula_units_Z 12
_cell_length_a 11.784823
_cell_length_b 9.573397
_cell_length_c 13.772332
_cell_angle_alpha 93.274336
_cell_angle_beta 34.025073
_cell_angle_gamma 66.568792
_cell_volume 524.783264
_symmetry_space_group_name_H-M "P -1"
_symmetry_group_IT_number 2
_symmetry_cell_setting 'triclinic'
loop_
_space_group_symop_operation_xyz
x,y,z
-x,-y,-z
loop_
_atom_site_type_symbol
_atom_site_label
_atom_site_fract_x
_atom_site_fract_y
_atom_site_fract_z
Si Si1 0.708542 0.242662 0.777328
Si Si2 0.408151 0.925741 0.989481
Si Si3 0.400673 0.202003 0.534775
Si Si4 0.333810 0.355827 0.869482
Si Si5 0.758463 0.833049 0.557673
Si Si6 0.312065 0.711391 0.572406
O O1 0.423185 0.395706 0.904452
O O2 0.879102 0.292569 0.692596
O O3 0.618399 0.197858 0.931771
O O4 0.000000 0.000000 0.500000
O O5 0.048026 0.143047 0.201961
O O6 0.500000 0.000000 0.000000
O O7 0.677581 0.787516 0.707929
O O8 0.312172 0.224689 0.486823
O O9 0.698360 0.143783 0.348145
O O10 0.500000 0.000000 0.500000
O O11 0.065099 0.439321 0.836247
O O12 0.487761 0.355179 0.669714
O O13 0.508070 0.106587 0.739855
O O14 0.500000 0.500000 0.500000
#
# Coordination Sequence:
#
# PCOD9092624 Si02
#       6
#     2   2   2   2   2   2
#     4  10  19  41  71 104 133 179 238 279 350 412
#     4  12  21  40  74 100 134 183 231 288 340 412
#     4  12  26  44  68 100 140 188 233 279 354 416
#     4  11  22  45  72  96 141 188 224 289 346 409
#     4  11  23  44  71 103 139 178 233 287 347 413
#     4  12  26  43  69 107 141 183 235 282 352 419
#
# _framework density 22.866582000000001
#
# number of rings (size 3 to 8) (size 9 to 14) (size 15 to 20)
#    0.000    0.667    8.333    1.500    2.333    1.333 
#    3.000    0.833    0.000    0.000    0.000    0.000 
#    0.000    0.000    0.000    0.000    0.000    0.000 
#
# Total GULP energy -67151.097763 kJ/mol
# GULP energy per Si atom -5595.924814 kJ/mol
# Density = 2.281454 g / cm^3
# Si number density = 22.866582 Si / 1000 Ang^3
#
#
#
# Elastic Constant Matrix: (Units=GPa)
#
#
# Indices 1 2 3 4 5 6 
#
# 1 191.7079 39.4114 52.4683 -27.5807 -18.9133 -4.2685
# 2 39.4114 116.8432 42.4340 -22.4079 3.8575 -19.2064
# 3 52.4683 42.4340 89.3424 -25.9807 -14.5102 -6.7516
# 4 -27.5807 -22.4079 -25.9807 49.7312 -10.6806 13.0695
# 5 -18.9133 3.8575 -14.5102 -10.6806 54.4681 -7.6519
# 6 -4.2685 -19.2064 -6.7516 13.0695 -7.6519 39.6407
#
#
#
# Elastic Compliance Matrix: (Units=1/GPa)
#
#
# Indices 1 2 3 4 5 6 
#
# 1 0.006654 -0.001074 -0.002325 0.002632 0.002193 -0.000644
# 2 -0.001074 0.011443 -0.004550 0.000751 -0.001674 0.004083
# 3 -0.002325 -0.004550 0.017682 0.007294 0.005546 -0.000777
# 4 0.002632 0.000751 0.007294 0.028981 0.007616 -0.006195
# 5 0.002193 -0.001674 0.005546 0.007616 0.022520 0.002206
# 6 -0.000644 0.004083 -0.000777 -0.006195 0.002206 0.029471
#
#
# Mechanical properties :
#
#
# Convention : Reuss Voigt Hill
#
# Bulk Modulus (GPa) = 50.29288 74.05785 62.17537
# Shear Modulus (GPa) = 35.90011 46.34001 41.12006
#
# Velocity S-wave (km/s) = 3.96660 4.50659 4.24519
# Velocity P-wave (km/s) = 6.55899 7.71598 7.16089
#
# Compressibility (1/GPa) = 0.01988353
#
# Stress axis : x y z
#
# Youngs Moduli (GPa) = 150.28666 87.38680 56.55426
#
# Poissons Ratio (x) = 0.09381 0.13148
# Poissons Ratio (y) = 0.16134 0.25730
# Poissons Ratio (z) = 0.34940 0.39757
#
# Static dielectric constant tensor:
#      x y z
#    x 1.905370 0.012370 -0.013540 
#    y 0.012370 1.821460 0.018230 
#    z -0.013540 0.018230 1.888800 
# 
# From -- ./inp_files/511919.got.cif
#   From: 2010.05.17/outbox.cif.g08.bks.cpg/sg2_256_cif.got.tgz:511919.got - 2010.06.03 11:33:40.
