data_PCOD9092515
_publ_section_title
;
Structure prediction by ZEFSAII (Michael W. Deem and Ramdas Pophale) SiO2 
 PCOD9092515
Probable space group: P -1
;
_chemical_formula_sum "Si O2"
_cell_formula_units_Z 14
_cell_length_a 7.031105
_cell_length_b 12.884778
_cell_length_c 10.375231
_cell_angle_alpha 60.969364
_cell_angle_beta 53.013031
_cell_angle_gamma 89.093532
_cell_volume 602.975179
_symmetry_space_group_name_H-M "P -1"
_symmetry_group_IT_number 2
_symmetry_cell_setting 'triclinic'
loop_
_space_group_symop_operation_xyz
x,y,z
-x,-y,-z
loop_
_atom_site_type_symbol
_atom_site_label
_atom_site_fract_x
_atom_site_fract_y
_atom_site_fract_z
Si Si1 0.863537 0.985252 0.242459
Si Si2 0.892831 0.176298 0.902739
Si Si3 0.645062 0.555786 0.106293
Si Si4 0.115200 0.369528 0.320392
Si Si5 0.796832 0.874254 0.590936
Si Si6 0.405267 0.184400 0.017520
Si Si7 0.794235 0.527280 0.328495
O O1 0.898292 0.873644 0.211243
O O2 0.697038 0.917092 0.476439
O O3 0.149170 0.075612 0.127440
O O4 0.785435 0.079127 0.127140
O O5 0.022982 0.326815 0.794484
O O6 0.663635 0.160553 0.905390
O O7 0.367293 0.443744 0.259295
O O8 0.796009 0.518081 0.178538
O O9 0.794077 0.593176 0.887458
O O10 0.597314 0.679540 0.104044
O O11 0.899191 0.424630 0.404764
O O12 0.941640 0.780467 0.552342
O O13 0.602487 0.807941 0.826490
O O14 0.000000 0.000000 0.500000
O O15 0.500000 0.500000 0.500000
#
# Coordination Sequence:
#
# PCOD9092515 Si02
#       7
#     2   2   2   2   2   2   2
#     4  10  22  41  60  89 130 161 206 249 302 373
#     4  11  23  40  62  89 125 170 203 247 311 369
#     4  10  21  41  67  89 121 162 206 261 311 367
#     4  10  22  43  67  90 120 163 209 258 317 360
#     4   9  21  41  65  94 120 155 207 261 304 363
#     4  10  19  41  67  89 120 161 208 253 311 360
#     4  12  26  41  61  96 129 161 211 258 306 369
#
# _framework density 23.218202999999999
#
# number of rings (size 3 to 8) (size 9 to 14) (size 15 to 20)
#    0.000    1.714    2.857    0.857    2.000    2.286 
#   10.286    0.000    0.000    0.000    0.000    0.000 
#    0.000    0.000    0.000    0.000    0.000    0.000 
#
# Total GULP energy -78240.368565 kJ/mol
# GULP energy per Si atom -5588.597755 kJ/mol
# Density = 2.316536 g / cm^3
# Si number density = 23.218203 Si / 1000 Ang^3
#
#
#
# Elastic Constant Matrix: (Units=GPa)
#
#
# Indices 1 2 3 4 5 6 
#
# 1 74.7931 35.7628 -3.6772 -8.8319 2.4656 -15.4281
# 2 35.7628 141.6671 13.5858 -16.8748 -8.3424 -20.3400
# 3 -3.6772 13.5858 45.0202 -0.0721 10.7774 -4.2882
# 4 -8.8319 -16.8748 -0.0721 25.1752 -0.3940 4.2784
# 5 2.4656 -8.3424 10.7774 -0.3940 30.6874 4.0745
# 6 -15.4281 -20.3400 -4.2882 4.2784 4.0745 40.2434
#
#
#
# Elastic Compliance Matrix: (Units=1/GPa)
#
#
# Indices 1 2 3 4 5 6 
#
# 1 0.016943 -0.003917 0.004148 0.002382 -0.004538 0.005164
# 2 -0.003917 0.009515 -0.003977 0.004722 0.004098 0.001967
# 3 0.004148 -0.003977 0.026831 -0.001957 -0.011367 0.003798
# 4 0.002382 0.004722 -0.001957 0.044073 0.002592 -0.001857
# 5 -0.004538 0.004098 -0.011367 0.002592 0.038765 -0.005080
# 6 0.005164 0.001967 0.003798 -0.001857 -0.005080 0.028939
#
#
# Mechanical properties :
#
#
# Convention : Reuss Voigt Hill
#
# Bulk Modulus (GPa) = 21.83575 39.20258 30.51916
# Shear Modulus (GPa) = 26.62049 33.60846 30.11448
#
# Velocity S-wave (km/s) = 3.38973 3.80874 3.60532
# Velocity P-wave (km/s) = 4.97447 6.02188 5.52306
#
# Compressibility (1/GPa) = 0.04579646
#
# Stress axis : x y z
#
# Youngs Moduli (GPa) = 59.02083 105.09406 37.27023
#
# Poissons Ratio (x) = 0.41166 -0.15460
# Poissons Ratio (y) = 0.23119 0.14824
# Poissons Ratio (z) = -0.24482 0.41801
#
# Static dielectric constant tensor:
#      x y z
#    x 1.836540 -0.013240 0.043980 
#    y -0.013240 1.858980 0.039310 
#    z 0.043980 0.039310 1.963440 
# 
# From -- ./inp_files/384495.got.cif
#   From: 2010.05.17/outbox.cif.g08.bks.cpg/sg2_193_cif.got.tgz:384495.got - 2010.06.03 11:33:40.
