data_PCOD9092491
_publ_section_title
;
Structure prediction by ZEFSAII (Michael W. Deem and Ramdas Pophale) SiO2 
 PCOD9092491
Probable space group: P -1
;
_chemical_formula_sum "Si O2"
_cell_formula_units_Z 16
_cell_length_a 8.903521
_cell_length_b 19.414698
_cell_length_c 17.830775
_cell_angle_alpha 20.789630
_cell_angle_beta 140.234361
_cell_angle_gamma 141.721850
_cell_volume 669.181371
_symmetry_space_group_name_H-M "P -1"
_symmetry_group_IT_number 2
_symmetry_cell_setting 'triclinic'
loop_
_space_group_symop_operation_xyz
x,y,z
-x,-y,-z
loop_
_atom_site_type_symbol
_atom_site_label
_atom_site_fract_x
_atom_site_fract_y
_atom_site_fract_z
Si Si1 0.509627 0.605655 0.000798
Si Si2 0.839465 0.204424 0.692371
Si Si3 0.296448 0.274489 0.880025
Si Si4 0.124401 0.832128 0.640188
Si Si5 0.371756 0.226817 0.417157
Si Si6 0.029433 0.127877 0.175410
Si Si7 0.654636 0.376380 0.782108
Si Si8 0.179666 0.229098 0.653269
O O1 0.271217 0.681867 0.821022
O O2 0.718157 0.709136 0.917090
O O3 0.618216 0.684211 0.044743
O O4 0.451048 0.365865 0.232928
O O5 0.597911 0.269623 0.517403
O O6 0.027515 0.299214 0.734714
O O7 0.999722 0.243352 0.637799
O O8 0.744413 0.962396 0.914152
O O9 0.499796 0.395120 0.776688
O O10 0.866274 0.725882 0.688500
O O11 0.289895 0.991573 0.601217
O O12 0.070021 0.975581 0.408913
O O13 0.923320 0.985645 0.207931
O O14 0.836012 0.245271 0.004096
O O15 0.448656 0.262771 0.757820
O O16 0.795864 0.590780 0.580565
#
# Coordination Sequence:
#
# PCOD9092491 Si02
#       8
#     2   2   2   2   2   2   2   2
#     4  12  25  43  66  94 126 163 213 261 309 370
#     4  10  19  41  66  92 130 166 198 256 321 364
#     4  10  21  39  67  94 128 164 201 258 313 371
#     4  11  26  44  62  91 128 166 210 264 310 359
#     4  11  24  43  67  91 125 165 211 261 308 373
#     4  12  24  40  66  93 122 168 212 255 310 374
#     4  10  23  39  63  94 130 166 206 248 315 372
#     4  10  21  41  62  93 133 164 200 261 307 372
#
# _framework density 23.90981
#
# number of rings (size 3 to 8) (size 9 to 14) (size 15 to 20)
#    0.000    1.250    2.500    2.625    3.500    2.000 
#    2.250    0.000    0.000    0.000    0.000    0.000 
#    0.000    0.000    0.000    0.000    0.000    0.000 
#
# Total GULP energy -89667.718405 kJ/mol
# GULP energy per Si atom -5604.232400 kJ/mol
# Density = 2.385539 g / cm^3
# Si number density = 23.909810 Si / 1000 Ang^3
#
#
#
# Elastic Constant Matrix: (Units=GPa)
#
#
# Indices 1 2 3 4 5 6 
#
# 1 56.9864 35.0802 13.4658 6.6460 -8.7033 11.4875
# 2 35.0802 95.2274 28.3554 10.2413 7.4680 8.7170
# 3 13.4658 28.3554 110.7966 20.9341 0.7757 16.2703
# 4 6.6460 10.2413 20.9341 40.2096 12.9025 -8.6400
# 5 -8.7033 7.4680 0.7757 12.9025 48.9086 4.0876
# 6 11.4875 8.7170 16.2703 -8.6400 4.0876 30.1989
#
#
#
# Elastic Compliance Matrix: (Units=1/GPa)
#
#
# Indices 1 2 3 4 5 6 
#
# 1 0.028408 -0.009799 0.002889 -0.009965 0.010286 -0.013777
# 2 -0.009799 0.015082 -0.003199 0.001347 -0.004526 0.002096
# 3 0.002889 -0.003199 0.012920 -0.010059 0.004337 -0.010602
# 4 -0.009965 0.001347 -0.010059 0.040889 -0.014485 0.022480
# 5 0.010286 -0.004526 0.004337 -0.014485 0.027794 -0.012849
# 6 -0.013777 0.002096 -0.010602 0.022480 -0.012849 0.051632
#
#
# Mechanical properties :
#
#
# Convention : Reuss Voigt Hill
#
# Bulk Modulus (GPa) = 27.63085 46.31258 36.97172
# Shear Modulus (GPa) = 23.92247 36.27068 30.09658
#
# Velocity S-wave (km/s) = 3.16655 3.89907 3.55174
# Velocity P-wave (km/s) = 4.99507 6.29937 5.68475
#
# Compressibility (1/GPa) = 0.03619143
#
# Stress axis : x y z
#
# Youngs Moduli (GPa) = 35.20142 66.30423 77.39774
#
# Poissons Ratio (x) = 0.64973 -0.22362
# Poissons Ratio (y) = 0.34494 0.24763
# Poissons Ratio (z) = -0.10170 0.21214
#
# Static dielectric constant tensor:
#      x y z
#    x 1.839200 -0.017580 -0.002910 
#    y -0.017580 1.942860 -0.003700 
#    z -0.002910 -0.003700 1.887230 
# 
# From -- ./inp_files/199296.got.cif
#   From: 2010.05.17/outbox.cif.g08.bks.cpg/sg2_100_cif.got.tgz:199296.got - 2010.06.03 11:33:40.
