data_PCOD9092315
_publ_section_title
;
Structure prediction by ZEFSAII (Michael W. Deem and Ramdas Pophale) SiO2 
 PCOD9092315
Probable space group: P -1
;
_chemical_formula_sum "Si O2"
_cell_formula_units_Z 12
_cell_length_a 8.743099
_cell_length_b 9.504170
_cell_length_c 10.258402
_cell_angle_alpha 121.152731
_cell_angle_beta 125.744542
_cell_angle_gamma 45.403262
_cell_volume 484.105038
_symmetry_space_group_name_H-M "P -1"
_symmetry_group_IT_number 2
_symmetry_cell_setting 'triclinic'
loop_
_space_group_symop_operation_xyz
x,y,z
-x,-y,-z
loop_
_atom_site_type_symbol
_atom_site_label
_atom_site_fract_x
_atom_site_fract_y
_atom_site_fract_z
Si Si1 0.750747 0.849847 0.488673
Si Si2 0.401546 0.869003 0.912309
Si Si3 0.252993 0.798833 0.059566
Si Si4 0.122599 0.873633 0.320397
Si Si5 0.926649 0.428850 0.255916
Si Si6 0.182190 0.476062 0.187932
O O1 0.789328 0.659953 0.341741
O O2 0.947975 0.729658 0.640418
O O3 0.500000 0.000000 0.500000
O O4 0.805807 0.993234 0.510436
O O5 0.567812 0.668223 0.817992
O O6 0.405237 0.823561 0.045196
O O7 0.142217 0.986312 0.788975
O O8 0.500000 0.000000 0.000000
O O9 0.274425 0.794588 0.223640
O O10 0.235873 0.618823 0.919837
O O11 0.000000 0.000000 0.000000
O O12 0.151092 0.682035 0.307069
O O13 0.129705 0.388317 0.242706
O O14 0.000000 0.500000 0.000000
#
# Coordination Sequence:
#
# PCOD9092315 Si02
#       6
#     2   2   2   2   2   2
#     4  11  27  46  72  95 136 191 232 271 338 413
#     4  11  22  37  65 102 142 171 213 290 344 388
#     4  10  19  40  71  98 131 176 224 284 337 395
#     4  11  24  44  67 101 138 177 229 278 341 407
#     4  11  24  47  69 100 141 176 231 286 332 410
#     4  12  24  40  68 109 135 169 227 285 344 400
#
# _framework density 24.788011999999998
#
# number of rings (size 3 to 8) (size 9 to 14) (size 15 to 20)
#    0.000    1.000    6.667    1.000    2.333    4.000 
#    0.000    1.667    0.000    0.000    0.000    0.000 
#    0.000    0.000    0.000    0.000    0.000    0.000 
#
# Total GULP energy -67215.454555 kJ/mol
# GULP energy per Si atom -5601.287880 kJ/mol
# Density = 2.473159 g / cm^3
# Si number density = 24.788012 Si / 1000 Ang^3
#
#
#
# Elastic Constant Matrix: (Units=GPa)
#
#
# Indices 1 2 3 4 5 6 
#
# 1 140.1359 26.9961 17.8746 14.9132 11.2620 2.0895
# 2 26.9961 95.9579 34.6494 31.4348 15.7056 -4.1703
# 3 17.8746 34.6494 86.7521 41.0446 14.8096 -4.8329
# 4 14.9132 31.4348 41.0446 44.2810 6.0898 5.8295
# 5 11.2620 15.7056 14.8096 6.0898 43.0212 9.1559
# 6 2.0895 -4.1703 -4.8329 5.8295 9.1559 54.0991
#
#
#
# Elastic Compliance Matrix: (Units=1/GPa)
#
#
# Indices 1 2 3 4 5 6 
#
# 1 0.007675 -0.001521 -0.000269 -0.001077 -0.001183 -0.000121
# 2 -0.001521 0.014920 -0.000138 -0.009757 -0.004252 0.002967
# 3 -0.000269 -0.000138 0.022788 -0.020817 -0.005900 0.005277
# 4 -0.001077 -0.009757 -0.020817 0.049530 0.005894 -0.008905
# 5 -0.001183 -0.004252 -0.005900 0.005894 0.027604 -0.006116
# 6 -0.000121 0.002967 0.005277 -0.008905 -0.006116 0.021184
#
#
# Mechanical properties :
#
#
# Convention : Reuss Voigt Hill
#
# Bulk Modulus (GPa) = 24.08117 53.54289 38.81203
# Shear Modulus (GPa) = 30.97890 44.50195 37.74042
#
# Velocity S-wave (km/s) = 3.53902 4.24170 3.90619
# Velocity P-wave (km/s) = 5.14155 6.75548 6.00300
#
# Compressibility (1/GPa) = 0.04152622
#
# Stress axis : x y z
#
# Youngs Moduli (GPa) = 130.29787 67.02286 43.88266
#
# Poissons Ratio (x) = 0.10193 0.01181
# Poissons Ratio (y) = 0.19816 0.00607
# Poissons Ratio (z) = 0.03508 0.00927
#
# Static dielectric constant tensor:
#      x y z
#    x 2.019680 0.015720 -0.020960 
#    y 0.015720 2.006580 0.019680 
#    z -0.020960 0.019680 1.990560 
# 
# From -- ./inp_files/182605.got.cif
#   From: 2010.05.17/outbox.cif.g08.bks.cpg/sg2_92_cif.got.tgz:182605.got - 2010.06.03 11:33:40.
