data_PCOD9092940
_publ_section_title
;
Structure prediction by ZEFSAII (Michael W. Deem and Ramdas Pophale) SiO2 
 PCOD9092940
Probable space group: P -1
;
_chemical_formula_sum "Si O2"
_cell_formula_units_Z 12
_cell_length_a 7.634033
_cell_length_b 10.452266
_cell_length_c 9.225690
_cell_angle_alpha 111.572664
_cell_angle_beta 96.460345
_cell_angle_gamma 44.389568
_cell_volume 465.941673
_symmetry_space_group_name_H-M "P -1"
_symmetry_group_IT_number 2
_symmetry_cell_setting 'triclinic'
loop_
_space_group_symop_operation_xyz
x,y,z
-x,-y,-z
loop_
_atom_site_type_symbol
_atom_site_label
_atom_site_fract_x
_atom_site_fract_y
_atom_site_fract_z
Si Si1 0.686249 0.454763 0.120029
Si Si2 0.974076 0.928444 0.184798
Si Si3 0.384396 0.245218 0.193024
Si Si4 0.026798 0.720628 0.355797
Si Si5 0.272305 0.284970 0.879471
Si Si6 0.029836 0.204997 0.281378
O O1 0.633384 0.644348 0.179820
O O2 0.742778 0.390985 0.265181
O O3 0.500000 0.500000 0.000000
O O4 0.949943 0.238791 0.987039
O O5 0.095551 0.813599 0.302813
O O6 0.664560 0.112574 0.230780
O O7 0.083458 0.012619 0.177110
O O8 0.230600 0.478578 0.271514
O O9 0.209689 0.228599 0.250064
O O10 0.417838 0.182374 0.000781
O O11 0.784048 0.803797 0.273868
O O12 0.970653 0.784730 0.541520
O O13 0.000000 0.500000 0.000000
#
# Coordination Sequence:
#
# PCOD9092940 Si02
#       6
#     2   2   2   2   2   2
#     4  12  25  46  74 104 138 188 243 293 346 424
#     4  12  27  48  72 107 144 184 241 293 355 418
#     4  11  24  48  77 102 140 196 235 287 353 423
#     4  11  24  48  71 104 151 184 231 292 363 415
#     4  10  19  44  72  99 135 190 232 279 353 419
#     4  12  26  46  73 112 141 184 242 293 350 426
#
# _framework density 25.754299
#
# number of rings (size 3 to 8) (size 9 to 14) (size 15 to 20)
#    0.000    0.667    6.667    2.500    0.000    5.333 
#    3.000    0.000    0.000    0.000    0.000    0.000 
#    0.000    0.000    0.000    0.000    0.000    0.000 
#
# Total GULP energy -67050.118444 kJ/mol
# GULP energy per Si atom -5587.509870 kJ/mol
# Density = 2.569568 g / cm^3
# Si number density = 25.754299 Si / 1000 Ang^3
#
#
#
# Elastic Constant Matrix: (Units=GPa)
#
#
# Indices 1 2 3 4 5 6 
#
# 1 145.0822 62.3660 24.3178 -20.5248 -12.9266 23.1957
# 2 62.3660 149.9588 15.1636 -31.1837 -11.0420 16.0777
# 3 24.3178 15.1636 124.4790 -38.9838 -0.9926 6.5955
# 4 -20.5248 -31.1837 -38.9838 34.8019 17.5567 -10.2420
# 5 -12.9266 -11.0420 -0.9926 17.5567 25.5170 -10.6109
# 6 23.1957 16.0777 6.5955 -10.2420 -10.6109 44.1892
#
#
#
# Elastic Compliance Matrix: (Units=1/GPa)
#
#
# Indices 1 2 3 4 5 6 
#
# 1 0.009201 -0.003637 -0.002106 -0.002999 0.003835 -0.002966
# 2 -0.003637 0.010679 0.004737 0.017089 -0.009180 -0.000927
# 3 -0.002106 0.004737 0.018843 0.035507 -0.023017 -0.000728
# 4 -0.002999 0.017089 0.035507 0.120034 -0.075428 -0.000234
# 5 0.003835 -0.009180 -0.023017 -0.075428 0.092066 0.009387
# 6 -0.002966 -0.000927 -0.000728 -0.000234 0.009387 0.026833
#
#
# Mechanical properties :
#
#
# Convention : Reuss Voigt Hill
#
# Bulk Modulus (GPa) = 27.23932 69.24608 48.24270
# Shear Modulus (GPa) = 17.12902 42.07980 29.60441
#
# Velocity S-wave (km/s) = 2.58174 4.04653 3.39410
# Velocity P-wave (km/s) = 4.41438 6.98413 5.84230
#
# Compressibility (1/GPa) = 0.03671164
#
# Stress axis : x y z
#
# Youngs Moduli (GPa) = 108.68861 93.64211 53.07081
#
# Poissons Ratio (x) = 0.34055 0.11176
# Poissons Ratio (y) = 0.39527 -0.25141
# Poissons Ratio (z) = 0.22889 -0.44361
#
# Static dielectric constant tensor:
#      x y z
#    x 2.184360 -0.030820 -0.058170 
#    y -0.030820 2.081450 -0.003730 
#    z -0.058170 -0.003730 1.992080 
# 
# From -- ./inp_files/164973.got.cif
#   From: 2010.05.17/outbox.cif.g08.bks.cpg/sg2_83_cif.got.tgz:164973.got - 2010.06.03 11:33:40.
