data_PCOD9092463
_publ_section_title
;
Structure prediction by ZEFSAII (Michael W. Deem and Ramdas Pophale) SiO2 
 PCOD9092463
Probable space group: P -1
;
_chemical_formula_sum "Si O2"
_cell_formula_units_Z 15
_cell_length_a 19.509793
_cell_length_b 9.071762
_cell_length_c 15.852097
_cell_angle_alpha 148.454280
_cell_angle_beta 22.549041
_cell_angle_gamma 139.945690
_cell_volume 559.598638
_symmetry_space_group_name_H-M "P -1"
_symmetry_group_IT_number 2
_symmetry_cell_setting 'triclinic'
loop_
_space_group_symop_operation_xyz
x,y,z
-x,-y,-z
loop_
_atom_site_type_symbol
_atom_site_label
_atom_site_fract_x
_atom_site_fract_y
_atom_site_fract_z
Si Si1 0.162291 0.109015 0.817281
Si Si2 0.136708 0.281136 0.288929
Si Si3 0.775229 0.718172 0.629262
Si Si4 0.113359 0.109723 0.675761
Si Si5 0.299483 0.630562 0.981457
Si Si6 0.619869 0.420248 0.948090
Si Si7 0.698050 0.458286 0.416925
Si Si8 0.500000 0.000000 0.500000
O O1 0.131892 0.052619 0.726356
O O2 0.353248 0.982959 0.578666
O O3 0.176583 0.442951 0.977950
O O4 0.000000 0.000000 0.000000
O O5 0.106267 0.345252 0.453509
O O6 0.326419 0.356817 0.073242
O O7 0.000000 0.500000 0.500000
O O8 0.076056 0.976110 0.186600
O O9 0.787663 0.552605 0.447711
O O10 0.777374 0.047658 0.765918
O O11 0.579694 0.660906 0.858550
O O12 0.176950 0.413914 0.730903
O O13 0.255767 0.873047 0.353353
O O14 0.342551 0.471949 0.945894
O O15 0.498431 0.627156 0.715266
O O16 0.642762 0.148147 0.346013
#
# Coordination Sequence:
#
# PCOD9092463 Si02
#       8
#     2   2   2   2   2   2   2   1
#     4  11  26  48  69  98 143 186 223 288 346 407
#     4  10  24  36  56 101 135 172 220 281 339 396
#     4  11  20  40  69  95 131 177 222 282 339 405
#     4  11  22  43  65  96 139 174 226 285 332 403
#     4  10  20  41  68  98 131 176 224 281 340 405
#     4  10  19  41  65  98 131 166 226 283 332 401
#     4  10  21  42  67 102 134 178 228 278 345 406
#     4  10  26  44  72 102 132 188 228 270 352 422
#
# _framework density 26.804925999999998
#
# number of rings (size 3 to 8) (size 9 to 14) (size 15 to 20)
#    0.000    1.600    2.667    2.000    3.733    3.733 
#    4.800    1.333    0.000    0.000    0.000    0.000 
#    0.000    0.000    0.000    0.000    0.000    0.000 
#
# Total GULP energy -83809.986822 kJ/mol
# GULP energy per Si atom -5587.332455 kJ/mol
# Density = 2.674392 g / cm^3
# Si number density = 26.804926 Si / 1000 Ang^3
#
#
#
# Elastic Constant Matrix: (Units=GPa)
#
#
# Indices 1 2 3 4 5 6 
#
# 1 121.7681 28.3942 21.2482 -29.3902 3.0948 3.0991
# 2 28.3942 197.6552 42.2731 -17.6133 -5.8533 -3.1352
# 3 21.2482 42.2731 70.2569 -34.7790 3.2047 4.5530
# 4 -29.3902 -17.6133 -34.7790 49.9419 -1.9559 8.3977
# 5 3.0948 -5.8533 3.2047 -1.9559 35.7809 -7.6721
# 6 3.0991 -3.1352 4.5530 8.3977 -7.6721 48.2881
#
#
#
# Elastic Compliance Matrix: (Units=1/GPa)
#
#
# Indices 1 2 3 4 5 6 
#
# 1 0.009953 -0.001158 0.001124 0.006545 -0.001256 -0.002158
# 2 -0.001158 0.006071 -0.004333 -0.001735 0.001697 0.001448
# 3 0.001124 -0.004333 0.026153 0.018311 -0.003556 -0.006569
# 4 0.006545 -0.001735 0.018311 0.037460 -0.002406 -0.009156
# 5 -0.001256 0.001697 -0.003556 -0.002406 0.029737 0.005669
# 6 -0.002158 0.001448 -0.006569 -0.009156 0.005669 0.024054
#
#
# Mechanical properties :
#
#
# Convention : Reuss Voigt Hill
#
# Bulk Modulus (GPa) = 29.90192 63.72347 46.81269
# Shear Modulus (GPa) = 32.61378 46.65314 39.63346
#
# Velocity S-wave (km/s) = 3.49192 4.17642 3.84941
# Velocity P-wave (km/s) = 5.23809 6.86158 6.10405
#
# Compressibility (1/GPa) = 0.03344267
#
# Stress axis : x y z
#
# Youngs Moduli (GPa) = 100.47374 164.71788 38.23657
#
# Poissons Ratio (x) = 0.19080 -0.04297
# Poissons Ratio (y) = 0.11638 0.16566
# Poissons Ratio (z) = -0.11292 0.71366
#
# Static dielectric constant tensor:
#      x y z
#    x 2.018450 -0.003450 -0.021220 
#    y -0.003450 2.072050 0.073220 
#    z -0.021220 0.073220 2.314980 
# 
# From -- ./inp_files/537678.got.cif
#   From: 2010.05.17/outbox.cif.g08.bks.cpg/sg2_269_cif.got.tgz:537678.got - 2010.06.03 11:33:40.
