data_PCOD9092318
_publ_section_title
;
Structure prediction by ZEFSAII (Michael W. Deem and Ramdas Pophale) SiO2 
 PCOD9092318
Probable space group: P -1
;
_chemical_formula_sum "Si O2"
_cell_formula_units_Z 16
_cell_length_a 17.343940
_cell_length_b 11.935139
_cell_length_c 13.744392
_cell_angle_alpha 128.804407
_cell_angle_beta 147.198515
_cell_angle_gamma 30.090430
_cell_volume 717.775035
_symmetry_space_group_name_H-M "P -1"
_symmetry_group_IT_number 2
_symmetry_cell_setting 'triclinic'
loop_
_space_group_symop_operation_xyz
x,y,z
-x,-y,-z
loop_
_atom_site_type_symbol
_atom_site_label
_atom_site_fract_x
_atom_site_fract_y
_atom_site_fract_z
Si Si1 0.390486 0.229750 0.309016
Si Si2 0.913983 0.503863 0.053619
Si Si3 0.224025 0.259482 0.664637
Si Si4 0.399696 0.489745 0.577181
Si Si5 0.110949 0.780201 0.060032
Si Si6 0.997249 0.192506 0.512945
Si Si7 0.318886 0.994255 0.911158
Si Si8 0.005505 0.079605 0.762674
O O1 0.496899 0.262798 0.511312
O O2 0.172478 0.331866 0.190314
O O3 0.592650 0.962587 0.337392
O O4 0.261422 0.401388 0.169532
O O5 0.792696 0.755425 0.089904
O O6 0.944227 0.346169 0.073331
O O7 0.000000 0.500000 0.500000
O O8 0.111457 0.232770 0.600976
O O9 0.399684 0.219818 0.892362
O O10 0.610958 0.428374 0.781018
O O11 0.238487 0.590020 0.554907
O O12 0.226054 0.687937 0.417336
O O13 0.041942 0.874855 0.149523
O O14 0.000000 0.000000 0.000000
O O15 0.201716 0.989840 0.700573
O O16 0.939965 0.120699 0.332233
O O17 0.208468 0.024409 0.910898
#
# Coordination Sequence:
#
# PCOD9092318 Si02
#       8
#     2   2   2   2   2   2   2   2
#     4  10  19  41  72  97 124 177 230 280 331 388
#     4  10  19  40  72 101 126 171 229 288 329 392
#     4  11  25  42  64 100 146 184 221 278 356 413
#     4  11  22  42  67  99 131 174 232 279 329 405
#     4  12  26  41  64 103 140 175 223 278 353 415
#     4  11  24  44  64 103 136 181 231 281 342 404
#     4  10  21  44  74 101 130 176 240 286 334 402
#     4  11  22  45  72  97 135 175 231 291 343 397
#
# _framework density 22.291105999999999
#
# number of rings (size 3 to 8) (size 9 to 14) (size 15 to 20)
#    0.000    1.250    3.750    4.500    3.500    2.000 
#    6.750    2.500    0.000    0.000    0.000    0.000 
#    0.000    0.000    0.000    0.000    0.000    0.000 
#
# Total GULP energy -89375.485279 kJ/mol
# GULP energy per Si atom -5585.967830 kJ/mol
# Density = 2.224037 g / cm^3
# Si number density = 22.291106 Si / 1000 Ang^3
#
#
#
# Elastic Constant Matrix: (Units=GPa)
#
#
# Indices 1 2 3 4 5 6 
#
# 1 31.0388 70.5808 117.6363 -45.2911 43.8832 -15.7244
# 2 70.5808 61.2573 5.6193 5.1506 -16.8861 0.3927
# 3 117.6363 5.6193 -10.7736 20.9029 -6.4896 25.8033
# 4 -45.2911 5.1506 20.9029 26.0829 5.1463 -12.1502
# 5 43.8832 -16.8861 -6.4896 5.1463 10.3742 21.7264
# 6 -15.7244 0.3927 25.8033 -12.1502 21.7264 22.9083
#
#
#
# Elastic Compliance Matrix: (Units=1/GPa)
#
#
# Indices 1 2 3 4 5 6 
#
# 1 0.003474 -0.002594 0.004686 -0.002804 0.005593 -0.009640
# 2 -0.002594 0.037193 -0.039633 0.006997 0.053692 -0.004987
# 3 0.004686 -0.039633 0.063980 -0.001819 -0.102794 0.028357
# 4 -0.002804 0.006997 -0.001819 0.026681 0.021059 -0.005817
# 5 0.005593 0.053692 -0.102794 0.021059 0.189215 -0.049580
# 6 -0.009640 -0.004987 0.028357 -0.005817 -0.049580 0.049117
#
#
# Mechanical properties :
#
#
# Convention : Reuss Voigt Hill
#
# Bulk Modulus (GPa) = 33.82365 52.13280 42.97823
# Shear Modulus (GPa) = 10.99874 4.38550 7.69212
#
# Velocity S-wave (km/s) = 2.22370 1.40415 1.85964
# Velocity P-wave (km/s) = 4.66901 5.10558 4.89217
#
# Compressibility (1/GPa) = 0.02956511
#
# Stress axis : x y z
#
# Youngs Moduli (GPa) = 287.82221 26.88676 15.62997
#
# Poissons Ratio (x) = 0.06974 -0.07324
# Poissons Ratio (y) = 0.74656 0.61946
# Poissons Ratio (z) = -1.34870 1.06560
#
# Static dielectric constant tensor:
#      x y z
#    x 1.843520 -0.006130 -0.022710 
#    y -0.006130 1.915020 0.060670 
#    z -0.022710 0.060670 1.853360 
# 
# From -- ./inp_files/538474.got.cif
#   From: 2010.05.17/outbox.cif.g08.bks.cpg/sg2_270_cif.got.tgz:538474.got - 2010.06.03 11:33:40.
