data_PCOD9092826
_publ_section_title
;
Structure prediction by ZEFSAII (Michael W. Deem and Ramdas Pophale) SiO2 
 PCOD9092826
Probable space group: P -1
;
_chemical_formula_sum "Si O2"
_cell_formula_units_Z 16
_cell_length_a 11.292075
_cell_length_b 9.623711
_cell_length_c 23.338739
_cell_angle_alpha 143.892992
_cell_angle_beta 154.114404
_cell_angle_gamma 36.440280
_cell_volume 622.103360
_symmetry_space_group_name_H-M "P -1"
_symmetry_group_IT_number 2
_symmetry_cell_setting 'triclinic'
loop_
_space_group_symop_operation_xyz
x,y,z
-x,-y,-z
loop_
_atom_site_type_symbol
_atom_site_label
_atom_site_fract_x
_atom_site_fract_y
_atom_site_fract_z
Si Si1 0.347663 0.548657 0.543704
Si Si2 0.246075 0.930971 0.249485
Si Si3 0.175177 0.979082 0.809640
Si Si4 0.744105 0.232526 0.990941
Si Si5 0.828243 0.471853 0.001647
Si Si6 0.233863 0.249259 0.497532
Si Si7 0.148265 0.416712 0.303783
Si Si8 0.527058 0.826649 0.808433
O O1 0.334555 0.329018 0.507010
O O2 0.118830 0.575218 0.402039
O O3 0.640665 0.505964 0.622038
O O4 0.328161 0.768239 0.653211
O O5 0.950869 0.069776 0.200700
O O6 0.511366 0.828069 0.372717
O O7 0.295500 0.132453 0.294443
O O8 0.200398 0.693006 0.119529
O O9 0.236900 0.236826 0.931622
O O10 0.429360 0.811495 0.825977
O O11 0.916617 0.961707 0.649791
O O12 0.645007 0.393435 0.945032
O O13 0.878222 0.393070 0.144207
O O14 0.554056 0.095790 0.896268
O O15 0.000000 0.000000 0.000000
O O16 0.163967 0.371563 0.130188
O O17 0.000000 0.500000 0.500000
#
# Coordination Sequence:
#
# PCOD9092826 Si02
#       8
#     2   2   2   2   2   2   2   2
#     4  11  22  41  71 101 139 188 234 284 356 422
#     4  12  25  46  70 108 142 183 245 292 348 437
#     4  12  27  42  73 104 143 190 236 290 356 423
#     4  10  19  42  73 100 146 191 227 295 359 415
#     4  11  24  47  72 106 145 191 237 291 358 422
#     4  12  27  49  72 101 147 190 234 300 361 416
#     4  11  22  40  75 106 135 190 239 286 359 416
#     4  11  22  44  72 104 145 188 234 293 356 420
#
# _framework density 25.719200000000001
#
# number of rings (size 3 to 8) (size 9 to 14) (size 15 to 20)
#    0.000    0.750    7.500    1.500    1.750    1.000 
#    4.500    0.625    0.000    0.000    0.000    0.000 
#    0.000    0.000    0.000    0.000    0.000    0.000 
#
# Total GULP energy -89509.892271 kJ/mol
# GULP energy per Si atom -5594.368267 kJ/mol
# Density = 2.566066 g / cm^3
# Si number density = 25.719200 Si / 1000 Ang^3
#
#
#
# Elastic Constant Matrix: (Units=GPa)
#
#
# Indices 1 2 3 4 5 6 
#
# 1 127.2529 32.0795 39.0517 -4.4182 -10.3362 -6.7296
# 2 32.0795 53.5549 -6.1705 10.0713 -0.3834 -14.1475
# 3 39.0517 -6.1705 158.4849 18.6601 -29.3493 -5.3083
# 4 -4.4182 10.0713 18.6601 22.2798 2.7374 -2.8463
# 5 -10.3362 -0.3834 -29.3493 2.7374 53.1637 8.7963
# 6 -6.7296 -14.1475 -5.3083 -2.8463 8.7963 33.1362
#
#
#
# Elastic Compliance Matrix: (Units=1/GPa)
#
#
# Indices 1 2 3 4 5 6 
#
# 1 0.012240 -0.010423 -0.004921 0.011144 -0.000721 -0.001604
# 2 -0.010423 0.032591 0.006980 -0.021449 0.001395 0.010703
# 3 -0.004921 0.006980 0.010391 -0.013352 0.005339 0.001081
# 4 0.011144 -0.021449 -0.013352 0.068951 -0.008780 -0.000780
# 5 -0.000721 0.001395 0.005339 -0.008780 0.022998 -0.005555
# 6 -0.001604 0.010703 0.001081 -0.000780 -0.005555 0.036003
#
#
# Mechanical properties :
#
#
# Convention : Reuss Voigt Hill
#
# Bulk Modulus (GPa) = 25.97912 52.13491 39.05701
# Shear Modulus (GPa) = 23.50342 40.00473 31.75407
#
# Velocity S-wave (km/s) = 3.02627 3.94819 3.51756
# Velocity P-wave (km/s) = 4.72589 6.41086 5.63175
#
# Compressibility (1/GPa) = 0.03849245
#
# Stress axis : x y z
#
# Youngs Moduli (GPa) = 81.70091 30.68296 96.23775
#
# Poissons Ratio (x) = 0.31982 0.47359
# Poissons Ratio (y) = 0.85160 -0.67170
# Poissons Ratio (z) = 0.40206 -0.21416
#
# Static dielectric constant tensor:
#      x y z
#    x 2.025500 -0.016470 -0.006720 
#    y -0.016470 2.074080 -0.018230 
#    z -0.006720 -0.018230 2.042290 
# 
# From -- ./inp_files/618342.got.cif
#   From: 2010.05.17/outbox.cif.g08.bks.cpg/sg2_310_cif.got.tgz:618342.got - 2010.06.03 11:33:40.
