data_PCOD9092925
_publ_section_title
;
Structure prediction by ZEFSAII (Michael W. Deem and Ramdas Pophale) SiO2 
 PCOD9092925
Probable space group: P -1
;
_chemical_formula_sum "Si O2"
_cell_formula_units_Z 15
_cell_length_a 12.244233
_cell_length_b 10.539264
_cell_length_c 7.109992
_cell_angle_alpha 136.176062
_cell_angle_beta 70.835508
_cell_angle_gamma 102.335411
_cell_volume 599.737437
_symmetry_space_group_name_H-M "P -1"
_symmetry_group_IT_number 2
_symmetry_cell_setting 'triclinic'
loop_
_space_group_symop_operation_xyz
x,y,z
-x,-y,-z
loop_
_atom_site_type_symbol
_atom_site_label
_atom_site_fract_x
_atom_site_fract_y
_atom_site_fract_z
Si Si1 0.036432 0.871893 0.166140
Si Si2 0.211031 0.137905 0.327495
Si Si3 0.500000 0.000000 0.000000
Si Si4 0.166739 0.520481 0.895148
Si Si5 0.591623 0.329460 0.075259
Si Si6 0.346036 0.298246 0.114003
Si Si7 0.105636 0.412566 0.229684
Si Si8 0.364936 0.032826 0.466694
O O1 0.104815 0.692333 0.015341
O O2 0.128276 0.991126 0.130358
O O3 0.000000 0.000000 0.500000
O O4 0.932750 0.793250 0.020190
O O5 0.226402 0.408988 0.268848
O O6 0.255139 0.074619 0.438707
O O7 0.141762 0.328649 0.605162
O O8 0.472362 0.068545 0.307197
O O9 0.673464 0.830775 0.828309
O O10 0.305542 0.535143 0.816716
O O11 0.128459 0.508306 0.119607
O O12 0.462490 0.405729 0.190135
O O13 0.629568 0.185152 0.733851
O O14 0.575461 0.187684 0.104399
O O15 0.360371 0.165163 0.786201
O O16 0.000000 0.500000 0.500000
#
# Coordination Sequence:
#
# PCOD9092925 Si02
#       8
#     2   2   1   2   2   2   2   2
#     4  12  25  49  79 102 144 216 251 322 389 443
#     4  12  24  47  77 108 150 202 256 313 383 453
#     4   8  18  40  68 108 146 192 242 294 378 454
#     4  12  26  48  77 110 150 200 263 315 381 461
#     4  10  22  41  77 108 150 195 243 316 383 454
#     4  12  24  44  75 113 151 199 250 313 383 464
#     4  12  29  49  71 115 161 196 267 323 374 458
#     4  10  19  44  68 111 149 187 249 297 375 462
#
# _framework density 25.010945
#
# number of rings (size 3 to 8) (size 9 to 14) (size 15 to 20)
#    0.800    0.000    5.333    1.600    1.867    2.667 
#    0.000    1.333    0.000    0.000    0.000    0.000 
#    0.000    0.000    0.000    0.000    0.000    0.000 
#
# Total GULP energy -83733.503407 kJ/mol
# GULP energy per Si atom -5582.233560 kJ/mol
# Density = 2.495402 g / cm^3
# Si number density = 25.010945 Si / 1000 Ang^3
#
#
#
# Elastic Constant Matrix: (Units=GPa)
#
#
# Indices 1 2 3 4 5 6 
#
# 1 156.9838 48.0899 23.7562 10.6943 -2.5115 9.7917
# 2 48.0899 79.0019 34.0825 0.7656 4.7569 10.4976
# 3 23.7562 34.0825 76.7994 -1.4696 -21.6191 2.7287
# 4 10.6943 0.7656 -1.4696 40.7328 3.7869 -3.0788
# 5 -2.5115 4.7569 -21.6191 3.7869 36.8960 1.9310
# 6 9.7917 10.4976 2.7287 -3.0788 1.9310 46.6858
#
#
#
# Elastic Compliance Matrix: (Units=1/GPa)
#
#
# Indices 1 2 3 4 5 6 
#
# 1 0.008092 -0.004930 0.000097 -0.002230 0.001514 -0.000804
# 2 -0.004930 0.020926 -0.010173 0.001170 -0.008977 -0.002628
# 3 0.000097 -0.010173 0.021386 -0.000319 0.013860 0.000423
# 4 -0.002230 0.001170 -0.000319 0.025556 -0.003220 0.002042
# 5 0.001514 -0.008977 0.013860 -0.003220 0.036860 -0.000846
# 6 -0.000804 -0.002628 0.000423 0.002042 -0.000846 0.022324
#
#
# Mechanical properties :
#
#
# Convention : Reuss Voigt Hill
#
# Bulk Modulus (GPa) = 49.03916 58.29356 53.66636
# Shear Modulus (GPa) = 29.07761 38.65334 33.86547
#
# Velocity S-wave (km/s) = 3.41338 3.93549 3.68370
# Velocity P-wave (km/s) = 5.93166 6.63390 6.29258
#
# Compressibility (1/GPa) = 0.02039187
#
# Stress axis : x y z
#
# Youngs Moduli (GPa) = 123.57828 47.78673 46.75981
#
# Poissons Ratio (x) = 0.23561 -0.00454
# Poissons Ratio (y) = 0.60929 0.47568
# Poissons Ratio (z) = -0.01201 0.48613
#
# Static dielectric constant tensor:
#      x y z
#    x 1.875060 0.123000 0.031310 
#    y 0.123000 1.896940 -0.047930 
#    z 0.031310 -0.047930 1.991780 
# 
# From -- ./inp_files/46465.got.cif
#   From: 2010.05.17/outbox.cif.g08.bks.cpg/sg2_24_cif.got.tgz:46465.got - 2010.06.03 11:33:40.
