data_PCOD9092538
_publ_section_title
;
Structure prediction by ZEFSAII (Michael W. Deem and Ramdas Pophale) SiO2 
 PCOD9092538
Probable space group: P -1
;
_chemical_formula_sum "Si O2"
_cell_formula_units_Z 16
_cell_length_a 7.742768
_cell_length_b 18.467119
_cell_length_c 9.225907
_cell_angle_alpha 126.559552
_cell_angle_beta 48.943658
_cell_angle_gamma 96.425705
_cell_volume 708.988212
_symmetry_space_group_name_H-M "P -1"
_symmetry_group_IT_number 2
_symmetry_cell_setting 'triclinic'
loop_
_space_group_symop_operation_xyz
x,y,z
-x,-y,-z
loop_
_atom_site_type_symbol
_atom_site_label
_atom_site_fract_x
_atom_site_fract_y
_atom_site_fract_z
Si Si1 0.682351 0.017402 0.809735
Si Si2 0.939003 0.077258 0.990987
Si Si3 0.415747 0.773428 0.988314
Si Si4 0.787137 0.447146 0.436733
Si Si5 0.672128 0.599196 0.435317
Si Si6 0.572045 0.724136 0.378420
Si Si7 0.857205 0.848891 0.263771
Si Si8 0.626372 0.637095 0.955344
O O1 0.560093 0.125963 0.930017
O O2 0.760371 0.935934 0.543543
O O3 0.892559 0.021911 0.809278
O O4 0.500000 0.000000 0.000000
O O5 0.683979 0.183186 0.298818
O O6 0.147963 0.109089 0.845967
O O7 0.000000 0.000000 0.000000
O O8 0.156175 0.786389 0.069842
O O9 0.640719 0.680589 0.671657
O O10 0.428786 0.737783 0.101229
O O11 0.807637 0.495091 0.326765
O O12 0.598104 0.397831 0.460934
O O13 0.652174 0.537830 0.737378
O O14 0.081207 0.377118 0.235081
O O15 0.748309 0.643240 0.306001
O O16 0.711773 0.782368 0.292043
O O17 0.533490 0.656016 0.194404
#
# Coordination Sequence:
#
# PCOD9092538 Si02
#       8
#     2   2   2   2   2   2   2   2
#     4  11  21  41  62  91 126 171 215 248 307 376
#     4  11  25  41  62  96 130 167 214 260 309 364
#     4  10  20  39  62  89 122 169 204 254 309 370
#     4   9  21  43  65  90 124 165 199 269 329 368
#     4  10  19  41  68  87 123 163 212 251 313 395
#     4  12  24  40  64  98 123 165 218 252 313 378
#     4  11  23  42  65  88 133 173 208 258 306 366
#     4  10  23  38  62  95 126 154 210 265 320 371
#
# _framework density 22.567371999999999
#
# number of rings (size 3 to 8) (size 9 to 14) (size 15 to 20)
#    0.000    1.500    3.750    2.250    3.500    2.500 
#    0.000    3.750    0.000    0.000    0.000    0.000 
#    0.000    0.000    0.000    0.000    0.000    0.000 
#
# Total GULP energy -89245.633729 kJ/mol
# GULP energy per Si atom -5577.852108 kJ/mol
# Density = 2.251601 g / cm^3
# Si number density = 22.567372 Si / 1000 Ang^3
#
#
#
# Elastic Constant Matrix: (Units=GPa)
#
#
# Indices 1 2 3 4 5 6 
#
# 1 45.2465 17.4019 11.4317 6.4221 14.4493 -4.4263
# 2 17.4019 105.4860 47.7724 -16.2839 14.0016 -2.0181
# 3 11.4317 47.7724 95.6940 -8.0307 22.1741 9.8703
# 4 6.4221 -16.2839 -8.0307 35.0819 -0.0407 8.7303
# 5 14.4493 14.0016 22.1741 -0.0407 29.5994 -3.5449
# 6 -4.4263 -2.0181 9.8703 8.7303 -3.5449 37.5032
#
#
#
# Elastic Compliance Matrix: (Units=1/GPa)
#
#
# Indices 1 2 3 4 5 6 
#
# 1 0.029152 -0.004675 0.000521 -0.008364 -0.011958 0.003868
# 2 -0.004675 0.013818 -0.005961 0.005797 0.000272 0.000437
# 3 0.000521 -0.005961 0.016694 0.002500 -0.010685 -0.006245
# 4 -0.008364 0.005797 0.002500 0.035738 -0.001658 -0.009809
# 5 -0.011958 0.000272 -0.010685 -0.001658 0.048257 0.006363
# 6 0.003868 0.000437 -0.006245 -0.009809 0.006363 0.031673
#
#
# Mechanical properties :
#
#
# Convention : Reuss Voigt Hill
#
# Bulk Modulus (GPa) = 25.35934 44.40428 34.88181
# Shear Modulus (GPa) = 23.95709 31.75827 27.85768
#
# Velocity S-wave (km/s) = 3.26173 3.75542 3.51725
# Velocity P-wave (km/s) = 5.04447 6.20671 5.65553
#
# Compressibility (1/GPa) = 0.03943320
#
# Stress axis : x y z
#
# Youngs Moduli (GPa) = 34.30319 72.36901 59.90326
#
# Poissons Ratio (x) = 0.33834 -0.03123
# Poissons Ratio (y) = 0.16037 0.35711
# Poissons Ratio (z) = -0.01789 0.43142
#
# Static dielectric constant tensor:
#      x y z
#    x 1.830070 0.025820 -0.012570 
#    y 0.025820 1.835560 0.000230 
#    z -0.012570 0.000230 1.870860 
# 
# From -- ./inp_files/218183.got.cif
#   From: 2010.05.17/outbox.cif.g08.bks.cpg/sg2_110_cif.got.tgz:218183.got - 2010.06.03 11:33:40.
