data_PCOD9092037
_publ_section_title
;
Structure prediction by ZEFSAII (Michael W. Deem and Ramdas Pophale) SiO2 
 PCOD9092037
Probable space group: P -1
;
_chemical_formula_sum "Si O2"
_cell_formula_units_Z 16
_cell_length_a 8.133917
_cell_length_b 19.631610
_cell_length_c 13.399817
_cell_angle_alpha 31.917039
_cell_angle_beta 45.157931
_cell_angle_gamma 43.327693
_cell_volume 753.205816
_symmetry_space_group_name_H-M "P -1"
_symmetry_group_IT_number 2
_symmetry_cell_setting 'triclinic'
loop_
_space_group_symop_operation_xyz
x,y,z
-x,-y,-z
loop_
_atom_site_type_symbol
_atom_site_label
_atom_site_fract_x
_atom_site_fract_y
_atom_site_fract_z
Si Si1 0.559092 0.315139 0.115690
Si Si2 0.259812 0.171115 0.809128
Si Si3 0.809110 0.541711 0.436886
Si Si4 0.222943 0.997568 0.217052
Si Si5 0.097244 0.530392 0.128874
Si Si6 0.714667 0.800500 0.907668
Si Si7 0.296379 0.991305 0.521104
Si Si8 0.299272 0.704648 0.154647
O O1 0.272939 0.401458 0.152520
O O2 0.635330 0.171624 0.320568
O O3 0.719752 0.403114 0.978064
O O4 0.626907 0.289329 0.001245
O O5 0.288029 0.294354 0.712012
O O6 0.522718 0.112103 0.715631
O O7 0.998473 0.228311 0.793293
O O8 0.244147 0.041978 0.039533
O O9 0.634545 0.452786 0.642434
O O10 0.000000 0.500000 0.500000
O O11 0.940907 0.501573 0.323600
O O12 0.192111 0.137044 0.115748
O O13 0.983652 0.957289 0.383314
O O14 0.910018 0.648991 0.994083
O O15 0.697949 0.911798 0.692459
O O16 0.451111 0.781433 0.054846
O O17 0.500000 0.000000 0.500000
#
# Coordination Sequence:
#
# PCOD9092037 Si02
#       8
#     2   2   2   2   2   2   2   2
#     4  11  22  43  67  93 132 171 220 262 332 387
#     4  10  20  41  64  89 128 166 213 258 325 386
#     4  10  19  40  65  90 125 171 211 262 329 382
#     4  11  22  39  64  94 124 167 215 263 316 390
#     4  11  23  41  67  98 128 170 219 273 316 389
#     4  12  24  41  67  94 134 165 219 272 322 375
#     4  12  23  44  67  92 132 172 210 266 332 384
#     4  11  22  41  66  92 132 175 205 271 326 384
#
# _framework density 21.242535
#
# number of rings (size 3 to 8) (size 9 to 14) (size 15 to 20)
#    0.000    1.000    7.500    0.375    0.000    4.500 
#    2.250    1.250    0.000    0.000    0.000    0.000 
#    0.000    0.000    0.000    0.000    0.000    0.000 
#
# Total GULP energy -89254.284096 kJ/mol
# GULP energy per Si atom -5578.392756 kJ/mol
# Density = 2.119419 g / cm^3
# Si number density = 21.242535 Si / 1000 Ang^3
#
#
#
# Elastic Constant Matrix: (Units=GPa)
#
#
# Indices 1 2 3 4 5 6 
#
# 1 57.8304 13.7119 17.1423 9.7807 -13.2382 -15.3439
# 2 13.7119 103.4412 19.8082 4.4645 1.7994 -35.1372
# 3 17.1423 19.8082 126.5938 4.6380 0.1473 -6.0759
# 4 9.7807 4.4645 4.6380 11.5900 -11.0184 -0.6590
# 5 -13.2382 1.7994 0.1473 -11.0184 44.0399 2.8330
# 6 -15.3439 -35.1372 -6.0759 -0.6590 2.8330 25.3984
#
#
#
# Elastic Compliance Matrix: (Units=1/GPa)
#
#
# Indices 1 2 3 4 5 6 
#
# 1 0.026487 0.005436 -0.002595 -0.021173 0.001021 0.022237
# 2 0.005436 0.020855 -0.001925 -0.014745 -0.004949 0.031844
# 3 -0.002595 -0.001925 0.008507 -0.001518 -0.000973 -0.002127
# 4 -0.021173 -0.014745 -0.001518 0.137909 0.030897 -0.033420
# 5 0.001021 -0.004949 -0.000973 0.030897 0.031540 -0.009179
# 6 0.022237 0.031844 -0.002127 -0.033420 -0.009179 0.096509
#
#
# Mechanical properties :
#
#
# Convention : Reuss Voigt Hill
#
# Bulk Modulus (GPa) = 17.33724 43.24334 30.29029
# Shear Modulus (GPa) = 14.74049 32.01919 23.37984
#
# Velocity S-wave (km/s) = 2.63708 3.88663 3.32115
# Velocity P-wave (km/s) = 4.17751 6.36728 5.38488
#
# Compressibility (1/GPa) = 0.05767930
#
# Stress axis : x y z
#
# Youngs Moduli (GPa) = 37.75411 47.95065 117.55577
#
# Poissons Ratio (x) = -0.26064 0.30510
# Poissons Ratio (y) = -0.20522 0.22628
# Poissons Ratio (z) = 0.09799 0.09230
#
# Static dielectric constant tensor:
#      x y z
#    x 1.782450 -0.006130 0.014830 
#    y -0.006130 1.828060 -0.004680 
#    z 0.014830 -0.004680 1.824150 
# 
# From -- ./inp_files/319528.got.cif
#   From: 2010.05.17/outbox.cif.g08.bks.cpg/sg2_160_cif.got.tgz:319528.got - 2010.06.03 11:33:40.
