data_PCOD9092841
_publ_section_title
;
Structure prediction by ZEFSAII (Michael W. Deem and Ramdas Pophale) SiO2 
 PCOD9092841
Probable space group: P -1
;
_chemical_formula_sum "Si O2"
_cell_formula_units_Z 16
_cell_length_a 16.148912
_cell_length_b 9.130677
_cell_length_c 21.545429
_cell_angle_alpha 123.942984
_cell_angle_beta 19.727993
_cell_angle_gamma 124.157309
_cell_volume 882.304982
_symmetry_space_group_name_H-M "P -1"
_symmetry_group_IT_number 2
_symmetry_cell_setting 'triclinic'
loop_
_space_group_symop_operation_xyz
x,y,z
-x,-y,-z
loop_
_atom_site_type_symbol
_atom_site_label
_atom_site_fract_x
_atom_site_fract_y
_atom_site_fract_z
Si Si1 0.989596 0.203552 0.763571
Si Si2 0.380895 0.570548 0.350425
Si Si3 0.066743 0.201624 0.281478
Si Si4 0.864323 0.675646 0.873190
Si Si5 0.116803 0.487413 0.845880
Si Si6 0.518783 0.340323 0.081809
Si Si7 0.872466 0.801377 0.031724
Si Si8 0.320068 0.473283 0.506823
O O1 0.013390 0.315090 0.837454
O O2 0.172514 0.311068 0.610263
O O3 0.044498 0.003341 0.682955
O O4 0.710135 0.209412 0.938362
O O5 0.435366 0.447119 0.225440
O O6 0.613763 0.726456 0.229883
O O7 0.352312 0.453775 0.405555
O O8 0.137975 0.665332 0.533603
O O9 0.164459 0.230740 0.149185
O O10 0.286998 0.249444 0.185902
O O11 0.144777 0.629249 0.671240
O O12 0.683077 0.490548 0.960297
O O13 0.815642 0.783055 0.994318
O O14 0.408848 0.485793 0.646308
O O15 0.000000 0.500000 0.000000
O O16 0.050596 0.657620 0.893937
O O17 0.000000 0.000000 0.000000
#
# Coordination Sequence:
#
# PCOD9092841 Si02
#       8
#     2   2   2   2   2   2   2   2
#     4  11  23  38  59  89 118 145 199 241 278 346
#     4  10  21  41  57  86 117 152 192 234 287 348
#     4  11  23  35  63  88 113 150 197 245 283 331
#     4   9  21  39  58  84 116 150 190 237 284 345
#     4  12  22  39  61  82 116 163 184 228 301 343
#     4  10  19  43  60  81 116 157 191 237 294 336
#     4  11  23  38  58  86 119 149 193 238 280 347
#     4  10  20  38  60  80 114 155 184 228 292 347
#
# _framework density 18.134318
#
# number of rings (size 3 to 8) (size 9 to 14) (size 15 to 20)
#    0.000    1.500    5.000    1.500    3.500    0.000 
#    0.000    3.125    0.000    0.000    0.000    0.000 
#    0.000    0.000    0.000    0.000    0.000    0.000 
#
# Total GULP energy -89267.883717 kJ/mol
# GULP energy per Si atom -5579.242732 kJ/mol
# Density = 1.809304 g / cm^3
# Si number density = 18.134318 Si / 1000 Ang^3
#
#
#
# Elastic Constant Matrix: (Units=GPa)
#
#
# Indices 1 2 3 4 5 6 
#
# 1 92.6729 24.3395 33.7642 -10.6670 2.0087 -4.5045
# 2 24.3395 51.7939 0.6852 -2.9656 2.9269 7.2564
# 3 33.7642 0.6852 70.2454 -8.6163 -7.0968 4.7428
# 4 -10.6670 -2.9656 -8.6163 15.3507 -5.8961 -3.5719
# 5 2.0087 2.9269 -7.0968 -5.8961 38.4155 -8.6145
# 6 -4.5045 7.2564 4.7428 -3.5719 -8.6145 20.1838
#
#
#
# Elastic Compliance Matrix: (Units=1/GPa)
#
#
# Indices 1 2 3 4 5 6 
#
# 1 0.017823 -0.009546 -0.007805 0.009980 0.002603 0.012121
# 2 -0.009546 0.025892 0.004316 -0.004630 -0.004825 -0.015332
# 3 -0.007805 0.004316 0.019441 0.006444 0.003486 -0.005233
# 4 0.009980 -0.004630 0.006444 0.089048 0.020741 0.026989
# 5 0.002603 -0.004825 0.003486 0.020741 0.034556 0.019916
# 6 0.012121 -0.015332 -0.005233 0.026989 0.019916 0.072268
#
#
# Mechanical properties :
#
#
# Convention : Reuss Voigt Hill
#
# Bulk Modulus (GPa) = 26.96482 36.92110 31.94296
# Shear Modulus (GPa) = 16.80901 25.18487 20.99694
#
# Velocity S-wave (km/s) = 3.04783 3.73070 3.40642
# Velocity P-wave (km/s) = 5.22374 6.24191 5.75539
#
# Compressibility (1/GPa) = 0.03708536
#
# Stress axis : x y z
#
# Youngs Moduli (GPa) = 56.10762 38.62234 51.43723
#
# Poissons Ratio (x) = 0.36869 0.40146
# Poissons Ratio (y) = 0.53561 -0.22199
# Poissons Ratio (z) = 0.43791 -0.16668
#
# Static dielectric constant tensor:
#      x y z
#    x 1.626670 -0.009860 0.012460 
#    y -0.009860 1.592790 -0.005910 
#    z 0.012460 -0.005910 1.637150 
# 
# From -- ./inp_files/176721.got.cif
#   From: 2010.05.17/outbox.cif.g08.bks.cpg/sg2_89_cif.got.tgz:176721.got - 2010.06.03 11:33:40.
