data_PCOD9092736
_publ_section_title
;
Structure prediction by ZEFSAII (Michael W. Deem and Ramdas Pophale) SiO2 
 PCOD9092736
Probable space group: P -1
;
_chemical_formula_sum "Si O2"
_cell_formula_units_Z 14
_cell_length_a 12.010803
_cell_length_b 7.909736
_cell_length_c 11.832334
_cell_angle_alpha 92.202853
_cell_angle_beta 44.917527
_cell_angle_gamma 66.504224
_cell_volume 632.332411
_symmetry_space_group_name_H-M "P -1"
_symmetry_group_IT_number 2
_symmetry_cell_setting 'triclinic'
loop_
_space_group_symop_operation_xyz
x,y,z
-x,-y,-z
loop_
_atom_site_type_symbol
_atom_site_label
_atom_site_fract_x
_atom_site_fract_y
_atom_site_fract_z
Si Si1 0.337335 0.712095 0.226157
Si Si2 0.718696 0.272346 0.980282
Si Si3 0.178894 0.318350 0.050423
Si Si4 0.120015 0.198455 0.734337
Si Si5 0.211805 0.398187 0.291574
Si Si6 0.825106 0.993642 0.084056
Si Si7 0.627910 0.981457 0.670372
O O1 0.319567 0.793631 0.113156
O O2 0.249855 0.576748 0.283442
O O3 0.269096 0.909290 0.359093
O O4 0.565608 0.525960 0.087975
O O5 0.946795 0.180711 0.818544
O O6 0.673607 0.204352 0.126794
O O7 0.204858 0.342795 0.164958
O O8 0.017617 0.554345 0.127269
O O9 0.098517 0.186343 0.070246
O O10 0.395288 0.171692 0.833624
O O11 0.234685 0.057985 0.758271
O O12 0.264614 0.140267 0.525149
O O13 0.000000 0.500000 0.500000
O O14 0.351161 0.181060 0.256443
O O15 0.000000 0.000000 0.000000
#
# Coordination Sequence:
#
# PCOD9092736 Si02
#       7
#     2   2   2   2   2   2   2
#     4  11  21  40  70  99 138 174 214 280 336 393
#     4  10  19  42  66  96 133 170 227 266 332 398
#     4  12  22  45  67  93 139 174 218 283 334 385
#     4  11  23  44  64 100 131 178 227 266 329 401
#     4  12  24  41  67 106 136 171 228 271 334 413
#     4  10  24  41  71  95 129 183 227 271 335 393
#     4  12  25  41  71 101 136 179 217 275 342 391
#
# _framework density 22.140253999999999
#
# number of rings (size 3 to 8) (size 9 to 14) (size 15 to 20)
#    0.000    0.857    4.286    3.429    0.000    5.143 
#    0.000    0.714    0.000    0.000    0.000    0.000 
#    0.000    0.000    0.000    0.000    0.000    0.000 
#
# Total GULP energy -78106.307287 kJ/mol
# GULP energy per Si atom -5579.021949 kJ/mol
# Density = 2.208986 g / cm^3
# Si number density = 22.140254 Si / 1000 Ang^3
#
#
#
# Elastic Constant Matrix: (Units=GPa)
#
#
# Indices 1 2 3 4 5 6 
#
# 1 121.7179 64.6089 33.7110 -8.4032 9.5631 5.0031
# 2 64.6089 101.0168 34.5549 -19.1783 13.5805 -9.7532
# 3 33.7110 34.5549 89.3148 -4.3397 -2.2991 -10.8234
# 4 -8.4032 -19.1783 -4.3397 31.0341 -3.5942 7.8503
# 5 9.5631 13.5805 -2.2991 -3.5942 22.7251 -7.6808
# 6 5.0031 -9.7532 -10.8234 7.8503 -7.6808 47.2198
#
#
#
# Elastic Compliance Matrix: (Units=1/GPa)
#
#
# Indices 1 2 3 4 5 6 
#
# 1 0.013439 -0.007899 -0.002607 -0.000921 -0.002674 -0.003935
# 2 -0.007899 0.018791 -0.003902 0.007798 -0.006574 0.001458
# 3 -0.002607 -0.003902 0.014253 -0.001431 0.005979 0.003947
# 4 -0.000921 0.007798 -0.001431 0.037826 -0.000099 -0.004924
# 5 -0.002674 -0.006574 0.005979 -0.000099 0.052648 0.008876
# 6 -0.003935 0.001458 0.003947 -0.004924 0.008876 0.025063
#
#
# Mechanical properties :
#
#
# Convention : Reuss Voigt Hill
#
# Bulk Modulus (GPa) = 56.60360 64.19990 60.40175
# Shear Modulus (GPa) = 25.41627 32.14079 28.77853
#
# Velocity S-wave (km/s) = 3.39184 3.81424 3.60922
# Velocity P-wave (km/s) = 6.40007 6.96116 6.68650
#
# Compressibility (1/GPa) = 0.01766672
#
# Stress axis : x y z
#
# Youngs Moduli (GPa) = 74.41217 53.21618 70.16154
#
# Poissons Ratio (x) = 0.42034 0.18289
# Poissons Ratio (y) = 0.58777 0.27380
# Poissons Ratio (z) = 0.19397 0.20768
#
# Static dielectric constant tensor:
#      x y z
#    x 1.889920 0.041840 -0.043690 
#    y 0.041840 1.906910 -0.028040 
#    z -0.043690 -0.028040 1.789860 
# 
# From -- ./inp_files/415338.got.cif
#   From: 2010.05.17/outbox.cif.g08.bks.cpg/sg2_208_cif.got.tgz:415338.got - 2010.06.03 11:33:40.
