data_PCOD9092047
_publ_section_title
;
Structure prediction by ZEFSAII (Michael W. Deem and Ramdas Pophale) SiO2 
 PCOD9092047
Probable space group: P -1
;
_chemical_formula_sum "Si O2"
_cell_formula_units_Z 14
_cell_length_a 7.925994
_cell_length_b 16.198934
_cell_length_c 13.533957
_cell_angle_alpha 25.098240
_cell_angle_beta 74.704000
_cell_angle_gamma 88.870555
_cell_volume 600.329720
_symmetry_space_group_name_H-M "P -1"
_symmetry_group_IT_number 2
_symmetry_cell_setting 'triclinic'
loop_
_space_group_symop_operation_xyz
x,y,z
-x,-y,-z
loop_
_atom_site_type_symbol
_atom_site_label
_atom_site_fract_x
_atom_site_fract_y
_atom_site_fract_z
Si Si1 0.499824 0.397679 0.716013
Si Si2 0.472213 0.020004 0.782224
Si Si3 0.145798 0.142603 0.731874
Si Si4 0.778861 0.523901 0.208246
Si Si5 0.444609 0.100343 0.307598
Si Si6 0.125500 0.436402 0.257546
Si Si7 0.721000 0.642176 0.871565
O O1 0.500000 0.500000 0.500000
O O2 0.678752 0.611982 0.516817
O O3 0.286177 0.325088 0.884122
O O4 0.544063 0.195130 0.927301
O O5 0.569196 0.027120 0.652480
O O6 0.259741 0.016513 0.810050
O O7 0.627654 0.259184 0.552909
O O8 0.051130 0.221131 0.575303
O O9 0.000000 0.000000 0.000000
O O10 0.001886 0.564024 0.144928
O O11 0.729362 0.531184 0.092889
O O12 0.257294 0.122639 0.350339
O O13 0.500000 0.000000 0.500000
O O14 0.637532 0.361441 0.975300
O O15 0.121050 0.349093 0.241874
O O16 0.500000 0.500000 0.000000
#
# Coordination Sequence:
#
# PCOD9092047 Si02
#       7
#     2   2   2   2   2   2   2
#     4  11  25  44  66  94 128 173 221 263 317 389
#     4  11  22  44  66  91 130 172 215 259 325 384
#     4  11  26  44  67  96 129 170 219 267 323 378
#     4  11  24  42  66  98 134 166 211 270 326 377
#     4  11  20  39  67  95 125 174 214 257 323 388
#     4  11  23  42  63  99 136 163 214 276 316 382
#     4  10  19  40  65  91 132 167 210 259 317 389
#
# _framework density 23.320519000000001
#
# number of rings (size 3 to 8) (size 9 to 14) (size 15 to 20)
#    0.000    1.143    2.857    5.571    4.000    2.857 
#    2.571    1.429    0.000    0.000    0.000    0.000 
#    0.000    0.000    0.000    0.000    0.000    0.000 
#
# Total GULP energy -78247.766762 kJ/mol
# GULP energy per Si atom -5589.126197 kJ/mol
# Density = 2.326744 g / cm^3
# Si number density = 23.320519 Si / 1000 Ang^3
#
#
#
# Elastic Constant Matrix: (Units=GPa)
#
#
# Indices 1 2 3 4 5 6 
#
# 1 82.6777 17.5455 20.0246 5.6368 26.5809 -13.0407
# 2 17.5455 80.0202 22.7749 11.4318 14.0014 -6.0821
# 3 20.0246 22.7749 106.6786 10.4483 44.4985 3.0732
# 4 5.6368 11.4318 10.4483 44.3344 2.2702 11.9739
# 5 26.5809 14.0014 44.4985 2.2702 42.5738 5.4701
# 6 -13.0407 -6.0821 3.0732 11.9739 5.4701 31.1807
#
#
#
# Elastic Compliance Matrix: (Units=1/GPa)
#
#
# Indices 1 2 3 4 5 6 
#
# 1 0.019216 -0.000502 0.003888 -0.005807 -0.017233 0.012809
# 2 -0.000502 0.014649 -0.001195 -0.004647 -0.003675 0.005194
# 3 0.003888 -0.001195 0.018151 -0.004770 -0.021419 0.005193
# 4 -0.005807 -0.004647 -0.004770 0.029399 0.010630 -0.016019
# 5 -0.017233 -0.003675 -0.021419 0.010630 0.059899 -0.020403
# 6 0.012809 0.005194 0.005193 -0.016019 -0.020403 0.047661
#
#
# Mechanical properties :
#
#
# Convention : Reuss Voigt Hill
#
# Bulk Modulus (GPa) = 17.73057 43.34074 30.53566
# Shear Modulus (GPa) = 24.58318 37.55323 31.06821
#
# Velocity S-wave (km/s) = 3.25028 4.01722 3.65393
# Velocity P-wave (km/s) = 4.65889 6.33581 5.56093
#
# Compressibility (1/GPa) = 0.05639976
#
# Stress axis : x y z
#
# Youngs Moduli (GPa) = 52.03862 68.26613 55.09229
#
# Poissons Ratio (x) = 0.03424 -0.21419
# Poissons Ratio (y) = 0.02610 0.06582
# Poissons Ratio (z) = -0.20232 0.08155
#
# Static dielectric constant tensor:
#      x y z
#    x 1.962490 -0.017670 -0.010630 
#    y -0.017670 1.932630 0.002340 
#    z -0.010630 0.002340 1.919030 
# 
# From -- ./inp_files/100453.got.cif
#   From: 2010.05.17/outbox.cif.g08.bks.cpg/sg2_51_cif.got.tgz:100453.got - 2010.06.03 11:33:40.
