data_PCOD9092518
_publ_section_title
;
Structure prediction by ZEFSAII (Michael W. Deem and Ramdas Pophale) SiO2 
 PCOD9092518
Probable space group: P -1
;
_chemical_formula_sum "Si O2"
_cell_formula_units_Z 16
_cell_length_a 8.547559
_cell_length_b 16.146884
_cell_length_c 10.811040
_cell_angle_alpha 33.994678
_cell_angle_beta 126.111844
_cell_angle_gamma 132.902463
_cell_volume 609.969237
_symmetry_space_group_name_H-M "P -1"
_symmetry_group_IT_number 2
_symmetry_cell_setting 'triclinic'
loop_
_space_group_symop_operation_xyz
x,y,z
-x,-y,-z
loop_
_atom_site_type_symbol
_atom_site_label
_atom_site_fract_x
_atom_site_fract_y
_atom_site_fract_z
Si Si1 0.224669 0.395156 0.896845
Si Si2 0.849687 0.812562 0.641340
Si Si3 0.548353 0.260717 0.131015
Si Si4 0.622427 0.227896 0.468497
Si Si5 0.244209 0.438071 0.292729
Si Si6 0.258586 0.073855 0.002272
Si Si7 0.397065 0.624919 0.354607
Si Si8 0.827998 0.185019 0.846472
O O1 0.252062 0.578329 0.690976
O O2 0.071253 0.305633 0.822334
O O3 0.123559 0.293152 0.100483
O O4 0.437162 0.368030 0.011913
O O5 0.613852 0.809521 0.547111
O O6 0.881878 0.725990 0.639860
O O7 0.000000 0.000000 0.500000
O O8 0.624329 0.193404 0.367995
O O9 0.739150 0.401947 0.971240
O O10 0.382405 0.122556 0.137160
O O11 0.726965 0.137137 0.718859
O O12 0.216562 0.479784 0.370123
O O13 0.480941 0.438638 0.412915
O O14 0.419090 0.258081 0.797326
O O15 0.229018 0.000516 0.927921
O O16 0.000000 0.000000 0.000000
O O17 0.293803 0.731218 0.240100
#
# Coordination Sequence:
#
# PCOD9092518 Si02
#       8
#     2   2   2   2   2   2   2   2
#     4  11  21  39  68  95 133 170 223 268 332 402
#     4  11  22  36  66 100 129 177 220 271 329 396
#     4  10  19  41  68  93 125 182 222 265 329 394
#     4  11  22  41  67  95 135 173 225 275 325 400
#     4  10  19  41  67  91 128 172 227 256 330 397
#     4  11  24  41  65  97 136 174 220 275 335 400
#     4  10  23  39  67  95 134 174 215 276 330 391
#     4  12  24  40  66 104 132 169 221 281 339 382
#
# _framework density 26.230830999999998
#
# number of rings (size 3 to 8) (size 9 to 14) (size 15 to 20)
#    0.000    1.250    5.000    1.500    1.750    1.500 
#    2.250    0.625    2.750    0.000    0.000    0.000 
#    0.000    0.000    0.000    0.000    0.000    0.000 
#
# Total GULP energy -89261.793683 kJ/mol
# GULP energy per Si atom -5578.862105 kJ/mol
# Density = 2.617113 g / cm^3
# Si number density = 26.230831 Si / 1000 Ang^3
#
#
#
# Elastic Constant Matrix: (Units=GPa)
#
#
# Indices 1 2 3 4 5 6 
#
# 1 60.4479 30.3033 43.6528 -0.6261 19.9224 -6.8143
# 2 30.3033 202.3595 12.5621 -25.2828 -8.6508 -27.3035
# 3 43.6528 12.5621 3.6089 -0.9377 -20.5521 1.2364
# 4 -0.6261 -25.2828 -0.9377 51.1785 -9.3516 5.6129
# 5 19.9224 -8.6508 -20.5521 -9.3516 24.0902 -4.4813
# 6 -6.8143 -27.3035 1.2364 5.6129 -4.4813 50.2455
#
#
#
# Elastic Compliance Matrix: (Units=1/GPa)
#
#
# Indices 1 2 3 4 5 6 
#
# 1 0.003579 -0.000747 0.014183 0.001642 0.009584 0.000402
# 2 -0.000747 0.006119 -0.003417 0.002902 0.001608 0.003127
# 3 0.014183 -0.003417 -0.007582 -0.005513 -0.021764 -0.001072
# 4 0.001642 0.002902 -0.005513 0.021514 0.003301 -0.000174
# 5 0.009584 0.001608 -0.021764 0.003301 0.017603 0.003911
# 6 0.000402 0.003127 -0.001072 -0.000174 0.003911 0.022051
#
#
# Mechanical properties :
#
#
# Convention : Reuss Voigt Hill
#
# Bulk Modulus (GPa) = 45.13913 48.82807 46.98360
# Shear Modulus (GPa) = 98.75383 37.09604 67.92493
#
# Velocity S-wave (km/s) = 6.14245 3.76468 5.09424
# Velocity P-wave (km/s) = 8.21901 6.12799 7.24929
#
# Compressibility (1/GPa) = 0.02215373
#
# Stress axis : x y z
#
# Youngs Moduli (GPa) = 279.42793 163.42509 -131.89582
#
# Poissons Ratio (x) = 0.12214 1.87072
# Poissons Ratio (y) = 0.20883 -0.45071
# Poissons Ratio (z) = -3.96322 0.55844
#
# Static dielectric constant tensor:
#      x y z
#    x 2.088690 -0.031490 -0.005160 
#    y -0.031490 2.117600 0.084290 
#    z -0.005160 0.084290 2.156640 
# 
# From -- ./inp_files/436437.got.cif
#   From: 2010.05.17/outbox.cif.g08.bks.cpg/sg2_219_cif.got.tgz:436437.got - 2010.06.03 11:33:40.
