data_PCOD9092133
_publ_section_title
;
Structure prediction by ZEFSAII (Michael W. Deem and Ramdas Pophale) SiO2 
 PCOD9092133
Probable space group: P -1
;
_chemical_formula_sum "Si O2"
_cell_formula_units_Z 16
_cell_length_a 15.823213
_cell_length_b 7.156881
_cell_length_c 20.991147
_cell_angle_alpha 48.464162
_cell_angle_beta 23.222457
_cell_angle_gamma 55.189317
_cell_volume 695.621651
_symmetry_space_group_name_H-M "P -1"
_symmetry_group_IT_number 2
_symmetry_cell_setting 'triclinic'
loop_
_space_group_symop_operation_xyz
x,y,z
-x,-y,-z
loop_
_atom_site_type_symbol
_atom_site_label
_atom_site_fract_x
_atom_site_fract_y
_atom_site_fract_z
Si Si1 0.899235 0.719172 0.566353
Si Si2 0.770925 0.361383 0.403110
Si Si3 0.141549 0.041663 0.216172
Si Si4 0.727853 0.034772 0.995017
Si Si5 0.686530 0.853001 0.273880
Si Si6 0.997477 0.214823 0.046668
Si Si7 0.543284 0.523365 0.040124
Si Si8 0.264882 0.764000 0.398323
O O1 0.317020 0.476413 0.244908
O O2 0.090392 0.641840 0.495866
O O3 0.006631 0.838416 0.400942
O O4 0.801629 0.954911 0.612721
O O5 0.739468 0.625599 0.333920
O O6 0.770402 0.367073 0.478979
O O7 0.981801 0.244729 0.261640
O O8 0.561670 0.175335 0.567115
O O9 0.229830 0.926386 0.117861
O O10 0.324758 0.212196 0.091496
O O11 0.934989 0.940450 0.904885
O O12 0.518667 0.819492 0.193918
O O13 0.677382 0.285575 0.010254
O O14 0.822579 0.824699 0.122055
O O15 0.773068 0.104667 0.194511
O O16 0.000000 0.500000 0.000000
O O17 0.500000 0.500000 0.000000
#
# Coordination Sequence:
#
# PCOD9092133 Si02
#       8
#     2   2   2   2   2   2   2   2
#     4   9  20  38  63  93 130 168 213 268 318 389
#     4  10  19  40  66  95 126 172 220 271 336 392
#     4  11  23  42  64  95 136 171 215 274 321 391
#     4  11  23  41  65  97 131 172 219 268 328 391
#     4  10  22  40  68  89 128 173 216 275 334 389
#     4  11  23  42  63  98 131 171 221 272 327 394
#     4  11  23  42  69  95 128 179 220 264 334 390
#     4   9  17  36  64  89 129 166 210 268 322 386
#
# _framework density 23.001007999999999
#
# number of rings (size 3 to 8) (size 9 to 14) (size 15 to 20)
#    0.000    1.750    1.250    4.500    0.000    3.000 
#    0.000   14.375    0.000    0.000    0.000    0.000 
#    0.000    0.000    0.000    0.000    0.000    0.000 
#
# Total GULP energy -89540.302512 kJ/mol
# GULP energy per Si atom -5596.268907 kJ/mol
# Density = 2.294866 g / cm^3
# Si number density = 23.001008 Si / 1000 Ang^3
#
#
#
# Elastic Constant Matrix: (Units=GPa)
#
#
# Indices 1 2 3 4 5 6 
#
# 1 97.5392 29.6000 17.4408 -8.0776 1.0419 10.5663
# 2 29.6000 91.6367 20.9279 -2.1891 -9.3369 24.6908
# 3 17.4408 20.9279 96.4422 -12.3813 4.4680 26.9723
# 4 -8.0776 -2.1891 -12.3813 22.6694 -4.1360 -3.8952
# 5 1.0419 -9.3369 4.4680 -4.1360 31.1533 -5.5523
# 6 10.5663 24.6908 26.9723 -3.8952 -5.5523 33.2639
#
#
#
# Elastic Compliance Matrix: (Units=1/GPa)
#
#
# Indices 1 2 3 4 5 6 
#
# 1 0.011786 -0.003586 -0.000850 0.003184 -0.000956 -0.000180
# 2 -0.003586 0.014918 -0.000224 -0.001064 0.002805 -0.009409
# 3 -0.000850 -0.000224 0.014556 0.005039 -0.003482 -0.011358
# 4 0.003184 -0.001064 0.005039 0.049384 0.005845 0.002452
# 5 -0.000956 0.002805 -0.003482 0.005845 0.035615 0.007674
# 6 -0.000180 -0.009409 -0.011358 0.002452 0.007674 0.047881
#
#
# Mechanical properties :
#
#
# Convention : Reuss Voigt Hill
#
# Bulk Modulus (GPa) = 31.30877 46.83950 39.07413
# Shear Modulus (GPa) = 25.75934 31.92730 28.84332
#
# Velocity S-wave (km/s) = 3.35015 3.72974 3.54503
# Velocity P-wave (km/s) = 5.34847 6.24150 5.81216
#
# Compressibility (1/GPa) = 0.03193993
#
# Stress axis : x y z
#
# Youngs Moduli (GPa) = 84.84802 67.03527 68.70127
#
# Poissons Ratio (x) = 0.24038 0.05839
# Poissons Ratio (y) = 0.30425 0.01538
# Poissons Ratio (z) = 0.07212 0.01500
#
# Static dielectric constant tensor:
#      x y z
#    x 1.855730 0.000870 -0.013890 
#    y 0.000870 1.873350 -0.027910 
#    z -0.013890 -0.027910 1.859970 
# 
# From -- ./inp_files/571624.got.cif
#   From: 2010.05.17/outbox.cif.g08.bks.cpg/sg2_286_cif.got.tgz:571624.got - 2010.06.03 11:33:40.
