data_PCOD9092002
_publ_section_title
;
Structure prediction by ZEFSAII (Michael W. Deem and Ramdas Pophale) SiO2 
 PCOD9092002
Probable space group: P -1
;
_chemical_formula_sum "Si O2"
_cell_formula_units_Z 16
_cell_length_a 11.753309
_cell_length_b 13.976031
_cell_length_c 5.559089
_cell_angle_alpha 125.294309
_cell_angle_beta 79.359776
_cell_angle_gamma 73.227662
_cell_volume 637.409928
_symmetry_space_group_name_H-M "P -1"
_symmetry_group_IT_number 2
_symmetry_cell_setting 'triclinic'
loop_
_space_group_symop_operation_xyz
x,y,z
-x,-y,-z
loop_
_atom_site_type_symbol
_atom_site_label
_atom_site_fract_x
_atom_site_fract_y
_atom_site_fract_z
Si Si1 0.689219 0.473052 0.324135
Si Si2 0.580090 0.755593 0.527862
Si Si3 0.209630 0.408712 0.167312
Si Si4 0.786308 0.792876 0.775171
Si Si5 0.392889 0.953531 0.538102
Si Si6 0.706985 0.204557 0.904956
Si Si7 0.944038 0.344241 0.709100
Si Si8 0.867252 0.142050 0.247076
O O1 0.605710 0.611918 0.410216
O O2 0.713212 0.520399 0.639786
O O3 0.636219 0.367310 0.179786
O O4 0.840270 0.387323 0.031367
O O5 0.645653 0.818334 0.766440
O O6 0.441306 0.858786 0.617893
O O7 0.678868 0.713150 0.200813
O O8 0.160371 0.343433 0.290164
O O9 0.097884 0.512422 0.185734
O O10 0.898119 0.754091 0.470860
O O11 0.748139 0.918296 0.146416
O O12 0.383877 0.864257 0.195808
O O13 0.500000 0.000000 0.500000
O O14 0.788531 0.162842 0.560008
O O15 0.792127 0.155346 0.044660
O O16 0.905832 0.259720 0.416147
O O17 0.000000 0.000000 0.000000
#
# Coordination Sequence:
#
# PCOD9092002 Si02
#       8
#     2   2   2   2   2   2   2   2
#     4   9  21  42  69 100 139 175 233 292 353 417
#     4  10  23  42  68  95 138 184 240 291 341 409
#     4  10  19  40  64  95 137 171 230 281 349 411
#     4  11  23  39  65  98 134 184 226 281 355 416
#     4  12  26  47  68  98 137 186 241 294 346 422
#     4  11  25  46  72 103 139 188 235 292 357 419
#     4  10  21  37  66 101 138 175 221 286 352 428
#     4  11  23  44  69 106 144 183 231 287 356 432
#
# _framework density 25.101589000000001
#
# number of rings (size 3 to 8) (size 9 to 14) (size 15 to 20)
#    0.000    1.500    2.500    1.875    0.000    9.000 
#    0.000    0.625    0.000    0.000    0.000    0.000 
#    0.000    0.000    0.000    0.000    0.000    0.000 
#
# Total GULP energy -89490.599309 kJ/mol
# GULP energy per Si atom -5593.162457 kJ/mol
# Density = 2.504446 g / cm^3
# Si number density = 25.101589 Si / 1000 Ang^3
#
#
#
# Elastic Constant Matrix: (Units=GPa)
#
#
# Indices 1 2 3 4 5 6 
#
# 1 89.3155 34.3728 34.5778 3.0899 12.3644 3.6962
# 2 34.3728 95.4516 31.0723 3.7707 21.0614 -18.5401
# 3 34.5778 31.0723 103.5654 5.7076 22.6089 6.8975
# 4 3.0899 3.7707 5.7076 44.1948 4.4894 6.4388
# 5 12.3644 21.0614 22.6089 4.4894 41.8446 -2.5544
# 6 3.6962 -18.5401 6.8975 6.4388 -2.5544 20.2096
#
#
#
# Elastic Compliance Matrix: (Units=1/GPa)
#
#
# Indices 1 2 3 4 5 6 
#
# 1 0.014829 -0.005875 -0.002609 0.000967 -0.000582 -0.007593
# 2 -0.005875 0.018829 -0.003982 -0.003221 -0.004009 0.020227
# 3 -0.002609 -0.003982 0.013356 0.000552 -0.005022 -0.008545
# 4 0.000967 -0.003221 0.000552 0.024669 -0.002310 -0.011472
# 5 -0.000582 -0.004009 -0.005022 -0.002310 0.029206 0.002570
# 6 -0.007593 0.020227 -0.008545 -0.011472 0.002570 0.076322
#
#
# Mechanical properties :
#
#
# Convention : Reuss Voigt Hill
#
# Bulk Modulus (GPa) = 45.28469 54.26425 49.77447
# Shear Modulus (GPa) = 23.86578 33.80378 28.83478
#
# Velocity S-wave (km/s) = 3.08680 3.67369 3.39296
# Velocity P-wave (km/s) = 5.54835 6.29758 5.93480
#
# Compressibility (1/GPa) = 0.02208252
#
# Stress axis : x y z
#
# Youngs Moduli (GPa) = 67.43679 53.10889 74.87007
#
# Poissons Ratio (x) = 0.31204 0.19531
# Poissons Ratio (y) = 0.39622 0.29813
# Poissons Ratio (z) = 0.17592 0.21148
#
# Static dielectric constant tensor:
#      x y z
#    x 2.065740 0.042070 -0.002740 
#    y 0.042070 1.997610 0.003250 
#    z -0.002740 0.003250 1.937700 
# 
# From -- ./inp_files/76999.got.cif
#   From: 2010.05.17/outbox.cif.g08.bks.cpg/sg2_39_cif.got.tgz:76999.got - 2010.06.03 11:33:40.
