data_PCOD9092546
_publ_section_title
;
Structure prediction by ZEFSAII (Michael W. Deem and Ramdas Pophale) SiO2 
 PCOD9092546
Probable space group: P -1
;
_chemical_formula_sum "Si O2"
_cell_formula_units_Z 16
_cell_length_a 20.833947
_cell_length_b 8.933188
_cell_length_c 20.650773
_cell_angle_alpha 41.117096
_cell_angle_beta 19.849996
_cell_angle_gamma 52.017299
_cell_volume 779.907162
_symmetry_space_group_name_H-M "P -1"
_symmetry_group_IT_number 2
_symmetry_cell_setting 'triclinic'
loop_
_space_group_symop_operation_xyz
x,y,z
-x,-y,-z
loop_
_atom_site_type_symbol
_atom_site_label
_atom_site_fract_x
_atom_site_fract_y
_atom_site_fract_z
Si Si1 0.886097 0.710242 0.222918
Si Si2 0.521641 0.043392 0.867810
Si Si3 0.777739 0.682332 0.909266
Si Si4 0.194651 0.985087 0.498894
Si Si5 0.974277 0.567215 0.930266
Si Si6 0.557172 0.295054 0.346732
Si Si7 0.063726 0.556358 0.606450
Si Si8 0.820769 0.511498 0.620021
O O1 0.942495 0.567672 0.158400
O O2 0.645982 0.655678 0.469838
O O3 0.937912 0.616507 0.273519
O O4 0.000000 0.000000 0.000000
O O5 0.728418 0.184522 0.668172
O O6 0.621333 0.065209 0.693799
O O7 0.375571 0.183605 0.978935
O O8 0.379382 0.752022 0.106881
O O9 0.867358 0.629308 0.774408
O O10 0.661812 0.412862 0.141014
O O11 0.987907 0.849145 0.695053
O O12 0.244206 0.273936 0.363370
O O13 0.114280 0.855860 0.686606
O O14 0.000000 0.500000 0.000000
O O15 0.729801 0.458755 0.181508
O O16 0.500000 0.000000 0.500000
O O17 0.081713 0.434153 0.562189
O O18 0.000000 0.500000 0.500000
#
# Coordination Sequence:
#
# PCOD9092546 Si02
#       8
#     2   2   2   2   2   2   2   2
#     4  12  22  41  70  97 130 174 222 268 322 398
#     4  11  21  45  68  90 124 177 218 269 326 391
#     4  10  19  41  68  91 123 169 216 266 326 387
#     4  10  22  44  64  92 138 167 215 269 332 390
#     4  11  24  42  66  99 135 172 212 278 335 389
#     4  11  20  38  66  94 128 169 219 263 321 392
#     4  11  24  43  68  96 130 172 222 273 326 392
#     4  12  26  43  65  98 134 173 219 279 330 389
#
# _framework density 20.515262
#
# number of rings (size 3 to 8) (size 9 to 14) (size 15 to 20)
#    0.000    1.000    7.500    0.750    1.750    1.000 
#    4.500    1.250    0.000    0.000    0.000    0.000 
#    0.000    0.000    0.000    0.000    0.000    0.000 
#
# Total GULP energy -89287.677682 kJ/mol
# GULP energy per Si atom -5580.479855 kJ/mol
# Density = 2.046857 g / cm^3
# Si number density = 20.515262 Si / 1000 Ang^3
#
#
#
# Elastic Constant Matrix: (Units=GPa)
#
#
# Indices 1 2 3 4 5 6 
#
# 1 81.6214 17.6734 25.2565 15.2067 20.7751 6.1713
# 2 17.6734 122.1686 50.2067 8.3206 3.1891 -5.2225
# 3 25.2565 50.2067 118.8604 13.2416 6.9433 -5.6040
# 4 15.2067 8.3206 13.2416 57.6330 -5.0594 1.8865
# 5 20.7751 3.1891 6.9433 -5.0594 19.6515 4.6746
# 6 6.1713 -5.2225 -5.6040 1.8865 4.6746 18.5203
#
#
#
# Elastic Compliance Matrix: (Units=1/GPa)
#
#
# Indices 1 2 3 4 5 6 
#
# 1 0.019855 -0.001188 -0.001805 -0.006494 -0.021497 -0.001410
# 2 -0.001188 0.010049 -0.003898 -0.000265 0.000468 0.001959
# 3 -0.001805 -0.003898 0.010979 -0.001841 -0.002691 0.003691
# 4 -0.006494 -0.000265 -0.001841 0.020881 0.013911 -0.004106
# 5 -0.021497 0.000468 -0.002691 0.013911 0.081774 -0.015576
# 6 -0.001410 0.001959 0.003691 -0.004106 -0.015576 0.060484
#
#
# Mechanical properties :
#
#
# Convention : Reuss Voigt Hill
#
# Bulk Modulus (GPa) = 36.89566 56.54708 46.72137
# Shear Modulus (GPa) = 22.04230 34.46186 28.25208
#
# Velocity S-wave (km/s) = 3.28141 4.10300 3.71499
# Velocity P-wave (km/s) = 5.69038 7.07597 6.42066
#
# Compressibility (1/GPa) = 0.02710346
#
# Stress axis : x y z
#
# Youngs Moduli (GPa) = 50.36451 99.51676 91.08007
#
# Poissons Ratio (x) = 0.11818 0.16437
# Poissons Ratio (y) = 0.05981 0.35500
# Poissons Ratio (z) = 0.09089 0.38788
#
# Static dielectric constant tensor:
#      x y z
#    x 1.745130 -0.036370 0.031880 
#    y -0.036370 1.755840 -0.018980 
#    z 0.031880 -0.018980 1.775500 
# 
# From -- ./inp_files/601106.got.cif
#   From: 2010.05.17/outbox.cif.g08.bks.cpg/sg2_301_cif.got.tgz:601106.got - 2010.06.03 11:33:40.
