data_PCOD9092794
_publ_section_title
;
Structure prediction by ZEFSAII (Michael W. Deem and Ramdas Pophale) SiO2 
 PCOD9092794
Probable space group: P -1
;
_chemical_formula_sum "Si O2"
_cell_formula_units_Z 16
_cell_length_a 11.263023
_cell_length_b 13.657954
_cell_length_c 6.191508
_cell_angle_alpha 66.465806
_cell_angle_beta 98.821945
_cell_angle_gamma 57.903709
_cell_volume 652.708314
_symmetry_space_group_name_H-M "P -1"
_symmetry_group_IT_number 2
_symmetry_cell_setting 'triclinic'
loop_
_space_group_symop_operation_xyz
x,y,z
-x,-y,-z
loop_
_atom_site_type_symbol
_atom_site_label
_atom_site_fract_x
_atom_site_fract_y
_atom_site_fract_z
Si Si1 0.278648 0.040913 0.831829
Si Si2 0.996959 0.080731 0.628998
Si Si3 0.272905 0.719306 0.290537
Si Si4 0.220917 0.517223 0.657597
Si Si5 0.836466 0.347630 0.070364
Si Si6 0.084086 0.300061 0.847925
Si Si7 0.348869 0.163315 0.374064
Si Si8 0.463701 0.252793 0.670816
O O1 0.180250 0.990639 0.810205
O O2 0.189300 0.142752 0.920880
O O3 0.268873 0.132799 0.558873
O O4 0.452717 0.896952 0.056430
O O5 0.878962 0.139392 0.749563
O O6 0.940979 0.224002 0.381785
O O7 0.000000 0.000000 0.500000
O O8 0.282140 0.597579 0.514211
O O9 0.418481 0.715529 0.358923
O O10 0.252309 0.691735 0.060497
O O11 0.249346 0.516275 0.922026
O O12 0.322429 0.374544 0.675132
O O13 0.035216 0.597892 0.473065
O O14 0.950867 0.338593 0.943246
O O15 0.220066 0.272963 0.060741
O O16 0.410455 0.232465 0.449939
O O17 0.500000 0.000000 0.500000
#
# Coordination Sequence:
#
# PCOD9092794 Si02
#       8
#     2   2   2   2   2   2   2   2
#     4  12  24  46  69 103 139 177 235 292 341 410
#     4  11  22  35  69 103 136 175 235 284 344 411
#     4  10  23  43  69 104 143 183 228 284 351 416
#     4  10  23  47  70 102 144 181 233 287 343 417
#     4  10  19  42  69  98 133 183 225 287 341 401
#     4  11  21  46  76  92 136 187 235 282 340 406
#     4  12  27  46  72 100 144 184 229 292 352 406
#     4  12  27  44  68 108 145 182 228 288 352 420
#
# _framework density 24.513244
#
# number of rings (size 3 to 8) (size 9 to 14) (size 15 to 20)
#    0.000    1.000    6.250    1.500    3.500    2.000 
#    4.500    2.500    0.000    0.000    0.000    0.000 
#    0.000    0.000    0.000    0.000    0.000    0.000 
#
# Total GULP energy -89280.629344 kJ/mol
# GULP energy per Si atom -5580.039334 kJ/mol
# Density = 2.445745 g / cm^3
# Si number density = 24.513244 Si / 1000 Ang^3
#
#
#
# Elastic Constant Matrix: (Units=GPa)
#
#
# Indices 1 2 3 4 5 6 
#
# 1 124.0298 39.9136 56.0369 18.3149 35.6174 15.6320
# 2 39.9136 185.2412 51.4019 21.6440 33.6954 4.2577
# 3 56.0369 51.4019 89.7006 20.0807 24.4706 5.8062
# 4 18.3149 21.6440 20.0807 44.7482 14.8214 9.0775
# 5 35.6174 33.6954 24.4706 14.8214 51.6262 9.1064
# 6 15.6320 4.2577 5.8062 9.0775 9.1064 30.0892
#
#
#
# Elastic Compliance Matrix: (Units=1/GPa)
#
#
# Indices 1 2 3 4 5 6 
#
# 1 0.012949 0.000029 -0.006449 0.000112 -0.005234 -0.003937
# 2 0.000029 0.006858 -0.002938 -0.001218 -0.002900 0.000827
# 3 -0.006449 -0.002938 0.017993 -0.003947 -0.001364 0.001897
# 4 0.000112 -0.001218 -0.003947 0.027278 -0.004168 -0.006092
# 5 -0.005234 -0.002900 -0.001364 -0.004168 0.027357 -0.003629
# 6 -0.003937 0.000827 0.001897 -0.006092 -0.003629 0.037733
#
#
# Mechanical properties :
#
#
# Convention : Reuss Voigt Hill
#
# Bulk Modulus (GPa) = 52.39627 77.07515 64.73571
# Shear Modulus (GPa) = 32.20706 42.06732 37.13719
#
# Velocity S-wave (km/s) = 3.62866 4.14709 3.89650
# Velocity P-wave (km/s) = 6.24318 7.37845 6.83443
#
# Compressibility (1/GPa) = 0.01908533
#
# Stress axis : x y z
#
# Youngs Moduli (GPa) = 77.22334 145.81276 55.57733
#
# Poissons Ratio (x) = -0.00417 0.35839
# Poissons Ratio (y) = -0.00221 0.16327
# Poissons Ratio (z) = 0.49798 0.42835
#
# Static dielectric constant tensor:
#      x y z
#    x 1.982080 0.039750 0.024720 
#    y 0.039750 2.005620 -0.000400 
#    z 0.024720 -0.000400 2.056470 
# 
# From -- ./inp_files/77655.got.cif
#   From: 2010.05.17/outbox.cif.g08.bks.cpg/sg2_39_cif.got.tgz:77655.got - 2010.06.03 11:33:40.
