data_PCOD9092762
_publ_section_title
;
Structure prediction by ZEFSAII (Michael W. Deem and Ramdas Pophale) SiO2 
 PCOD9092762
Probable space group: P -1
;
_chemical_formula_sum "Si O2"
_cell_formula_units_Z 14
_cell_length_a 11.209659
_cell_length_b 20.619097
_cell_length_c 7.099930
_cell_angle_alpha 116.263001
_cell_angle_beta 53.014870
_cell_angle_gamma 153.970359
_cell_volume 552.261830
_symmetry_space_group_name_H-M "P -1"
_symmetry_group_IT_number 2
_symmetry_cell_setting 'triclinic'
loop_
_space_group_symop_operation_xyz
x,y,z
-x,-y,-z
loop_
_atom_site_type_symbol
_atom_site_label
_atom_site_fract_x
_atom_site_fract_y
_atom_site_fract_z
Si Si1 0.981865 0.067640 0.490349
Si Si2 0.199713 0.891133 0.010888
Si Si3 0.334198 0.430495 0.364933
Si Si4 0.627433 0.437674 0.816110
Si Si5 0.334979 0.182426 0.948481
Si Si6 0.662231 0.188700 0.794690
Si Si7 0.750209 0.245329 0.227536
O O1 0.005898 0.145290 0.708859
O O2 0.252539 0.187116 0.229949
O O3 0.000000 0.000000 0.500000
O O4 0.554817 0.715398 0.184066
O O5 0.093179 0.766601 0.890468
O O6 0.383876 0.088198 0.440854
O O7 0.500000 0.000000 0.000000
O O8 0.500000 0.500000 0.500000
O O9 0.388171 0.527781 0.322534
O O10 0.957252 0.267993 0.549871
O O11 0.461467 0.419768 0.103391
O O12 0.003752 0.410206 0.275742
O O13 0.597887 0.234070 0.802894
O O14 0.000000 0.000000 0.000000
O O15 0.346677 0.004278 0.855816
O O16 0.723887 0.238167 0.016785
#
# Coordination Sequence:
#
# PCOD9092762 Si02
#       7
#     2   2   2   2   2   2   2
#     4  10  19  42  68 103 142 191 237 276 358 428
#     4   8  18  36  70 101 136 176 238 281 348 420
#     4  11  25  50  73 105 144 187 238 304 361 423
#     4  11  28  48  73 107 142 186 252 291 368 431
#     4  12  28  47  64 107 150 190 243 295 352 440
#     4  10  21  44  70 103 145 190 230 292 368 409
#     4  10  21  43  71 111 138 180 245 297 352 433
#
# _framework density 25.350296
#
# number of rings (size 3 to 8) (size 9 to 14) (size 15 to 20)
#    0.000    2.000    4.286    0.000    8.000    3.429 
#    5.143    1.429    0.000    0.000    0.000    0.000 
#    0.000    0.000    0.000    0.000    0.000    0.000 
#
# Total GULP energy -78417.645854 kJ/mol
# GULP energy per Si atom -5601.260418 kJ/mol
# Density = 2.529260 g / cm^3
# Si number density = 25.350296 Si / 1000 Ang^3
#
#
#
# Elastic Constant Matrix: (Units=GPa)
#
#
# Indices 1 2 3 4 5 6 
#
# 1 119.4131 28.1960 19.2451 4.1628 16.0615 -12.5589
# 2 28.1960 111.4207 0.5911 -3.5695 3.6023 -4.0360
# 3 19.2451 0.5911 92.0305 -12.7746 1.2751 12.1002
# 4 4.1628 -3.5695 -12.7746 24.7173 6.6430 -0.3075
# 5 16.0615 3.6023 1.2751 6.6430 52.0558 -14.0859
# 6 -12.5589 -4.0360 12.1002 -0.3075 -14.0859 44.9184
#
#
#
# Elastic Compliance Matrix: (Units=1/GPa)
#
#
# Indices 1 2 3 4 5 6 
#
# 1 0.010046 -0.002467 -0.002849 -0.003024 -0.001717 0.002795
# 2 -0.002467 0.009673 0.000786 0.002283 -0.000244 -0.000093
# 3 -0.002849 0.000786 0.013199 0.007838 -0.001795 -0.004791
# 4 -0.003024 0.002283 0.007838 0.047078 -0.006646 -0.004514
# 5 -0.001717 -0.000244 -0.001795 -0.006646 0.022545 0.007006
# 6 0.002795 -0.000093 -0.004791 -0.004514 0.007006 0.026492
#
#
# Mechanical properties :
#
#
# Convention : Reuss Voigt Hill
#
# Bulk Modulus (GPa) = 41.91180 46.54763 44.22972
# Shear Modulus (GPa) = 34.23596 42.66043 38.44819
#
# Velocity S-wave (km/s) = 3.67892 4.10669 3.89868
# Velocity P-wave (km/s) = 5.88344 6.39439 6.14423
#
# Compressibility (1/GPa) = 0.02385963
#
# Stress axis : x y z
#
# Youngs Moduli (GPa) = 99.53900 103.38215 75.76136
#
# Poissons Ratio (x) = 0.25508 0.21581
# Poissons Ratio (y) = 0.24559 -0.05958
# Poissons Ratio (z) = 0.28354 -0.08130
#
# Static dielectric constant tensor:
#      x y z
#    x 2.011970 0.002820 0.007200 
#    y 0.002820 2.063230 0.031080 
#    z 0.007200 0.031080 2.073490 
# 
# From -- ./inp_files/84412.got.cif
#   From: 2010.05.17/outbox.cif.g08.bks.cpg/sg2_43_cif.got.tgz:84412.got - 2010.06.03 11:33:40.
