data_PCOD9092008
_publ_section_title
;
Structure prediction by ZEFSAII (Michael W. Deem and Ramdas Pophale) SiO2 
 PCOD9092008
Probable space group: P -1
;
_chemical_formula_sum "Si O2"
_cell_formula_units_Z 16
_cell_length_a 12.023266
_cell_length_b 9.593190
_cell_length_c 21.496268
_cell_angle_alpha 154.751680
_cell_angle_beta 136.724571
_cell_angle_gamma 54.263089
_cell_volume 701.080014
_symmetry_space_group_name_H-M "P -1"
_symmetry_group_IT_number 2
_symmetry_cell_setting 'triclinic'
loop_
_space_group_symop_operation_xyz
x,y,z
-x,-y,-z
loop_
_atom_site_type_symbol
_atom_site_label
_atom_site_fract_x
_atom_site_fract_y
_atom_site_fract_z
Si Si1 0.682376 0.548053 0.021055
Si Si2 0.407643 0.659349 0.359998
Si Si3 0.022919 0.589977 0.212187
Si Si4 0.621762 0.586466 0.527402
Si Si5 0.342699 0.095391 0.722624
Si Si6 0.937792 0.497407 0.666434
Si Si7 0.573429 0.164215 0.160435
Si Si8 0.084450 0.385837 0.550639
O O1 0.682259 0.625956 0.126941
O O2 0.858617 0.453025 0.046575
O O3 0.654594 0.880926 0.110480
O O4 0.513701 0.257780 0.821650
O O5 0.208394 0.588924 0.263075
O O6 0.520105 0.740084 0.500208
O O7 0.439793 0.319273 0.205082
O O8 0.500000 0.000000 0.500000
O O9 0.999356 0.434995 0.210233
O O10 0.025199 0.986206 0.373308
O O11 0.500000 0.500000 0.500000
O O12 0.807379 0.716933 0.682560
O O13 0.632994 0.224864 0.357396
O O14 0.180727 0.895808 0.537520
O O15 0.050761 0.525809 0.661895
O O16 0.721621 0.490335 0.336093
O O17 0.500000 0.000000 0.000000
O O18 0.000000 0.500000 0.500000
#
# Coordination Sequence:
#
# PCOD9092008 Si02
#       8
#     2   2   2   2   2   2   2   2
#     4  11  22  40  64  95 135 171 217 278 332 397
#     4  12  24  43  68 101 138 181 226 283 339 408
#     4  12  23  39  68 103 129 169 234 282 338 385
#     4  10  19  40  64  97 131 172 224 272 335 401
#     4   9  20  37  66  87 128 173 213 263 335 391
#     4  10  22  38  67 101 128 167 238 271 327 398
#     4  12  27  44  68  98 138 185 228 270 346 414
#     4  12  22  42  67 101 135 177 229 287 326 402
#
# _framework density 22.821929999999998
#
# number of rings (size 3 to 8) (size 9 to 14) (size 15 to 20)
#    0.750    0.250    6.250    1.125    1.750    2.000 
#    0.000    2.500    0.000    0.000    0.000    0.000 
#    0.000    0.000    0.000    0.000    0.000    0.000 
#
# Total GULP energy -89103.661669 kJ/mol
# GULP energy per Si atom -5568.978854 kJ/mol
# Density = 2.276999 g / cm^3
# Si number density = 22.821930 Si / 1000 Ang^3
#
#
#
# Elastic Constant Matrix: (Units=GPa)
#
#
# Indices 1 2 3 4 5 6 
#
# 1 110.0917 76.3058 10.1487 -17.9720 3.7280 -12.1885
# 2 76.3058 140.6717 18.4327 -25.4524 -0.4936 -0.0689
# 3 10.1487 18.4327 49.8047 2.6411 -1.9926 -4.5148
# 4 -17.9720 -25.4524 2.6411 23.0074 -0.1297 4.9782
# 5 3.7280 -0.4936 -1.9926 -0.1297 35.8940 -3.7913
# 6 -12.1885 -0.0689 -4.5148 4.9782 -3.7913 40.1692
#
#
#
# Elastic Compliance Matrix: (Units=1/GPa)
#
#
# Indices 1 2 3 4 5 6 
#
# 1 0.015530 -0.008005 0.000013 0.002338 -0.001261 0.004291
# 2 -0.008005 0.013953 -0.004460 0.010602 0.000372 -0.004185
# 3 0.000013 -0.004460 0.022565 -0.008308 0.001552 0.003708
# 4 0.002338 0.010602 -0.008308 0.059634 -0.001157 -0.007706
# 5 -0.001261 0.000372 0.001552 -0.001157 0.028354 0.002612
# 6 0.004291 -0.004185 0.003708 -0.007706 0.002612 0.027808
#
#
# Mechanical properties :
#
#
# Convention : Reuss Voigt Hill
#
# Bulk Modulus (GPa) = 36.84012 56.70473 46.77242
# Shear Modulus (GPa) = 24.77754 32.85950 28.81852
#
# Velocity S-wave (km/s) = 3.29856 3.79861 3.55738
# Velocity P-wave (km/s) = 5.53938 6.64378 6.11656
#
# Compressibility (1/GPa) = 0.02714432
#
# Stress axis : x y z
#
# Youngs Moduli (GPa) = 64.39142 71.66980 44.31621
#
# Poissons Ratio (x) = 0.57372 -0.00056
# Poissons Ratio (y) = 0.51545 0.19763
# Poissons Ratio (z) = -0.00081 0.31961
#
# Static dielectric constant tensor:
#      x y z
#    x 1.949450 -0.040360 0.004850 
#    y -0.040360 1.906620 -0.057590 
#    z 0.004850 -0.057590 1.983420 
# 
# From -- ./inp_files/243709.got.cif
#   From: 2010.05.17/outbox.cif.g08.bks.cpg/sg2_122_cif.got.tgz:243709.got - 2010.06.03 11:33:40.
