data_PCOD9092990
_publ_section_title
;
Structure prediction by ZEFSAII (Michael W. Deem and Ramdas Pophale) SiO2 
 PCOD9092990
Probable space group: P -1
;
_chemical_formula_sum "Si O2"
_cell_formula_units_Z 14
_cell_length_a 15.828211
_cell_length_b 9.625259
_cell_length_c 9.745363
_cell_angle_alpha 31.924693
_cell_angle_beta 135.172196
_cell_angle_gamma 129.422428
_cell_volume 551.310793
_symmetry_space_group_name_H-M "P -1"
_symmetry_group_IT_number 2
_symmetry_cell_setting 'triclinic'
loop_
_space_group_symop_operation_xyz
x,y,z
-x,-y,-z
loop_
_atom_site_type_symbol
_atom_site_label
_atom_site_fract_x
_atom_site_fract_y
_atom_site_fract_z
Si Si1 0.407632 0.816842 0.743383
Si Si2 0.755436 0.552820 0.761175
Si Si3 0.408531 0.271227 0.207062
Si Si4 0.562480 0.652978 0.257666
Si Si5 0.188969 0.040350 0.733846
Si Si6 0.025243 0.105844 0.745447
Si Si7 0.119466 0.388951 0.871098
O O1 0.525524 0.813721 0.782556
O O2 0.340503 0.037858 0.409074
O O3 0.342912 0.530121 0.883357
O O4 0.453660 0.833990 0.939508
O O5 0.618696 0.575522 0.532497
O O6 0.828689 0.800293 0.561657
O O7 0.775270 0.571937 0.928263
O O8 0.796533 0.269495 0.002881
O O9 0.513743 0.394945 0.330751
O O10 0.681820 0.811646 0.199347
O O11 0.088625 0.089962 0.685860
O O12 0.120321 0.237496 0.854971
O O13 0.926608 0.320687 0.446224
O O14 0.977878 0.816366 0.987762
#
# Coordination Sequence:
#
# PCOD9092990 Si02
#       7
#     2   2   2   2   2   2   2
#     4   8  13  22  37  55  82 117 144 166 205 254
#     4  10  20  30  46  69  91 115 142 189 230 262
#     4   8  13  22  37  55  82 117 144 166 205 254
#     4   8  17  26  38  62  92 114 138 180 218 260
#     4  10  20  30  46  69  91 115 142 189 230 262
#     4  10  21  36  50  63  85 118 154 187 221 268
#     4  10  21  36  50  63  85 118 154 187 221 268
#
# _framework density 25.394023000000001
#
# number of rings (size 3 to 8) (size 9 to 14) (size 15 to 20)
#    1.714    1.143    0.000    2.571    0.000    3.429 
#    0.000    0.000    0.000    0.000    0.000    0.000 
#    0.000    4.571    0.000   18.857    0.000    0.571 
#
# Total GULP energy -78036.668830 kJ/mol
# GULP energy per Si atom -5574.047774 kJ/mol
# Density = 2.533623 g / cm^3
# Si number density = 25.394023 Si / 1000 Ang^3
#
#
#
# Elastic Constant Matrix: (Units=GPa)
#
#
# Indices 1 2 3 4 5 6 
#
# 1 51.2721 18.3384 10.9701 -1.6235 -3.5194 -4.3935
# 2 18.3384 83.2133 48.5764 14.3865 10.4301 0.0349
# 3 10.9701 48.5764 176.6405 -5.8427 -13.2429 -4.7953
# 4 -1.6235 14.3865 -5.8427 65.4275 1.6461 0.2424
# 5 -3.5194 10.4301 -13.2429 1.6461 23.6565 -6.8352
# 6 -4.3935 0.0349 -4.7953 0.2424 -6.8352 36.5517
#
#
#
# Elastic Compliance Matrix: (Units=1/GPa)
#
#
# Indices 1 2 3 4 5 6 
#
# 1 0.022854 -0.007303 0.001424 0.002067 0.008582 0.004532
# 2 -0.007303 0.020002 -0.006407 -0.004772 -0.014432 -0.004405
# 3 0.001424 -0.006407 0.008091 0.001949 0.008229 0.002765
# 4 0.002067 -0.004772 0.001949 0.016490 0.002612 0.000888
# 5 0.008582 -0.014432 0.008229 0.002612 0.058084 0.012969
# 6 0.004532 -0.004405 0.002765 0.000888 0.012969 0.030690
#
#
# Mechanical properties :
#
#
# Convention : Reuss Voigt Hill
#
# Bulk Modulus (GPa) = 37.91260 51.87731 44.89495
# Shear Modulus (GPa) = 26.37495 40.67653 33.52574
#
# Velocity S-wave (km/s) = 3.22627 4.00661 3.63743
# Velocity P-wave (km/s) = 5.37034 6.47126 5.94633
#
# Compressibility (1/GPa) = 0.02637645
#
# Stress axis : x y z
#
# Youngs Moduli (GPa) = 43.75598 49.99399 123.59293
#
# Poissons Ratio (x) = 0.36509 -0.17597
# Poissons Ratio (y) = 0.31954 0.79181
# Poissons Ratio (z) = -0.06230 0.32029
#
# Static dielectric constant tensor:
#      x y z
#    x 2.042390 0.027940 0.023420 
#    y 0.027940 1.960340 -0.012480 
#    z 0.023420 -0.012480 2.123710 
# 
# From -- ./inp_files/127040.got.cif
#   From: 2010.05.17/outbox.cif.g08.bks.cpg/sg2_64_cif.got.tgz:127040.got - 2010.06.03 11:33:40.
