data_PCOD9092617
_publ_section_title
;
Structure prediction by ZEFSAII (Michael W. Deem and Ramdas Pophale) SiO2 
 PCOD9092617
Probable space group: P -1
;
_chemical_formula_sum "Si O2"
_cell_formula_units_Z 16
_cell_length_a 7.709714
_cell_length_b 14.835925
_cell_length_c 8.996039
_cell_angle_alpha 129.425094
_cell_angle_beta 130.619412
_cell_angle_gamma 54.034102
_cell_volume 576.189541
_symmetry_space_group_name_H-M "P -1"
_symmetry_group_IT_number 2
_symmetry_cell_setting 'triclinic'
loop_
_space_group_symop_operation_xyz
x,y,z
-x,-y,-z
loop_
_atom_site_type_symbol
_atom_site_label
_atom_site_fract_x
_atom_site_fract_y
_atom_site_fract_z
Si Si1 0.238197 0.204964 0.008937
Si Si2 0.259261 0.944283 0.876013
Si Si3 0.236063 0.973523 0.233097
Si Si4 0.525370 0.786532 0.393636
Si Si5 0.986288 0.245672 0.194669
Si Si6 0.265667 0.548394 0.521294
Si Si7 0.181163 0.372848 0.866046
Si Si8 0.432917 0.566761 0.191170
O O1 0.523999 0.174034 0.172267
O O2 0.063338 0.287001 0.121435
O O3 0.175257 0.282111 0.903683
O O4 0.231536 0.062799 0.877322
O O5 0.328719 0.974792 0.116600
O O6 0.998775 0.923642 0.726652
O O7 0.110454 0.865481 0.021922
O O8 0.399972 0.922095 0.411855
O O9 0.760608 0.783752 0.611428
O O10 0.356207 0.713327 0.292726
O O11 0.616148 0.713251 0.216381
O O12 0.787915 0.331110 0.279315
O O13 0.500000 0.500000 0.500000
O O14 0.039434 0.577223 0.318062
O O15 0.328412 0.454667 0.596857
O O16 0.738107 0.508214 0.918702
O O17 0.500000 0.500000 0.000000
#
# Coordination Sequence:
#
# PCOD9092617 Si02
#       8
#     2   2   2   2   2   2   2   2
#     4  10  20  42  70 102 133 176 226 278 344 403
#     4   9  20  37  72 100 130 174 225 282 337 401
#     4  10  19  41  70  99 135 177 220 277 342 399
#     4  10  21  40  67  98 138 175 224 274 333 405
#     4  10  23  41  69  96 132 183 221 277 337 397
#     4  11  26  43  63  98 135 177 235 279 324 399
#     4  10  22  42  70  94 137 185 223 277 339 401
#     4  10  23  42  68  98 132 182 228 273 331 400
#
# _framework density 27.768640000000001
#
# number of rings (size 3 to 8) (size 9 to 14) (size 15 to 20)
#    0.000    2.000    1.250    1.500    0.000   10.000 
#    0.000    6.250    0.000    0.000    0.000    0.000 
#    0.000    0.000    0.000    0.000    0.000    0.000 
#
# Total GULP energy -89298.169744 kJ/mol
# GULP energy per Si atom -5581.135609 kJ/mol
# Density = 2.770544 g / cm^3
# Si number density = 27.768640 Si / 1000 Ang^3
#
#
#
# Elastic Constant Matrix: (Units=GPa)
#
#
# Indices 1 2 3 4 5 6 
#
# 1 128.3857 43.2395 25.9292 2.4765 -15.0332 12.5964
# 2 43.2395 129.1303 37.1954 -26.8795 13.0395 16.9724
# 3 25.9292 37.1954 109.9947 -23.5330 -6.1805 25.4105
# 4 2.4765 -26.8795 -23.5330 60.8128 -2.7325 -5.8713
# 5 -15.0332 13.0395 -6.1805 -2.7325 34.4513 2.8775
# 6 12.5964 16.9724 25.4105 -5.8713 2.8775 67.5081
#
#
#
# Elastic Compliance Matrix: (Units=1/GPa)
#
#
# Indices 1 2 3 4 5 6 
#
# 1 0.010169 -0.004073 -0.001003 -0.002439 0.005685 -0.000950
# 2 -0.004073 0.011261 -0.002193 0.003960 -0.006065 -0.000643
# 3 -0.001003 -0.002193 0.011792 0.003432 0.003075 -0.003533
# 4 -0.002439 0.003960 0.003432 0.019594 -0.000384 -0.000112
# 5 0.005685 -0.006065 0.003075 -0.000384 0.034508 -0.002198
# 6 -0.000950 -0.000643 -0.003533 -0.000112 -0.002198 0.016566
#
#
# Mechanical properties :
#
#
# Convention : Reuss Voigt Hill
#
# Bulk Modulus (GPa) = 53.51759 64.47098 58.99429
# Shear Modulus (GPa) = 40.11047 49.96424 45.03735
#
# Velocity S-wave (km/s) = 3.80472 4.24642 4.03162
# Velocity P-wave (km/s) = 6.21415 6.87826 6.55462
#
# Compressibility (1/GPa) = 0.01868545
#
# Stress axis : x y z
#
# Youngs Moduli (GPa) = 98.33441 88.80239 84.80004
#
# Poissons Ratio (x) = 0.36172 0.08502
# Poissons Ratio (y) = 0.40054 0.18595
# Poissons Ratio (z) = 0.09859 0.19473
#
# Static dielectric constant tensor:
#      x y z
#    x 1.886220 -1.041820 -0.524440 
#    y -1.041820 -0.095300 -1.590150 
#    z -0.524440 -1.590150 1.359100 
# 
# From -- ./inp_files/218401.got.cif
#   From: 2010.05.17/outbox.cif.g08.bks.cpg/sg2_110_cif.got.tgz:218401.got - 2010.06.03 11:33:40.
