data_PCOD9092189
_publ_section_title
;
Structure prediction by ZEFSAII (Michael W. Deem and Ramdas Pophale) SiO2 
 PCOD9092189
Probable space group: P -1
;
_chemical_formula_sum "Si O2"
_cell_formula_units_Z 16
_cell_length_a 14.415602
_cell_length_b 13.388107
_cell_length_c 15.409031
_cell_angle_alpha 27.675956
_cell_angle_beta 138.909462
_cell_angle_gamma 139.047379
_cell_volume 869.488106
_symmetry_space_group_name_H-M "P -1"
_symmetry_group_IT_number 2
_symmetry_cell_setting 'triclinic'
loop_
_space_group_symop_operation_xyz
x,y,z
-x,-y,-z
loop_
_atom_site_type_symbol
_atom_site_label
_atom_site_fract_x
_atom_site_fract_y
_atom_site_fract_z
Si Si1 0.169347 0.070338 0.533555
Si Si2 0.898583 0.365168 0.271361
Si Si3 0.389236 0.546360 0.074184
Si Si4 0.347574 0.063219 0.342942
Si Si5 0.884512 0.478346 0.856700
Si Si6 0.875072 0.414857 0.406699
Si Si7 0.630149 0.671577 0.014430
Si Si8 0.350492 0.861898 0.956333
O O1 0.200549 0.332356 0.339031
O O2 0.157035 0.904877 0.571125
O O3 0.275580 0.003746 0.729719
O O4 0.000000 0.000000 0.500000
O O5 0.949452 0.436386 0.348258
O O6 0.021243 0.472761 0.202684
O O7 0.752371 0.435857 0.093486
O O8 0.374557 0.281828 0.256697
O O9 0.540204 0.692490 0.021876
O O10 0.374361 0.659953 0.068393
O O11 0.317812 0.129247 0.171939
O O12 0.500000 0.000000 0.500000
O O13 0.218849 0.844790 0.447763
O O14 0.766580 0.241510 0.971062
O O15 0.000000 0.500000 0.000000
O O16 0.000000 0.500000 0.500000
O O17 0.758801 0.560915 0.212445
O O18 0.500000 0.500000 0.000000
O O19 0.500000 0.000000 0.000000
#
# Coordination Sequence:
#
# PCOD9092189 Si02
#       8
#     2   2   2   2   2   2   2   2
#     4   9  19  38  64  90 120 164 216 252 298 386
#     4  10  20  39  65  91 124 169 217 257 304 387
#     4  10  19  40  67  93 120 169 220 251 304 389
#     4  11  20  39  71  87 119 176 213 249 316 381
#     4  11  20  40  67  92 124 167 219 256 308 389
#     4  12  25  41  60 100 133 157 211 275 319 361
#     4  10  19  41  63  90 128 158 222 261 293 397
#     4  11  24  42  63  99 133 159 207 277 322 359
#
# _framework density 18.401630999999998
#
# number of rings (size 3 to 8) (size 9 to 14) (size 15 to 20)
#    0.000    1.500    8.750    0.000    1.750    1.000 
#    6.750    0.000    0.000    0.000    0.000    0.000 
#    0.000    0.000    0.000    0.000    0.000    0.000 
#
# Total GULP energy -89148.997320 kJ/mol
# GULP energy per Si atom -5571.812333 kJ/mol
# Density = 1.835975 g / cm^3
# Si number density = 18.401631 Si / 1000 Ang^3
#
#
#
# Elastic Constant Matrix: (Units=GPa)
#
#
# Indices 1 2 3 4 5 6 
#
# 1 118.3711 45.1834 52.7586 8.6254 -14.6438 -5.2015
# 2 45.1834 108.4571 49.0670 23.8437 -1.1079 -0.9222
# 3 52.7586 49.0670 118.3769 5.0160 10.4367 -4.1940
# 4 8.6254 23.8437 5.0160 25.5817 1.1181 -1.3675
# 5 -14.6438 -1.1079 10.4367 1.1181 37.6701 -3.3206
# 6 -5.2015 -0.9222 -4.1940 -1.3675 -3.3206 28.0046
#
#
#
# Elastic Compliance Matrix: (Units=1/GPa)
#
#
# Indices 1 2 3 4 5 6 
#
# 1 0.012668 -0.002755 -0.004955 -0.000894 0.006440 0.002240
# 2 -0.002755 0.015220 -0.004679 -0.012445 0.000936 -0.001208
# 3 -0.004955 -0.004679 0.012954 0.003762 -0.005732 0.000370
# 4 -0.000894 -0.012445 0.003762 0.050500 -0.003071 0.002089
# 5 0.006440 0.000936 -0.005732 -0.003071 0.031101 0.003906
# 6 0.002240 -0.001208 0.000370 0.002089 0.003906 0.036705
#
#
# Mechanical properties :
#
#
# Convention : Reuss Voigt Hill
#
# Bulk Modulus (GPa) = 62.24405 71.02477 66.63441
# Shear Modulus (GPa) = 26.41586 31.46436 28.94011
#
# Velocity S-wave (km/s) = 3.79293 4.13954 3.97002
# Velocity P-wave (km/s) = 7.28564 7.84401 7.56997
#
# Compressibility (1/GPa) = 0.01606579
#
# Stress axis : x y z
#
# Youngs Moduli (GPa) = 78.93808 65.70357 77.19444
#
# Poissons Ratio (x) = 0.18099 0.38248
# Poissons Ratio (y) = 0.21744 0.36119
# Poissons Ratio (z) = 0.39112 0.30742
#
# Static dielectric constant tensor:
#      x y z
#    x 1.940580 0.085610 -0.074760 
#    y 0.085610 1.660440 -0.072680 
#    z -0.074760 -0.072680 1.697930 
# 
# From -- ./inp_files/528430.got.cif
#   From: 2010.05.17/outbox.cif.g08.bks.cpg/sg2_265_cif.got.tgz:528430.got - 2010.06.03 11:33:40.
