data_PCOD9092952
_publ_section_title
;
Structure prediction by ZEFSAII (Michael W. Deem and Ramdas Pophale) SiO2 
 PCOD9092952
Probable space group: P -1
;
_chemical_formula_sum "Si O2"
_cell_formula_units_Z 12
_cell_length_a 9.671483
_cell_length_b 16.519082
_cell_length_c 8.098141
_cell_angle_alpha 128.415836
_cell_angle_beta 130.046390
_cell_angle_gamma 30.044235
_cell_volume 488.824827
_symmetry_space_group_name_H-M "P -1"
_symmetry_group_IT_number 2
_symmetry_cell_setting 'triclinic'
loop_
_space_group_symop_operation_xyz
x,y,z
-x,-y,-z
loop_
_atom_site_type_symbol
_atom_site_label
_atom_site_fract_x
_atom_site_fract_y
_atom_site_fract_z
Si Si1 0.799777 0.320775 0.058986
Si Si2 0.416693 0.781754 0.682031
Si Si3 0.393658 0.174657 0.791185
Si Si4 0.411849 0.105370 0.223345
Si Si5 0.141035 0.942703 0.219820
Si Si6 0.758635 0.429402 0.505426
O O1 0.808734 0.325166 0.268123
O O2 0.070572 0.269783 0.151704
O O3 0.500000 0.500000 0.000000
O O4 0.840589 0.184166 0.865099
O O5 0.426967 0.859019 0.637850
O O6 0.623789 0.597304 0.554813
O O7 0.543982 0.780415 0.944241
O O8 0.094566 0.896671 0.640480
O O9 0.550720 0.149345 0.716123
O O10 0.055583 0.316468 0.682613
O O11 0.518855 0.005884 0.718453
O O12 0.500000 0.000000 0.000000
O O13 0.000000 0.000000 0.000000
O O14 0.500000 0.500000 0.500000
#
# Coordination Sequence:
#
# PCOD9092952 Si02
#       6
#     2   2   2   2   2   2
#     4  12  27  45  69  99 146 180 228 284 346 404
#     4  10  22  44  71 101 138 176 229 277 348 408
#     4  10  22  43  75  96 139 177 233 281 336 407
#     4  10  21  44  72  98 133 185 224 273 351 403
#     4  10  19  45  70  98 130 185 224 276 338 410
#     4  12  28  43  68 108 138 179 232 286 342 401
#
# _framework density 24.548670999999999
#
# number of rings (size 3 to 8) (size 9 to 14) (size 15 to 20)
#    0.000    1.333    5.000    2.500    7.000    1.333 
#    0.000    1.667    0.000    0.000    0.000    0.000 
#    0.000    0.000    0.000    0.000    0.000    0.000 
#
# Total GULP energy -67140.707573 kJ/mol
# GULP energy per Si atom -5595.058964 kJ/mol
# Density = 2.449280 g / cm^3
# Si number density = 24.548671 Si / 1000 Ang^3
#
#
#
# Elastic Constant Matrix: (Units=GPa)
#
#
# Indices 1 2 3 4 5 6 
#
# 1 143.4997 36.5362 1.4931 -14.0540 -0.7359 -25.9302
# 2 36.5362 151.1413 7.9149 -17.7830 16.7537 -20.7506
# 3 1.4931 7.9149 69.2267 -0.4945 6.0937 -11.1028
# 4 -14.0540 -17.7830 -0.4945 44.9994 -3.1664 12.6419
# 5 -0.7359 16.7537 6.0937 -3.1664 35.4321 4.2337
# 6 -25.9302 -20.7506 -11.1028 12.6419 4.2337 60.3278
#
#
#
# Elastic Compliance Matrix: (Units=1/GPa)
#
#
# Indices 1 2 3 4 5 6 
#
# 1 0.007950 -0.001500 0.000387 0.001182 0.000593 0.002683
# 2 -0.001500 0.007889 -0.000217 0.001844 -0.003787 0.001908
# 3 0.000387 -0.000217 0.015248 -0.000936 -0.002990 0.003304
# 4 0.001182 0.001844 -0.000936 0.024674 0.002038 -0.004343
# 5 0.000593 -0.003787 -0.002990 0.002038 0.031226 -0.004216
# 6 0.002683 0.001908 0.003304 -0.004343 -0.004216 0.020200
#
#
# Mechanical properties :
#
#
# Convention : Reuss Voigt Hill
#
# Bulk Modulus (GPa) = 35.17925 50.63957 42.90941
# Shear Modulus (GPa) = 41.90263 49.34678 45.62470
#
# Velocity S-wave (km/s) = 4.13597 4.48835 4.31576
# Velocity P-wave (km/s) = 6.09671 6.89444 6.50781
#
# Compressibility (1/GPa) = 0.02842585
#
# Stress axis : x y z
#
# Youngs Moduli (GPa) = 125.78175 126.75638 65.58164
#
# Poissons Ratio (x) = 0.19019 -0.02535
# Poissons Ratio (y) = 0.18872 0.01423
# Poissons Ratio (z) = -0.04863 0.02751
#
# Static dielectric constant tensor:
#      x y z
#    x 1.927400 0.097550 -0.003570 
#    y 0.097550 1.928160 -0.069860 
#    z -0.003570 -0.069860 2.091890 
# 
# From -- ./inp_files/174012.got.cif
#   From: 2010.05.17/outbox.cif.g08.bks.cpg/sg2_88_cif.got.tgz:174012.got - 2010.06.03 11:33:40.
