data_PCOD9092939
_publ_section_title
;
Structure prediction by ZEFSAII (Michael W. Deem and Ramdas Pophale) SiO2 
 PCOD9092939
Probable space group: P -1
;
_chemical_formula_sum "Si O2"
_cell_formula_units_Z 14
_cell_length_a 17.226635
_cell_length_b 9.095448
_cell_length_c 9.220023
_cell_angle_alpha 114.444247
_cell_angle_beta 148.121963
_cell_angle_gamma 60.718591
_cell_volume 665.443146
_symmetry_space_group_name_H-M "P -1"
_symmetry_group_IT_number 2
_symmetry_cell_setting 'triclinic'
loop_
_space_group_symop_operation_xyz
x,y,z
-x,-y,-z
loop_
_atom_site_type_symbol
_atom_site_label
_atom_site_fract_x
_atom_site_fract_y
_atom_site_fract_z
Si Si1 0.574560 0.334031 0.458815
Si Si2 0.791554 0.748505 0.508001
Si Si3 0.606364 0.506167 0.035503
Si Si4 0.865205 0.970713 0.455893
Si Si5 0.790594 0.132935 0.107569
Si Si6 0.075002 0.815266 0.115223
Si Si7 0.391908 0.990214 0.456653
O O1 0.500000 0.500000 0.500000
O O2 0.759285 0.283026 0.725611
O O3 0.535344 0.175785 0.403010
O O4 0.502119 0.370965 0.201291
O O5 0.744954 0.583310 0.325057
O O6 0.800294 0.863232 0.426404
O O7 0.662002 0.855910 0.456231
O O8 0.951275 0.718987 0.837074
O O9 0.675452 0.319180 0.005110
O O10 0.500000 0.500000 0.000000
O O11 0.773662 0.036872 0.190499
O O12 0.888905 0.134441 0.644465
O O13 0.034533 0.863231 0.629336
O O14 0.755246 0.035719 0.871838
O O15 0.000000 0.000000 0.000000
O O16 0.500000 0.000000 0.500000
#
# Coordination Sequence:
#
# PCOD9092939 Si02
#       7
#     2   2   2   2   2   2   2
#     4  12  25  45  71 101 142 183 222 292 361 402
#     4  11  24  44  74  99 133 191 238 280 347 424
#     4  12  28  45  64 105 151 180 223 298 358 405
#     4  10  21  42  76  96 130 183 240 285 339 414
#     4  11  23  44  66 102 140 174 230 295 343 408
#     4  10  19  44  72  97 131 182 234 277 343 417
#     4  12  24  43  69  99 137 181 236 280 339 422
#
# _framework density 21.038609999999998
#
# number of rings (size 3 to 8) (size 9 to 14) (size 15 to 20)
#    0.000    0.857    5.714    2.571    2.000    1.143 
#    0.000    2.857    0.000    0.000    0.000    0.000 
#    0.000    0.000    0.000    0.000    0.000    0.000 
#
# Total GULP energy -78234.488210 kJ/mol
# GULP energy per Si atom -5588.177729 kJ/mol
# Density = 2.099073 g / cm^3
# Si number density = 21.038610 Si / 1000 Ang^3
#
#
#
# Elastic Constant Matrix: (Units=GPa)
#
#
# Indices 1 2 3 4 5 6 
#
# 1 123.8058 16.8266 8.9008 -14.6274 -0.0922 6.3534
# 2 16.8266 40.4559 6.7646 -16.0380 6.5363 -9.6764
# 3 8.9008 6.7646 61.7609 -4.0063 -3.3354 12.6093
# 4 -14.6274 -16.0380 -4.0063 34.4158 0.7314 1.3566
# 5 -0.0922 6.5363 -3.3354 0.7314 45.0046 -8.9724
# 6 6.3534 -9.6764 12.6093 1.3566 -8.9724 40.3081
#
#
#
# Elastic Compliance Matrix: (Units=1/GPa)
#
#
# Indices 1 2 3 4 5 6 
#
# 1 0.008929 -0.003252 -0.000339 0.002326 -0.000003 -0.002161
# 2 -0.003252 0.035272 -0.004528 0.014254 -0.003892 0.009050
# 3 -0.000339 -0.004528 0.018117 0.000098 0.000692 -0.006550
# 4 0.002326 0.014254 0.000098 0.036700 -0.002405 0.001254
# 5 -0.000003 -0.003892 0.000692 -0.002405 0.023715 0.004209
# 6 -0.002161 0.009050 -0.006550 0.001254 0.004209 0.030266
#
#
# Mechanical properties :
#
#
# Convention : Reuss Voigt Hill
#
# Bulk Modulus (GPa) = 21.70059 32.33405 27.01732
# Shear Modulus (GPa) = 27.08601 36.84774 31.96687
#
# Velocity S-wave (km/s) = 3.59199 4.18955 3.90223
# Velocity P-wave (km/s) = 5.24788 6.22940 5.75959
#
# Compressibility (1/GPa) = 0.04608169
#
# Stress axis : x y z
#
# Youngs Moduli (GPa) = 111.99318 28.35105 55.19567
#
# Poissons Ratio (x) = 0.09219 0.01870
# Poissons Ratio (y) = 0.36416 0.24993
# Poissons Ratio (z) = 0.03794 0.12837
#
# Static dielectric constant tensor:
#      x y z
#    x 1.783440 0.014080 0.026270 
#    y 0.014080 1.722640 -0.003660 
#    z 0.026270 -0.003660 1.826840 
# 
# From -- ./inp_files/329503.got.cif
#   From: 2010.05.17/outbox.cif.g08.bks.cpg/sg2_165_cif.got.tgz:329503.got - 2010.06.03 11:33:40.
