data_PCOD9092023
_publ_section_title
;
Structure prediction by ZEFSAII (Michael W. Deem and Ramdas Pophale) SiO2 
 PCOD9092023
Probable space group: P -1
;
_chemical_formula_sum "Si O2"
_cell_formula_units_Z 14
_cell_length_a 15.192589
_cell_length_b 8.099654
_cell_length_c 9.596344
_cell_angle_alpha 78.354429
_cell_angle_beta 33.012844
_cell_angle_gamma 85.466926
_cell_volume 621.054734
_symmetry_space_group_name_H-M "P -1"
_symmetry_group_IT_number 2
_symmetry_cell_setting 'triclinic'
loop_
_space_group_symop_operation_xyz
x,y,z
-x,-y,-z
loop_
_atom_site_type_symbol
_atom_site_label
_atom_site_fract_x
_atom_site_fract_y
_atom_site_fract_z
Si Si1 0.989483 0.111305 0.702756
Si Si2 0.683270 0.974595 0.258964
Si Si3 0.643511 0.623608 0.207712
Si Si4 0.986769 0.706882 0.832977
Si Si5 0.879147 0.346749 0.608642
Si Si6 0.543370 0.452001 0.103763
Si Si7 0.189418 0.251778 0.665000
O O1 0.963348 0.184541 0.572903
O O2 0.125745 0.224270 0.597684
O O3 0.814018 0.126985 0.001392
O O4 0.004785 0.912532 0.741925
O O5 0.500000 0.000000 0.500000
O O6 0.665959 0.813497 0.205032
O O7 0.765596 0.923759 0.300749
O O8 0.500000 0.500000 0.500000
O O9 0.823884 0.587494 0.007851
O O10 0.608844 0.607015 0.093779
O O11 0.945006 0.695360 0.056757
O O12 0.121404 0.647765 0.561650
O O13 0.000000 0.500000 0.500000
O O14 0.693427 0.346384 0.907087
O O15 0.369285 0.364816 0.413765
O O16 0.500000 0.500000 0.000000
#
# Coordination Sequence:
#
# PCOD9092023 Si02
#       7
#     2   2   2   2   2   2   2
#     4  10  22  41  65  92 125 163 205 259 313 361
#     4  10  20  37  68  94 121 162 212 255 303 368
#     4  10  19  40  65  87 123 165 205 254 305 364
#     4  10  21  40  67  91 123 162 208 255 306 367
#     4  12  24  40  65  92 125 164 210 252 311 373
#     4  12  24  42  60  93 129 163 204 259 311 364
#     4  10  21  42  65  88 128 162 202 257 308 363
#
# _framework density 22.542297000000001
#
# number of rings (size 3 to 8) (size 9 to 14) (size 15 to 20)
#    0.000    1.714    4.286    3.857    0.000    0.000 
#    5.143    2.143    0.000    0.000    0.000    0.000 
#    0.000    0.000    0.000    0.000    0.000    0.000 
#
# Total GULP energy -77944.350944 kJ/mol
# GULP energy per Si atom -5567.453639 kJ/mol
# Density = 2.249099 g / cm^3
# Si number density = 22.542297 Si / 1000 Ang^3
#
#
#
# Elastic Constant Matrix: (Units=GPa)
#
#
# Indices 1 2 3 4 5 6 
#
# 1 114.1662 16.3367 14.3738 9.1285 8.1187 19.1850
# 2 16.3367 48.6827 19.1088 5.1786 -8.0515 10.2796
# 3 14.3738 19.1088 74.2798 14.8433 -5.3946 9.1504
# 4 9.1285 5.1786 14.8433 30.5706 4.4663 -3.0407
# 5 8.1187 -8.0515 -5.3946 4.4663 43.0198 -2.1901
# 6 19.1850 10.2796 9.1504 -3.0407 -2.1901 27.9309
#
#
#
# Elastic Compliance Matrix: (Units=1/GPa)
#
#
# Indices 1 2 3 4 5 6 
#
# 1 0.010690 -0.002098 -0.000232 -0.003060 -0.002479 -0.007022
# 2 -0.002098 0.025395 -0.004444 -0.002820 0.004558 -0.006399
# 3 -0.000232 -0.004444 0.016977 -0.008155 0.001959 -0.004501
# 4 -0.003060 -0.002820 -0.008155 0.039706 -0.004598 0.009773
# 5 -0.002479 0.004558 0.001959 -0.004598 0.025333 0.000869
# 6 -0.007022 -0.006399 -0.004501 0.009773 0.000869 0.045587
#
#
# Mechanical properties :
#
#
# Convention : Reuss Voigt Hill
#
# Bulk Modulus (GPa) = 25.30827 37.41857 31.36342
# Shear Modulus (GPa) = 26.25955 32.79156 29.52555
#
# Velocity S-wave (km/s) = 3.41677 3.81815 3.62302
# Velocity P-wave (km/s) = 5.17853 6.00608 5.60759
#
# Compressibility (1/GPa) = 0.03951278
#
# Stress axis : x y z
#
# Youngs Moduli (GPa) = 93.54968 39.37850 58.90298
#
# Poissons Ratio (x) = 0.08260 0.01369
# Poissons Ratio (y) = 0.19624 0.26177
# Poissons Ratio (z) = 0.02174 0.17500
#
# Static dielectric constant tensor:
#      x y z
#    x 1.904920 -0.071270 0.076710 
#    y -0.071270 1.963170 0.174240 
#    z 0.076710 0.174240 2.335930 
# 
# From -- ./inp_files/298483.got.cif
#   From: 2010.05.17/outbox.cif.g08.bks.cpg/sg2_150_cif.got.tgz:298483.got - 2010.06.03 11:33:40.
