data_PCOD9092667
_publ_section_title
;
Structure prediction by ZEFSAII (Michael W. Deem and Ramdas Pophale) SiO2 
 PCOD9092667
Probable space group: P -1
;
_chemical_formula_sum "Si O2"
_cell_formula_units_Z 16
_cell_length_a 7.495780
_cell_length_b 24.882810
_cell_length_c 20.813525
_cell_angle_alpha 16.707999
_cell_angle_beta 41.325242
_cell_angle_gamma 42.722054
_cell_volume 734.552760
_symmetry_space_group_name_H-M "P -1"
_symmetry_group_IT_number 2
_symmetry_cell_setting 'triclinic'
loop_
_space_group_symop_operation_xyz
x,y,z
-x,-y,-z
loop_
_atom_site_type_symbol
_atom_site_label
_atom_site_fract_x
_atom_site_fract_y
_atom_site_fract_z
Si Si1 0.366175 0.217666 0.075225
Si Si2 0.955158 0.707804 0.799856
Si Si3 0.937615 0.424712 0.460310
Si Si4 0.505499 0.370627 0.735965
Si Si5 0.488285 0.710229 0.736428
Si Si6 0.066179 0.156766 0.038394
Si Si7 0.166142 0.941686 0.655147
Si Si8 0.183968 0.126225 0.644358
O O1 0.291876 0.275268 0.102014
O O2 0.075997 0.178758 0.168278
O O3 0.566493 0.030102 0.234813
O O4 0.485461 0.360628 0.829166
O O5 0.227570 0.749560 0.716027
O O6 0.910120 0.854531 0.586787
O O7 0.000000 0.500000 0.000000
O O8 0.800750 0.376267 0.619681
O O9 0.686114 0.457270 0.439627
O O10 0.132498 0.260467 0.565390
O O11 0.040272 0.633243 0.195875
O O12 0.356841 0.193712 0.948661
O O13 0.431759 0.849306 0.652667
O O14 0.742686 0.744892 0.583446
O O15 0.500000 0.500000 0.000000
O O16 0.867958 0.090352 0.223591
O O17 0.059390 0.000164 0.164955
#
# Coordination Sequence:
#
# PCOD9092667 Si02
#       8
#     2   2   2   2   2   2   2   2
#     4  10  20  39  58  81 115 158 185 237 290 343
#     4  11  23  38  58  83 120 158 198 230 285 353
#     4   9  20  40  63  84 112 153 194 241 293 346
#     4   8  19  43  63  76 118 153 192 239 292 351
#     4  11  23  36  55  84 117 156 190 241 289 335
#     4   9  21  36  62  86 113 149 198 237 286 346
#     4  10  19  42  55  76 119 159 192 224 285 352
#     4  12  22  35  61  88 121 145 195 248 289 334
#
# _framework density 21.781960999999999
#
# number of rings (size 3 to 8) (size 9 to 14) (size 15 to 20)
#    0.750    1.250    2.500    1.500    3.500    3.500 
#    0.000    0.625    0.000    0.000    0.000    0.000 
#    0.000    0.000    0.000    0.000    0.000    0.000 
#
# Total GULP energy -89284.298088 kJ/mol
# GULP energy per Si atom -5580.268631 kJ/mol
# Density = 2.173238 g / cm^3
# Si number density = 21.781961 Si / 1000 Ang^3
#
#
#
# Elastic Constant Matrix: (Units=GPa)
#
#
# Indices 1 2 3 4 5 6 
#
# 1 51.9408 -7.7214 5.8886 6.1999 2.3396 -0.5170
# 2 -7.7214 104.0195 64.9279 11.0944 7.9619 1.4265
# 3 5.8886 64.9279 109.9671 13.9469 7.2676 8.9039
# 4 6.1999 11.0944 13.9469 41.5831 3.4385 3.3474
# 5 2.3396 7.9619 7.2676 3.4385 21.1487 -4.3090
# 6 -0.5170 1.4265 8.9039 3.3474 -4.3090 18.5286
#
#
#
# Elastic Compliance Matrix: (Units=1/GPa)
#
#
# Indices 1 2 3 4 5 6 
#
# 1 0.020640 0.003864 -0.003026 -0.003094 -0.001814 0.001869
# 2 0.003864 0.016278 -0.009716 -0.001740 -0.002259 0.003313
# 3 -0.003026 -0.009716 0.015961 -0.001488 -0.002753 -0.007378
# 4 -0.003094 -0.001740 -0.001488 0.026170 -0.003731 -0.004833
# 5 -0.001814 -0.002259 -0.002753 -0.003731 0.052823 0.014405
# 6 0.001869 0.003313 -0.007378 -0.004833 0.014405 0.061536
#
#
# Mechanical properties :
#
#
# Convention : Reuss Voigt Hill
#
# Bulk Modulus (GPa) = 28.47189 43.56863 36.02026
# Shear Modulus (GPa) = 22.43440 29.77423 26.10431
#
# Velocity S-wave (km/s) = 3.21277 3.70120 3.46560
# Velocity P-wave (km/s) = 5.18288 6.18957 5.70846
#
# Compressibility (1/GPa) = 0.03512236
#
# Stress axis : x y z
#
# Youngs Moduli (GPa) = 48.45019 61.43127 62.65444
#
# Poissons Ratio (x) = -0.23736 0.18957
# Poissons Ratio (y) = -0.18721 0.60877
# Poissons Ratio (z) = 0.14659 0.59689
#
# Static dielectric constant tensor:
#      x y z
#    x 1.915170 0.021920 -0.125210 
#    y 0.021920 1.794090 0.003080 
#    z -0.125210 0.003080 1.912470 
# 
# From -- ./inp_files/355280.got.cif
#   From: 2010.05.17/outbox.cif.g08.bks.cpg/sg2_178_cif.got.tgz:355280.got - 2010.06.03 11:33:40.
