data_PCOD9092710
_publ_section_title
;
Structure prediction by ZEFSAII (Michael W. Deem and Ramdas Pophale) SiO2 
 PCOD9092710
Probable space group: P -1
;
_chemical_formula_sum "Si O2"
_cell_formula_units_Z 16
_cell_length_a 9.090694
_cell_length_b 14.492518
_cell_length_c 13.107118
_cell_angle_alpha 56.587708
_cell_angle_beta 93.480816
_cell_angle_gamma 137.621081
_cell_volume 766.054049
_symmetry_space_group_name_H-M "P -1"
_symmetry_group_IT_number 2
_symmetry_cell_setting 'triclinic'
loop_
_space_group_symop_operation_xyz
x,y,z
-x,-y,-z
loop_
_atom_site_type_symbol
_atom_site_label
_atom_site_fract_x
_atom_site_fract_y
_atom_site_fract_z
Si Si1 0.161593 0.767227 0.238847
Si Si2 0.165933 0.996778 0.536831
Si Si3 0.785774 0.624537 0.908697
Si Si4 0.114729 0.525932 0.096399
Si Si5 0.339322 0.698304 0.494433
Si Si6 0.301627 0.478134 0.485315
Si Si7 0.115883 0.752122 0.559552
Si Si8 0.218978 0.831935 0.974217
O O1 0.979902 0.540593 0.361087
O O2 0.979987 0.720802 0.339276
O O3 0.471797 0.933046 0.181099
O O4 0.161600 0.823407 0.094281
O O5 0.986951 0.823116 0.723385
O O6 0.205633 0.930857 0.490226
O O7 0.460871 0.218252 0.459473
O O8 0.000000 0.000000 0.500000
O O9 0.978325 0.717950 0.957729
O O10 0.500000 0.500000 0.000000
O O11 0.707134 0.464041 0.940536
O O12 0.243964 0.714578 0.039477
O O13 0.909726 0.339839 0.283827
O O14 0.000000 0.500000 0.000000
O O15 0.580253 0.331005 0.579543
O O16 0.316793 0.814325 0.451715
O O17 0.500000 0.500000 0.500000
O O18 0.183379 0.421415 0.401540
#
# Coordination Sequence:
#
# PCOD9092710 Si02
#       8
#     2   2   2   2   2   2   2   2
#     4   9  22  37  67  89 128 166 220 262 321 384
#     4  11  25  41  63  93 133 173 219 269 341 389
#     4  10  24  39  62  93 129 167 210 270 325 395
#     4   9  19  38  62  89 123 163 213 262 315 383
#     4  10  22  40  63  93 126 171 217 272 323 389
#     4  10  22  39  61  92 134 168 210 272 332 384
#     4  11  21  39  65  94 123 171 219 273 321 390
#     4  10  19  42  65  92 124 172 218 264 320 392
#
# _framework density 20.886254000000001
#
# number of rings (size 3 to 8) (size 9 to 14) (size 15 to 20)
#    0.750    1.250    1.250    1.500    3.500    1.000 
#    6.750    0.000    0.000    2.250    0.000    0.000 
#    0.000    0.000    0.000    0.000    0.000    0.000 
#
# Total GULP energy -89082.739466 kJ/mol
# GULP energy per Si atom -5567.671217 kJ/mol
# Density = 2.083872 g / cm^3
# Si number density = 20.886254 Si / 1000 Ang^3
#
#
#
# Elastic Constant Matrix: (Units=GPa)
#
#
# Indices 1 2 3 4 5 6 
#
# 1 140.3613 48.6302 34.7385 1.6405 -0.9718 10.8683
# 2 48.6302 109.5228 18.9559 -1.8820 1.9480 8.8805
# 3 34.7385 18.9559 47.3279 13.7786 -4.1590 -3.2496
# 4 1.6405 -1.8820 13.7786 38.8567 -0.6297 0.3301
# 5 -0.9718 1.9480 -4.1590 -0.6297 32.0455 -2.7449
# 6 10.8683 8.8805 -3.2496 0.3301 -2.7449 36.2338
#
#
#
# Elastic Compliance Matrix: (Units=1/GPa)
#
#
# Indices 1 2 3 4 5 6 
#
# 1 0.010108 -0.002979 -0.007056 0.001946 -0.000647 -0.003001
# 2 -0.002979 0.011225 -0.003095 0.001765 -0.001333 -0.002252
# 3 -0.007056 -0.003095 0.031564 -0.011026 0.004380 0.006138
# 4 0.001946 0.001765 -0.011026 0.029651 -0.001099 -0.002358
# 5 -0.000647 -0.001333 0.004380 -0.001099 0.032101 0.003355
# 6 -0.003001 -0.002252 0.006138 -0.002358 0.003355 0.029877
#
#
# Mechanical properties :
#
#
# Convention : Reuss Voigt Hill
#
# Bulk Modulus (GPa) = 37.53978 55.76233 46.65106
# Shear Modulus (GPa) = 27.82963 34.41969 31.12466
#
# Velocity S-wave (km/s) = 3.65422 4.06391 3.86450
# Velocity P-wave (km/s) = 5.98472 6.98402 6.50359
#
# Compressibility (1/GPa) = 0.02663841
#
# Stress axis : x y z
#
# Youngs Moduli (GPa) = 98.93315 89.08327 31.68172
#
# Poissons Ratio (x) = 0.26534 0.22353
# Poissons Ratio (y) = 0.29468 0.09806
# Poissons Ratio (z) = 0.69803 0.27573
#
# Static dielectric constant tensor:
#      x y z
#    x 1.737990 -0.008750 0.018460 
#    y -0.008750 1.814590 0.041930 
#    z 0.018460 0.041930 1.837080 
# 
# From -- ./inp_files/505372.got.cif
#   From: 2010.05.17/outbox.cif.g08.bks.cpg/sg2_253_cif.got.tgz:505372.got - 2010.06.03 11:33:40.
