data_PCOD9092373
_publ_section_title
;
Structure prediction by ZEFSAII (Michael W. Deem and Ramdas Pophale) SiO2 
 PCOD9092373
Probable space group: P -1
;
_chemical_formula_sum "Si O2"
_cell_formula_units_Z 14
_cell_length_a 9.303451
_cell_length_b 7.740805
_cell_length_c 15.448261
_cell_angle_alpha 78.683529
_cell_angle_beta 124.067999
_cell_angle_gamma 130.762996
_cell_volume 672.061652
_symmetry_space_group_name_H-M "P -1"
_symmetry_group_IT_number 2
_symmetry_cell_setting 'triclinic'
loop_
_space_group_symop_operation_xyz
x,y,z
-x,-y,-z
loop_
_atom_site_type_symbol
_atom_site_label
_atom_site_fract_x
_atom_site_fract_y
_atom_site_fract_z
Si Si1 0.249392 0.077998 0.596813
Si Si2 0.246182 0.285094 0.969246
Si Si3 0.120999 0.805625 0.273995
Si Si4 0.537458 0.813500 0.530056
Si Si5 0.716708 0.344229 0.805903
Si Si6 0.065481 0.777892 0.979250
Si Si7 0.023114 0.447541 0.415766
O O1 0.169769 0.832822 0.630438
O O2 0.359549 0.157910 0.530553
O O3 0.467738 0.272374 0.715156
O O4 0.000000 0.000000 0.500000
O O5 0.075515 0.235427 0.842381
O O6 0.210839 0.053823 0.992390
O O7 0.500000 0.500000 0.000000
O O8 0.149931 0.318858 0.019159
O O9 0.255734 0.767207 0.256550
O O10 0.014095 0.605231 0.331377
O O11 0.278898 0.068282 0.342231
O O12 0.288231 0.555320 0.485102
O O13 0.500000 0.000000 0.500000
O O14 0.938452 0.625004 0.864170
O O15 0.767874 0.254238 0.915680
O O16 0.000000 0.500000 0.500000
#
# Coordination Sequence:
#
# PCOD9092373 Si02
#       7
#     2   2   2   2   2   2   2
#     4  12  25  38  60  97 129 160 212 264 311 370
#     4  10  22  41  63  95 119 151 214 263 310 367
#     4  10  20  39  66  87 122 167 207 252 310 375
#     4  10  19  41  61  88 122 164 213 245 299 389
#     4  10  20  44  63  89 128 167 206 253 321 370
#     4   9  22  43  66  87 123 166 203 260 314 370
#     4  11  20  39  65  87 120 173 211 242 307 378
#
# _framework density 20.831422
#
# number of rings (size 3 to 8) (size 9 to 14) (size 15 to 20)
#    0.000    1.714    5.714    0.000    2.000    2.857 
#    7.714    2.143    0.000    0.000    0.000    0.000 
#    0.000    0.000    0.000    0.000    0.000    0.000 
#
# Total GULP energy -77995.530656 kJ/mol
# GULP energy per Si atom -5571.109333 kJ/mol
# Density = 2.078401 g / cm^3
# Si number density = 20.831422 Si / 1000 Ang^3
#
#
#
# Elastic Constant Matrix: (Units=GPa)
#
#
# Indices 1 2 3 4 5 6 
#
# 1 58.2136 28.4882 29.5184 5.6433 12.2133 21.5881
# 2 28.4882 72.5212 0.9758 6.0410 -12.2859 15.3002
# 3 29.5184 0.9758 90.7692 19.3526 4.1314 5.4411
# 4 5.6433 6.0410 19.3526 31.1427 0.2730 4.8471
# 5 12.2133 -12.2859 4.1314 0.2730 29.1003 -1.3612
# 6 21.5881 15.3002 5.4411 4.8471 -1.3612 36.2731
#
#
#
# Elastic Compliance Matrix: (Units=1/GPa)
#
#
# Indices 1 2 3 4 5 6 
#
# 1 0.044548 -0.018270 -0.013505 0.006992 -0.025432 -0.018670
# 2 -0.018270 0.023963 0.005985 -0.005398 0.017043 0.001229
# 3 -0.013505 0.005985 0.016925 -0.009991 0.006098 0.004538
# 4 0.006992 -0.005398 -0.009991 0.039035 -0.004431 -0.005769
# 5 -0.025432 0.017043 0.006098 -0.004431 0.051856 0.009570
# 6 -0.018670 0.001229 0.004538 -0.005769 0.009570 0.038611
#
#
# Mechanical properties :
#
#
# Convention : Reuss Voigt Hill
#
# Bulk Modulus (GPa) = 29.53593 37.71875 33.62734
# Shear Modulus (GPa) = 17.99832 30.13800 24.06816
#
# Velocity S-wave (km/s) = 2.94257 3.80775 3.40277
# Velocity P-wave (km/s) = 5.07487 6.12192 5.62282
#
# Compressibility (1/GPa) = 0.03385707
#
# Stress axis : x y z
#
# Youngs Moduli (GPa) = 22.44767 41.73076 59.08426
#
# Poissons Ratio (x) = 0.76242 0.79792
# Poissons Ratio (y) = 0.41012 -0.35363
# Poissons Ratio (z) = 0.30315 -0.24977
#
# Static dielectric constant tensor:
#      x y z
#    x 1.806390 -0.031280 0.005580 
#    y -0.031280 1.861090 0.101280 
#    z 0.005580 0.101280 1.876640 
# 
# From -- ./inp_files/490941.got.cif
#   From: 2010.05.17/outbox.cif.g08.bks.cpg/sg2_246_cif.got.tgz:490941.got - 2010.06.03 11:33:40.
