data_PCOD9092864
_publ_section_title
;
Structure prediction by ZEFSAII (Michael W. Deem and Ramdas Pophale) SiO2 
 PCOD9092864
Probable space group: P -1
;
_chemical_formula_sum "Si O2"
_cell_formula_units_Z 16
_cell_length_a 22.918874
_cell_length_b 8.031550
_cell_length_c 5.649757
_cell_angle_alpha 99.847585
_cell_angle_beta 62.719570
_cell_angle_gamma 58.432214
_cell_volume 661.454057
_symmetry_space_group_name_H-M "P -1"
_symmetry_group_IT_number 2
_symmetry_cell_setting 'triclinic'
loop_
_space_group_symop_operation_xyz
x,y,z
-x,-y,-z
loop_
_atom_site_type_symbol
_atom_site_label
_atom_site_fract_x
_atom_site_fract_y
_atom_site_fract_z
Si Si1 0.737262 0.094649 0.318015
Si Si2 0.973362 0.686962 0.398130
Si Si3 0.715953 0.385596 0.798962
Si Si4 0.853247 0.174677 0.854198
Si Si5 0.146133 0.322225 0.703545
Si Si6 0.273497 0.357684 0.537538
Si Si7 0.570856 0.796909 0.506054
Si Si8 0.538571 0.499957 0.676149
O O1 0.713187 0.205970 0.652866
O O2 0.641468 0.248542 0.416177
O O3 0.805037 0.824782 0.180142
O O4 0.794187 0.137029 0.091031
O O5 0.886945 0.762424 0.437142
O O6 0.000000 0.500000 0.500000
O O7 0.949943 0.911728 0.606906
O O8 0.051380 0.566973 0.027504
O O9 0.815879 0.247268 0.674722
O O10 0.694528 0.551170 0.670539
O O11 0.643600 0.554369 0.171116
O O12 0.813833 0.414607 0.100784
O O13 0.226884 0.295992 0.451619
O O14 0.362665 0.180151 0.491308
O O15 0.530470 0.721585 0.734603
O O16 0.500000 0.000000 0.500000
O O17 0.500000 0.500000 0.500000
O O18 0.500000 0.500000 0.000000
#
# Coordination Sequence:
#
# PCOD9092864 Si02
#       8
#     2   2   2   2   2   2   2   2
#     4  11  21  42  69  92 135 176 236 281 352 425
#     4  11  23  41  67  98 140 170 232 294 355 419
#     4  10  19  43  67  89 129 187 226 278 359 425
#     4  10  20  41  70  89 127 186 219 281 347 424
#     4  11  25  40  65 106 131 178 232 294 352 425
#     4  10  24  42  67  97 136 182 234 279 364 432
#     4  11  25  44  68 100 145 184 236 305 364 431
#     4  12  27  44  71 108 140 189 250 300 363 444
#
# _framework density 24.189129999999999
#
# number of rings (size 3 to 8) (size 9 to 14) (size 15 to 20)
#    0.000    1.250    6.250    0.750    1.750    4.000 
#    0.000    1.250    0.000    0.000    0.000    0.000 
#    0.000    0.000    0.000    0.000    0.000    0.000 
#
# Total GULP energy -89173.914007 kJ/mol
# GULP energy per Si atom -5573.369625 kJ/mol
# Density = 2.413407 g / cm^3
# Si number density = 24.189130 Si / 1000 Ang^3
#
#
#
# Elastic Constant Matrix: (Units=GPa)
#
#
# Indices 1 2 3 4 5 6 
#
# 1 102.7514 23.4841 10.2750 3.2182 -14.8887 -11.9735
# 2 23.4841 113.9389 2.4672 6.4235 -12.9027 -15.3889
# 3 10.2750 2.4672 63.2426 3.1379 5.6845 4.7463
# 4 3.2182 6.4235 3.1379 26.6338 -4.9475 -1.0217
# 5 -14.8887 -12.9027 5.6845 -4.9475 18.8264 -4.5201
# 6 -11.9735 -15.3889 4.7463 -1.0217 -4.5201 32.7177
#
#
#
# Elastic Compliance Matrix: (Units=1/GPa)
#
#
# Indices 1 2 3 4 5 6 
#
# 1 0.012879 -0.000193 -0.003905 0.001709 0.013384 0.007091
# 2 -0.000193 0.010799 -0.001686 -0.000422 0.009211 0.006513
# 3 -0.003905 -0.001686 0.018321 -0.003840 -0.012396 -0.006712
# 4 0.001709 -0.000422 -0.003840 0.040637 0.013903 0.004174
# 5 0.013384 0.009211 -0.012396 0.013903 0.082913 0.022918
# 6 0.007091 0.006513 -0.006712 0.004174 0.022918 0.040493
#
#
# Mechanical properties :
#
#
# Convention : Reuss Voigt Hill
#
# Bulk Modulus (GPa) = 32.85994 39.15392 36.00693
# Shear Modulus (GPa) = 21.95362 31.88269 26.91815
#
# Velocity S-wave (km/s) = 3.01588 3.63445 3.33951
# Velocity P-wave (km/s) = 5.07360 5.81670 5.45781
#
# Compressibility (1/GPa) = 0.03043219
#
# Stress axis : x y z
#
# Youngs Moduli (GPa) = 77.64620 92.59813 54.58270
#
# Poissons Ratio (x) = 0.01786 0.21314
# Poissons Ratio (y) = 0.01498 0.09201
# Poissons Ratio (z) = 0.30320 0.15609
#
# Static dielectric constant tensor:
#      x y z
#    x 2.003060 0.021030 0.016630 
#    y 0.021030 2.031860 -0.016770 
#    z 0.016630 -0.016770 2.035220 
# 
# From -- ./inp_files/122904.got.cif
#   From: 2010.05.17/outbox.cif.g08.bks.cpg/sg2_62_cif.got.tgz:122904.got - 2010.06.03 11:33:40.
