data_PCOD9092571
_publ_section_title
;
Structure prediction by ZEFSAII (Michael W. Deem and Ramdas Pophale) SiO2 
 PCOD9092571
Probable space group: P -1
;
_chemical_formula_sum "Si O2"
_cell_formula_units_Z 16
_cell_length_a 14.597384
_cell_length_b 8.858127
_cell_length_c 10.738034
_cell_angle_alpha 71.910975
_cell_angle_beta 49.850003
_cell_angle_gamma 111.905310
_cell_volume 619.819411
_symmetry_space_group_name_H-M "P -1"
_symmetry_group_IT_number 2
_symmetry_cell_setting 'triclinic'
loop_
_space_group_symop_operation_xyz
x,y,z
-x,-y,-z
loop_
_atom_site_type_symbol
_atom_site_label
_atom_site_fract_x
_atom_site_fract_y
_atom_site_fract_z
Si Si1 0.853872 0.299761 0.322032
Si Si2 0.964577 0.958716 0.687817
Si Si3 0.512913 0.873027 0.920078
Si Si4 0.609394 0.532280 0.703063
Si Si5 0.214439 0.420932 0.694627
Si Si6 0.756082 0.404149 0.010371
Si Si7 0.792559 0.908157 0.076310
Si Si8 0.395984 0.148186 0.516636
O O1 0.789225 0.403818 0.304152
O O2 0.073641 0.539106 0.118429
O O3 0.712144 0.101632 0.610175
O O4 0.803111 0.122628 0.303367
O O5 0.870910 0.688766 0.856903
O O6 0.826779 0.940329 0.889188
O O7 0.000000 0.000000 0.500000
O O8 0.177104 0.204095 0.497638
O O9 0.501598 0.685207 0.039341
O O10 0.333829 0.701341 0.022507
O O11 0.500000 0.000000 0.000000
O O12 0.637925 0.444664 0.583980
O O13 0.548302 0.633709 0.666457
O O14 0.250013 0.318249 0.787520
O O15 0.002928 0.164872 0.885667
O O16 0.567617 0.209283 0.313201
O O17 0.355047 0.141637 0.698631
#
# Coordination Sequence:
#
# PCOD9092571 Si02
#       8
#     2   2   2   2   2   2   2   2
#     4  11  23  41  70 105 144 187 238 297 358 416
#     4  11  21  40  73 108 139 177 234 298 348 424
#     4  11  23  42  67 100 149 194 240 292 358 425
#     4  10  19  41  69 100 139 189 239 288 352 415
#     4   9  19  39  71 101 132 188 239 286 352 423
#     4  11  25  41  64 107 148 179 240 291 354 420
#     4   9  21  42  72 102 137 186 241 288 357 419
#     4  10  23  43  69 103 144 187 240 291 350 427
#
# _framework density 25.813970000000001
#
# number of rings (size 3 to 8) (size 9 to 14) (size 15 to 20)
#    0.000    1.750    3.750    0.750    0.000    4.500 
#    0.000    1.875    2.750    0.000    0.000    0.000 
#    0.000    0.125    0.000    0.000    0.000    0.000 
#
# Total GULP energy -89616.456596 kJ/mol
# GULP energy per Si atom -5601.028537 kJ/mol
# Density = 2.575522 g / cm^3
# Si number density = 25.813970 Si / 1000 Ang^3
#
#
#
# Elastic Constant Matrix: (Units=GPa)
#
#
# Indices 1 2 3 4 5 6 
#
# 1 108.2714 61.7280 53.0119 -3.5445 -4.1517 28.9308
# 2 61.7280 143.8829 45.4686 12.9880 8.6429 24.8424
# 3 53.0119 45.4686 139.9763 5.9293 15.1257 12.7811
# 4 -3.5445 12.9880 5.9293 46.6136 4.2444 12.4113
# 5 -4.1517 8.6429 15.1257 4.2444 45.7286 -8.4699
# 6 28.9308 24.8424 12.7811 12.4113 -8.4699 49.2607
#
#
#
# Elastic Compliance Matrix: (Units=1/GPa)
#
#
# Indices 1 2 3 4 5 6 
#
# 1 0.016254 -0.004997 -0.004355 0.004775 0.002172 -0.006726
# 2 -0.004997 0.010000 -0.000873 -0.002425 -0.002133 -0.001637
# 3 -0.004355 -0.000873 0.009445 -0.001068 -0.003206 0.000266
# 4 0.004775 -0.002425 -0.001068 0.025003 -0.002566 -0.008045
# 5 0.002172 -0.002133 -0.003206 -0.002566 0.024794 0.005542
# 6 -0.006726 -0.001637 0.000266 -0.008045 0.005542 0.027987
#
#
# Mechanical properties :
#
#
# Convention : Reuss Voigt Hill
#
# Bulk Modulus (GPa) = 65.58553 79.17195 72.37874
# Shear Modulus (GPa) = 35.96706 43.78203 39.87455
#
# Velocity S-wave (km/s) = 3.73677 4.12279 3.93452
# Velocity P-wave (km/s) = 6.63928 7.30753 6.98141
#
# Compressibility (1/GPa) = 0.01524727
#
# Stress axis : x y z
#
# Youngs Moduli (GPa) = 61.52169 100.00433 105.88113
#
# Poissons Ratio (x) = 0.49975 0.46116
# Poissons Ratio (y) = 0.30744 0.09242
# Poissons Ratio (z) = 0.26796 0.08729
#
# Static dielectric constant tensor:
#      x y z
#    x 2.101960 -0.024310 -0.024560 
#    y -0.024310 2.028070 0.023190 
#    z -0.024560 0.023190 2.031580 
# 
# From -- ./inp_files/447110.got.cif
#   From: 2010.05.17/outbox.cif.g08.bks.cpg/sg2_224_cif.got.tgz:447110.got - 2010.06.03 11:33:40.
