data_PCOD9092516
_publ_section_title
;
Structure prediction by ZEFSAII (Michael W. Deem and Ramdas Pophale) SiO2 
 PCOD9092516
Probable space group: P -1
;
_chemical_formula_sum "Si O2"
_cell_formula_units_Z 13
_cell_length_a 6.797725
_cell_length_b 17.900747
_cell_length_c 10.071502
_cell_angle_alpha 38.525030
_cell_angle_beta 134.920638
_cell_angle_gamma 129.526532
_cell_volume 530.612903
_symmetry_space_group_name_H-M "P -1"
_symmetry_group_IT_number 2
_symmetry_cell_setting 'triclinic'
loop_
_space_group_symop_operation_xyz
x,y,z
-x,-y,-z
loop_
_atom_site_type_symbol
_atom_site_label
_atom_site_fract_x
_atom_site_fract_y
_atom_site_fract_z
Si Si1 0.811224 0.862898 0.745273
Si Si2 0.293536 0.662046 0.999071
Si Si3 0.844719 0.979610 0.094880
Si Si4 0.500000 0.500000 0.500000
Si Si5 0.799416 0.705568 0.545422
Si Si6 0.708137 0.625534 0.899547
Si Si7 0.357847 0.925173 0.755624
O O1 0.679272 0.721701 0.867832
O O2 0.030545 0.880597 0.700346
O O3 0.608604 0.957402 0.485100
O O4 0.003307 0.910628 0.894676
O O5 0.430755 0.803468 0.894406
O O6 0.091822 0.657470 0.781322
O O7 0.043064 0.617106 0.056946
O O8 0.487618 0.565612 0.254450
O O9 0.869272 0.849881 0.350630
O O10 0.522636 0.966656 0.911777
O O11 0.000000 0.000000 0.000000
O O12 0.633055 0.633770 0.444741
O O13 0.642977 0.679534 0.649436
O O14 0.500000 0.500000 0.000000
#
# Coordination Sequence:
#
# PCOD9092516 Si02
#       7
#     2   2   2   1   2   2   2
#     4  10  20  41  67  87 127 170 205 265 322 356
#     4   9  20  39  66  87 124 166 208 254 311 374
#     4  12  24  39  62 101 127 163 215 261 314 381
#     4  12  20  38  66  92 122 182 194 252 332 372
#     4  10  22  40  62  87 131 165 205 261 311 370
#     4   9  21  43  64  92 121 166 213 256 309 378
#     4  10  19  41  67  89 121 171 213 260 313 371
#
# _framework density 24.499967999999999
#
# number of rings (size 3 to 8) (size 9 to 14) (size 15 to 20)
#    0.923    0.923    3.077    1.846    0.000    1.846 
#    2.769    0.769    0.000    0.000    0.000    0.000 
#    0.000    0.000    0.000    0.000    0.000    0.000 
#
# Total GULP energy -72395.345685 kJ/mol
# GULP energy per Si atom -5568.872745 kJ/mol
# Density = 2.444421 g / cm^3
# Si number density = 24.499968 Si / 1000 Ang^3
#
#
#
# Elastic Constant Matrix: (Units=GPa)
#
#
# Indices 1 2 3 4 5 6 
#
# 1 54.8739 35.1616 7.3167 -7.2323 -17.5345 0.0290
# 2 35.1616 218.5458 45.4962 -17.7111 -8.1209 -19.4182
# 3 7.3167 45.4962 95.9566 -5.1597 -21.9711 6.3387
# 4 -7.2323 -17.7111 -5.1597 52.0519 1.8467 -6.2916
# 5 -17.5345 -8.1209 -21.9711 1.8467 22.0850 -2.7781
# 6 0.0290 -19.4182 6.3387 -6.2916 -2.7781 42.5862
#
#
#
# Elastic Compliance Matrix: (Units=1/GPa)
#
#
# Indices 1 2 3 4 5 6 
#
# 1 0.029914 -0.005135 0.006828 0.001930 0.028337 -0.001245
# 2 -0.005135 0.006493 -0.004072 0.001705 -0.005447 0.003467
# 3 0.006828 -0.004072 0.016636 0.000136 0.020085 -0.003007
# 4 0.001930 0.001705 0.000136 0.020501 0.001065 0.003854
# 5 0.028337 -0.005447 0.020085 0.001065 0.085699 0.000256
# 6 -0.001245 0.003467 -0.003007 0.003854 0.000256 0.026097
#
#
# Mechanical properties :
#
#
# Convention : Reuss Voigt Hill
#
# Bulk Modulus (GPa) = 20.71034 60.59171 40.65103
# Shear Modulus (GPa) = 24.24914 42.10472 33.17693
#
# Velocity S-wave (km/s) = 3.14946 4.15005 3.68389
# Velocity P-wave (km/s) = 4.65801 6.91006 5.89262
#
# Compressibility (1/GPa) = 0.04828505
#
# Stress axis : x y z
#
# Youngs Moduli (GPa) = 33.42965 154.00423 60.11094
#
# Poissons Ratio (x) = 0.79088 -0.41045
# Poissons Ratio (y) = 0.17168 0.24475
# Poissons Ratio (z) = -0.22826 0.62704
#
# Static dielectric constant tensor:
#      x y z
#    x 2.360960 0.272150 0.315980 
#    y 0.272150 2.152970 0.215230 
#    z 0.315980 0.215230 2.277250 
# 
# From -- ./inp_files/404106.got.cif
#   From: 2010.05.17/outbox.cif.g08.bks.cpg/sg2_203_cif.got.tgz:404106.got - 2010.06.03 11:33:40.
