data_PCOD9092331
_publ_section_title
;
Structure prediction by ZEFSAII (Michael W. Deem and Ramdas Pophale) SiO2 
 PCOD9092331
Probable space group: P -1
;
_chemical_formula_sum "Si O2"
_cell_formula_units_Z 14
_cell_length_a 13.528664
_cell_length_b 14.150060
_cell_length_c 7.765674
_cell_angle_alpha 108.300981
_cell_angle_beta 123.140933
_cell_angle_gamma 30.538737
_cell_volume 587.939154
_symmetry_space_group_name_H-M "P -1"
_symmetry_group_IT_number 2
_symmetry_cell_setting 'triclinic'
loop_
_space_group_symop_operation_xyz
x,y,z
-x,-y,-z
loop_
_atom_site_type_symbol
_atom_site_label
_atom_site_fract_x
_atom_site_fract_y
_atom_site_fract_z
Si Si1 0.158680 0.181132 0.752484
Si Si2 0.061485 0.344299 0.407031
Si Si3 0.877877 0.007622 0.266703
Si Si4 0.242821 0.269805 0.171036
Si Si5 0.213081 0.781054 0.157563
Si Si6 0.376211 0.387662 0.384676
Si Si7 0.616262 0.550169 0.972267
O O1 0.199273 0.190705 0.604803
O O2 0.877024 0.402866 0.649742
O O3 0.204308 0.031464 0.736822
O O4 0.711011 0.847141 0.995814
O O5 0.000000 0.500000 0.500000
O O6 0.193842 0.255122 0.299654
O O7 0.818290 0.463124 0.211757
O O8 0.645617 0.228056 0.088956
O O9 0.000000 0.000000 0.500000
O O10 0.078774 0.830009 0.221102
O O11 0.406715 0.246156 0.339075
O O12 0.000000 0.500000 0.000000
O O13 0.418326 0.703046 0.375272
O O14 0.321719 0.611464 0.055524
O O15 0.000000 0.000000 0.000000
O O16 0.376025 0.422163 0.205431
#
# Coordination Sequence:
#
# PCOD9092331 Si02
#       7
#     2   2   2   2   2   2   2
#     4  11  23  43  73 103 146 187 235 298 357 423
#     4  12  22  40  74 110 139 185 246 291 354 430
#     4  12  26  46  70 102 142 188 242 289 356 430
#     4  10  19  40  73 103 143 191 227 295 364 414
#     4  12  28  46  69 106 143 185 240 300 357 425
#     4  11  20  44  72  97 143 193 227 287 366 413
#     4  12  25  45  73 100 143 191 235 293 365 421
#
# _framework density 23.811989000000001
#
# number of rings (size 3 to 8) (size 9 to 14) (size 15 to 20)
#    0.000    0.571    8.571    1.286    4.000    0.571 
#    0.000    4.286    0.000    6.000    0.000    0.000 
#    0.000    0.000    0.000    0.000    0.000    0.000 
#
# Total GULP energy -78461.257209 kJ/mol
# GULP energy per Si atom -5604.375515 kJ/mol
# Density = 2.375779 g / cm^3
# Si number density = 23.811989 Si / 1000 Ang^3
#
#
#
# Elastic Constant Matrix: (Units=GPa)
#
#
# Indices 1 2 3 4 5 6 
#
# 1 130.5033 66.6746 61.8266 9.8228 -1.7276 18.0228
# 2 66.6746 146.1797 67.3780 3.0272 14.8753 20.9643
# 3 61.8266 67.3780 173.9194 16.4568 28.6905 21.1502
# 4 9.8228 3.0272 16.4568 35.9024 -0.1836 10.7492
# 5 -1.7276 14.8753 28.6905 -0.1836 50.6884 10.4030
# 6 18.0228 20.9643 21.1502 10.7492 10.4030 59.5529
#
#
#
# Elastic Compliance Matrix: (Units=1/GPa)
#
#
# Indices 1 2 3 4 5 6 
#
# 1 0.011353 -0.004022 -0.002768 -0.001048 0.003427 -0.001446
# 2 -0.004022 0.010023 -0.002173 0.001718 -0.001517 -0.001585
# 3 -0.002768 -0.002173 0.008584 -0.002968 -0.004293 -0.000160
# 4 -0.001048 0.001718 -0.002968 0.030931 0.002324 -0.005223
# 5 0.003427 -0.001517 -0.004293 0.002324 0.023446 -0.003493
# 6 -0.001446 -0.001585 -0.000160 -0.005223 -0.003493 0.019397
#
#
# Mechanical properties :
#
#
# Convention : Reuss Voigt Hill
#
# Bulk Modulus (GPa) = 83.09479 93.59563 88.34521
# Shear Modulus (GPa) = 39.78644 46.21026 42.99835
#
# Velocity S-wave (km/s) = 4.09205 4.41004 4.25401
# Velocity P-wave (km/s) = 7.56957 8.08224 7.83010
#
# Compressibility (1/GPa) = 0.01203445
#
# Stress axis : x y z
#
# Youngs Moduli (GPa) = 88.08415 99.77139 116.49396
#
# Poissons Ratio (x) = 0.40127 0.32245
# Poissons Ratio (y) = 0.35427 0.25312
# Poissons Ratio (z) = 0.24381 0.21678
#
# Static dielectric constant tensor:
#      x y z
#    x 1.938000 -0.058650 -0.025340 
#    y -0.058650 1.953150 -0.026350 
#    z -0.025340 -0.026350 1.860540 
# 
# From -- ./inp_files/315694.got.cif
#   From: 2010.05.17/outbox.cif.g08.bks.cpg/sg2_158_cif.got.tgz:315694.got - 2010.06.03 11:33:40.
