data_PCOD9092389
_publ_section_title
;
Structure prediction by ZEFSAII (Michael W. Deem and Ramdas Pophale) SiO2 
 PCOD9092389
Probable space group: P -1
;
_chemical_formula_sum "Si O2"
_cell_formula_units_Z 14
_cell_length_a 11.528208
_cell_length_b 11.815254
_cell_length_c 14.412406
_cell_angle_alpha 153.364786
_cell_angle_beta 42.645897
_cell_angle_gamma 126.861687
_cell_volume 585.393654
_symmetry_space_group_name_H-M "P -1"
_symmetry_group_IT_number 2
_symmetry_cell_setting 'triclinic'
loop_
_space_group_symop_operation_xyz
x,y,z
-x,-y,-z
loop_
_atom_site_type_symbol
_atom_site_label
_atom_site_fract_x
_atom_site_fract_y
_atom_site_fract_z
Si Si1 0.893302 0.898755 0.408083
Si Si2 0.737148 0.036955 0.243050
Si Si3 0.935111 0.064827 0.306699
Si Si4 0.731787 0.550838 0.363280
Si Si5 0.771703 0.618007 0.605531
Si Si6 0.412420 0.789681 0.281440
Si Si7 0.627136 0.059668 0.124707
O O1 0.853227 0.632868 0.273661
O O2 0.972118 0.909366 0.267310
O O3 0.707687 0.093769 0.649029
O O4 0.000000 0.000000 0.500000
O O5 0.902547 0.918979 0.123848
O O6 0.751916 0.335543 0.441340
O O7 0.729464 0.948368 0.075612
O O8 0.560946 0.959416 0.330137
O O9 0.732307 0.200164 0.545932
O O10 0.059397 0.271939 0.379102
O O11 0.777321 0.620854 0.492798
O O12 0.726484 0.250578 0.148817
O O13 0.542858 0.734819 0.594014
O O14 0.612098 0.824352 0.894311
O O15 0.500000 0.500000 0.000000
#
# Coordination Sequence:
#
# PCOD9092389 Si02
#       7
#     2   2   2   2   2   2   2
#     4  10  20  41  70  88 135 169 213 280 333 372
#     4  11  23  42  65  95 132 171 220 272 318 405
#     4  10  23  41  65  94 135 171 217 277 327 389
#     4  10  19  41  62  95 126 170 222 273 320 392
#     4  11  23  41  65  95 135 172 218 272 334 387
#     4  10  23  43  70  97 128 176 222 266 331 395
#     4  10  22  37  66  93 129 174 217 266 331 391
#
# _framework density 23.91553
#
# number of rings (size 3 to 8) (size 9 to 14) (size 15 to 20)
#    0.857    0.857    2.857    1.286    2.000    0.571 
#    7.714    2.143    0.000    0.000    0.000    0.000 
#    0.000    0.000    0.000    0.000    0.000    0.000 
#
# Total GULP energy -78132.871226 kJ/mol
# GULP energy per Si atom -5580.919373 kJ/mol
# Density = 2.386110 g / cm^3
# Si number density = 23.915530 Si / 1000 Ang^3
#
#
#
# Elastic Constant Matrix: (Units=GPa)
#
#
# Indices 1 2 3 4 5 6 
#
# 1 150.5830 37.5065 15.3257 6.2723 -2.0085 -3.5749
# 2 37.5065 151.5403 22.2084 -0.6909 1.6320 -1.2768
# 3 15.3257 22.2084 72.8828 9.6765 11.0163 -1.4218
# 4 6.2723 -0.6909 9.6765 31.6465 3.1766 0.2263
# 5 -2.0085 1.6320 11.0163 3.1766 14.5039 -7.5412
# 6 -3.5749 -1.2768 -1.4218 0.2263 -7.5412 48.9590
#
#
#
# Elastic Compliance Matrix: (Units=1/GPa)
#
#
# Indices 1 2 3 4 5 6 
#
# 1 0.007301 -0.001651 -0.001274 -0.001396 0.002945 0.000913
# 2 -0.001651 0.007313 -0.002072 0.001089 0.000311 0.000053
# 3 -0.001274 -0.002072 0.017031 -0.003692 -0.012915 -0.001625
# 4 -0.001396 0.001089 -0.003692 0.033587 -0.005481 -0.001180
# 5 0.002945 0.000311 -0.012915 -0.005481 0.087252 0.013313
# 6 0.000913 0.000053 -0.001625 -0.001180 0.013313 0.022502
#
#
# Mechanical properties :
#
#
# Convention : Reuss Voigt Hill
#
# Bulk Modulus (GPa) = 46.18746 58.34302 52.26524
# Shear Modulus (GPa) = 26.01514 39.01958 32.51736
#
# Velocity S-wave (km/s) = 3.30175 4.04364 3.69138
# Velocity P-wave (km/s) = 5.82152 6.80072 6.33008
#
# Compressibility (1/GPa) = 0.02165090
#
# Stress axis : x y z
#
# Youngs Moduli (GPa) = 136.97211 136.74055 58.71806
#
# Poissons Ratio (x) = 0.22570 0.07482
# Poissons Ratio (y) = 0.22608 0.12166
# Poissons Ratio (z) = 0.17454 0.28331
#
# Static dielectric constant tensor:
#      x y z
#    x 2.034090 -0.034600 -0.043590 
#    y -0.034600 1.942130 -0.079210 
#    z -0.043590 -0.079210 1.933710 
# 
# From -- ./inp_files/519312.got.cif
#   From: 2010.05.17/outbox.cif.g08.bks.cpg/sg2_260_cif.got.tgz:519312.got - 2010.06.03 11:33:40.
