data_PCOD9092036
_publ_section_title
;
Structure prediction by ZEFSAII (Michael W. Deem and Ramdas Pophale) SiO2 
 PCOD9092036
Probable space group: P -1
;
_chemical_formula_sum "Si O2"
_cell_formula_units_Z 14
_cell_length_a 8.139984
_cell_length_b 8.239274
_cell_length_c 14.095756
_cell_angle_alpha 139.317958
_cell_angle_beta 113.052337
_cell_angle_gamma 51.532167
_cell_volume 476.506223
_symmetry_space_group_name_H-M "P -1"
_symmetry_group_IT_number 2
_symmetry_cell_setting 'triclinic'
loop_
_space_group_symop_operation_xyz
x,y,z
-x,-y,-z
loop_
_atom_site_type_symbol
_atom_site_label
_atom_site_fract_x
_atom_site_fract_y
_atom_site_fract_z
Si Si1 0.235024 0.533862 0.669700
Si Si2 0.973203 0.817378 0.056765
Si Si3 0.873252 0.452806 0.555799
Si Si4 0.096439 0.215627 0.762727
Si Si5 0.559674 0.573577 0.923630
Si Si6 0.477651 0.917332 0.237691
Si Si7 0.682445 0.378838 0.668884
O O1 0.148799 0.666823 0.602484
O O2 0.487928 0.333418 0.614819
O O3 0.107212 0.381108 0.601522
O O4 0.145069 0.840077 0.845432
O O5 0.862604 0.814247 0.128383
O O6 0.214620 0.665540 0.080934
O O7 0.991789 0.570358 0.880494
O O8 0.730759 0.451855 0.609026
O O9 0.741088 0.804825 0.656764
O O10 0.326905 0.040315 0.691879
O O11 0.925810 0.146482 0.655086
O O12 0.454945 0.379471 0.821010
O O13 0.601738 0.615940 0.843884
O O14 0.455960 0.846407 0.091719
#
# Coordination Sequence:
#
# PCOD9092036 Si02
#       7
#     2   2   2   2   2   2   2
#     4  11  24  43  64  85 130 169 212 248 308 374
#     4   9  17  39  61  90 121 167 196 250 308 377
#     4  11  25  43  64  89 122 176 211 246 309 374
#     4   9  20  34  66  94 121 153 207 253 318 360
#     4   9  20  37  65  93 121 158 204 259 311 355
#     4  10  19  40  65  90 123 165 204 245 311 380
#     4  11  24  41  62  97 128 155 208 268 307 360
#
# _framework density 29.380516
#
# number of rings (size 3 to 8) (size 9 to 14) (size 15 to 20)
#    0.000    2.000    1.429    2.143    2.000    2.286 
#    0.000    8.571    0.000    0.000    0.000    0.000 
#    0.000    0.000    0.000    0.000    0.000    0.000 
#
# Total GULP energy -78276.408260 kJ/mol
# GULP energy per Si atom -5591.172019 kJ/mol
# Density = 2.931364 g / cm^3
# Si number density = 29.380516 Si / 1000 Ang^3
#
#
#
# Elastic Constant Matrix: (Units=GPa)
#
#
# Indices 1 2 3 4 5 6 
#
# 1 219.6784 21.0250 32.3390 -12.3241 5.1088 -30.1805
# 2 21.0250 74.4398 6.2119 -4.8926 -1.3354 -6.5597
# 3 32.3390 6.2119 110.6329 2.0825 -20.7455 16.9792
# 4 -12.3241 -4.8926 2.0825 30.7040 6.9142 -6.8471
# 5 5.1088 -1.3354 -20.7455 6.9142 53.9388 -9.3808
# 6 -30.1805 -6.5597 16.9792 -6.8471 -9.3808 55.3443
#
#
#
# Elastic Compliance Matrix: (Units=1/GPa)
#
#
# Indices 1 2 3 4 5 6 
#
# 1 0.005807 -0.000853 -0.002590 0.003576 -0.001316 0.004079
# 2 -0.000853 0.014054 -0.000832 0.002320 0.000118 0.001763
# 3 -0.002590 -0.000832 0.011461 -0.003988 0.004311 -0.004790
# 4 0.003576 0.002320 -0.003988 0.037453 -0.005369 0.007173
# 5 -0.001316 0.000118 0.004311 -0.005369 0.021170 0.000898
# 6 0.004079 0.001763 -0.004790 0.007173 0.000898 0.023011
#
#
# Mechanical properties :
#
#
# Convention : Reuss Voigt Hill
#
# Bulk Modulus (GPa) = 43.91216 58.21144 51.06180
# Shear Modulus (GPa) = 38.73098 51.00908 44.87003
#
# Velocity S-wave (km/s) = 3.63472 4.17124 3.91218
# Velocity P-wave (km/s) = 5.70906 6.56162 6.15013
#
# Compressibility (1/GPa) = 0.02277273
#
# Stress axis : x y z
#
# Youngs Moduli (GPa) = 172.21637 71.15433 87.25148
#
# Poissons Ratio (x) = 0.06070 0.22595
# Poissons Ratio (y) = 0.14691 0.07258
# Poissons Ratio (z) = 0.44597 0.05919
#
# Static dielectric constant tensor:
#      x y z
#    x 2.373470 0.011070 0.162160 
#    y 0.011070 2.321060 -0.049950 
#    z 0.162160 -0.049950 2.362410 
# 
# From -- ./inp_files/493923.got.cif
#   From: 2010.05.17/outbox.cif.g08.bks.cpg/sg2_247_cif.got.tgz:493923.got - 2010.06.03 11:33:40.
