data_PCOD9092437
_publ_section_title
;
Structure prediction by ZEFSAII (Michael W. Deem and Ramdas Pophale) SiO2 
 PCOD9092437
Probable space group: P -1
;
_chemical_formula_sum "Si O2"
_cell_formula_units_Z 16
_cell_length_a 15.563115
_cell_length_b 13.081984
_cell_length_c 15.340452
_cell_angle_alpha 146.346612
_cell_angle_beta 27.698177
_cell_angle_gamma 127.711213
_cell_volume 702.841929
_symmetry_space_group_name_H-M "P -1"
_symmetry_group_IT_number 2
_symmetry_cell_setting 'triclinic'
loop_
_space_group_symop_operation_xyz
x,y,z
-x,-y,-z
loop_
_atom_site_type_symbol
_atom_site_label
_atom_site_fract_x
_atom_site_fract_y
_atom_site_fract_z
Si Si1 0.451489 0.326937 0.300433
Si Si2 0.922776 0.804596 0.225480
Si Si3 0.049911 0.639960 0.822351
Si Si4 0.241521 0.452330 0.254815
Si Si5 0.351377 0.367730 0.897330
Si Si6 0.343947 0.405859 0.639281
Si Si7 0.786344 0.204020 0.360238
Si Si8 0.393672 0.775579 0.099867
O O1 0.473282 0.264169 0.338459
O O2 0.510473 0.517183 0.388113
O O3 0.200484 0.419068 0.577257
O O4 0.567810 0.196228 0.017148
O O5 0.757156 0.714298 0.303953
O O6 0.805067 0.016707 0.536149
O O7 0.983312 0.820456 0.082929
O O8 0.138124 0.625548 0.949487
O O9 0.205569 0.643222 0.612306
O O10 0.846504 0.650174 0.970384
O O11 0.221555 0.676784 0.459246
O O12 0.000000 0.500000 0.500000
O O13 0.341063 0.379086 0.018822
O O14 0.400383 0.287091 0.067190
O O15 0.577586 0.183338 0.530532
O O16 0.346096 0.580660 0.017480
O O17 0.000000 0.000000 0.000000
#
# Coordination Sequence:
#
# PCOD9092437 Si02
#       8
#     2   2   2   2   2   2   2   2
#     4  10  19  41  65  84 122 160 202 250 313 375
#     4  10  23  38  62  94 121 158 208 254 314 373
#     4  11  22  41  62  90 125 166 208 248 303 370
#     4  11  22  43  59  89 130 168 204 254 306 354
#     4  11  23  42  64  86 132 171 199 259 305 353
#     4   9  21  42  62  87 124 161 192 264 322 363
#     4  11  24  38  61  93 121 168 212 252 303 363
#     4  11  22  38  63  93 119 162 210 252 302 371
#
# _framework density 22.764721999999999
#
# number of rings (size 3 to 8) (size 9 to 14) (size 15 to 20)
#    0.000    1.500    3.750    2.250    3.500    2.500 
#    0.000    5.000    0.000    0.000    0.000    0.000 
#    0.000    0.000    0.000    0.000    0.000    0.000 
#
# Total GULP energy -89276.909096 kJ/mol
# GULP energy per Si atom -5579.806819 kJ/mol
# Density = 2.271291 g / cm^3
# Si number density = 22.764722 Si / 1000 Ang^3
#
#
#
# Elastic Constant Matrix: (Units=GPa)
#
#
# Indices 1 2 3 4 5 6 
#
# 1 98.8925 13.6530 47.5462 -16.8257 18.6950 12.4992
# 2 13.6530 39.8855 14.8851 -28.3703 -9.0033 8.1264
# 3 47.5462 14.8851 148.9124 -23.4984 29.5364 -4.0029
# 4 -16.8257 -28.3703 -23.4984 41.4303 -1.5677 -5.3963
# 5 18.6950 -9.0033 29.5364 -1.5677 36.5079 -13.3477
# 6 12.4992 8.1264 -4.0029 -5.3963 -13.3477 25.1718
#
#
#
# Elastic Compliance Matrix: (Units=1/GPa)
#
#
# Indices 1 2 3 4 5 6 
#
# 1 0.015932 -0.004904 -0.002642 -0.000576 -0.012117 -0.013297
# 2 -0.004904 0.059439 -0.002582 0.038424 0.021888 0.002679
# 3 -0.002642 -0.002582 0.009533 0.002398 -0.006658 0.000645
# 4 -0.000576 0.038424 0.002398 0.052841 0.012343 0.006136
# 5 -0.012117 0.021888 -0.006658 0.012343 0.055955 0.030209
# 6 -0.013297 0.002679 0.000645 0.006136 0.030209 0.062902
#
#
# Mechanical properties :
#
#
# Convention : Reuss Voigt Hill
#
# Bulk Modulus (GPa) = 15.46787 48.87322 32.17055
# Shear Modulus (GPa) = 16.75557 34.72907 25.74232
#
# Velocity S-wave (km/s) = 2.71593 3.91009 3.36638
# Velocity P-wave (km/s) = 4.07976 6.47306 5.41040
#
# Compressibility (1/GPa) = 0.06465015
#
# Stress axis : x y z
#
# Youngs Moduli (GPa) = 62.76517 16.82384 104.89511
#
# Poissons Ratio (x) = 0.08250 0.27712
# Poissons Ratio (y) = 0.30778 0.27083
# Poissons Ratio (z) = 0.16582 0.04344
#
# Static dielectric constant tensor:
#      x y z
#    x 1.923780 -0.071930 -0.050500 
#    y -0.071930 1.913690 0.049020 
#    z -0.050500 0.049020 1.900770 
# 
# From -- ./inp_files/329584.got.cif
#   From: 2010.05.17/outbox.cif.g08.bks.cpg/sg2_165_cif.got.tgz:329584.got - 2010.06.03 11:33:40.
