data_PCOD9092262
_publ_section_title
;
Structure prediction by ZEFSAII (Michael W. Deem and Ramdas Pophale) SiO2 
 PCOD9092262
Probable space group: P -1
;
_chemical_formula_sum "Si O2"
_cell_formula_units_Z 13
_cell_length_a 13.832472
_cell_length_b 9.264855
_cell_length_c 8.791738
_cell_angle_alpha 137.142987
_cell_angle_beta 54.356339
_cell_angle_gamma 137.152869
_cell_volume 518.653053
_symmetry_space_group_name_H-M "P -1"
_symmetry_group_IT_number 2
_symmetry_cell_setting 'triclinic'
loop_
_space_group_symop_operation_xyz
x,y,z
-x,-y,-z
loop_
_atom_site_type_symbol
_atom_site_label
_atom_site_fract_x
_atom_site_fract_y
_atom_site_fract_z
Si Si1 0.507982 0.760929 0.670532
Si Si2 0.069974 0.793114 0.136129
Si Si3 0.287123 0.557802 0.475007
Si Si4 0.293078 0.988661 0.606997
Si Si5 0.044478 0.898336 0.577535
Si Si6 0.500000 0.500000 0.000000
Si Si7 0.377540 0.158091 0.049486
O O1 0.500000 0.500000 0.500000
O O2 0.355357 0.667410 0.663152
O O3 0.617416 0.924945 0.564180
O O4 0.568230 0.879091 0.870758
O O5 0.108948 0.918213 0.365841
O O6 0.213490 0.934632 0.015112
O O7 0.961588 0.853902 0.209247
O O8 0.000000 0.500000 0.000000
O O9 0.371856 0.422637 0.236647
O O10 0.120901 0.336275 0.460764
O O11 0.306149 0.783731 0.530474
O O12 0.131783 0.873352 0.610424
O O13 0.356091 0.248857 0.844294
O O14 0.509147 0.274721 0.906665
#
# Coordination Sequence:
#
# PCOD9092262 Si02
#       7
#     2   2   2   2   2   1   2
#     4  10  19  40  69  86 128 178 221 266 337 406
#     4  10  22  43  70 105 133 177 232 282 335 412
#     4  10  22  41  71  94 128 179 228 274 338 412
#     4  12  23  43  65  97 136 180 224 276 347 403
#     4  10  23  43  71  97 139 180 224 281 343 404
#     4  12  26  38  64  96 144 164 226 288 336 390
#     4  10  22  44  65  97 134 174 225 287 334 403
#
# _framework density 25.064923
#
# number of rings (size 3 to 8) (size 9 to 14) (size 15 to 20)
#    0.000    1.538    4.615    0.923    4.308    0.000 
#    5.538    2.308    0.000    0.000    0.000    0.000 
#    0.000    0.000    0.000    0.000    0.000    0.000 
#
# Total GULP energy -72493.789983 kJ/mol
# GULP energy per Si atom -5576.445383 kJ/mol
# Density = 2.500787 g / cm^3
# Si number density = 25.064923 Si / 1000 Ang^3
#
#
#
# Elastic Constant Matrix: (Units=GPa)
#
#
# Indices 1 2 3 4 5 6 
#
# 1 194.8537 62.8297 53.5763 12.3826 3.1594 -17.7503
# 2 62.8297 185.2501 31.4041 14.2616 -8.4614 -17.3925
# 3 53.5763 31.4041 77.0023 0.8618 0.0009 -5.5266
# 4 12.3826 14.2616 0.8618 34.0652 -7.4805 5.3058
# 5 3.1594 -8.4614 0.0009 -7.4805 47.1995 5.8743
# 6 -17.7503 -17.3925 -5.5266 5.3058 5.8743 54.0209
#
#
#
# Elastic Compliance Matrix: (Units=1/GPa)
#
#
# Indices 1 2 3 4 5 6 
#
# 1 0.007081 -0.001388 -0.004201 -0.002468 -0.001343 0.001838
# 2 -0.001388 0.006489 -0.001539 -0.002274 0.000694 0.001624
# 3 -0.004201 -0.001539 0.016486 0.001897 0.000357 -0.000414
# 4 -0.002468 -0.002274 0.001897 0.033216 0.005673 -0.005228
# 5 -0.001343 0.000694 0.000357 0.005673 0.022699 -0.003207
# 6 0.001838 0.001624 -0.000414 -0.005228 -0.003207 0.020458
#
#
# Mechanical properties :
#
#
# Convention : Reuss Voigt Hill
#
# Bulk Modulus (GPa) = 63.28960 83.63627 73.46293
# Shear Modulus (GPa) = 39.69801 47.67686 43.68744
#
# Velocity S-wave (km/s) = 3.98403 4.36608 4.17942
# Velocity P-wave (km/s) = 6.81677 7.67184 7.25691
#
# Compressibility (1/GPa) = 0.01580039
#
# Stress axis : x y z
#
# Youngs Moduli (GPa) = 141.22773 154.10953 60.65735
#
# Poissons Ratio (x) = 0.21393 0.25482
# Poissons Ratio (y) = 0.19604 0.09333
# Poissons Ratio (z) = 0.59329 0.23711
#
# Static dielectric constant tensor:
#      x y z
#    x 2.010690 -0.062720 0.037100 
#    y -0.062720 2.689420 -0.679130 
#    z 0.037100 -0.679130 2.876510 
# 
# From -- ./inp_files/241311.got.cif
#   From: 2010.05.17/outbox.cif.g08.bks.cpg/sg2_121_cif.got.tgz:241311.got - 2010.06.03 11:33:40.
