data_PCOD9092642
_publ_section_title
;
Structure prediction by ZEFSAII (Michael W. Deem and Ramdas Pophale) SiO2 
 PCOD9092642
Probable space group: P -1
;
_chemical_formula_sum "Si O2"
_cell_formula_units_Z 16
_cell_length_a 9.463136
_cell_length_b 9.632023
_cell_length_c 10.613655
_cell_angle_alpha 113.428393
_cell_angle_beta 118.126457
_cell_angle_gamma 49.898952
_cell_volume 646.247471
_symmetry_space_group_name_H-M "P -1"
_symmetry_group_IT_number 2
_symmetry_cell_setting 'triclinic'
loop_
_space_group_symop_operation_xyz
x,y,z
-x,-y,-z
loop_
_atom_site_type_symbol
_atom_site_label
_atom_site_fract_x
_atom_site_fract_y
_atom_site_fract_z
Si Si1 0.647100 0.044018 0.627358
Si Si2 0.719167 0.814008 0.807883
Si Si3 0.951747 0.127083 0.405366
Si Si4 0.546286 0.391017 0.802090
Si Si5 0.419527 0.798741 0.838023
Si Si6 0.942065 0.400690 0.671387
Si Si7 0.923233 0.329417 0.926933
Si Si8 0.680188 0.677021 0.119056
O O1 0.675738 0.977762 0.759540
O O2 0.853876 0.938531 0.610775
O O3 0.500000 0.000000 0.500000
O O4 0.545870 0.260495 0.651876
O O5 0.529472 0.828473 0.784168
O O6 0.839829 0.619699 0.710363
O O7 0.862035 0.790419 0.971647
O O8 0.805048 0.107148 0.251376
O O9 0.874041 0.325930 0.504904
O O10 0.000000 0.000000 0.500000
O O11 0.490001 0.586213 0.802014
O O12 0.774737 0.280283 0.894581
O O13 0.407599 0.407351 0.860664
O O14 0.504037 0.827602 0.012094
O O15 0.905640 0.348482 0.776016
O O16 0.178003 0.294111 0.728797
O O17 0.830085 0.528191 0.025185
#
# Coordination Sequence:
#
# PCOD9092642 Si02
#       8
#     2   2   2   2   2   2   2   2
#     4  12  29  49  64  99 150 181 228 287 343 409
#     4  11  23  42  74 101 136 181 230 284 347 408
#     4  12  29  46  68 103 143 179 233 287 338 406
#     4  11  24  42  73 101 140 182 226 285 346 404
#     4  11  23  45  74 103 135 179 236 282 341 413
#     4  11  21  43  73  99 137 188 225 276 347 416
#     4  10  19  41  72 106 135 172 236 282 339 415
#     4  10  20  40  70 106 135 173 232 287 334 411
#
# _framework density 24.758316000000001
#
# number of rings (size 3 to 8) (size 9 to 14) (size 15 to 20)
#    0.000    1.000    3.750    4.500    7.000    1.500 
#    2.250    1.250    0.000    0.000    0.000    0.000 
#    0.000    0.000    0.000    0.000    0.000    0.000 
#
# Total GULP energy -89532.559741 kJ/mol
# GULP energy per Si atom -5595.784984 kJ/mol
# Density = 2.470197 g / cm^3
# Si number density = 24.758316 Si / 1000 Ang^3
#
#
#
# Elastic Constant Matrix: (Units=GPa)
#
#
# Indices 1 2 3 4 5 6 
#
# 1 193.9884 17.7573 34.1887 -12.0960 13.8504 3.2340
# 2 17.7573 80.4655 7.4863 10.0059 2.1676 6.7704
# 3 34.1887 7.4863 80.0331 4.9935 18.3317 -11.1221
# 4 -12.0960 10.0059 4.9935 36.3726 -8.4753 1.9271
# 5 13.8504 2.1676 18.3317 -8.4753 45.2729 -4.9349
# 6 3.2340 6.7704 -11.1221 1.9271 -4.9349 34.4473
#
#
#
# Elastic Compliance Matrix: (Units=1/GPa)
#
#
# Indices 1 2 3 4 5 6 
#
# 1 0.005965 -0.001276 -0.002720 0.002710 -0.000306 -0.001383
# 2 -0.001276 0.013536 -0.000577 -0.004184 -0.001096 -0.002650
# 3 -0.002720 -0.000577 0.016052 -0.004601 -0.005961 0.004955
# 4 0.002710 -0.004184 -0.004601 0.031903 0.007022 -0.001697
# 5 -0.000306 -0.001096 -0.005961 0.007022 0.026145 0.001672
# 6 -0.001383 -0.002650 0.004955 -0.001697 0.001672 0.031615
#
#
# Mechanical properties :
#
#
# Convention : Reuss Voigt Hill
#
# Bulk Modulus (GPa) = 37.86974 52.59461 45.23218
# Shear Modulus (GPa) = 34.92510 42.88885 38.90698
#
# Velocity S-wave (km/s) = 3.75992 4.16661 3.96848
# Velocity P-wave (km/s) = 5.84623 6.66609 6.26958
#
# Compressibility (1/GPa) = 0.02640631
#
# Stress axis : x y z
#
# Youngs Moduli (GPa) = 167.64521 73.87892 62.29814
#
# Poissons Ratio (x) = 0.09425 0.16945
# Poissons Ratio (y) = 0.21387 0.03597
# Poissons Ratio (z) = 0.45600 0.04265
#
# Static dielectric constant tensor:
#      x y z
#    x 1.959220 -0.080230 0.030380 
#    y -0.080230 2.092350 0.029000 
#    z 0.030380 0.029000 2.015780 
# 
# From -- ./inp_files/299174.got.cif
#   From: 2010.05.17/outbox.cif.g08.bks.cpg/sg2_150_cif.got.tgz:299174.got - 2010.06.03 11:33:40.
