data_PCOD9092116
_publ_section_title
;
Structure prediction by ZEFSAII (Michael W. Deem and Ramdas Pophale) SiO2 
 PCOD9092116
Probable space group: P -1
;
_chemical_formula_sum "Si O2"
_cell_formula_units_Z 12
_cell_length_a 10.623946
_cell_length_b 8.161010
_cell_length_c 10.201750
_cell_angle_alpha 133.762018
_cell_angle_beta 97.395174
_cell_angle_gamma 110.174612
_cell_volume 504.004144
_symmetry_space_group_name_H-M "P -1"
_symmetry_group_IT_number 2
_symmetry_cell_setting 'triclinic'
loop_
_space_group_symop_operation_xyz
x,y,z
-x,-y,-z
loop_
_atom_site_type_symbol
_atom_site_label
_atom_site_fract_x
_atom_site_fract_y
_atom_site_fract_z
Si Si1 0.189774 0.333815 0.605475
Si Si2 0.665612 0.860476 0.287447
Si Si3 0.970376 0.493016 0.646577
Si Si4 0.224413 0.290233 0.300035
Si Si5 0.002327 0.239994 0.885659
Si Si6 0.348676 0.450283 0.130121
O O1 0.289906 0.316266 0.719939
O O2 0.278705 0.442944 0.535121
O O3 0.113945 0.492976 0.721227
O O4 0.047133 0.001146 0.363509
O O5 0.498653 0.757058 0.269419
O O6 0.807849 0.191763 0.502189
O O7 0.646479 0.768859 0.082505
O O8 0.921019 0.702174 0.759704
O O9 0.000000 0.500000 0.500000
O O10 0.346301 0.409812 0.263222
O O11 0.140240 0.962800 0.142485
O O12 0.000000 0.500000 0.000000
O O13 0.178884 0.373161 0.028991
#
# Coordination Sequence:
#
# PCOD9092116 Si02
#       6
#     2   2   2   2   2   2
#     4   9  21  40  65  91 119 168 211 243 302 372
#     4  11  23  40  62  93 129 165 200 254 314 361
#     4  10  19  40  66  92 121 162 211 249 298 373
#     4   9  22  39  67  91 120 164 211 252 301 365
#     4  10  22  41  65  93 121 162 211 257 301 364
#     4  11  23  40  61  94 132 157 203 258 313 361
#
# _framework density 23.809325999999999
#
# number of rings (size 3 to 8) (size 9 to 14) (size 15 to 20)
#    1.000    1.000    1.667    1.000    2.333    1.333 
#    0.000    1.667    0.000   15.000    0.000    0.000 
#    0.000    0.000    0.000    0.000    0.000    0.000 
#
# Total GULP energy -66931.198738 kJ/mol
# GULP energy per Si atom -5577.599895 kJ/mol
# Density = 2.375514 g / cm^3
# Si number density = 23.809326 Si / 1000 Ang^3
#
#
#
# Elastic Constant Matrix: (Units=GPa)
#
#
# Indices 1 2 3 4 5 6 
#
# 1 61.1328 35.6677 30.9522 11.8409 -8.8579 6.9544
# 2 35.6677 137.4771 31.0298 -6.0921 -19.9232 30.1050
# 3 30.9522 31.0298 55.5940 -10.3835 -18.1792 2.2696
# 4 11.8409 -6.0921 -10.3835 38.0796 1.4929 -8.8596
# 5 -8.8579 -19.9232 -18.1792 1.4929 39.7637 6.7554
# 6 6.9544 30.1050 2.2696 -8.8596 6.7554 44.2596
#
#
#
# Elastic Compliance Matrix: (Units=1/GPa)
#
#
# Indices 1 2 3 4 5 6 
#
# 1 0.031784 -0.004092 -0.019125 -0.016636 -0.002376 -0.004198
# 2 -0.004092 0.011166 -0.001874 0.000601 0.005080 -0.007511
# 3 -0.019125 -0.001874 0.035705 0.015962 0.009821 0.004145
# 4 -0.016636 0.000601 0.015962 0.037898 0.000971 0.008825
# 5 -0.002376 0.005080 0.009821 0.000971 0.033051 -0.008436
# 6 -0.004198 -0.007511 0.004145 0.008825 -0.008436 0.031204
#
#
# Mechanical properties :
#
#
# Convention : Reuss Voigt Hill
#
# Bulk Modulus (GPa) = 35.12032 49.94481 42.53257
# Shear Modulus (GPa) = 20.79168 34.85749 27.82459
#
# Velocity S-wave (km/s) = 2.95830 3.83041 3.42225
# Velocity P-wave (km/s) = 5.14309 6.37066 5.78950
#
# Compressibility (1/GPa) = 0.02847354
#
# Stress axis : x y z
#
# Youngs Moduli (GPa) = 31.46254 89.55605 28.00729
#
# Poissons Ratio (x) = 0.36644 0.53563
# Poissons Ratio (y) = 0.12874 0.05249
# Poissons Ratio (z) = 0.60171 0.16785
#
# Static dielectric constant tensor:
#      x y z
#    x 1.889270 0.016830 -0.041650 
#    y 0.016830 2.013980 -0.087880 
#    z -0.041650 -0.087880 2.017090 
# 
# From -- ./inp_files/418411.got.cif
#   From: 2010.05.17/outbox.cif.g08.bks.cpg/sg2_210_cif.got.tgz:418411.got - 2010.06.03 11:33:40.
