data_PCOD9092851
_publ_section_title
;
Structure prediction by ZEFSAII (Michael W. Deem and Ramdas Pophale) SiO2 
 PCOD9092851
Probable space group: P -1
;
_chemical_formula_sum "Si O2"
_cell_formula_units_Z 14
_cell_length_a 9.770956
_cell_length_b 12.784951
_cell_length_c 7.617916
_cell_angle_alpha 131.000371
_cell_angle_beta 118.708609
_cell_angle_gamma 78.875942
_cell_volume 619.091780
_symmetry_space_group_name_H-M "P -1"
_symmetry_group_IT_number 2
_symmetry_cell_setting 'triclinic'
loop_
_space_group_symop_operation_xyz
x,y,z
-x,-y,-z
loop_
_atom_site_type_symbol
_atom_site_label
_atom_site_fract_x
_atom_site_fract_y
_atom_site_fract_z
Si Si1 0.299550 0.881980 0.279947
Si Si2 0.489471 0.660678 0.634696
Si Si3 0.119646 0.647628 0.446580
Si Si4 0.076701 0.631515 0.002062
Si Si5 0.570281 0.371110 0.826830
Si Si6 0.863037 0.061448 0.077763
Si Si7 0.352685 0.048582 0.860115
O O1 0.129218 0.779594 0.101688
O O2 0.417666 0.769242 0.209716
O O3 0.282094 0.958929 0.173359
O O4 0.333593 0.974469 0.577408
O O5 0.500000 0.500000 0.500000
O O6 0.309825 0.677560 0.584156
O O7 0.513191 0.681754 0.464468
O O8 0.608122 0.782092 0.940442
O O9 0.048304 0.655990 0.216508
O O10 0.077535 0.771773 0.672302
O O11 0.057516 0.487519 0.291817
O O12 0.242754 0.572470 0.036396
O O13 0.500000 0.500000 0.000000
O O14 0.798129 0.999796 0.157993
O O15 0.000000 0.000000 0.000000
O O16 0.500000 0.000000 0.000000
#
# Coordination Sequence:
#
# PCOD9092851 Si02
#       7
#     2   2   2   2   2   2   2
#     4  10  23  45  69 100 137 191 222 288 357 404
#     4  11  24  41  69  99 130 188 227 282 353 410
#     4  10  19  43  65  92 138 175 229 285 337 407
#     4   8  18  39  69  89 132 181 214 280 354 392
#     4   9  19  38  63  99 135 163 226 282 336 414
#     4  12  27  43  69 105 136 184 241 283 348 419
#     4  12  22  51  70  94 148 182 230 291 345 426
#
# _framework density 22.613771
#
# number of rings (size 3 to 8) (size 9 to 14) (size 15 to 20)
#    0.857    0.857    4.286    0.000    2.000    4.000 
#   10.286    0.000    0.000    0.000    0.000    0.000 
#    0.000    0.000    0.000    0.000    0.000    0.000 
#
# Total GULP energy -78167.578801 kJ/mol
# GULP energy per Si atom -5583.398486 kJ/mol
# Density = 2.256230 g / cm^3
# Si number density = 22.613771 Si / 1000 Ang^3
#
#
#
# Elastic Constant Matrix: (Units=GPa)
#
#
# Indices 1 2 3 4 5 6 
#
# 1 67.5055 13.5857 54.5442 6.0855 -23.3218 -1.9526
# 2 13.5857 73.0931 40.1049 7.6915 -14.6178 -3.0444
# 3 54.5442 40.1049 176.6585 22.2664 -19.9111 4.3628
# 4 6.0855 7.6915 22.2664 31.6293 5.0316 -3.1134
# 5 -23.3218 -14.6178 -19.9111 5.0316 41.2505 18.8601
# 6 -1.9526 -3.0444 4.3628 -3.1134 18.8601 28.1520
#
#
#
# Elastic Compliance Matrix: (Units=1/GPa)
#
#
# Indices 1 2 3 4 5 6 
#
# 1 0.024742 0.001831 -0.005288 -0.005067 0.016879 -0.009135
# 2 0.001831 0.016718 -0.002991 -0.003761 0.007306 -0.002912
# 3 -0.005288 -0.002991 0.009208 -0.005774 0.003401 -0.005034
# 4 -0.005067 -0.003761 -0.005774 0.042726 -0.020786 0.018787
# 5 0.016879 0.007306 0.003401 -0.020786 0.059026 -0.040409
# 6 -0.009135 -0.002912 -0.005034 0.018787 -0.040409 0.064502
#
#
# Mechanical properties :
#
#
# Convention : Reuss Voigt Hill
#
# Bulk Modulus (GPa) = 26.47540 59.30296 42.88918
# Shear Modulus (GPa) = 20.62628 34.14116 27.38372
#
# Velocity S-wave (km/s) = 3.02340 3.88977 3.48362
# Velocity P-wave (km/s) = 4.89090 6.81578 5.93194
#
# Compressibility (1/GPa) = 0.03777092
#
# Stress axis : x y z
#
# Youngs Moduli (GPa) = 40.41714 59.81723 108.60368
#
# Poissons Ratio (x) = -0.10954 0.57431
# Poissons Ratio (y) = -0.07401 0.32486
# Poissons Ratio (z) = 0.21373 0.17893
#
# Static dielectric constant tensor:
#      x y z
#    x 1.846440 0.040420 0.024760 
#    y 0.040420 1.880330 0.013450 
#    z 0.024760 0.013450 1.840510 
# 
# From -- ./inp_files/209532.got.cif
#   From: 2010.05.17/outbox.cif.g08.bks.cpg/sg2_105_cif.got.tgz:209532.got - 2010.06.03 11:33:40.
