data_PCOD9092096
_publ_section_title
;
Structure prediction by ZEFSAII (Michael W. Deem and Ramdas Pophale) SiO2 
 PCOD9092096
Probable space group: P -1
;
_chemical_formula_sum "Si O2"
_cell_formula_units_Z 12
_cell_length_a 6.958147
_cell_length_b 13.358389
_cell_length_c 5.129691
_cell_angle_alpha 98.460997
_cell_angle_beta 112.808034
_cell_angle_gamma 63.038432
_cell_volume 391.512204
_symmetry_space_group_name_H-M "P -1"
_symmetry_group_IT_number 2
_symmetry_cell_setting 'triclinic'
loop_
_space_group_symop_operation_xyz
x,y,z
-x,-y,-z
loop_
_atom_site_type_symbol
_atom_site_label
_atom_site_fract_x
_atom_site_fract_y
_atom_site_fract_z
Si Si1 0.131712 0.810924 0.847827
Si Si2 0.514985 0.791963 0.387181
Si Si3 0.171652 0.217576 0.871384
Si Si4 0.799942 0.587479 0.714243
Si Si5 0.301671 0.006707 0.601078
Si Si6 0.280315 0.562915 0.717409
O O1 0.332429 0.837502 0.081244
O O2 0.238906 0.691998 0.707229
O O3 0.032731 0.774024 0.041272
O O4 0.947087 0.921310 0.643715
O O5 0.593931 0.663663 0.440596
O O6 0.388362 0.872523 0.592595
O O7 0.763030 0.780326 0.402602
O O8 0.232269 0.317682 0.048660
O O9 0.290074 0.079805 0.876044
O O10 0.755232 0.477691 0.609536
O O11 0.062537 0.554720 0.748998
O O12 0.500000 0.000000 0.500000
O O13 0.500000 0.500000 0.000000
#
# Coordination Sequence:
#
# PCOD9092096 Si02
#       6
#     2   2   2   2   2   2
#     4  11  23  41  64  91 127 165 209 260 312 370
#     4  11  23  41  64  94 128 163 208 261 308 375
#     4  10  22  40  63  92 126 166 207 253 317 371
#     4  10  22  40  65  93 128 164 207 265 310 368
#     4  10  22  40  63  92 127 165 206 258 312 370
#     4  10  19  40  66  88 127 168 204 261 318 360
#
# _framework density 30.650388
#
# number of rings (size 3 to 8) (size 9 to 14) (size 15 to 20)
#    0.000    1.667    1.667    4.500    0.000    8.000 
#    0.000   14.167    0.000    0.000    0.000    0.000 
#    0.000    0.000    0.000    0.000    0.000    0.000 
#
# Total GULP energy -66869.576125 kJ/mol
# GULP energy per Si atom -5572.464677 kJ/mol
# Density = 3.058063 g / cm^3
# Si number density = 30.650388 Si / 1000 Ang^3
#
#
#
# Elastic Constant Matrix: (Units=GPa)
#
#
# Indices 1 2 3 4 5 6 
#
# 1 122.3131 27.6500 47.0563 0.5066 2.4336 -21.4214
# 2 27.6500 196.2758 98.0905 7.6565 23.6526 -6.3050
# 3 47.0563 98.0905 166.9440 23.5404 17.1318 -17.6871
# 4 0.5066 7.6565 23.5404 65.7615 -5.5886 12.0618
# 5 2.4336 23.6526 17.1318 -5.5886 46.6757 5.0052
# 6 -21.4214 -6.3050 -17.6871 12.0618 5.0052 38.8930
#
#
#
# Elastic Compliance Matrix: (Units=1/GPa)
#
#
# Indices 1 2 3 4 5 6 
#
# 1 0.009831 -0.000123 -0.002201 -0.000099 -0.000131 0.004442
# 2 -0.000123 0.007463 -0.004312 0.000641 -0.002035 -0.000756
# 3 -0.002201 -0.004312 0.010487 -0.004279 -0.002545 0.004512
# 4 -0.000099 0.000641 -0.004279 0.018539 0.004350 -0.008206
# 5 -0.000131 -0.002035 -0.002545 0.004350 0.024568 -0.006070
# 6 0.004442 -0.000756 0.004512 -0.008206 -0.006070 0.033413
#
#
# Mechanical properties :
#
#
# Convention : Reuss Voigt Hill
#
# Bulk Modulus (GPa) = 68.92151 92.34739 80.63445
# Shear Modulus (GPa) = 40.84632 51.11512 45.98072
#
# Velocity S-wave (km/s) = 3.65451 4.08816 3.87740
# Velocity P-wave (km/s) = 6.35157 7.24422 6.81253
#
# Compressibility (1/GPa) = 0.01450926
#
# Stress axis : x y z
#
# Youngs Moduli (GPa) = 101.71763 133.99213 95.35883
#
# Poissons Ratio (x) = 0.01643 0.20989
# Poissons Ratio (y) = 0.01248 0.41120
# Poissons Ratio (z) = 0.22388 0.57780
#
# Static dielectric constant tensor:
#      x y z
#    x 2.611750 0.166200 0.128300 
#    y 0.166200 2.460640 0.047840 
#    z 0.128300 0.047840 2.602720 
# 
# From -- ./inp_files/42713.got.cif
#   From: 2010.05.17/outbox.cif.g08.bks.cpg/sg2_22_cif.got.tgz:42713.got - 2010.06.03 11:33:40.
