data_PCOD9092084
_publ_section_title
;
Structure prediction by ZEFSAII (Michael W. Deem and Ramdas Pophale) SiO2 
 PCOD9092084
Probable space group: P -1
;
_chemical_formula_sum "Si O2"
_cell_formula_units_Z 15
_cell_length_a 9.539613
_cell_length_b 7.978494
_cell_length_c 15.784514
_cell_angle_alpha 136.219211
_cell_angle_beta 107.784260
_cell_angle_gamma 49.570717
_cell_volume 601.765215
_symmetry_space_group_name_H-M "P -1"
_symmetry_group_IT_number 2
_symmetry_cell_setting 'triclinic'
loop_
_space_group_symop_operation_xyz
x,y,z
-x,-y,-z
loop_
_atom_site_type_symbol
_atom_site_label
_atom_site_fract_x
_atom_site_fract_y
_atom_site_fract_z
Si Si1 0.007000 0.956265 0.585556
Si Si2 0.759514 0.226021 0.287037
Si Si3 0.448216 0.200299 0.978939
Si Si4 0.154678 0.133765 0.126709
Si Si5 0.138148 0.359061 0.603410
Si Si6 0.500000 0.000000 0.500000
Si Si7 0.064766 0.709958 0.019420
Si Si8 0.398703 0.622964 0.258954
O O1 0.990170 0.682951 0.490511
O O2 0.182596 0.872883 0.641791
O O3 0.808358 0.249820 0.700768
O O4 0.000000 0.000000 0.500000
O O5 0.749239 0.535526 0.384541
O O6 0.563872 0.346437 0.252386
O O7 0.935726 0.952312 0.160366
O O8 0.242115 0.363187 0.959241
O O9 0.430840 0.490710 0.122021
O O10 0.500000 0.000000 0.000000
O O11 0.629733 0.996631 0.875762
O O12 0.998049 0.404769 0.261659
O O13 0.156424 0.843865 0.037400
O O14 0.073382 0.266229 0.065805
O O15 0.341703 0.022833 0.544265
O O16 0.576638 0.114947 0.632924
#
# Coordination Sequence:
#
# PCOD9092084 Si02
#       8
#     2   2   2   2   2   1   2   2
#     4  11  23  38  62  88 127 163 205 263 312 388
#     4  10  19  40  66  85 118 163 212 264 313 368
#     4  12  25  40  63  95 134 173 209 255 327 392
#     4  10  22  41  65  97 128 159 222 267 312 379
#     4   9  20  38  62  94 122 159 210 261 317 370
#     4   8  18  38  66  86 114 166 204 262 300 354
#     4  10  21  41  66  93 122 170 209 272 315 367
#     4  10  21  41  62  91 122 163 216 255 315 375
#
# _framework density 24.926665
#
# number of rings (size 3 to 8) (size 9 to 14) (size 15 to 20)
#    0.000    1.867    2.667    0.800    3.733    1.067 
#    2.400    1.333    0.000    0.000    0.000    0.000 
#    0.000    0.000    0.000    0.000    0.000    0.000 
#
# Total GULP energy -83628.788362 kJ/mol
# GULP energy per Si atom -5575.252557 kJ/mol
# Density = 2.486993 g / cm^3
# Si number density = 24.926665 Si / 1000 Ang^3
#
#
#
# Elastic Constant Matrix: (Units=GPa)
#
#
# Indices 1 2 3 4 5 6 
#
# 1 63.5198 19.3511 14.4897 1.3475 -9.0907 -7.1537
# 2 19.3511 125.6406 19.1922 -16.8126 -6.8609 -17.5959
# 3 14.4897 19.1922 79.4484 3.5023 -14.4888 -9.2927
# 4 1.3475 -16.8126 3.5023 34.6439 -4.1838 4.6182
# 5 -9.0907 -6.8609 -14.4888 -4.1838 40.4964 2.4755
# 6 -7.1537 -17.5959 -9.2927 4.6182 2.4755 33.5140
#
#
#
# Elastic Compliance Matrix: (Units=1/GPa)
#
#
# Indices 1 2 3 4 5 6 
#
# 1 0.017472 -0.002172 -0.001878 -0.001508 0.002599 0.002084
# 2 -0.002172 0.009683 -0.001583 0.004581 0.000847 0.003488
# 3 -0.001878 -0.001583 0.014473 -0.002029 0.004110 0.002757
# 4 -0.001508 0.004581 -0.002029 0.032162 0.003227 -0.003149
# 5 0.002599 0.000847 0.004110 0.003227 0.027244 -0.000318
# 6 0.002084 0.003488 0.002757 -0.003149 -0.000318 0.033336
#
#
# Mechanical properties :
#
#
# Convention : Reuss Voigt Hill
#
# Bulk Modulus (GPa) = 32.93413 41.63054 37.28234
# Shear Modulus (GPa) = 32.10155 36.10259 34.10207
#
# Velocity S-wave (km/s) = 3.59254 3.80985 3.70279
# Velocity P-wave (km/s) = 5.51811 6.00756 5.76803
#
# Compressibility (1/GPa) = 0.03036363
#
# Stress axis : x y z
#
# Youngs Moduli (GPa) = 57.23494 103.27144 69.09369
#
# Poissons Ratio (x) = 0.22432 0.12972
# Poissons Ratio (y) = 0.12432 0.10935
# Poissons Ratio (z) = 0.10746 0.16344
#
# Static dielectric constant tensor:
#      x y z
#    x 2.074200 -0.823110 -0.534220 
#    y -0.823110 12.402350 6.783870 
#    z -0.534220 6.783870 6.361040 
# 
# From -- ./inp_files/414996.got.cif
#   From: 2010.05.17/outbox.cif.g08.bks.cpg/sg2_208_cif.got.tgz:414996.got - 2010.06.03 11:33:40.
