data_PCOD9092873
_publ_section_title
;
Structure prediction by ZEFSAII (Michael W. Deem and Ramdas Pophale) SiO2 
 PCOD9092873
Probable space group: P -1
;
_chemical_formula_sum "Si O2"
_cell_formula_units_Z 14
_cell_length_a 9.928334
_cell_length_b 18.963918
_cell_length_c 18.728782
_cell_angle_alpha 19.878905
_cell_angle_beta 32.783545
_cell_angle_gamma 36.189596
_cell_volume 646.649295
_symmetry_space_group_name_H-M "P -1"
_symmetry_group_IT_number 2
_symmetry_cell_setting 'triclinic'
loop_
_space_group_symop_operation_xyz
x,y,z
-x,-y,-z
loop_
_atom_site_type_symbol
_atom_site_label
_atom_site_fract_x
_atom_site_fract_y
_atom_site_fract_z
Si Si1 0.638307 0.650504 0.015923
Si Si2 0.100471 0.697697 0.862768
Si Si3 0.848661 0.186628 0.847618
Si Si4 0.587635 0.940741 0.625999
Si Si5 0.235592 0.982252 0.100450
Si Si6 0.143829 0.304121 0.479777
Si Si7 0.203772 0.666691 0.002678
O O1 0.655814 0.815939 0.786753
O O2 0.827095 0.691550 0.957069
O O3 0.724963 0.427079 0.155349
O O4 0.357809 0.684755 0.136309
O O5 0.145211 0.590850 0.021665
O O6 0.179911 0.930248 0.619720
O O7 0.719325 0.062527 0.960491
O O8 0.021783 0.329453 0.588493
O O9 0.000000 0.000000 0.000000
O O10 0.456856 0.787322 0.776372
O O11 0.361542 0.119895 0.567016
O O12 0.081615 0.787760 0.377264
O O13 0.037170 0.179468 0.014084
O O14 0.500000 0.000000 0.000000
O O15 0.231671 0.494578 0.215732
#
# Coordination Sequence:
#
# PCOD9092873 Si02
#       7
#     2   2   2   2   2   2   2
#     4  11  23  45  64  96 135 168 217 266 323 399
#     4  11  26  41  66  97 132 176 215 262 329 383
#     4  10  19  43  68  93 130 167 213 265 325 387
#     4  11  22  43  66  94 128 171 221 268 317 379
#     4   9  20  38  61  93 129 165 212 261 322 377
#     4   9  22  38  68  98 124 165 214 267 330 370
#     4  11  22  43  66  96 132 166 223 270 317 386
#
# _framework density 21.650067
#
# number of rings (size 3 to 8) (size 9 to 14) (size 15 to 20)
#    0.857    0.857    1.429    2.571    0.000    5.143 
#    2.571    3.571    0.000    0.000    0.000    0.000 
#    0.000    0.000    0.000    0.000    0.000    0.000 
#
# Total GULP energy -78138.408416 kJ/mol
# GULP energy per Si atom -5581.314887 kJ/mol
# Density = 2.160079 g / cm^3
# Si number density = 21.650067 Si / 1000 Ang^3
#
#
#
# Elastic Constant Matrix: (Units=GPa)
#
#
# Indices 1 2 3 4 5 6 
#
# 1 152.8430 13.7933 47.9925 -1.6683 -5.3711 -5.9212
# 2 13.7933 92.0201 17.4283 -6.7908 3.0633 1.4437
# 3 47.9925 17.4283 91.8406 5.8141 -2.9273 -7.4640
# 4 -1.6683 -6.7908 5.8141 16.3083 0.3785 3.8682
# 5 -5.3711 3.0633 -2.9273 0.3785 30.0588 9.1801
# 6 -5.9212 1.4437 -7.4640 3.8682 9.1801 34.2096
#
#
#
# Elastic Compliance Matrix: (Units=1/GPa)
#
#
# Indices 1 2 3 4 5 6 
#
# 1 0.007947 -0.000265 -0.004214 0.002195 0.001026 -0.000056
# 2 -0.000265 0.011943 -0.002688 0.006297 -0.001134 -0.001544
# 3 -0.004214 -0.002688 0.014346 -0.007462 -0.000015 0.003362
# 4 0.002195 0.006297 -0.007462 0.069081 0.001091 -0.009618
# 5 0.001026 -0.001134 -0.000015 0.001091 0.036514 -0.009700
# 6 -0.000056 -0.001544 0.003362 -0.009618 -0.009700 0.033711
#
#
# Mechanical properties :
#
#
# Convention : Reuss Voigt Hill
#
# Bulk Modulus (GPa) = 50.24446 55.01466 52.62956
# Shear Modulus (GPa) = 25.70571 33.28131 29.49351
#
# Velocity S-wave (km/s) = 3.44950 3.92502 3.69492
# Velocity P-wave (km/s) = 6.25486 6.78285 6.52420
#
# Compressibility (1/GPa) = 0.01990269
#
# Stress axis : x y z
#
# Youngs Moduli (GPa) = 125.82650 83.73346 69.70776
#
# Poissons Ratio (x) = 0.02215 0.29372
# Poissons Ratio (y) = 0.03329 0.18740
# Poissons Ratio (z) = 0.53019 0.22510
#
# Static dielectric constant tensor:
#      x y z
#    x 1.778950 0.026600 -0.048370 
#    y 0.026600 1.787180 -0.000820 
#    z -0.048370 -0.000820 1.808880 
# 
# From -- ./inp_files/561997.got.cif
#   From: 2010.05.17/outbox.cif.g08.bks.cpg/sg2_281_cif.got.tgz:561997.got - 2010.06.03 11:33:40.
