data_PCOD9092977
_publ_section_title
;
Structure prediction by ZEFSAII (Michael W. Deem and Ramdas Pophale) SiO2 
 PCOD9092977
Probable space group: P -1
;
_chemical_formula_sum "Si O2"
_cell_formula_units_Z 14
_cell_length_a 14.101925
_cell_length_b 11.351557
_cell_length_c 11.111531
_cell_angle_alpha 46.611440
_cell_angle_beta 148.928304
_cell_angle_gamma 110.829355
_cell_volume 523.073401
_symmetry_space_group_name_H-M "P -1"
_symmetry_group_IT_number 2
_symmetry_cell_setting 'triclinic'
loop_
_space_group_symop_operation_xyz
x,y,z
-x,-y,-z
loop_
_atom_site_type_symbol
_atom_site_label
_atom_site_fract_x
_atom_site_fract_y
_atom_site_fract_z
Si Si1 0.559139 0.221748 0.212499
Si Si2 0.889271 0.852025 0.363868
Si Si3 0.825467 0.290584 0.616328
Si Si4 0.330364 0.846938 0.872702
Si Si5 0.185282 0.253061 0.898862
Si Si6 0.363533 0.633110 0.391829
Si Si7 0.155021 0.526384 0.061287
O O1 0.780638 0.189349 0.531695
O O2 0.606881 0.105424 0.220340
O O3 0.370304 0.463453 0.797325
O O4 0.437975 0.194541 0.209633
O O5 0.814415 0.856045 0.145042
O O6 0.101271 0.864396 0.584000
O O7 0.711115 0.012680 0.159138
O O8 0.002188 0.630270 0.702253
O O9 0.766308 0.252119 0.708395
O O10 0.081520 0.223781 0.923097
O O11 0.521145 0.606960 0.285736
O O12 0.000000 0.500000 0.500000
O O13 0.186063 0.681404 0.058369
O O14 0.575302 0.635772 0.580451
O O15 0.000000 0.500000 0.000000
#
# Coordination Sequence:
#
# PCOD9092977 Si02
#       7
#     2   2   2   2   2   2   2
#     4   9  17  28  48  78 106 138 166 220 272 315
#     4  10  20  35  55  85 113 142 175 228 274 320
#     4   9  17  31  51  76 110 132 180 223 266 315
#     4   9  18  35  57  79 116 138 179 225 278 317
#     4  10  20  29  50  83 109 135 175 225 275 313
#     4   9  20  37  56  81 106 146 180 221 270 320
#     4  10  22  35  53  79 112 145 183 217 265 322
#
# _framework density 26.764887000000002
#
# number of rings (size 3 to 8) (size 9 to 14) (size 15 to 20)
#    0.000    2.571    1.429    0.000   12.000    0.571 
#    0.000    0.000    0.000    0.857    0.000    3.000 
#    0.000    0.000    0.000    0.000    0.000    0.000 
#
# Total GULP energy -78275.239017 kJ/mol
# GULP energy per Si atom -5591.088501 kJ/mol
# Density = 2.670397 g / cm^3
# Si number density = 26.764887 Si / 1000 Ang^3
#
#
#
# Elastic Constant Matrix: (Units=GPa)
#
#
# Indices 1 2 3 4 5 6 
#
# 1 202.8094 24.8704 30.4068 -0.1081 50.6828 -10.2621
# 2 24.8704 76.8436 22.8011 -5.2839 12.3290 -27.3925
# 3 30.4068 22.8011 62.4643 -10.9333 19.7075 6.2273
# 4 -0.1081 -5.2839 -10.9333 26.5388 2.4095 6.6749
# 5 50.6828 12.3290 19.7075 2.4095 37.8383 4.0061
# 6 -10.2621 -27.3925 6.2273 6.6749 4.0061 48.0771
#
#
#
# Elastic Compliance Matrix: (Units=1/GPa)
#
#
# Indices 1 2 3 4 5 6 
#
# 1 0.007749 0.000483 -0.000999 -0.000084 -0.010321 0.002930
# 2 0.000483 0.020688 -0.008136 -0.002255 -0.004450 0.013628
# 3 -0.000999 -0.008136 0.025275 0.011873 -0.008976 -0.009023
# 4 -0.000084 -0.002255 0.011873 0.044916 -0.007301 -0.008468
# 5 -0.010321 -0.004450 -0.008976 -0.007301 0.047534 -0.006523
# 6 0.002930 0.013628 -0.009023 -0.008468 -0.006523 0.032078
#
#
# Mechanical properties :
#
#
# Convention : Reuss Voigt Hill
#
# Bulk Modulus (GPa) = 27.46627 55.36377 41.41502
# Shear Modulus (GPa) = 24.07557 40.09342 32.08449
#
# Velocity S-wave (km/s) = 3.00245 3.87458 3.46606
# Velocity P-wave (km/s) = 4.72271 6.38331 5.61474
#
# Compressibility (1/GPa) = 0.03640829
#
# Stress axis : x y z
#
# Youngs Moduli (GPa) = 129.05225 48.33655 39.56487
#
# Poissons Ratio (x) = -0.02336 0.03952
# Poissons Ratio (y) = -0.06237 0.32191
# Poissons Ratio (z) = 0.12890 0.39328
#
# Static dielectric constant tensor:
#      x y z
#    x 2.103540 0.046120 -0.021490 
#    y 0.046120 2.082520 -0.061210 
#    z -0.021490 -0.061210 2.140150 
# 
# From -- ./inp_files/344718.got.cif
#   From: 2010.05.17/outbox.cif.g08.bks.cpg/sg2_173_cif.got.tgz:344718.got - 2010.06.03 11:33:40.
