data_PCOD9092875
_publ_section_title
;
Structure prediction by ZEFSAII (Michael W. Deem and Ramdas Pophale) SiO2 
 PCOD9092875
Probable space group: P -1
;
_chemical_formula_sum "Si O2"
_cell_formula_units_Z 12
_cell_length_a 13.649828
_cell_length_b 8.408533
_cell_length_c 7.418593
_cell_angle_alpha 123.725339
_cell_angle_beta 80.526161
_cell_angle_gamma 137.699871
_cell_volume 428.094584
_symmetry_space_group_name_H-M "P -1"
_symmetry_group_IT_number 2
_symmetry_cell_setting 'triclinic'
loop_
_space_group_symop_operation_xyz
x,y,z
-x,-y,-z
loop_
_atom_site_type_symbol
_atom_site_label
_atom_site_fract_x
_atom_site_fract_y
_atom_site_fract_z
Si Si1 0.038161 0.285455 0.191106
Si Si2 0.903937 0.643524 0.175060
Si Si3 0.276950 0.231004 0.447977
Si Si4 0.754418 0.090131 0.087328
Si Si5 0.386687 0.515395 0.939283
Si Si6 0.372531 0.660203 0.408979
O O1 0.207558 0.531555 0.392971
O O2 0.879856 0.159813 0.218782
O O3 0.076803 0.427400 0.070860
O O4 0.000000 0.000000 0.000000
O O5 0.852773 0.425449 0.209065
O O6 0.748505 0.540094 0.121224
O O7 0.086478 0.999597 0.372928
O O8 0.346188 0.289469 0.661325
O O9 0.382544 0.561946 0.531632
O O10 0.275053 0.065346 0.192608
O O11 0.575051 0.852543 0.067585
O O12 0.360376 0.480490 0.140332
O O13 0.500000 0.000000 0.500000
#
# Coordination Sequence:
#
# PCOD9092875 Si02
#       6
#     2   2   2   2   2   2
#     4  10  19  43  68  95 139 180 224 284 344 406
#     4  10  22  42  72 103 138 185 230 281 349 418
#     4  11  23  46  73 100 142 185 230 284 352 410
#     4  11  23  43  73 108 137 182 233 285 350 418
#     4  11  26  44  72 104 140 182 236 285 347 416
#     4  11  26  45  72 100 138 189 232 288 347 409
#
# _framework density 28.031191
#
# number of rings (size 3 to 8) (size 9 to 14) (size 15 to 20)
#    0.000    1.333    3.333    3.500    7.000    0.667 
#    3.000    0.833    0.000    1.000    0.000    0.000 
#    0.000    0.000    0.000    0.000    0.000    0.000 
#
# Total GULP energy -67128.338336 kJ/mol
# GULP energy per Si atom -5594.028195 kJ/mol
# Density = 2.796739 g / cm^3
# Si number density = 28.031191 Si / 1000 Ang^3
#
#
#
# Elastic Constant Matrix: (Units=GPa)
#
#
# Indices 1 2 3 4 5 6 
#
# 1 163.5918 65.8376 22.1253 11.6060 35.8298 38.5674
# 2 65.8376 180.6042 54.7335 0.2179 0.6073 24.1419
# 3 22.1253 54.7335 104.8753 -21.5306 16.4231 6.9647
# 4 11.6060 0.2179 -21.5306 62.6315 9.8589 3.1898
# 5 35.8298 0.6073 16.4231 9.8589 32.0207 0.3985
# 6 38.5674 24.1419 6.9647 3.1898 0.3985 59.3643
#
#
#
# Elastic Compliance Matrix: (Units=1/GPa)
#
#
# Indices 1 2 3 4 5 6 
#
# 1 0.012382 -0.004473 0.002921 0.001523 -0.015656 -0.006544
# 2 -0.004473 0.008787 -0.005447 -0.002394 0.008369 0.000044
# 3 0.002921 -0.005447 0.015359 0.006918 -0.013151 -0.001768
# 4 0.001523 -0.002394 0.006918 0.019946 -0.011325 -0.001823
# 5 -0.015656 0.008369 -0.013151 -0.011325 0.058715 0.008525
# 6 -0.006544 0.000044 -0.001768 -0.001823 0.008525 0.021327
#
#
# Mechanical properties :
#
#
# Convention : Reuss Voigt Hill
#
# Bulk Modulus (GPa) = 44.38710 81.60713 62.99711
# Shear Modulus (GPa) = 31.64080 51.22828 41.43454
#
# Velocity S-wave (km/s) = 3.36336 4.27962 3.84885
# Velocity P-wave (km/s) = 5.56347 7.32095 6.50187
#
# Compressibility (1/GPa) = 0.02252907
#
# Stress axis : x y z
#
# Youngs Moduli (GPa) = 80.76488 113.79953 65.10991
#
# Poissons Ratio (x) = 0.50907 -0.19021
# Poissons Ratio (y) = 0.36129 0.35467
# Poissons Ratio (z) = -0.23594 0.61990
#
# Static dielectric constant tensor:
#      x y z
#    x 2.247740 0.002210 -0.175760 
#    y 0.002210 2.149320 0.038730 
#    z -0.175760 0.038730 2.325530 
# 
# From -- ./inp_files/291021.got.cif
#   From: 2010.05.17/outbox.cif.g08.bks.cpg/sg2_146_cif.got.tgz:291021.got - 2010.06.03 11:33:40.
