data_PCOD9092897
_publ_section_title
;
Structure prediction by ZEFSAII (Michael W. Deem and Ramdas Pophale) SiO2 
 PCOD9092897
Probable space group: P -1
;
_chemical_formula_sum "Si O2"
_cell_formula_units_Z 16
_cell_length_a 14.602943
_cell_length_b 18.006162
_cell_length_c 7.620074
_cell_angle_alpha 54.812525
_cell_angle_beta 117.574892
_cell_angle_gamma 159.983775
_cell_volume 537.957523
_symmetry_space_group_name_H-M "P -1"
_symmetry_group_IT_number 2
_symmetry_cell_setting 'triclinic'
loop_
_space_group_symop_operation_xyz
x,y,z
-x,-y,-z
loop_
_atom_site_type_symbol
_atom_site_label
_atom_site_fract_x
_atom_site_fract_y
_atom_site_fract_z
Si Si1 0.281424 0.286004 0.743669
Si Si2 0.044114 0.784337 0.907651
Si Si3 0.835401 0.076794 0.666396
Si Si4 0.493667 0.639349 0.818444
Si Si5 0.256917 0.829241 0.377775
Si Si6 0.737418 0.856613 0.371781
Si Si7 0.687184 0.260847 0.757676
Si Si8 0.204709 0.523114 0.184370
O O1 0.604180 0.702648 0.636785
O O2 0.130481 0.091583 0.741459
O O3 0.070361 0.192355 0.736849
O O4 0.407903 0.339373 0.953607
O O5 0.867532 0.560791 0.961468
O O6 0.046221 0.892435 0.704751
O O7 0.362386 0.022411 0.810896
O O8 0.839831 0.629517 0.105327
O O9 0.717309 0.039608 0.773486
O O10 0.964729 0.266132 0.415018
O O11 0.603550 0.831283 0.691277
O O12 0.315518 0.830608 0.239418
O O13 0.937701 0.529497 0.531966
O O14 0.500000 0.000000 0.500000
O O15 0.500000 0.500000 0.500000
O O16 0.483025 0.699289 0.259225
O O17 0.780056 0.360262 0.903539
#
# Coordination Sequence:
#
# PCOD9092897 Si02
#       8
#     2   2   2   2   2   2   2   2
#     4  12  26  51  76 113 170 212 269 342 395 477
#     4  11  22  47  76 117 162 211 264 334 402 481
#     4  11  23  46  72 113 158 208 273 334 398 483
#     4  12  27  47  78 118 163 219 269 331 400 485
#     4  10  21  40  78 115 157 209 269 336 414 484
#     4  11  25  46  79 112 161 216 271 320 407 480
#     4   9  20  37  75 116 150 211 264 326 414 478
#     4  10  19  43  73 105 158 201 255 327 393 466
#
# _framework density 29.742124
#
# number of rings (size 3 to 8) (size 9 to 14) (size 15 to 20)
#    0.000    1.250    3.750    1.875    1.750    2.000 
#    2.250    0.625    0.000    1.500    0.000    0.000 
#    0.000    0.000    0.000    0.000    0.000    0.000 
#
# Total GULP energy -89337.045207 kJ/mol
# GULP energy per Si atom -5583.565325 kJ/mol
# Density = 2.967443 g / cm^3
# Si number density = 29.742124 Si / 1000 Ang^3
#
#
#
# Elastic Constant Matrix: (Units=GPa)
#
#
# Indices 1 2 3 4 5 6 
#
# 1 252.0881 97.9342 65.0558 6.8652 -22.1421 -40.0991
# 2 97.9342 196.7963 57.3509 12.4727 -0.4362 7.1008
# 3 65.0558 57.3509 144.0612 1.0257 -13.5858 3.5634
# 4 6.8652 12.4727 1.0257 42.6820 -1.0673 2.0609
# 5 -22.1421 -0.4362 -13.5858 -1.0673 41.7628 -15.8603
# 6 -40.0991 7.1008 3.5634 2.0609 -15.8603 61.6697
#
#
#
# Elastic Compliance Matrix: (Units=1/GPa)
#
#
# Indices 1 2 3 4 5 6 
#
# 1 0.007272 -0.003376 -0.001551 -0.000324 0.005861 0.006725
# 2 -0.003376 0.007486 -0.001705 -0.001511 -0.003778 -0.003880
# 3 -0.001551 -0.001705 0.008489 0.000628 0.001590 -0.000915
# 4 -0.000324 -0.001511 0.000628 0.023954 0.000329 -0.000789
# 5 0.005861 -0.003778 0.001590 0.000329 0.032263 0.012441
# 6 0.006725 -0.003880 -0.000915 -0.000789 0.012441 0.024314
#
#
# Mechanical properties :
#
#
# Convention : Reuss Voigt Hill
#
# Bulk Modulus (GPa) = 100.18040 114.84752 107.51396
# Shear Modulus (GPa) = 41.53864 54.06322 47.80093
#
# Velocity S-wave (km/s) = 3.74120 4.26811 4.01331
# Velocity P-wave (km/s) = 7.24004 7.93645 7.59623
#
# Compressibility (1/GPa) = 0.00998199
#
# Stress axis : x y z
#
# Youngs Moduli (GPa) = 137.51055 133.58797 117.80043
#
# Poissons Ratio (x) = 0.45099 0.18274
# Poissons Ratio (y) = 0.46423 0.20086
# Poissons Ratio (z) = 0.21332 0.22778
#
# Static dielectric constant tensor:
#      x y z
#    x 2.476840 -0.096740 -0.051360 
#    y -0.096740 2.447140 0.101400 
#    z -0.051360 0.101400 2.442660 
# 
# From -- ./inp_files/456730.got.cif
#   From: 2010.05.17/outbox.cif.g08.bks.cpg/sg2_229_cif.got.tgz:456730.got - 2010.06.03 11:33:40.
