data_PCOD9092241
_publ_section_title
;
Structure prediction by ZEFSAII (Michael W. Deem and Ramdas Pophale) SiO2 
 PCOD9092241
Probable space group: P -1
;
_chemical_formula_sum "Si O2"
_cell_formula_units_Z 16
_cell_length_a 9.539866
_cell_length_b 15.915439
_cell_length_c 9.549392
_cell_angle_alpha 143.648169
_cell_angle_beta 76.845560
_cell_angle_gamma 124.271578
_cell_volume 630.125104
_symmetry_space_group_name_H-M "P -1"
_symmetry_group_IT_number 2
_symmetry_cell_setting 'triclinic'
loop_
_space_group_symop_operation_xyz
x,y,z
-x,-y,-z
loop_
_atom_site_type_symbol
_atom_site_label
_atom_site_fract_x
_atom_site_fract_y
_atom_site_fract_z
Si Si1 0.674421 0.022647 0.547658
Si Si2 0.782550 0.821257 0.364439
Si Si3 0.725533 0.961827 0.151929
Si Si4 0.784646 0.592693 0.842054
Si Si5 0.970180 0.459070 0.119924
Si Si6 0.277711 0.864430 0.840062
Si Si7 0.707332 0.382618 0.305481
Si Si8 0.063080 0.988117 0.157242
O O1 0.749768 0.991679 0.352510
O O2 0.820876 0.230598 0.851675
O O3 0.500000 0.000000 0.500000
O O4 0.651282 0.877220 0.463310
O O5 0.699850 0.643958 0.047615
O O6 0.823642 0.823561 0.521938
O O7 0.000000 0.000000 0.500000
O O8 0.886507 0.948524 0.067573
O O9 0.504876 0.779130 0.925003
O O10 0.757169 0.142344 0.327255
O O11 0.686384 0.482619 0.570694
O O12 0.849916 0.495401 0.780682
O O13 0.959449 0.799321 0.020214
O O14 0.857023 0.499978 0.300366
O O15 0.000000 0.500000 0.000000
O O16 0.205556 0.696837 0.734867
O O17 0.216215 0.986002 0.046972
O O18 0.500000 0.000000 0.000000
#
# Coordination Sequence:
#
# PCOD9092241 Si02
#       8
#     2   2   2   2   2   2   2   2
#     4  12  22  41  71 101 133 174 240 291 338 402
#     4  10  19  40  68  95 123 183 220 277 345 404
#     4  11  23  39  68 104 130 179 234 284 343 414
#     4  11  22  41  69  94 139 182 222 279 358 408
#     4  12  25  41  69 104 136 183 237 289 343 415
#     4  10  23  40  66 102 134 173 225 283 342 409
#     4  11  24  44  64  99 142 181 222 287 355 407
#     4  11  20  41  69  96 135 174 226 285 342 413
#
# _framework density 25.391784000000001
#
# number of rings (size 3 to 8) (size 9 to 14) (size 15 to 20)
#    0.000    1.000    7.500    0.750    3.500    0.500 
#    0.000    1.250    0.000    9.000    0.000    0.000 
#    0.000    0.000    0.000    0.000    0.000    0.000 
#
# Total GULP energy -89174.706720 kJ/mol
# GULP energy per Si atom -5573.419170 kJ/mol
# Density = 2.533399 g / cm^3
# Si number density = 25.391784 Si / 1000 Ang^3
#
#
#
# Elastic Constant Matrix: (Units=GPa)
#
#
# Indices 1 2 3 4 5 6 
#
# 1 162.6837 37.0250 15.9388 1.0624 -2.4231 -18.6061
# 2 37.0250 76.9514 2.1770 -3.6050 11.2157 -18.2170
# 3 15.9388 2.1770 107.6796 -14.3229 -3.0107 -5.4017
# 4 1.0624 -3.6050 -14.3229 25.9511 -5.8394 7.0420
# 5 -2.4231 11.2157 -3.0107 -5.8394 29.3592 -7.5381
# 6 -18.6061 -18.2170 -5.4017 7.0420 -7.5381 35.5952
#
#
#
# Elastic Compliance Matrix: (Units=1/GPa)
#
#
# Indices 1 2 3 4 5 6 
#
# 1 0.007345 -0.003228 -0.001035 -0.001600 0.002134 0.002799
# 2 -0.003228 0.016661 0.000271 -0.000139 -0.005137 0.005820
# 3 -0.001035 0.000271 0.010337 0.006169 0.002204 0.000413
# 4 -0.001600 -0.000139 0.006169 0.045732 0.007756 -0.007376
# 5 0.002134 -0.005137 0.002204 0.007756 0.039414 0.005633
# 6 0.002799 0.005820 0.000413 -0.007376 0.005633 0.035250
#
#
# Mechanical properties :
#
#
# Convention : Reuss Voigt Hill
#
# Bulk Modulus (GPa) = 37.93733 50.84403 44.39068
# Shear Modulus (GPa) = 29.15272 37.65936 33.40604
#
# Velocity S-wave (km/s) = 3.39206 3.85532 3.63109
# Velocity P-wave (km/s) = 5.50588 6.31548 5.92452
#
# Compressibility (1/GPa) = 0.02635926
#
# Stress axis : x y z
#
# Youngs Moduli (GPa) = 136.14140 60.02104 96.73570
#
# Poissons Ratio (x) = 0.19377 0.10009
# Poissons Ratio (y) = 0.43951 -0.02620
# Poissons Ratio (z) = 0.14086 -0.01626
#
# Static dielectric constant tensor:
#      x y z
#    x 2.060970 0.082600 -0.138050 
#    y 0.082600 2.421880 -0.221220 
#    z -0.138050 -0.221220 2.261460 
# 
# From -- ./inp_files/394565.got.cif
#   From: 2010.05.17/outbox.cif.g08.bks.cpg/sg2_198_cif.got.tgz:394565.got - 2010.06.03 11:33:40.
