data_PCOD9092016
_publ_section_title
;
Structure prediction by ZEFSAII (Michael W. Deem and Ramdas Pophale) SiO2 
 PCOD9092016
Probable space group: P -1
;
_chemical_formula_sum "Si O2"
_cell_formula_units_Z 16
_cell_length_a 17.032925
_cell_length_b 8.312966
_cell_length_c 9.034235
_cell_angle_alpha 69.536663
_cell_angle_beta 52.385557
_cell_angle_gamma 53.814749
_cell_volume 817.728208
_symmetry_space_group_name_H-M "P -1"
_symmetry_group_IT_number 2
_symmetry_cell_setting 'triclinic'
loop_
_space_group_symop_operation_xyz
x,y,z
-x,-y,-z
loop_
_atom_site_type_symbol
_atom_site_label
_atom_site_fract_x
_atom_site_fract_y
_atom_site_fract_z
Si Si1 0.305292 0.959899 0.861999
Si Si2 0.981785 0.705561 0.526739
Si Si3 0.902836 0.623563 0.950852
Si Si4 0.252922 0.921815 0.364670
Si Si5 0.785999 0.287027 0.786325
Si Si6 0.268418 0.483077 0.943587
Si Si7 0.405303 0.044407 0.973159
Si Si8 0.375520 0.698876 0.588326
O O1 0.361822 0.858832 0.675513
O O2 0.409693 0.912435 0.870732
O O3 0.230070 0.867437 0.042999
O O4 0.209218 0.193609 0.899972
O O5 0.950885 0.699882 0.737387
O O6 0.000000 0.500000 0.500000
O O7 0.092010 0.730805 0.375244
O O8 0.876711 0.903589 0.510369
O O9 0.851715 0.500146 0.966944
O O10 0.000000 0.500000 0.000000
O O11 0.255797 0.752122 0.309305
O O12 0.331046 0.811747 0.449483
O O13 0.302730 0.042888 0.181752
O O14 0.722544 0.479087 0.904379
O O15 0.367750 0.256979 0.878794
O O16 0.290678 0.624852 0.769132
O O17 0.500000 0.000000 0.000000
O O18 0.500000 0.500000 0.500000
#
# Coordination Sequence:
#
# PCOD9092016 Si02
#       8
#     2   2   2   2   2   2   2   2
#     4   9  22  42  60  87 126 156 204 251 307 370
#     4  12  22  39  62  93 126 159 211 247 302 372
#     4  11  23  39  61  92 127 163 197 247 313 371
#     4  11  23  39  62  92 121 159 210 253 298 365
#     4  10  20  38  63  86 120 162 194 254 300 368
#     4  10  21  42  58  88 125 153 205 253 305 369
#     4  10  19  40  65  84 113 162 205 256 307 356
#     4  11  25  42  61  89 125 162 209 259 309 358
#
# _framework density 19.566403000000001
#
# number of rings (size 3 to 8) (size 9 to 14) (size 15 to 20)
#    0.000    1.500    5.000    1.125    3.500    1.000 
#    0.000   11.875    0.000    0.000    0.000    0.000 
#    0.000    0.000    0.000    0.000    0.000    0.000 
#
# Total GULP energy -89082.332083 kJ/mol
# GULP energy per Si atom -5567.645755 kJ/mol
# Density = 1.952187 g / cm^3
# Si number density = 19.566403 Si / 1000 Ang^3
#
#
#
# Elastic Constant Matrix: (Units=GPa)
#
#
# Indices 1 2 3 4 5 6 
#
# 1 109.3351 33.3969 19.8127 8.0390 16.0129 6.0229
# 2 33.3969 61.6191 14.6291 8.6233 24.2079 -0.0996
# 3 19.8127 14.6291 46.0700 18.5038 18.8284 3.4928
# 4 8.0390 8.6233 18.5038 26.6610 5.1239 5.6633
# 5 16.0129 24.2079 18.8284 5.1239 35.8298 -6.5283
# 6 6.0229 -0.0996 3.4928 5.6633 -6.5283 34.7598
#
#
#
# Elastic Compliance Matrix: (Units=1/GPa)
#
#
# Indices 1 2 3 4 5 6 
#
# 1 0.011497 -0.005542 -0.003475 0.001146 -0.000070 -0.001859
# 2 -0.005542 0.025468 0.002987 -0.005315 -0.015789 -0.001366
# 3 -0.003475 0.002987 0.039192 -0.022953 -0.018330 -0.003030
# 4 0.001146 -0.005315 -0.022953 0.054808 0.006271 -0.005659
# 5 -0.000070 -0.015789 -0.018330 0.006271 0.049170 0.010022
# 6 -0.001859 -0.001366 -0.003030 -0.005659 0.010022 0.032196
#
#
# Mechanical properties :
#
#
# Convention : Reuss Voigt Hill
#
# Bulk Modulus (GPa) = 15.60142 39.18907 27.39524
# Shear Modulus (GPa) = 20.34529 29.39581 24.87055
#
# Velocity S-wave (km/s) = 3.22810 3.88024 3.56909
# Velocity P-wave (km/s) = 4.67815 6.33618 5.56921
#
# Compressibility (1/GPa) = 0.06409673
#
# Stress axis : x y z
#
# Youngs Moduli (GPa) = 86.97748 39.26539 25.51544
#
# Poissons Ratio (x) = 0.21761 0.08868
# Poissons Ratio (y) = 0.48204 -0.07623
# Poissons Ratio (z) = 0.30228 -0.11730
#
# Static dielectric constant tensor:
#      x y z
#    x 1.724090 0.034190 0.003690 
#    y 0.034190 1.702520 0.027090 
#    z 0.003690 0.027090 1.696540 
# 
# From -- ./inp_files/218691.got.cif
#   From: 2010.05.17/outbox.cif.g08.bks.cpg/sg2_110_cif.got.tgz:218691.got - 2010.06.03 11:33:40.
