data_PCOD9092366
_publ_section_title
;
Structure prediction by ZEFSAII (Michael W. Deem and Ramdas Pophale) SiO2 
 PCOD9092366
Probable space group: P -1
;
_chemical_formula_sum "Si O2"
_cell_formula_units_Z 16
_cell_length_a 15.440763
_cell_length_b 10.677344
_cell_length_c 18.369595
_cell_angle_alpha 42.635297
_cell_angle_beta 157.082272
_cell_angle_gamma 124.857133
_cell_volume 731.350416
_symmetry_space_group_name_H-M "P -1"
_symmetry_group_IT_number 2
_symmetry_cell_setting 'triclinic'
loop_
_space_group_symop_operation_xyz
x,y,z
-x,-y,-z
loop_
_atom_site_type_symbol
_atom_site_label
_atom_site_fract_x
_atom_site_fract_y
_atom_site_fract_z
Si Si1 0.307430 0.424421 0.194641
Si Si2 0.210760 0.579303 0.422840
Si Si3 0.741371 0.554438 0.089525
Si Si4 0.571943 0.832273 0.474550
Si Si5 0.965170 0.103319 0.223323
Si Si6 0.826026 0.785843 0.930849
Si Si7 0.499343 0.859914 0.233806
Si Si8 0.728432 0.163946 0.302531
O O1 0.583709 0.363490 0.407855
O O2 0.333119 0.382455 0.319361
O O3 0.188426 0.277834 0.134633
O O4 0.156485 0.655800 0.958701
O O5 0.348404 0.353127 0.595559
O O6 0.981193 0.586325 0.289382
O O7 0.088167 0.719270 0.198288
O O8 0.730741 0.635032 0.965316
O O9 0.499278 0.695596 0.883331
O O10 0.780004 0.323480 0.224409
O O11 0.510387 0.830369 0.342526
O O12 0.778657 0.920878 0.601441
O O13 0.346137 0.991606 0.275233
O O14 0.773619 0.061422 0.042199
O O15 0.042643 0.965861 0.414249
O O16 0.630079 0.011102 0.254344
#
# Coordination Sequence:
#
# PCOD9092366 Si02
#       8
#     2   2   2   2   2   2   2   2
#     4  11  23  37  58  83 116 154 188 230 281 333
#     4   9  21  38  54  84 117 145 185 234 279 329
#     4   9  20  40  60  81 116 148 183 237 281 332
#     4  11  22  37  59  83 113 155 192 229 278 330
#     4  10  21  38  57  86 114 144 193 233 274 337
#     4  10  20  39  55  81 115 148 187 239 274 327
#     4  10  20  37  58  83 118 146 188 235 275 337
#     4  10  19  41  61  84 111 148 192 225 287 338
#
# _framework density 21.877337000000001
#
# number of rings (size 3 to 8) (size 9 to 14) (size 15 to 20)
#    0.750    1.250    2.500    2.250    0.000    6.000 
#    2.250    2.500    0.000    0.000    0.000    0.000 
#    0.000    0.000    0.000    0.000    0.000    0.000 
#
# Total GULP energy -89233.739066 kJ/mol
# GULP energy per Si atom -5577.108692 kJ/mol
# Density = 2.182754 g / cm^3
# Si number density = 21.877337 Si / 1000 Ang^3
#
#
#
# Elastic Constant Matrix: (Units=GPa)
#
#
# Indices 1 2 3 4 5 6 
#
# 1 27.3841 36.0290 11.3878 3.2223 -15.2470 1.9712
# 2 36.0290 53.0393 61.5760 -7.9706 -7.7365 21.5008
# 3 11.3878 61.5760 136.7849 11.2060 -6.8893 -4.8268
# 4 3.2223 -7.9706 11.2060 36.0831 6.4357 4.1400
# 5 -15.2470 -7.7365 -6.8893 6.4357 14.0057 -6.8858
# 6 1.9712 21.5008 -4.8268 4.1400 -6.8858 16.8875
#
#
#
# Elastic Compliance Matrix: (Units=1/GPa)
#
#
# Indices 1 2 3 4 5 6 
#
# 1 0.014746 0.020866 -0.012905 0.011647 -0.001559 -0.035467
# 2 0.020866 -0.000891 0.002030 -0.011189 0.036718 0.016994
# 3 -0.012905 0.002030 0.006359 0.002719 -0.013774 -0.005543
# 4 0.011647 -0.011189 0.002719 0.021881 0.002329 0.009249
# 5 -0.001559 0.036718 -0.013774 0.002329 0.071328 -0.021991
# 6 -0.035467 0.016994 -0.005543 0.009249 -0.021991 0.028900
#
#
# Mechanical properties :
#
#
# Convention : Reuss Voigt Hill
#
# Bulk Modulus (GPa) = 24.87867 48.35487 36.61677
# Shear Modulus (GPa) = 36.83516 20.60962 28.72239
#
# Velocity S-wave (km/s) = 4.10776 3.07262 3.62730
# Velocity P-wave (km/s) = 5.82193 5.89395 5.85805
#
# Compressibility (1/GPa) = 0.04019508
#
# Stress axis : x y z
#
# Youngs Moduli (GPa) = 67.81720 -1121.91679 157.24928
#
# Poissons Ratio (x) = 23.40992 2.02931
# Poissons Ratio (y) = -1.41507 -0.31919
# Poissons Ratio (z) = 0.87518 2.27729
#
# Static dielectric constant tensor:
#      x y z
#    x 1.819770 0.003900 0.008870 
#    y 0.003900 1.821690 0.009850 
#    z 0.008870 0.009850 1.823600 
# 
# From -- ./inp_files/599910.got.cif
#   From: 2010.05.17/outbox.cif.g08.bks.cpg/sg2_300_cif.got.tgz:599910.got - 2010.06.03 11:33:40.
