data_PCOD9092217
_publ_section_title
;
Structure prediction by ZEFSAII (Michael W. Deem and Ramdas Pophale) SiO2 
 PCOD9092217
Probable space group: P -1
;
_chemical_formula_sum "Si O2"
_cell_formula_units_Z 14
_cell_length_a 11.391945
_cell_length_b 7.341334
_cell_length_c 11.936354
_cell_angle_alpha 119.147359
_cell_angle_beta 97.516253
_cell_angle_gamma 47.364693
_cell_volume 609.835649
_symmetry_space_group_name_H-M "P -1"
_symmetry_group_IT_number 2
_symmetry_cell_setting 'triclinic'
loop_
_space_group_symop_operation_xyz
x,y,z
-x,-y,-z
loop_
_atom_site_type_symbol
_atom_site_label
_atom_site_fract_x
_atom_site_fract_y
_atom_site_fract_z
Si Si1 0.961756 0.116465 0.238701
Si Si2 0.176761 0.157483 0.921881
Si Si3 0.873311 0.279513 0.646412
Si Si4 0.498008 0.358522 0.292125
Si Si5 0.386407 0.338578 0.614939
Si Si6 0.528485 0.358577 0.841585
Si Si7 0.835449 0.790628 0.814881
O O1 0.808753 0.436336 0.371148
O O2 0.044279 0.161703 0.170779
O O3 0.875891 0.017050 0.149651
O O4 0.092437 0.868682 0.272583
O O5 0.330036 0.990995 0.801871
O O6 0.241092 0.120199 0.043793
O O7 0.000000 0.500000 0.000000
O O8 0.679155 0.509878 0.651160
O O9 0.922235 0.461069 0.710383
O O10 0.000000 0.000000 0.500000
O O11 0.541913 0.537235 0.395696
O O12 0.456152 0.470580 0.191487
O O13 0.399552 0.372323 0.761052
O O14 0.500000 0.000000 0.500000
O O15 0.692088 0.012793 0.773125
O O16 0.500000 0.500000 0.000000
#
# Coordination Sequence:
#
# PCOD9092217 Si02
#       7
#     2   2   2   2   2   2   2
#     4  11  23  45  67  99 140 168 228 287 329 413
#     4  11  22  45  70 105 137 171 224 279 352 406
#     4  12  28  44  66 100 135 184 235 275 331 410
#     4   9  22  44  65  93 140 173 222 286 330 405
#     4   9  21  39  69  94 132 183 221 280 344 392
#     4  10  19  40  67  98 129 171 230 270 342 413
#     4  12  24  41  71 100 133 183 216 277 353 400
#
# _framework density 22.957004999999999
#
# number of rings (size 3 to 8) (size 9 to 14) (size 15 to 20)
#    0.857    0.571    4.286    0.429    4.000    1.143 
#    5.143    2.857    0.000    0.000    0.000    0.000 
#    0.000    0.000    0.000    0.000    0.000    0.000 
#
# Total GULP energy -78008.596601 kJ/mol
# GULP energy per Si atom -5572.042614 kJ/mol
# Density = 2.290475 g / cm^3
# Si number density = 22.957005 Si / 1000 Ang^3
#
#
#
# Elastic Constant Matrix: (Units=GPa)
#
#
# Indices 1 2 3 4 5 6 
#
# 1 49.5320 7.2537 17.5499 13.2030 -1.4655 -4.3714
# 2 7.2537 104.3489 26.7830 36.1232 0.5366 -13.5921
# 3 17.5499 26.7830 99.3815 29.2213 12.9672 4.2447
# 4 13.2030 36.1232 29.2213 49.5581 -1.7065 -1.6374
# 5 -1.4655 0.5366 12.9672 -1.7065 16.4056 4.5710
# 6 -4.3714 -13.5921 4.2447 -1.6374 4.5710 33.4461
#
#
#
# Elastic Compliance Matrix: (Units=1/GPa)
#
#
# Indices 1 2 3 4 5 6 
#
# 1 0.022931 0.001400 -0.003615 -0.004770 0.003438 0.003321
# 2 0.001400 0.013904 -0.001108 -0.009735 -0.002078 0.005781
# 3 -0.003615 -0.001108 0.014882 -0.007481 -0.012415 -0.001481
# 4 -0.004770 -0.009735 -0.007481 0.033195 0.010206 -0.003400
# 5 0.003438 -0.002078 -0.012415 0.010206 0.074576 -0.008512
# 6 0.003321 0.005781 -0.001481 -0.003400 -0.008512 0.033867
#
#
# Mechanical properties :
#
#
# Convention : Reuss Voigt Hill
#
# Bulk Modulus (GPa) = 22.18657 39.60398 30.89528
# Shear Modulus (GPa) = 23.25316 33.32699 28.29007
#
# Velocity S-wave (km/s) = 3.18606 3.81427 3.51423
# Velocity P-wave (km/s) = 4.81872 6.05698 5.47298
#
# Compressibility (1/GPa) = 0.04507231
#
# Stress axis : x y z
#
# Youngs Moduli (GPa) = 43.60912 71.92149 67.19583
#
# Poissons Ratio (x) = -0.10069 0.24288
# Poissons Ratio (y) = -0.06105 0.07444
# Poissons Ratio (z) = 0.15763 0.07967
#
# Static dielectric constant tensor:
#      x y z
#    x 1.727310 0.250500 -0.301740 
#    y 0.250500 1.423330 0.458030 
#    z -0.301740 0.458030 1.542670 
# 
# From -- ./inp_files/516263.got.cif
#   From: 2010.05.17/outbox.cif.g08.bks.cpg/sg2_259_cif.got.tgz:516263.got - 2010.06.03 11:33:40.
