data_PCOD9092095
_publ_section_title
;
Structure prediction by ZEFSAII (Michael W. Deem and Ramdas Pophale) SiO2 
 PCOD9092095
Probable space group: P -1
;
_chemical_formula_sum "Si O2"
_cell_formula_units_Z 16
_cell_length_a 11.766292
_cell_length_b 9.215911
_cell_length_c 19.977080
_cell_angle_alpha 38.898534
_cell_angle_beta 29.747707
_cell_angle_gamma 51.579933
_cell_volume 664.629020
_symmetry_space_group_name_H-M "P -1"
_symmetry_group_IT_number 2
_symmetry_cell_setting 'triclinic'
loop_
_space_group_symop_operation_xyz
x,y,z
-x,-y,-z
loop_
_atom_site_type_symbol
_atom_site_label
_atom_site_fract_x
_atom_site_fract_y
_atom_site_fract_z
Si Si1 0.054272 0.734009 0.238614
Si Si2 0.763665 0.992663 0.844435
Si Si3 0.066015 0.794807 0.492194
Si Si4 0.524222 0.651053 0.999711
Si Si5 0.560206 0.685934 0.299772
Si Si6 0.394032 0.161257 0.627829
Si Si7 0.609704 0.696144 0.681121
Si Si8 0.781462 0.622842 0.079363
O O1 0.310191 0.792108 0.056811
O O2 0.989738 0.459587 0.351411
O O3 0.863264 0.869391 0.259229
O O4 0.084252 0.766184 0.292759
O O5 0.745460 0.849447 0.835519
O O6 0.829932 0.819274 0.928092
O O7 0.500000 0.000000 0.000000
O O8 0.340663 0.792013 0.343562
O O9 0.884999 0.761242 0.534356
O O10 0.000000 0.000000 0.500000
O O11 0.488051 0.460198 0.147311
O O12 0.500000 0.500000 0.000000
O O13 0.508474 0.408112 0.446238
O O14 0.615818 0.809853 0.297770
O O15 0.760053 0.708728 0.134550
O O16 0.522593 0.943090 0.628166
O O17 0.475451 0.534184 0.748964
O O18 0.000000 0.500000 0.000000
#
# Coordination Sequence:
#
# PCOD9092095 Si02
#       8
#     2   2   2   2   2   2   2   2
#     4   9  19  35  59  84 122 161 200 262 321 373
#     4   9  19  39  58  83 123 167 207 258 308 375
#     4  10  19  40  66  88 122 160 215 273 317 367
#     4   9  19  35  58  89 124 167 215 258 310 376
#     4  10  23  40  63  92 127 168 212 263 323 376
#     4  10  20  38  62  91 125 159 216 267 318 376
#     4  10  21  38  65  91 127 164 212 265 316 386
#     4  11  24  42  62  91 134 171 206 256 323 398
#
# _framework density 24.07358
#
# number of rings (size 3 to 8) (size 9 to 14) (size 15 to 20)
#    0.000    2.250    1.250    1.500    0.000    5.000 
#    0.000    3.125    0.000    0.000    0.000    0.000 
#    0.000    0.000    0.000    0.000    0.000    0.000 
#
# Total GULP energy -89185.414084 kJ/mol
# GULP energy per Si atom -5574.088380 kJ/mol
# Density = 2.401879 g / cm^3
# Si number density = 24.073580 Si / 1000 Ang^3
#
#
#
# Elastic Constant Matrix: (Units=GPa)
#
#
# Indices 1 2 3 4 5 6 
#
# 1 99.4487 48.2398 24.8036 -5.0143 -11.6387 -4.1428
# 2 48.2398 125.7828 14.1338 -9.2686 1.2637 -13.9977
# 3 24.8036 14.1338 53.1439 -5.2595 -12.0332 7.7173
# 4 -5.0143 -9.2686 -5.2595 35.4565 3.3314 -8.9523
# 5 -11.6387 1.2637 -12.0332 3.3314 36.5175 3.2735
# 6 -4.1428 -13.9977 7.7173 -8.9523 3.2735 65.1807
#
#
#
# Elastic Compliance Matrix: (Units=1/GPa)
#
#
# Indices 1 2 3 4 5 6 
#
# 1 0.013900 -0.004845 -0.004546 -0.000217 0.003102 0.000196
# 2 -0.004845 0.010476 -0.001265 0.002790 -0.002813 0.002616
# 3 -0.004546 -0.001265 0.023360 0.000991 0.006517 -0.003518
# 4 -0.000217 0.002790 0.000991 0.030553 -0.003058 0.004818
# 5 0.003102 -0.002813 0.006517 -0.003058 0.031180 -0.003165
# 6 0.000196 0.002616 -0.003518 0.004818 -0.003165 0.017153
#
#
# Mechanical properties :
#
#
# Convention : Reuss Voigt Hill
#
# Bulk Modulus (GPa) = 37.84794 50.30332 44.07563
# Shear Modulus (GPa) = 31.89931 40.17749 36.03840
#
# Velocity S-wave (km/s) = 3.64411 4.08970 3.87332
# Velocity P-wave (km/s) = 5.78463 6.57586 6.19289
#
# Compressibility (1/GPa) = 0.02642152
#
# Stress axis : x y z
#
# Youngs Moduli (GPa) = 71.94272 95.45928 42.80862
#
# Poissons Ratio (x) = 0.46254 0.19462
# Poissons Ratio (y) = 0.34859 0.05416
# Poissons Ratio (z) = 0.32708 0.12077
#
# Static dielectric constant tensor:
#      x y z
#    x 1.951120 0.056500 -0.047250 
#    y 0.056500 1.887240 -0.038880 
#    z -0.047250 -0.038880 2.122410 
# 
# From -- ./inp_files/593938.got.cif
#   From: 2010.05.17/outbox.cif.g08.bks.cpg/sg2_297_cif.got.tgz:593938.got - 2010.06.03 11:33:40.
