data_PCOD9092775
_publ_section_title
;
Structure prediction by ZEFSAII (Michael W. Deem and Ramdas Pophale) SiO2 
 PCOD9092775
Probable space group: P -1
;
_chemical_formula_sum "Si O2"
_cell_formula_units_Z 16
_cell_length_a 27.977080
_cell_length_b 9.127546
_cell_length_c 5.295645
_cell_angle_alpha 113.997189
_cell_angle_beta 54.360286
_cell_angle_gamma 145.411759
_cell_volume 616.022510
_symmetry_space_group_name_H-M "P -1"
_symmetry_group_IT_number 2
_symmetry_cell_setting 'triclinic'
loop_
_space_group_symop_operation_xyz
x,y,z
-x,-y,-z
loop_
_atom_site_type_symbol
_atom_site_label
_atom_site_fract_x
_atom_site_fract_y
_atom_site_fract_z
Si Si1 0.861420 0.806437 0.945723
Si Si2 0.018418 0.231585 0.383536
Si Si3 0.700304 0.338862 0.793662
Si Si4 0.310646 0.461019 0.418201
Si Si5 0.400708 0.987975 0.713938
Si Si6 0.573007 0.546063 0.654084
Si Si7 0.724573 0.074039 0.243243
Si Si8 0.071479 0.523241 0.915358
O O1 0.939144 0.854067 0.857572
O O2 0.776891 0.512499 0.900084
O O3 0.798530 0.778550 0.307407
O O4 0.915473 0.000075 0.676441
O O5 0.081845 0.438352 0.568712
O O6 0.022068 0.335259 0.182604
O O7 0.696157 0.512528 0.835721
O O8 0.739822 0.287100 0.454818
O O9 0.601961 0.063076 0.018301
O O10 0.370597 0.753912 0.514608
O O11 0.365188 0.426723 0.324797
O O12 0.325465 0.974314 0.896099
O O13 0.503684 0.275853 0.522968
O O14 0.643250 0.799736 0.442944
O O15 0.500000 0.500000 0.000000
O O16 0.825960 0.209429 0.088836
O O17 0.000000 0.500000 0.000000
#
# Coordination Sequence:
#
# PCOD9092775 Si02
#       8
#     2   2   2   2   2   2   2   2
#     4  10  23  41  71 102 134 187 241 309 352 431
#     4  11  25  44  74 102 146 188 254 300 362 431
#     4  10  19  42  68  97 132 180 236 287 359 417
#     4  10  24  42  71  99 141 181 240 297 365 428
#     4  10  22  46  67  95 133 186 238 289 355 429
#     4  12  25  45  68 105 141 186 236 298 368 442
#     4  11  24  44  72  94 144 187 234 295 364 435
#     4  12  27  46  70 107 150 195 237 298 374 446
#
# _framework density 25.973077
#
# number of rings (size 3 to 8) (size 9 to 14) (size 15 to 20)
#    0.000    1.250    2.500    3.375    3.500    1.500 
#    9.000    0.000    0.000    0.000    0.000    0.000 
#    0.000    0.000    0.000    0.000    0.000    0.000 
#
# Total GULP energy -89286.753456 kJ/mol
# GULP energy per Si atom -5580.422091 kJ/mol
# Density = 2.591396 g / cm^3
# Si number density = 25.973077 Si / 1000 Ang^3
#
#
#
# Elastic Constant Matrix: (Units=GPa)
#
#
# Indices 1 2 3 4 5 6 
#
# 1 210.6025 30.4692 90.6782 -35.6516 9.3102 -27.4140
# 2 30.4692 64.7692 38.4200 -32.8834 -0.0296 -0.1410
# 3 90.6782 38.4200 87.2963 -38.6805 2.8361 -8.4713
# 4 -35.6516 -32.8834 -38.6805 48.4285 -4.0365 5.0984
# 5 9.3102 -0.0296 2.8361 -4.0365 45.0189 -6.8342
# 6 -27.4140 -0.1410 -8.4713 5.0984 -6.8342 31.8108
#
#
#
# Elastic Compliance Matrix: (Units=1/GPa)
#
#
# Indices 1 2 3 4 5 6 
#
# 1 0.009650 0.001092 -0.010445 -0.001136 -0.000589 0.005595
# 2 0.001092 0.025661 -0.006936 0.013052 0.000993 -0.002671
# 3 -0.010445 -0.006936 0.030542 0.012355 0.000933 -0.002679
# 4 -0.001136 0.013052 0.012355 0.039103 0.002460 -0.003369
# 5 -0.000589 0.000993 0.000933 0.002460 0.023154 0.004325
# 6 0.005595 -0.002671 -0.002679 -0.003369 0.004325 0.037001
#
#
# Mechanical properties :
#
#
# Convention : Reuss Voigt Hill
#
# Bulk Modulus (GPa) = 30.05353 75.75588 52.90471
# Shear Modulus (GPa) = 23.94850 38.59170 31.27010
#
# Velocity S-wave (km/s) = 3.03982 3.85883 3.47355
# Velocity P-wave (km/s) = 4.89049 7.00604 6.04158
#
# Compressibility (1/GPa) = 0.03327396
#
# Stress axis : x y z
#
# Youngs Moduli (GPa) = 103.62981 38.96901 32.74200
#
# Poissons Ratio (x) = -0.04254 0.34200
# Poissons Ratio (y) = -0.11314 0.22710
# Poissons Ratio (z) = 1.08244 0.27029
#
# Static dielectric constant tensor:
#      x y z
#    x 2.145400 0.068040 0.081460 
#    y 0.068040 2.145350 0.082430 
#    z 0.081460 0.082430 2.210780 
# 
# From -- ./inp_files/85091.got.cif
#   From: 2010.05.17/outbox.cif.g08.bks.cpg/sg2_43_cif.got.tgz:85091.got - 2010.06.03 11:33:40.
