data_PCOD9092485
_publ_section_title
;
Structure prediction by ZEFSAII (Michael W. Deem and Ramdas Pophale) SiO2 
 PCOD9092485
Probable space group: P -1
;
_chemical_formula_sum "Si O2"
_cell_formula_units_Z 16
_cell_length_a 8.907553
_cell_length_b 11.212510
_cell_length_c 14.849287
_cell_angle_alpha 151.929719
_cell_angle_beta 102.285506
_cell_angle_gamma 76.624177
_cell_volume 678.821051
_symmetry_space_group_name_H-M "P -1"
_symmetry_group_IT_number 2
_symmetry_cell_setting 'triclinic'
loop_
_space_group_symop_operation_xyz
x,y,z
-x,-y,-z
loop_
_atom_site_type_symbol
_atom_site_label
_atom_site_fract_x
_atom_site_fract_y
_atom_site_fract_z
Si Si1 0.912756 0.014761 0.227357
Si Si2 0.076028 0.290138 0.160094
Si Si3 0.779829 0.583712 0.045817
Si Si4 0.070128 0.255342 0.648020
Si Si5 0.229815 0.004797 0.346656
Si Si6 0.464915 0.855897 0.131407
Si Si7 0.388657 0.721042 0.678225
Si Si8 0.738474 0.174998 0.074431
O O1 0.861186 0.789489 0.134342
O O2 0.077398 0.089753 0.326715
O O3 0.784865 0.254282 0.367336
O O4 0.921867 0.887138 0.046262
O O5 0.065923 0.573083 0.307302
O O6 0.906799 0.277948 0.173240
O O7 0.215985 0.135538 0.128755
O O8 0.862132 0.601498 0.164254
O O9 0.599292 0.676943 0.076627
O O10 0.788543 0.288448 0.823524
O O11 0.212788 0.173698 0.545439
O O12 0.000000 0.000000 0.500000
O O13 0.374256 0.010004 0.302804
O O14 0.547191 0.023455 0.180902
O O15 0.339744 0.740853 0.974308
O O16 0.500000 0.500000 0.500000
O O17 0.366496 0.736547 0.793862
#
# Coordination Sequence:
#
# PCOD9092485 Si02
#       8
#     2   2   2   2   2   2   2   2
#     4  10  19  41  66  90 133 173 211 273 327 383
#     4  10  21  39  69 103 129 168 229 281 319 394
#     4  11  23  44  63  95 143 171 217 279 328 397
#     4  12  24  39  67 102 133 174 223 273 339 392
#     4  12  23  40  69  98 129 176 226 271 331 396
#     4  11  24  43  63  94 131 177 221 267 340 399
#     4  10  24  41  62  93 136 170 211 278 332 390
#     4  10  21  43  70  93 130 182 220 267 344 391
#
# _framework density 23.570277999999998
#
# number of rings (size 3 to 8) (size 9 to 14) (size 15 to 20)
#    0.000    1.250    3.750    1.875    1.750    1.500 
#    4.500    1.250    0.000    0.000    0.000    0.000 
#    0.000    0.000    0.000    0.000    0.000    0.000 
#
# Total GULP energy -89406.481871 kJ/mol
# GULP energy per Si atom -5587.905117 kJ/mol
# Density = 2.351663 g / cm^3
# Si number density = 23.570278 Si / 1000 Ang^3
#
#
#
# Elastic Constant Matrix: (Units=GPa)
#
#
# Indices 1 2 3 4 5 6 
#
# 1 84.0199 25.8841 14.7969 4.0155 -34.1919 -11.6528
# 2 25.8841 57.9930 16.0731 4.4975 -9.7058 -6.0156
# 3 14.7969 16.0731 91.4385 5.8873 -30.9383 -5.2504
# 4 4.0155 4.4975 5.8873 37.2262 4.8808 -11.8293
# 5 -34.1919 -9.7058 -30.9383 4.8808 40.3237 -0.3275
# 6 -11.6528 -6.0156 -5.2504 -11.8293 -0.3275 46.4324
#
#
#
# Elastic Compliance Matrix: (Units=1/GPa)
#
#
# Indices 1 2 3 4 5 6 
#
# 1 0.023386 -0.007395 0.005856 -0.004089 0.023076 0.004694
# 2 -0.007395 0.020988 -0.003829 -0.000510 -0.004093 0.000272
# 3 0.005856 -0.003829 0.017053 -0.004597 0.017699 0.001856
# 4 -0.004089 -0.000510 -0.004597 0.031536 -0.010883 0.006345
# 5 0.023076 -0.004093 0.017699 -0.010883 0.058318 0.004901
# 6 0.004694 0.000272 0.001856 0.006345 0.004901 0.024611
#
#
# Mechanical properties :
#
#
# Convention : Reuss Voigt Hill
#
# Bulk Modulus (GPa) = 19.72717 38.55106 29.13912
# Shear Modulus (GPa) = 24.56713 36.57629 30.57171
#
# Velocity S-wave (km/s) = 3.23196 3.94356 3.60536
# Velocity P-wave (km/s) = 4.72388 6.09318 5.45169
#
# Compressibility (1/GPa) = 0.05069152
#
# Stress axis : x y z
#
# Youngs Moduli (GPa) = 42.76047 47.64628 58.64142
#
# Poissons Ratio (x) = 0.35234 -0.34341
# Poissons Ratio (y) = 0.31621 0.22453
# Poissons Ratio (z) = -0.25041 0.18243
#
# Static dielectric constant tensor:
#      x y z
#    x 1.927300 0.009170 0.000430 
#    y 0.009170 1.962620 0.041530 
#    z 0.000430 0.041530 1.893230 
# 
# From -- ./inp_files/501188.got.cif
#   From: 2010.05.17/outbox.cif.g08.bks.cpg/sg2_251_cif.got.tgz:501188.got - 2010.06.03 11:33:40.
