data_PCOD9092054
_publ_section_title
;
Structure prediction by ZEFSAII (Michael W. Deem and Ramdas Pophale) SiO2 
 PCOD9092054
Probable space group: P -1
;
_chemical_formula_sum "Si O2"
_cell_formula_units_Z 16
_cell_length_a 21.512208
_cell_length_b 9.274010
_cell_length_c 17.582810
_cell_angle_alpha 139.190568
_cell_angle_beta 18.567570
_cell_angle_gamma 139.848578
_cell_volume 711.254685
_symmetry_space_group_name_H-M "P -1"
_symmetry_group_IT_number 2
_symmetry_cell_setting 'triclinic'
loop_
_space_group_symop_operation_xyz
x,y,z
-x,-y,-z
loop_
_atom_site_type_symbol
_atom_site_label
_atom_site_fract_x
_atom_site_fract_y
_atom_site_fract_z
Si Si1 0.624432 0.651264 0.760024
Si Si2 0.118976 0.238189 0.922608
Si Si3 0.844456 0.685161 0.672644
Si Si4 0.731879 0.205274 0.698609
Si Si5 0.071540 0.077510 0.743003
Si Si6 0.344172 0.155492 0.909311
Si Si7 0.470305 0.810715 0.524906
Si Si8 0.133968 0.428585 0.689161
O O1 0.787047 0.678173 0.649212
O O2 0.494469 0.390822 0.807042
O O3 0.736657 0.688016 0.564615
O O4 0.469112 0.802292 0.024443
O O5 0.128086 0.192149 0.803516
O O6 0.335885 0.288973 0.728637
O O7 0.002204 0.437122 0.146661
O O8 0.000000 0.000000 0.000000
O O9 0.772003 0.437170 0.695260
O O10 0.077241 0.770034 0.456833
O O11 0.716302 0.831090 0.927463
O O12 0.751787 0.016303 0.538543
O O13 0.017661 0.252058 0.814121
O O14 0.868838 0.878777 0.902527
O O15 0.436732 0.948387 0.693885
O O16 0.283205 0.618164 0.640824
O O17 0.500000 0.000000 0.500000
#
# Coordination Sequence:
#
# PCOD9092054 Si02
#       8
#     2   2   2   2   2   2   2   2
#     4  11  22  39  69  94 132 171 230 266 317 397
#     4  12  25  42  72  95 126 183 219 266 331 390
#     4   9  20  36  63 102 124 165 229 275 315 383
#     4   9  20  38  63  96 130 174 213 276 329 375
#     4  11  25  44  68  96 144 170 215 277 340 389
#     4  10  19  40  65  92 133 169 215 280 312 381
#     4  12  23  42  68 100 129 168 227 271 321 396
#     4  12  27  46  61 104 142 170 213 283 331 392
#
# _framework density 22.495457999999999
#
# number of rings (size 3 to 8) (size 9 to 14) (size 15 to 20)
#    0.000    1.250    3.750    2.625    5.250    2.000 
#    0.000    2.500    0.000    0.000    0.000    0.000 
#    0.000    0.000    0.000    0.000    0.000    0.000 
#
# Total GULP energy -89517.635155 kJ/mol
# GULP energy per Si atom -5594.852197 kJ/mol
# Density = 2.244426 g / cm^3
# Si number density = 22.495458 Si / 1000 Ang^3
#
#
#
# Elastic Constant Matrix: (Units=GPa)
#
#
# Indices 1 2 3 4 5 6 
#
# 1 70.1279 10.3043 19.0638 -14.2173 7.6601 -7.4078
# 2 10.3043 41.0073 3.3768 1.0375 3.3753 -6.4824
# 3 19.0638 3.3768 115.7848 11.8592 0.5231 -9.9786
# 4 -14.2173 1.0375 11.8592 22.1111 7.3207 -0.4356
# 5 7.6601 3.3753 0.5231 7.3207 36.0971 0.3331
# 6 -7.4078 -6.4824 -9.9786 -0.4356 0.3331 23.3854
#
#
#
# Elastic Compliance Matrix: (Units=1/GPa)
#
#
# Indices 1 2 3 4 5 6 
#
# 1 0.021492 -0.004185 -0.005031 0.019468 -0.008082 0.003979
# 2 -0.004185 0.026539 0.000875 -0.003998 -0.000854 0.006342
# 3 -0.005031 0.000875 0.010697 -0.009884 0.002808 0.002989
# 4 0.019468 -0.003998 -0.009884 0.069125 -0.017655 0.002381
# 5 -0.008082 -0.000854 0.002808 -0.017655 0.033060 -0.002398
# 6 0.003979 0.006342 0.002989 0.002381 -0.002398 0.047134
#
#
# Mechanical properties :
#
#
# Convention : Reuss Voigt Hill
#
# Bulk Modulus (GPa) = 23.78318 32.48997 28.13657
# Shear Modulus (GPa) = 20.94283 29.26372 25.10327
#
# Velocity S-wave (km/s) = 3.05451 3.61067 3.34417
# Velocity P-wave (km/s) = 4.79952 5.64419 5.23891
#
# Compressibility (1/GPa) = 0.04204653
#
# Stress axis : x y z
#
# Youngs Moduli (GPa) = 46.52858 37.67982 93.48543
#
# Poissons Ratio (x) = 0.15768 0.47034
# Poissons Ratio (y) = 0.19470 -0.08179
# Poissons Ratio (z) = 0.23409 -0.03296
#
# Static dielectric constant tensor:
#      x y z
#    x 1.809200 0.001290 0.011720 
#    y 0.001290 1.838740 0.009730 
#    z 0.011720 0.009730 1.867800 
# 
# From -- ./inp_files/577616.got.cif
#   From: 2010.05.17/outbox.cif.g08.bks.cpg/sg2_289_cif.got.tgz:577616.got - 2010.06.03 11:33:40.
