data_PCOD9092182
_publ_section_title
;
Structure prediction by ZEFSAII (Michael W. Deem and Ramdas Pophale) SiO2 
 PCOD9092182
Probable space group: P -1
;
_chemical_formula_sum "Si O2"
_cell_formula_units_Z 16
_cell_length_a 7.701189
_cell_length_b 13.556062
_cell_length_c 16.421886
_cell_angle_alpha 130.135692
_cell_angle_beta 132.534449
_cell_angle_gamma 35.515964
_cell_volume 715.843378
_symmetry_space_group_name_H-M "P -1"
_symmetry_group_IT_number 2
_symmetry_cell_setting 'triclinic'
loop_
_space_group_symop_operation_xyz
x,y,z
-x,-y,-z
loop_
_atom_site_type_symbol
_atom_site_label
_atom_site_fract_x
_atom_site_fract_y
_atom_site_fract_z
Si Si1 0.197380 0.020646 0.508324
Si Si2 0.366072 0.342423 0.519455
Si Si3 0.280267 0.518326 0.271440
Si Si4 0.552674 0.848982 0.230928
Si Si5 0.642812 0.675437 0.959193
Si Si6 0.570325 0.240890 0.347406
Si Si7 0.712633 0.298328 0.981536
Si Si8 0.418638 0.029810 0.119011
O O1 0.476771 0.824894 0.463487
O O2 0.360713 0.082041 0.635188
O O3 0.000000 0.000000 0.500000
O O4 0.927064 0.159556 0.433336
O O5 0.560023 0.401257 0.629485
O O6 0.414851 0.280630 0.408235
O O7 0.000000 0.500000 0.500000
O O8 0.431093 0.372618 0.172613
O O9 0.351220 0.420811 0.326091
O O10 0.904928 0.673915 0.220554
O O11 0.355657 0.791173 0.152337
O O12 0.379228 0.986621 0.175173
O O13 0.417685 0.707576 0.976871
O O14 0.000000 0.500000 0.000000
O O15 0.596010 0.847315 0.032062
O O16 0.594234 0.099209 0.229463
O O17 0.500000 0.500000 0.000000
O O18 0.084453 0.183786 0.052274
#
# Coordination Sequence:
#
# PCOD9092182 Si02
#       8
#     2   2   2   2   2   2   2   2
#     4  10  19  40  67  92 123 174 220 256 324 396
#     4  11  24  40  66  95 129 164 217 275 331 374
#     4  12  23  41  65  98 130 170 222 271 314 393
#     4  11  19  40  69  91 127 177 218 256 325 393
#     4  11  24  41  66  93 128 172 221 263 320 386
#     4  11  23  42  69  94 128 177 222 257 328 393
#     4  11  25  44  64  99 130 174 218 270 332 384
#     4  11  22  41  69  94 132 175 215 266 332 392
#
# _framework density 22.351258000000001
#
# number of rings (size 3 to 8) (size 9 to 14) (size 15 to 20)
#    0.000    1.000    7.500    2.625    1.750    1.500 
#    0.000    0.625    2.750    0.000    0.000    0.000 
#    0.000    0.000    0.000    0.000    0.000    0.000 
#
# Total GULP energy -89403.374056 kJ/mol
# GULP energy per Si atom -5587.710879 kJ/mol
# Density = 2.230039 g / cm^3
# Si number density = 22.351258 Si / 1000 Ang^3
#
#
#
# Elastic Constant Matrix: (Units=GPa)
#
#
# Indices 1 2 3 4 5 6 
#
# 1 22.9031 10.3911 16.7513 -6.3374 -5.2517 -0.3879
# 2 10.3911 144.7592 48.1260 -4.8686 0.3096 -1.2672
# 3 16.7513 48.1260 159.7710 15.4769 23.0217 7.3265
# 4 -6.3374 -4.8686 15.4769 42.1582 -1.7393 3.4460
# 5 -5.2517 0.3096 23.0217 -1.7393 19.4925 5.9363
# 6 -0.3879 -1.2672 7.3265 3.4460 5.9363 27.8818
#
#
#
# Elastic Compliance Matrix: (Units=1/GPa)
#
#
# Indices 1 2 3 4 5 6 
#
# 1 0.067139 0.000286 -0.013999 0.017282 0.037856 -0.005570
# 2 0.000286 0.008039 -0.003253 0.002322 0.003970 0.000092
# 3 -0.013999 -0.003253 0.012175 -0.007870 -0.019268 0.001533
# 4 0.017282 0.002322 -0.007870 0.030659 0.018252 -0.005261
# 5 0.037856 0.003970 -0.019268 0.018252 0.090630 -0.015782
# 6 -0.005570 0.000092 0.001533 -0.005261 -0.015782 0.039400
#
#
# Mechanical properties :
#
#
# Convention : Reuss Voigt Hill
#
# Bulk Modulus (GPa) = 18.71873 53.10776 35.91324
# Shear Modulus (GPa) = 16.67887 34.71748 25.69817
#
# Velocity S-wave (km/s) = 2.73466 3.94543 3.39446
# Velocity P-wave (km/s) = 4.28534 6.67587 5.60943
#
# Compressibility (1/GPa) = 0.05342244
#
# Stress axis : x y z
#
# Youngs Moduli (GPa) = 14.89442 124.38885 82.13581
#
# Poissons Ratio (x) = -0.03559 1.14981
# Poissons Ratio (y) = -0.00426 0.26717
# Poissons Ratio (z) = 0.20851 0.40462
#
# Static dielectric constant tensor:
#      x y z
#    x 1.850830 0.011350 -0.012320 
#    y 0.011350 1.847570 0.016450 
#    z -0.012320 0.016450 1.864090 
# 
# From -- ./inp_files/507298.got.cif
#   From: 2010.05.17/outbox.cif.g08.bks.cpg/sg2_254_cif.got.tgz:507298.got - 2010.06.03 11:33:40.
