data_PCOD9092687
_publ_section_title
;
Structure prediction by ZEFSAII (Michael W. Deem and Ramdas Pophale) SiO2 
 PCOD9092687
Probable space group: P -1
;
_chemical_formula_sum "Si O2"
_cell_formula_units_Z 14
_cell_length_a 5.031350
_cell_length_b 16.697780
_cell_length_c 9.031601
_cell_angle_alpha 46.603077
_cell_angle_beta 100.015852
_cell_angle_gamma 98.881720
_cell_volume 542.279611
_symmetry_space_group_name_H-M "P -1"
_symmetry_group_IT_number 2
_symmetry_cell_setting 'triclinic'
loop_
_space_group_symop_operation_xyz
x,y,z
-x,-y,-z
loop_
_atom_site_type_symbol
_atom_site_label
_atom_site_fract_x
_atom_site_fract_y
_atom_site_fract_z
Si Si1 0.356237 0.050759 0.624350
Si Si2 0.236320 0.205000 0.669120
Si Si3 0.839227 0.682102 0.197485
Si Si4 0.180169 0.861557 0.660765
Si Si5 0.720396 0.344598 0.395177
Si Si6 0.176304 0.508434 0.343044
Si Si7 0.429955 0.641548 0.962683
O O1 0.302747 0.092414 0.732873
O O2 0.634603 0.091503 0.519280
O O3 0.124187 0.108695 0.434733
O O4 0.296783 0.923232 0.740883
O O5 0.177192 0.213269 0.828990
O O6 0.500434 0.281960 0.556492
O O7 0.970290 0.261586 0.505897
O O8 0.122465 0.627841 0.256552
O O9 0.719311 0.579807 0.418883
O O10 0.680752 0.690621 0.019547
O O11 0.209364 0.733158 0.840985
O O12 0.886820 0.452276 0.335003
O O13 0.562890 0.369072 0.198007
O O14 0.334598 0.531589 0.178982
#
# Coordination Sequence:
#
# PCOD9092687 Si02
#       7
#     2   2   2   2   2   2   2
#     4  10  19  42  63  94 125 159 199 259 318 380
#     4  11  22  43  64  92 126 170 205 253 315 385
#     4  10  26  40  63  85 131 175 210 245 323 371
#     4  10  22  36  68  95 122 156 206 260 319 357
#     4  11  25  39  67  92 124 162 221 257 310 357
#     4  10  25  43  60  88 129 177 208 254 311 380
#     4  12  23  40  63  98 121 164 212 275 294 372
#
# _framework density 25.816942000000001
#
# number of rings (size 3 to 8) (size 9 to 14) (size 15 to 20)
#    0.000    1.429    2.857    0.857   14.000    0.571 
#    0.000    0.714    0.000    0.857    0.000    0.000 
#    0.000    0.000    0.000    0.000    0.000    0.000 
#
# Total GULP energy -78240.538164 kJ/mol
# GULP energy per Si atom -5588.609869 kJ/mol
# Density = 2.575818 g / cm^3
# Si number density = 25.816942 Si / 1000 Ang^3
#
#
#
# Elastic Constant Matrix: (Units=GPa)
#
#
# Indices 1 2 3 4 5 6 
#
# 1 106.8416 19.6047 12.3166 16.2747 8.9945 -9.8789
# 2 19.6047 168.2533 3.1686 34.0852 -1.8072 -21.0275
# 3 12.3166 3.1686 50.6830 28.1440 15.4686 5.9018
# 4 16.2747 34.0852 28.1440 42.6390 6.7762 8.3049
# 5 8.9945 -1.8072 15.4686 6.7762 28.6133 5.6671
# 6 -9.8789 -21.0275 5.9018 8.3049 5.6671 43.3582
#
#
#
# Elastic Compliance Matrix: (Units=1/GPa)
#
#
# Indices 1 2 3 4 5 6 
#
# 1 0.010613 0.000163 0.000652 -0.004823 -0.003281 0.003761
# 2 0.000163 0.008998 0.005632 -0.012011 -0.000881 0.006050
# 3 0.000652 0.005632 0.039689 -0.029511 -0.015334 0.005134
# 4 -0.004823 -0.012011 -0.029511 0.056200 0.006272 -0.014491
# 5 -0.003281 -0.000881 -0.015334 0.006272 0.043923 -0.006030
# 6 0.003761 0.006050 0.005134 -0.014491 -0.006030 0.029720
#
#
# Mechanical properties :
#
#
# Convention : Reuss Voigt Hill
#
# Bulk Modulus (GPa) = 13.85138 43.99529 28.92333
# Shear Modulus (GPa) = 24.96077 42.30130 33.63104
#
# Velocity S-wave (km/s) = 3.11277 4.05224 3.61317
# Velocity P-wave (km/s) = 4.27738 6.24279 5.35110
#
# Compressibility (1/GPa) = 0.07219498
#
# Stress axis : x y z
#
# Youngs Moduli (GPa) = 94.22251 111.13240 25.19561
#
# Poissons Ratio (x) = -0.01810 -0.01643
# Poissons Ratio (y) = -0.01534 -0.14190
# Poissons Ratio (z) = -0.06145 -0.62590
#
# Static dielectric constant tensor:
#      x y z
#    x 2.031600 -0.017500 0.009730 
#    y -0.017500 2.171320 0.022600 
#    z 0.009730 0.022600 1.991410 
# 
# From -- ./inp_files/137227.got.cif
#   From: 2010.05.17/outbox.cif.g08.bks.cpg/sg2_69_cif.got.tgz:137227.got - 2010.06.03 11:33:40.
