data_PCOD9092750
_publ_section_title
;
Structure prediction by ZEFSAII (Michael W. Deem and Ramdas Pophale) SiO2 
 PCOD9092750
Probable space group: P -1
;
_chemical_formula_sum "Si O2"
_cell_formula_units_Z 14
_cell_length_a 13.014273
_cell_length_b 11.314523
_cell_length_c 7.564766
_cell_angle_alpha 39.920721
_cell_angle_beta 96.607167
_cell_angle_gamma 111.207527
_cell_volume 641.403479
_symmetry_space_group_name_H-M "P -1"
_symmetry_group_IT_number 2
_symmetry_cell_setting 'triclinic'
loop_
_space_group_symop_operation_xyz
x,y,z
-x,-y,-z
loop_
_atom_site_type_symbol
_atom_site_label
_atom_site_fract_x
_atom_site_fract_y
_atom_site_fract_z
Si Si1 0.996993 0.824141 0.568754
Si Si2 0.135766 0.629171 0.354068
Si Si3 0.831711 0.362160 0.060963
Si Si4 0.630276 0.701770 0.934352
Si Si5 0.386901 0.619736 0.991307
Si Si6 0.832471 0.984827 0.875551
Si Si7 0.697532 0.562084 0.434764
O O1 0.884003 0.610943 0.799361
O O2 0.038494 0.937769 0.259062
O O3 0.090370 0.730947 0.724605
O O4 0.000000 0.000000 0.500000
O O5 0.159569 0.683437 0.090811
O O6 0.211913 0.510419 0.549027
O O7 0.000000 0.500000 0.500000
O O8 0.176832 0.825281 0.257667
O O9 0.701549 0.286769 0.183807
O O10 0.637827 0.579050 0.905821
O O11 0.749155 0.884599 0.805357
O O12 0.522000 0.753081 0.840528
O O13 0.610031 0.555045 0.271671
O O14 0.358926 0.556521 0.263753
O O15 0.778351 0.799763 0.215283
#
# Coordination Sequence:
#
# PCOD9092750 Si02
#       7
#     2   2   2   2   2   2   2
#     4  11  23  39  61  87 127 159 205 260 308 365
#     4  11  22  39  59  87 125 163 202 252 310 366
#     4  10  24  38  61  89 121 165 203 254 307 371
#     4   9  21  39  69  89 122 166 206 257 310 367
#     4  10  19  42  67  92 120 167 210 250 317 360
#     4  10  23  38  61  91 118 163 207 249 311 366
#     4   9  23  39  64  89 128 162 202 260 303 369
#
# _framework density 21.827134000000001
#
# number of rings (size 3 to 8) (size 9 to 14) (size 15 to 20)
#    0.857    1.143    1.429    1.286    4.000    4.000 
#    0.000    3.571    3.143    0.000    0.000    0.000 
#    0.000    0.000    0.000    0.000    0.000    0.000 
#
# Total GULP energy -78044.727677 kJ/mol
# GULP energy per Si atom -5574.623406 kJ/mol
# Density = 2.177745 g / cm^3
# Si number density = 21.827134 Si / 1000 Ang^3
#
#
#
# Elastic Constant Matrix: (Units=GPa)
#
#
# Indices 1 2 3 4 5 6 
#
# 1 -192.3628 -111.4860 -73.7765 -94.7050 -38.1629 -174.9406
# 2 -111.4860 53.7741 -20.6457 -51.6214 -15.3173 -79.0530
# 3 -73.7765 -20.6457 16.5095 -28.2361 -12.4140 -43.1832
# 4 -94.7050 -51.6214 -28.2361 2.7886 -12.2140 -49.9004
# 5 -38.1629 -15.3173 -12.4140 -12.2140 15.4222 -22.6816
# 6 -174.9406 -79.0530 -43.1832 -49.9004 -22.6816 -52.6384
#
#
#
# Elastic Compliance Matrix: (Units=1/GPa)
#
#
# Indices 1 2 3 4 5 6 
#
# 1 0.005568 -0.002992 -0.003296 -0.005062 -0.003322 -0.005077
# 2 -0.002992 0.009549 -0.004164 0.001253 -0.002124 -0.001255
# 3 -0.003296 -0.004164 0.027181 -0.000549 0.001487 -0.005213
# 4 -0.005062 0.001253 -0.000549 0.027337 -0.003397 -0.009059
# 5 -0.003322 -0.002124 0.001487 -0.003397 0.047064 -0.004049
# 6 -0.005077 -0.001255 -0.005213 -0.009059 -0.004049 0.014367
#
#
# Mechanical properties :
#
#
# Convention : Reuss Voigt Hill
#
# Bulk Modulus (GPa) = 46.73916 -59.32172 -6.29128
# Shear Modulus (GPa) = 31.42684 -1.29692 15.06496
#
# Velocity S-wave (km/s) = 3.79859 -0.77167 2.63000
# Velocity P-wave (km/s) = 6.37957 5.29442 2.51674
#
# Compressibility (1/GPa) = 0.02139533
#
# Stress axis : x y z
#
# Youngs Moduli (GPa) = 179.60857 104.72632 36.79024
#
# Poissons Ratio (x) = 0.31330 0.12125
# Poissons Ratio (y) = 0.53731 0.15318
# Poissons Ratio (z) = 0.59195 0.43605
#
# Static dielectric constant tensor:
#      x y z
#    x 1.863160 0.031920 0.020920 
#    y 0.031920 1.764960 0.043700 
#    z 0.020920 0.043700 1.812370 
# 
# From -- ./inp_files/251411.got.cif
#   From: 2010.05.17/outbox.cif.g08.bks.cpg/sg2_126_cif.got.tgz:251411.got - 2010.06.03 11:33:40.
