data_PCOD9092349
_publ_section_title
;
Structure prediction by ZEFSAII (Michael W. Deem and Ramdas Pophale) SiO2 
 PCOD9092349
Probable space group: P -1
;
_chemical_formula_sum "Si O2"
_cell_formula_units_Z 12
_cell_length_a 7.078909
_cell_length_b 11.001948
_cell_length_c 24.355891
_cell_angle_alpha 25.748853
_cell_angle_beta 141.376387
_cell_angle_gamma 142.786735
_cell_volume 483.387704
_symmetry_space_group_name_H-M "P -1"
_symmetry_group_IT_number 2
_symmetry_cell_setting 'triclinic'
loop_
_space_group_symop_operation_xyz
x,y,z
-x,-y,-z
loop_
_atom_site_type_symbol
_atom_site_label
_atom_site_fract_x
_atom_site_fract_y
_atom_site_fract_z
Si Si1 0.661747 0.229722 0.681573
Si Si2 0.697657 0.254447 0.123948
Si Si3 0.836553 0.653156 0.092004
Si Si4 0.627778 0.324517 0.368946
Si Si5 0.747498 0.145872 0.358162
Si Si6 0.735430 0.651627 0.365131
O O1 0.522841 0.600301 0.392731
O O2 0.001468 0.459012 0.646614
O O3 0.614361 0.953757 0.825637
O O4 0.458484 0.063051 0.651305
O O5 0.908287 0.501384 0.113805
O O6 0.847238 0.008746 0.239530
O O7 0.541023 0.382685 0.987742
O O8 0.899512 0.461227 0.233771
O O9 0.000000 0.000000 0.000000
O O10 0.539443 0.221025 0.328640
O O11 0.550080 0.517402 0.321560
O O12 0.500000 0.000000 0.500000
O O13 0.000000 0.000000 0.500000
O O14 0.000000 0.500000 0.500000
#
# Coordination Sequence:
#
# PCOD9092349 Si02
#       6
#     2   2   2   2   2   2
#     4   9  23  48  68 100 156 196 249 313 376 448
#     4   8  20  43  70 103 143 201 246 301 384 450
#     4  10  19  40  76 106 143 197 252 306 372 452
#     4  12  28  41  68 108 150 197 255 313 380 445
#     4  11  25  43  72 110 149 200 251 306 382 456
#     4  10  23  45  70 104 150 199 242 307 380 451
#
# _framework density 24.824793
#
# number of rings (size 3 to 8) (size 9 to 14) (size 15 to 20)
#    1.000    1.000    0.000    2.000    4.667    1.333 
#    0.000    0.833    0.000   16.000    0.000    0.000 
#    0.000    0.167    0.000    0.000    0.000    0.000 
#
# Total GULP energy -66847.525630 kJ/mol
# GULP energy per Si atom -5570.627136 kJ/mol
# Density = 2.476829 g / cm^3
# Si number density = 24.824793 Si / 1000 Ang^3
#
#
#
# Elastic Constant Matrix: (Units=GPa)
#
#
# Indices 1 2 3 4 5 6 
#
# 1 135.7412 80.5925 36.0119 -13.9976 -0.2334 -29.9665
# 2 80.5925 168.7272 55.7331 -16.5355 7.9904 -32.2006
# 3 36.0119 55.7331 161.7265 -12.1878 10.6093 -6.2974
# 4 -13.9976 -16.5355 -12.1878 55.4686 -10.1449 0.1733
# 5 -0.2334 7.9904 10.6093 -10.1449 35.1458 -14.6290
# 6 -29.9665 -32.2006 -6.2974 0.1733 -14.6290 60.9857
#
#
#
# Elastic Compliance Matrix: (Units=1/GPa)
#
#
# Indices 1 2 3 4 5 6 
#
# 1 0.011257 -0.004261 -0.000966 0.002003 0.003594 0.004038
# 2 -0.004261 0.009246 -0.002040 0.001205 -0.000106 0.002548
# 3 -0.000966 -0.002040 0.007218 0.000340 -0.002177 -0.001330
# 4 0.002003 0.001205 0.000340 0.020204 0.006814 0.003233
# 5 0.003594 -0.000106 -0.002177 0.006814 0.035255 0.009923
# 6 0.004038 0.002548 -0.001330 0.003233 0.009923 0.021961
#
#
# Mechanical properties :
#
#
# Convention : Reuss Voigt Hill
#
# Bulk Modulus (GPa) = 75.83621 90.09666 82.96644
# Shear Modulus (GPa) = 40.29949 49.91054 45.10502
#
# Velocity S-wave (km/s) = 4.03346 4.48874 4.26718
# Velocity P-wave (km/s) = 7.23233 7.95216 7.60077
#
# Compressibility (1/GPa) = 0.01318631
#
# Stress axis : x y z
#
# Youngs Moduli (GPa) = 88.82993 108.16056 138.54093
#
# Poissons Ratio (x) = 0.46091 0.13380
# Poissons Ratio (y) = 0.37853 0.28266
# Poissons Ratio (z) = 0.08579 0.22068
#
# Static dielectric constant tensor:
#      x y z
#    x 2.026630 0.045190 0.036480 
#    y 0.045190 2.037560 0.011280 
#    z 0.036480 0.011280 2.039170 
# 
# From -- ./inp_files/616798.got.cif
#   From: 2010.05.17/outbox.cif.g08.bks.cpg/sg2_309_cif.got.tgz:616798.got - 2010.06.03 11:33:40.
