data_PCOD9092132
_publ_section_title
;
Structure prediction by ZEFSAII (Michael W. Deem and Ramdas Pophale) SiO2 
 PCOD9092132
Probable space group: P -1
;
_chemical_formula_sum "Si O2"
_cell_formula_units_Z 16
_cell_length_a 12.035876
_cell_length_b 9.224533
_cell_length_c 11.871217
_cell_angle_alpha 124.934936
_cell_angle_beta 123.083014
_cell_angle_gamma 90.990546
_cell_volume 794.107327
_symmetry_space_group_name_H-M "P -1"
_symmetry_group_IT_number 2
_symmetry_cell_setting 'triclinic'
loop_
_space_group_symop_operation_xyz
x,y,z
-x,-y,-z
loop_
_atom_site_type_symbol
_atom_site_label
_atom_site_fract_x
_atom_site_fract_y
_atom_site_fract_z
Si Si1 0.285661 0.486270 0.927483
Si Si2 0.026525 0.209727 0.057667
Si Si3 0.987312 0.310313 0.837601
Si Si4 0.418201 0.459053 0.765864
Si Si5 0.722931 0.113632 0.916052
Si Si6 0.273990 0.658636 0.415221
Si Si7 0.557266 0.849208 0.508054
Si Si8 0.481445 0.839586 0.822804
O O1 0.128384 0.374167 0.858981
O O2 0.293523 0.425789 0.776127
O O3 0.417167 0.461192 0.050635
O O4 0.337764 0.725744 0.058051
O O5 0.176999 0.416333 0.262236
O O6 0.900902 0.245453 0.069754
O O7 0.001764 0.187768 0.898003
O O8 0.000000 0.000000 0.000000
O O9 0.832680 0.254246 0.658285
O O10 0.000000 0.500000 0.000000
O O11 0.387067 0.254471 0.597045
O O12 0.438195 0.629292 0.764322
O O13 0.684985 0.976525 0.724223
O O14 0.642609 0.956925 0.901233
O O15 0.409039 0.687943 0.419533
O O16 0.356215 0.781846 0.628607
O O17 0.500000 0.000000 0.500000
O O18 0.500000 0.000000 0.000000
#
# Coordination Sequence:
#
# PCOD9092132 Si02
#       8
#     2   2   2   2   2   2   2   2
#     4  11  21  40  66  98 127 185 230 277 341 409
#     4  11  24  39  66 104 138 173 229 284 346 409
#     4  10  19  40  66  94 131 175 224 275 338 415
#     4  11  24  39  65  97 140 175 233 284 344 403
#     4  11  22  40  65  96 131 179 227 275 349 407
#     4  10  23  41  68  97 133 180 232 274 352 406
#     4  11  22  38  68  98 129 172 233 287 335 402
#     4  11  25  43  66  98 139 178 229 291 347 400
#
# _framework density 20.148409000000001
#
# number of rings (size 3 to 8) (size 9 to 14) (size 15 to 20)
#    0.000    1.250    5.000    2.250    5.250    1.000 
#    0.000    2.500    0.000    2.250    0.000    0.000 
#    0.000    0.000    0.000    0.000    0.000    0.000 
#
# Total GULP energy -89191.817278 kJ/mol
# GULP energy per Si atom -5574.488580 kJ/mol
# Density = 2.010255 g / cm^3
# Si number density = 20.148409 Si / 1000 Ang^3
#
#
#
# Elastic Constant Matrix: (Units=GPa)
#
#
# Indices 1 2 3 4 5 6 
#
# 1 130.5892 35.0749 50.8605 -1.0911 -11.2162 22.7167
# 2 35.0749 113.5365 27.0124 3.3762 -13.1253 13.2701
# 3 50.8605 27.0124 90.3112 6.0210 -15.4734 12.9772
# 4 -1.0911 3.3762 6.0210 26.9548 5.1756 1.9236
# 5 -11.2162 -13.1253 -15.4734 5.1756 33.1261 -2.3607
# 6 22.7167 13.2701 12.9772 1.9236 -2.3607 26.0925
#
#
#
# Elastic Compliance Matrix: (Units=1/GPa)
#
#
# Indices 1 2 3 4 5 6 
#
# 1 0.011213 -0.001556 -0.005047 0.002249 -0.000001 -0.006626
# 2 -0.001556 0.010302 -0.001169 -0.001466 0.003030 -0.002922
# 3 -0.005047 -0.001169 0.015856 -0.004569 0.005803 -0.002036
# 4 0.002249 -0.001466 -0.004569 0.040202 -0.008424 -0.002667
# 5 -0.000001 0.003030 0.005803 -0.008424 0.035372 -0.000605
# 6 -0.006626 -0.002922 -0.002036 -0.002667 -0.000605 0.046734
#
#
# Mechanical properties :
#
#
# Convention : Reuss Voigt Hill
#
# Bulk Modulus (GPa) = 45.81348 62.25916 54.03632
# Shear Modulus (GPa) = 27.39764 32.00062 29.69913
#
# Velocity S-wave (km/s) = 3.69154 3.98960 3.84346
# Velocity P-wave (km/s) = 6.39979 7.22426 6.82449
#
# Compressibility (1/GPa) = 0.02182764
#
# Stress axis : x y z
#
# Youngs Moduli (GPa) = 89.18566 97.07173 63.06672
#
# Poissons Ratio (x) = 0.15100 0.31831
# Poissons Ratio (y) = 0.13874 0.07370
# Poissons Ratio (z) = 0.45014 0.11343
#
# Static dielectric constant tensor:
#      x y z
#    x 1.783990 -0.032290 -0.010490 
#    y -0.032290 1.787790 -0.006720 
#    z -0.010490 -0.006720 1.730130 
# 
# From -- ./inp_files/297907.got.cif
#   From: 2010.05.17/outbox.cif.g08.bks.cpg/sg2_149_cif.got.tgz:297907.got - 2010.06.03 11:33:40.
