data_PCOD9092496
_publ_section_title
;
Structure prediction by ZEFSAII (Michael W. Deem and Ramdas Pophale) SiO2 
 PCOD9092496
Probable space group: P -1
;
_chemical_formula_sum "Si O2"
_cell_formula_units_Z 16
_cell_length_a 7.484573
_cell_length_b 17.690506
_cell_length_c 20.863005
_cell_angle_alpha 22.273117
_cell_angle_beta 47.383496
_cell_angle_gamma 37.300031
_cell_volume 613.158708
_symmetry_space_group_name_H-M "P -1"
_symmetry_group_IT_number 2
_symmetry_cell_setting 'triclinic'
loop_
_space_group_symop_operation_xyz
x,y,z
-x,-y,-z
loop_
_atom_site_type_symbol
_atom_site_label
_atom_site_fract_x
_atom_site_fract_y
_atom_site_fract_z
Si Si1 0.832795 0.519494 0.852435
Si Si2 0.256132 0.549355 0.571639
Si Si3 0.145799 0.710492 0.706244
Si Si4 0.347548 0.125010 0.208744
Si Si5 0.848733 0.789416 0.098405
Si Si6 0.862550 0.969420 0.122153
Si Si7 0.254480 0.873192 0.778475
Si Si8 0.581830 0.558095 0.610714
O O1 0.474269 0.734050 0.773732
O O2 0.988583 0.620669 0.771981
O O3 0.955837 0.448483 0.807838
O O4 0.894492 0.268773 0.063050
O O5 0.500000 0.500000 0.500000
O O6 0.188580 0.351597 0.725098
O O7 0.395904 0.523960 0.628657
O O8 0.970634 0.835316 0.407229
O O9 0.480355 0.555151 0.712056
O O10 0.009041 0.717350 0.805178
O O11 0.000000 0.000000 0.500000
O O12 0.518672 0.177794 0.178543
O O13 0.505206 0.118531 0.108293
O O14 0.483851 0.834771 0.409449
O O15 0.500000 0.000000 0.000000
O O16 0.010628 0.920232 0.949523
O O17 0.072303 0.670921 0.310944
O O18 0.000000 0.000000 0.000000
#
# Coordination Sequence:
#
# PCOD9092496 Si02
#       8
#     2   2   2   2   2   2   2   2
#     4  10  19  41  66  93 128 166 211 271 322 382
#     4  12  25  39  64  98 128 172 217 268 326 390
#     4   9  19  40  70  91 124 172 210 261 329 382
#     4  10  22  43  66  91 129 171 211 268 323 387
#     4  12  23  43  66  91 133 170 217 275 324 383
#     4  12  26  42  64  97 129 174 219 267 329 387
#     4  10  22  39  69  95 126 167 217 261 328 387
#     4  11  23  44  64  91 135 171 214 271 325 386
#
# _framework density 26.094384999999999
#
# number of rings (size 3 to 8) (size 9 to 14) (size 15 to 20)
#    0.000    1.250    3.750    1.875    3.500    0.500 
#    0.000    1.875    0.000    0.000    0.000    0.000 
#    0.000    0.000    0.000    0.000    0.000    0.000 
#
# Total GULP energy -89289.239947 kJ/mol
# GULP energy per Si atom -5580.577497 kJ/mol
# Density = 2.603499 g / cm^3
# Si number density = 26.094385 Si / 1000 Ang^3
#
#
#
# Elastic Constant Matrix: (Units=GPa)
#
#
# Indices 1 2 3 4 5 6 
#
# 1 81.7321 21.1441 16.4695 -11.0590 -23.0258 -4.3773
# 2 21.1441 175.4762 13.4364 18.4615 11.8365 7.2338
# 3 16.4695 13.4364 107.0843 0.1200 -20.7188 -8.8222
# 4 -11.0590 18.4615 0.1200 42.9866 -6.7501 -11.1034
# 5 -23.0258 11.8365 -20.7188 -6.7501 40.8476 1.1686
# 6 -4.3773 7.2338 -8.8222 -11.1034 1.1686 28.1189
#
#
#
# Elastic Compliance Matrix: (Units=1/GPa)
#
#
# Indices 1 2 3 4 5 6 
#
# 1 0.019511 -0.005034 0.001192 0.011750 0.014753 0.008733
# 2 -0.005034 0.008000 -0.002141 -0.007461 -0.007298 -0.006156
# 3 0.001192 -0.002141 0.011322 0.003786 0.007504 0.005472
# 4 0.011750 -0.007461 0.003786 0.036898 0.016265 0.018830
# 5 0.014753 -0.007298 0.007504 0.016265 0.041085 0.011244
# 6 0.008733 -0.006156 0.005472 0.018830 0.011244 0.047191
#
#
# Mechanical properties :
#
#
# Convention : Reuss Voigt Hill
#
# Bulk Modulus (GPa) = 37.21851 51.82141 44.51996
# Shear Modulus (GPa) = 27.03738 43.27345 35.15542
#
# Velocity S-wave (km/s) = 3.22240 4.07669 3.67446
# Velocity P-wave (km/s) = 5.30464 6.48549 5.92456
#
# Compressibility (1/GPa) = 0.02686835
#
# Stress axis : x y z
#
# Youngs Moduli (GPa) = 51.25258 124.99582 88.32235
#
# Poissons Ratio (x) = 0.62919 -0.10525
# Poissons Ratio (y) = 0.25799 0.18906
# Poissons Ratio (z) = -0.06107 0.26756
#
# Static dielectric constant tensor:
#      x y z
#    x 1.832490 -0.183470 0.047840 
#    y -0.183470 1.899120 0.108280 
#    z 0.047840 0.108280 2.073810 
# 
# From -- ./inp_files/608638.got.cif
#   From: 2010.05.17/outbox.cif.g08.bks.cpg/sg2_305_cif.got.tgz:608638.got - 2010.06.03 11:33:40.
