data_PCOD9092291
_publ_section_title
;
Structure prediction by ZEFSAII (Michael W. Deem and Ramdas Pophale) SiO2 
 PCOD9092291
Probable space group: P -1
;
_chemical_formula_sum "Si O2"
_cell_formula_units_Z 16
_cell_length_a 14.107388
_cell_length_b 8.082749
_cell_length_c 5.699124
_cell_angle_alpha 103.897004
_cell_angle_beta 73.870367
_cell_angle_gamma 73.122787
_cell_volume 559.817947
_symmetry_space_group_name_H-M "P -1"
_symmetry_group_IT_number 2
_symmetry_cell_setting 'triclinic'
loop_
_space_group_symop_operation_xyz
x,y,z
-x,-y,-z
loop_
_atom_site_type_symbol
_atom_site_label
_atom_site_fract_x
_atom_site_fract_y
_atom_site_fract_z
Si Si1 0.098757 0.584551 0.016480
Si Si2 0.328106 0.623268 0.883655
Si Si3 0.170779 0.979056 0.231992
Si Si4 0.846552 0.601708 0.593921
Si Si5 0.522597 0.763259 0.139667
Si Si6 0.886442 0.941742 0.207870
Si Si7 0.629832 0.620255 0.611684
Si Si8 0.347317 0.070443 0.641291
O O1 0.266727 0.419953 0.314438
O O2 0.093754 0.489436 0.238078
O O3 0.989444 0.759863 0.122435
O O4 0.209764 0.614375 0.971490
O O5 0.415275 0.448699 0.891729
O O6 0.361837 0.570200 0.573776
O O7 0.291173 0.831871 0.064124
O O8 0.421484 0.880904 0.402791
O O9 0.128287 0.939366 0.500762
O O10 0.107558 0.983987 0.033443
O O11 0.886809 0.516548 0.280610
O O12 0.834122 0.813407 0.670812
O O13 0.596995 0.884526 0.154026
O O14 0.519718 0.725753 0.853993
O O15 0.773275 0.913849 0.252697
O O16 0.645750 0.763518 0.466284
#
# Coordination Sequence:
#
# PCOD9092291 Si02
#       8
#     2   2   2   2   2   2   2   2
#     4  11  25  45  73  99 140 177 238 276 342 401
#     4  10  25  43  66 102 135 186 222 280 340 416
#     4  12  27  44  67  98 150 177 229 274 348 406
#     4  11  22  43  69 104 134 180 223 292 331 407
#     4  10  20  42  71  97 138 172 234 281 346 396
#     4  12  27  45  69 101 139 182 228 285 339 405
#     4  10  19  40  69  99 131 178 229 283 337 401
#     4  10  22  40  68 107 128 176 232 292 335 397
#
# _framework density 28.580718000000001
#
# number of rings (size 3 to 8) (size 9 to 14) (size 15 to 20)
#    0.000    1.250    2.500    2.625    3.500    4.000 
#    0.000    1.250    0.000    0.000    0.000    0.000 
#    0.000    0.000    0.000    0.000    0.000    0.000 
#
# Total GULP energy -89563.154885 kJ/mol
# GULP energy per Si atom -5597.697180 kJ/mol
# Density = 2.851567 g / cm^3
# Si number density = 28.580718 Si / 1000 Ang^3
#
#
#
# Elastic Constant Matrix: (Units=GPa)
#
#
# Indices 1 2 3 4 5 6 
#
# 1 110.6154 38.6016 30.8374 1.2137 -5.5608 -8.9926
# 2 38.6016 174.5318 89.4438 36.0965 0.9000 -16.1031
# 3 30.8374 89.4438 227.7660 23.9225 22.7532 -10.5610
# 4 1.2137 36.0965 23.9225 54.9360 -11.1448 -12.8717
# 5 -5.5608 0.9000 22.7532 -11.1448 31.8963 -1.3208
# 6 -8.9926 -16.1031 -10.5610 -12.8717 -1.3208 38.6545
#
#
#
# Elastic Compliance Matrix: (Units=1/GPa)
#
#
# Indices 1 2 3 4 5 6 
#
# 1 0.010469 -0.002143 -0.001171 0.003027 0.003877 0.002363
# 2 -0.002143 0.008458 -0.002516 -0.004255 -0.000267 0.000912
# 3 -0.001171 -0.002516 0.006297 -0.002299 -0.005451 -0.000552
# 4 0.003027 -0.004255 -0.002299 0.026032 0.011688 0.007371
# 5 0.003877 -0.000267 -0.005451 0.011688 0.040197 0.004567
# 6 0.002363 0.000912 -0.000552 0.007371 0.004567 0.029260
#
#
# Mechanical properties :
#
#
# Convention : Reuss Voigt Hill
#
# Bulk Modulus (GPa) = 73.72322 92.29763 83.01042
# Shear Modulus (GPa) = 36.52463 48.69937 42.61200
#
# Velocity S-wave (km/s) = 3.57872 4.13234 3.86545
# Velocity P-wave (km/s) = 6.55187 7.42510 7.00211
#
# Compressibility (1/GPa) = 0.01356425
#
# Stress axis : x y z
#
# Youngs Moduli (GPa) = 95.52422 118.22597 158.79635
#
# Poissons Ratio (x) = 0.25337 0.18602
# Poissons Ratio (y) = 0.20471 0.39946
# Poissons Ratio (z) = 0.11190 0.29740
#
# Static dielectric constant tensor:
#      x y z
#    x 2.341050 0.002880 0.087400 
#    y 0.002880 2.244860 -0.088370 
#    z 0.087400 -0.088370 2.349270 
# 
# From -- ./inp_files/95151.got.cif
#   From: 2010.05.17/outbox.cif.g08.bks.cpg/sg2_48_cif.got.tgz:95151.got - 2010.06.03 11:33:40.
