data_PCOD9092335
_publ_section_title
;
Structure prediction by ZEFSAII (Michael W. Deem and Ramdas Pophale) SiO2 
 PCOD9092335
Probable space group: P -1
;
_chemical_formula_sum "Si O2"
_cell_formula_units_Z 16
_cell_length_a 7.814940
_cell_length_b 23.888028
_cell_length_c 9.240574
_cell_angle_alpha 30.288128
_cell_angle_beta 63.541626
_cell_angle_gamma 54.274625
_cell_volume 699.030595
_symmetry_space_group_name_H-M "P -1"
_symmetry_group_IT_number 2
_symmetry_cell_setting 'triclinic'
loop_
_space_group_symop_operation_xyz
x,y,z
-x,-y,-z
loop_
_atom_site_type_symbol
_atom_site_label
_atom_site_fract_x
_atom_site_fract_y
_atom_site_fract_z
Si Si1 0.185422 0.287611 0.269614
Si Si2 0.015412 0.126930 0.186257
Si Si3 0.148677 0.640527 0.134730
Si Si4 0.345626 0.130704 0.836097
Si Si5 0.295578 0.369697 0.772276
Si Si6 0.374834 0.816601 0.149117
Si Si7 0.267199 0.063154 0.521647
Si Si8 0.716752 0.372986 0.203289
O O1 0.272750 0.238643 0.503857
O O2 0.235631 0.161254 0.440484
O O3 0.933346 0.377881 0.162977
O O4 0.293246 0.352053 0.984651
O O5 0.125952 0.130471 0.288707
O O6 0.149853 0.117918 0.013559
O O7 0.000000 0.000000 0.500000
O O8 0.839268 0.268243 0.949225
O O9 0.288808 0.498962 0.443196
O O10 0.919496 0.636686 0.195607
O O11 0.235981 0.667051 0.892196
O O12 0.466792 0.160353 0.853711
O O13 0.500000 0.000000 0.000000
O O14 0.492448 0.259961 0.866516
O O15 0.292431 0.733442 0.455769
O O16 0.218068 0.953275 0.847531
O O17 0.500000 0.000000 0.500000
O O18 0.500000 0.500000 0.000000
#
# Coordination Sequence:
#
# PCOD9092335 Si02
#       8
#     2   2   2   2   2   2   2   2
#     4  11  23  41  68 101 135 172 225 279 334 396
#     4  12  26  42  67  98 137 175 216 280 342 399
#     4  10  20  42  67  94 126 173 232 264 331 401
#     4  12  25  42  62 104 139 171 219 281 341 393
#     4  10  19  40  73  91 122 183 226 267 320 415
#     4  12  23  39  70  97 135 173 224 275 336 399
#     4  12  20  42  67  97 128 177 232 263 330 414
#     4  11  24  42  67 100 130 172 226 281 329 392
#
# _framework density 22.888839999999998
#
# number of rings (size 3 to 8) (size 9 to 14) (size 15 to 20)
#    0.000    0.750    8.750    0.000    3.500    0.500 
#    0.000    2.500    0.000    2.250    0.000    0.000 
#    0.000    0.000    0.000    0.000    0.000    0.000 
#
# Total GULP energy -89374.201102 kJ/mol
# GULP energy per Si atom -5585.887569 kJ/mol
# Density = 2.283674 g / cm^3
# Si number density = 22.888840 Si / 1000 Ang^3
#
#
#
# Elastic Constant Matrix: (Units=GPa)
#
#
# Indices 1 2 3 4 5 6 
#
# 1 33.2189 8.2061 -6.1081 5.0659 9.4192 7.0637
# 2 8.2061 87.1161 7.1499 8.1850 0.0216 -9.9537
# 3 -6.1081 7.1499 120.1730 24.9905 4.9034 1.8642
# 4 5.0659 8.1850 24.9905 51.4129 1.0602 -0.8405
# 5 9.4192 0.0216 4.9034 1.0602 35.7406 3.0872
# 6 7.0637 -9.9537 1.8642 -0.8405 3.0872 21.3020
#
#
#
# Elastic Compliance Matrix: (Units=1/GPa)
#
#
# Indices 1 2 3 4 5 6 
#
# 1 0.038521 -0.005124 0.003886 -0.004912 -0.009296 -0.014354
# 2 -0.005124 0.013015 -0.000985 -0.000980 0.000841 0.007706
# 3 0.003886 -0.000985 0.009728 -0.004955 -0.001995 -0.002507
# 4 -0.004912 -0.000980 -0.004955 0.022514 0.001105 0.002333
# 5 -0.009296 0.000841 -0.001995 0.001105 0.030735 -0.000761
# 6 -0.014354 0.007706 -0.002507 0.002333 -0.000761 0.055726
#
#
# Mechanical properties :
#
#
# Convention : Reuss Voigt Hill
#
# Bulk Modulus (GPa) = 17.59982 28.77820 23.18901
# Shear Modulus (GPa) = 25.82326 37.10843 31.46585
#
# Velocity S-wave (km/s) = 3.36252 4.03084 3.71175
# Velocity P-wave (km/s) = 4.77298 5.85353 5.34065
#
# Compressibility (1/GPa) = 0.05681877
#
# Stress axis : x y z
#
# Youngs Moduli (GPa) = 25.95986 76.83600 102.79547
#
# Poissons Ratio (x) = 0.39369 -0.39948
# Poissons Ratio (y) = 0.13301 0.10124
# Poissons Ratio (z) = -0.10089 0.07567
#
# Static dielectric constant tensor:
#      x y z
#    x 1.927370 -0.055260 0.029530 
#    y -0.055260 1.981920 -0.187360 
#    z 0.029530 -0.187360 2.054820 
# 
# From -- ./inp_files/178766.got.cif
#   From: 2010.05.17/outbox.cif.g08.bks.cpg/sg2_90_cif.got.tgz:178766.got - 2010.06.03 11:33:40.
