data_PCOD9092046
_publ_section_title
;
Structure prediction by ZEFSAII (Michael W. Deem and Ramdas Pophale) SiO2 
 PCOD9092046
Probable space group: P -1
;
_chemical_formula_sum "Si O2"
_cell_formula_units_Z 14
_cell_length_a 17.235114
_cell_length_b 9.449146
_cell_length_c 8.717906
_cell_angle_alpha 74.604841
_cell_angle_beta 106.270275
_cell_angle_gamma 150.585154
_cell_volume 668.674908
_symmetry_space_group_name_H-M "P -1"
_symmetry_group_IT_number 2
_symmetry_cell_setting 'triclinic'
loop_
_space_group_symop_operation_xyz
x,y,z
-x,-y,-z
loop_
_atom_site_type_symbol
_atom_site_label
_atom_site_fract_x
_atom_site_fract_y
_atom_site_fract_z
Si Si1 0.162035 0.690230 0.964046
Si Si2 0.052893 0.621742 0.325708
Si Si3 0.244845 0.631706 0.410899
Si Si4 0.809494 0.870546 0.889051
Si Si5 0.072068 0.244475 0.163926
Si Si6 0.497795 0.239589 0.949161
Si Si7 0.433141 0.907093 0.739730
O O1 0.115291 0.639573 0.778205
O O2 0.330100 0.026124 0.989748
O O3 0.171702 0.533884 0.057297
O O4 0.000000 0.500000 0.000000
O O5 0.176191 0.687005 0.328587
O O6 0.000000 0.500000 0.500000
O O7 0.133086 0.900131 0.242075
O O8 0.109863 0.320466 0.343293
O O9 0.406389 0.854480 0.341886
O O10 0.290342 0.686725 0.599466
O O11 0.868978 0.818006 0.848148
O O12 0.621889 0.560382 0.890917
O O13 0.898261 0.003655 0.065652
O O14 0.455720 0.080220 0.817792
O O15 0.577020 0.249788 0.109957
#
# Coordination Sequence:
#
# PCOD9092046 Si02
#       7
#     2   2   2   2   2   2   2
#     4  11  20  38  69  91 126 174 211 256 315 394
#     4  11  24  42  62  90 127 175 216 259 331 389
#     4  11  20  40  66  92 128 169 216 266 308 390
#     4  10  23  38  66  96 129 169 213 276 321 375
#     4  10  19  40  65  91 130 168 213 260 317 379
#     4  11  19  40  64  98 125 167 220 262 319 385
#     4  10  21  35  69  96 122 168 216 264 319 379
#
# _framework density 20.936928999999999
#
# number of rings (size 3 to 8) (size 9 to 14) (size 15 to 20)
#    0.000    1.429    4.286    1.714    0.000    2.286 
#    0.000   12.143    0.000    0.000    0.000    0.000 
#    0.000    0.000    0.000    0.000    0.000    0.000 
#
# Total GULP energy -78089.507814 kJ/mol
# GULP energy per Si atom -5577.821987 kJ/mol
# Density = 2.088928 g / cm^3
# Si number density = 20.936929 Si / 1000 Ang^3
#
#
#
# Elastic Constant Matrix: (Units=GPa)
#
#
# Indices 1 2 3 4 5 6 
#
# 1 90.9461 40.4183 27.2178 -0.3536 7.4249 4.4282
# 2 40.4183 130.1063 52.3970 14.6039 8.2049 12.6644
# 3 27.2178 52.3970 130.9627 38.2765 1.2724 -5.7355
# 4 -0.3536 14.6039 38.2765 35.1476 0.0790 -7.6128
# 5 7.4249 8.2049 1.2724 0.0790 30.3167 1.6869
# 6 4.4282 12.6644 -5.7355 -7.6128 1.6869 29.7962
#
#
#
# Elastic Compliance Matrix: (Units=1/GPa)
#
#
# Indices 1 2 3 4 5 6 
#
# 1 0.013568 -0.003516 -0.002735 0.004639 -0.002284 0.000266
# 2 -0.003516 0.010931 -0.003210 -0.002207 -0.001667 -0.005211
# 3 -0.002735 -0.003210 0.013318 -0.012992 0.000960 0.000961
# 4 0.004639 -0.002207 -0.012992 0.045609 -0.000638 0.009437
# 5 -0.002284 -0.001667 0.000960 -0.000638 0.034005 -0.000855
# 6 0.000266 -0.005211 0.000961 0.009437 -0.000855 0.038381
#
#
# Mechanical properties :
#
#
# Convention : Reuss Voigt Hill
#
# Bulk Modulus (GPa) = 52.92218 65.78683 59.35451
# Shear Modulus (GPa) = 27.61945 34.51755 31.06850
#
# Velocity S-wave (km/s) = 3.63598 4.06475 3.85633
# Velocity P-wave (km/s) = 6.55431 7.31569 6.94544
#
# Compressibility (1/GPa) = 0.01889567
#
# Stress axis : x y z
#
# Youngs Moduli (GPa) = 73.70172 91.48318 75.08517
#
# Poissons Ratio (x) = 0.32167 0.20536
# Poissons Ratio (y) = 0.25915 0.24100
# Poissons Ratio (z) = 0.20157 0.29363
#
# Static dielectric constant tensor:
#      x y z
#    x 1.839090 0.000870 -0.075290 
#    y 0.000870 1.765160 0.057020 
#    z -0.075290 0.057020 1.814240 
# 
# From -- ./inp_files/328606.got.cif
#   From: 2010.05.17/outbox.cif.g08.bks.cpg/sg2_165_cif.got.tgz:328606.got - 2010.06.03 11:33:40.
