data_PCOD9092734
_publ_section_title
;
Structure prediction by ZEFSAII (Michael W. Deem and Ramdas Pophale) SiO2 
 PCOD9092734
Probable space group: P -1
;
_chemical_formula_sum "Si O2"
_cell_formula_units_Z 12
_cell_length_a 8.198359
_cell_length_b 21.749545
_cell_length_c 11.711747
_cell_angle_alpha 25.027982
_cell_angle_beta 127.544892
_cell_angle_gamma 142.374582
_cell_volume 489.691751
_symmetry_space_group_name_H-M "P -1"
_symmetry_group_IT_number 2
_symmetry_cell_setting 'triclinic'
loop_
_space_group_symop_operation_xyz
x,y,z
-x,-y,-z
loop_
_atom_site_type_symbol
_atom_site_label
_atom_site_fract_x
_atom_site_fract_y
_atom_site_fract_z
Si Si1 0.029705 0.179920 0.662923
Si Si2 0.402805 0.283346 0.317694
Si Si3 0.733720 0.927882 0.626139
Si Si4 0.378799 0.535997 0.494382
Si Si5 0.461443 0.858251 0.846576
Si Si6 0.229493 0.774778 0.311430
O O1 0.374618 0.369333 0.465285
O O2 0.912937 0.224080 0.639152
O O3 0.795868 0.083351 0.627181
O O4 0.000000 0.000000 0.000000
O O5 0.375123 0.216548 0.286282
O O6 0.640628 0.312158 0.443869
O O7 0.500000 0.500000 0.000000
O O8 0.067743 0.068706 0.573574
O O9 0.490845 0.790932 0.852564
O O10 0.736232 0.100445 0.304715
O O11 0.500000 0.500000 0.500000
O O12 0.036284 0.344334 0.692389
O O13 0.393141 0.709187 0.165646
O O14 0.500000 0.000000 0.000000
#
# Coordination Sequence:
#
# PCOD9092734 Si02
#       6
#     2   2   2   2   2   2
#     4   9  19  38  65  93 132 166 216 279 333 393
#     4  11  24  45  64  97 142 176 224 273 341 402
#     4  10  23  41  69  93 132 181 220 279 330 410
#     4   9  20  37  62  95 133 164 218 278 327 401
#     4  10  19  42  66  95 129 172 227 274 338 385
#     4  11  23  41  66  97 135 175 223 277 337 397
#
# _framework density 24.505210999999999
#
# number of rings (size 3 to 8) (size 9 to 14) (size 15 to 20)
#    0.000    2.000    1.667    1.000    7.000    0.000 
#    6.000    5.833    0.000    0.000    0.000    0.000 
#    0.000    0.000    0.000    0.000    0.000    0.000 
#
# Total GULP energy -67024.372818 kJ/mol
# GULP energy per Si atom -5585.364402 kJ/mol
# Density = 2.444944 g / cm^3
# Si number density = 24.505211 Si / 1000 Ang^3
#
#
#
# Elastic Constant Matrix: (Units=GPa)
#
#
# Indices 1 2 3 4 5 6 
#
# 1 84.3008 16.3996 20.8225 -8.6075 13.8500 10.0221
# 2 16.3996 129.2797 28.7634 -24.2876 1.5927 48.7699
# 3 20.8225 28.7634 100.3907 0.7983 13.1070 26.0087
# 4 -8.6075 -24.2876 0.7983 34.8609 11.9958 4.7461
# 5 13.8500 1.5927 13.1070 11.9958 29.6200 3.2048
# 6 10.0221 48.7699 26.0087 4.7461 3.2048 36.6248
#
#
#
# Elastic Compliance Matrix: (Units=1/GPa)
#
#
# Indices 1 2 3 4 5 6 
#
# 1 0.015421 0.004641 -0.000389 0.012341 -0.011123 -0.010749
# 2 0.004641 0.031819 0.004546 0.035086 -0.014678 -0.050131
# 3 -0.000389 0.004546 0.013823 0.007519 -0.007485 -0.016083
# 4 0.012341 0.035086 0.007519 0.076623 -0.035278 -0.062280
# 5 -0.011123 -0.014678 -0.007485 -0.035278 0.054351 0.027720
# 6 -0.010749 -0.050131 -0.016083 -0.062280 0.027720 0.114067
#
#
# Mechanical properties :
#
#
# Convention : Reuss Voigt Hill
#
# Bulk Modulus (GPa) = 12.71317 49.54913 31.13115
# Shear Modulus (GPa) = 15.88669 36.75351 26.32010
#
# Velocity S-wave (km/s) = 2.54893 3.87696 3.28084
# Velocity P-wave (km/s) = 3.72316 6.34861 5.20417
#
# Compressibility (1/GPa) = 0.07865860
#
# Stress axis : x y z
#
# Youngs Moduli (GPa) = 64.84663 31.42768 72.34096
#
# Poissons Ratio (x) = -0.14586 0.02816
# Poissons Ratio (y) = -0.30095 -0.32885
# Poissons Ratio (z) = 0.02524 -0.14287
#
# Static dielectric constant tensor:
#      x y z
#    x 1.995400 -0.038720 -0.019000 
#    y -0.038720 2.015340 -0.062780 
#    z -0.019000 -0.062780 1.961120 
# 
# From -- ./inp_files/508902.got.cif
#   From: 2010.05.17/outbox.cif.g08.bks.cpg/sg2_255_cif.got.tgz:508902.got - 2010.06.03 11:33:40.
