data_PCOD9092780
_publ_section_title
;
Structure prediction by ZEFSAII (Michael W. Deem and Ramdas Pophale) SiO2 
 PCOD9092780
Probable space group: P -1
;
_chemical_formula_sum "Si O2"
_cell_formula_units_Z 14
_cell_length_a 9.508331
_cell_length_b 7.582692
_cell_length_c 10.329429
_cell_angle_alpha 128.236817
_cell_angle_beta 87.646891
_cell_angle_gamma 85.301291
_cell_volume 578.977460
_symmetry_space_group_name_H-M "P -1"
_symmetry_group_IT_number 2
_symmetry_cell_setting 'triclinic'
loop_
_space_group_symop_operation_xyz
x,y,z
-x,-y,-z
loop_
_atom_site_type_symbol
_atom_site_label
_atom_site_fract_x
_atom_site_fract_y
_atom_site_fract_z
Si Si1 0.745164 0.082088 0.803159
Si Si2 0.819154 0.735710 0.884218
Si Si3 0.682074 0.371480 0.574702
Si Si4 0.153087 0.075152 0.551333
Si Si5 0.552509 0.950937 0.123035
Si Si6 0.623107 0.424979 0.331313
Si Si7 0.862422 0.416647 0.113742
O O1 0.574205 0.150819 0.848795
O O2 0.794690 0.912161 0.844329
O O3 0.780283 0.953594 0.608568
O O4 0.822380 0.304618 0.929004
O O5 0.770550 0.503797 0.729979
O O6 0.981407 0.700254 0.905796
O O7 0.708776 0.818171 0.040607
O O8 0.696029 0.490952 0.489429
O O9 0.515173 0.412892 0.637439
O O10 0.750885 0.113456 0.454688
O O11 0.143034 0.316373 0.732978
O O12 0.000000 0.000000 0.500000
O O13 0.561524 0.202505 0.284774
O O14 0.500000 0.000000 0.000000
O O15 0.738183 0.357823 0.187797
#
# Coordination Sequence:
#
# PCOD9092780 Si02
#       7
#     2   2   2   2   2   2   2
#     4  11  24  46  74 104 139 186 237 291 354 415
#     4  11  21  43  74 102 140 175 243 299 341 410
#     4  11  24  45  68  99 144 187 228 297 348 412
#     4  12  29  48  66 103 157 186 228 287 359 427
#     4  10  19  42  69 104 136 166 235 305 340 403
#     4  11  23  43  75 102 132 182 247 293 342 413
#     4  12  25  44  74 108 136 189 238 285 360 417
#
# _framework density 24.18056
#
# number of rings (size 3 to 8) (size 9 to 14) (size 15 to 20)
#    0.000    0.857    7.143    1.286    4.000    2.286 
#    2.571    1.429    0.000    0.000    0.000    0.000 
#    0.000    0.000    0.000    0.000    0.000    0.000 
#
# Total GULP energy -78279.931695 kJ/mol
# GULP energy per Si atom -5591.423693 kJ/mol
# Density = 2.412552 g / cm^3
# Si number density = 24.180560 Si / 1000 Ang^3
#
#
#
# Elastic Constant Matrix: (Units=GPa)
#
#
# Indices 1 2 3 4 5 6 
#
# 1 124.1496 37.6342 15.9646 3.9286 -6.3906 -17.2874
# 2 37.6342 77.5105 33.7007 16.4933 7.4448 -16.1589
# 3 15.9646 33.7007 77.9356 17.0250 9.2835 5.1528
# 4 3.9286 16.4933 17.0250 45.2966 5.3315 -2.9762
# 5 -6.3906 7.4448 9.2835 5.3315 40.3733 8.4038
# 6 -17.2874 -16.1589 5.1528 -2.9762 8.4038 28.3398
#
#
#
# Elastic Compliance Matrix: (Units=1/GPa)
#
#
# Indices 1 2 3 4 5 6 
#
# 1 0.009953 -0.004064 -0.000933 0.001003 0.001672 0.003533
# 2 -0.004064 0.022420 -0.008415 -0.003188 -0.005132 0.013021
# 3 -0.000933 -0.008415 0.018230 -0.004259 -0.000346 -0.009027
# 4 0.001003 -0.003188 -0.004259 0.025199 -0.002198 0.002866
# 5 0.001672 -0.005132 -0.000346 -0.002198 0.028543 -0.010538
# 6 0.003533 0.013021 -0.009027 0.002866 -0.010538 0.049933
#
#
# Mechanical properties :
#
#
# Convention : Reuss Voigt Hill
#
# Bulk Modulus (GPa) = 42.05727 50.46608 46.26168
# Shear Modulus (GPa) = 26.45108 35.62167 31.03637
#
# Velocity S-wave (km/s) = 3.31100 3.84233 3.58652
# Velocity P-wave (km/s) = 5.66107 6.37185 6.02695
#
# Compressibility (1/GPa) = 0.02377710
#
# Stress axis : x y z
#
# Youngs Moduli (GPa) = 100.47094 44.60396 54.85586
#
# Poissons Ratio (x) = 0.18128 0.05119
# Poissons Ratio (y) = 0.40833 0.46162
# Poissons Ratio (z) = 0.09376 0.37535
#
# Static dielectric constant tensor:
#      x y z
#    x 2.008290 0.039360 0.183980 
#    y 0.039360 1.954670 0.031620 
#    z 0.183980 0.031620 2.229670 
# 
# From -- ./inp_files/380615.got.cif
#   From: 2010.05.17/outbox.cif.g08.bks.cpg/sg2_191_cif.got.tgz:380615.got - 2010.06.03 11:33:40.
