data_PCOD9092293
_publ_section_title
;
Structure prediction by ZEFSAII (Michael W. Deem and Ramdas Pophale) SiO2 
 PCOD9092293
Probable space group: P -1
;
_chemical_formula_sum "Si O2"
_cell_formula_units_Z 14
_cell_length_a 12.082710
_cell_length_b 9.434539
_cell_length_c 13.409099
_cell_angle_alpha 149.463736
_cell_angle_beta 117.011202
_cell_angle_gamma 54.312417
_cell_volume 626.460722
_symmetry_space_group_name_H-M "P -1"
_symmetry_group_IT_number 2
_symmetry_cell_setting 'triclinic'
loop_
_space_group_symop_operation_xyz
x,y,z
-x,-y,-z
loop_
_atom_site_type_symbol
_atom_site_label
_atom_site_fract_x
_atom_site_fract_y
_atom_site_fract_z
Si Si1 0.867491 0.324184 0.152219
Si Si2 0.413900 0.245323 0.759932
Si Si3 0.657479 0.760823 0.908940
Si Si4 0.354062 0.790941 0.306770
Si Si5 0.411882 0.310162 0.376094
Si Si6 0.057043 0.235161 0.445114
Si Si7 0.203336 0.801007 0.731573
O O1 0.733711 0.465530 0.112133
O O2 0.923127 0.588999 0.343763
O O3 0.804728 0.290352 0.212624
O O4 0.000000 0.000000 0.000000
O O5 0.524730 0.327772 0.796421
O O6 0.386975 0.008429 0.530346
O O7 0.486734 0.032326 0.755021
O O8 0.667560 0.468493 0.797269
O O9 0.676780 0.690875 0.756692
O O10 0.500000 0.000000 0.000000
O O11 0.748977 0.926194 0.085785
O O12 0.205756 0.999636 0.327926
O O13 0.500000 0.500000 0.500000
O O14 0.313008 0.498032 0.538723
O O15 0.000000 0.500000 0.500000
O O16 0.943837 0.104106 0.323174
#
# Coordination Sequence:
#
# PCOD9092293 Si02
#       7
#     2   2   2   2   2   2   2
#     4  10  22  42  71 104 137 173 233 282 333 409
#     4  10  19  40  70 101 131 177 225 283 343 391
#     4  12  24  42  67 104 137 175 228 284 337 407
#     4  10  20  40  72  98 131 179 231 278 335 407
#     4  12  23  43  71  99 139 179 224 281 344 402
#     4   9  20  41  66  94 132 181 218 277 339 395
#     4  11  24  44  67  94 143 186 219 279 349 394
#
# _framework density 22.347770000000001
#
# number of rings (size 3 to 8) (size 9 to 14) (size 15 to 20)
#    0.000    1.429    2.857    4.286    2.000    0.571 
#    5.143    3.571    0.000    0.000    0.000    0.000 
#    0.000    0.000    0.000    0.000    0.000    0.000 
#
# Total GULP energy -78288.641998 kJ/mol
# GULP energy per Si atom -5592.045857 kJ/mol
# Density = 2.229691 g / cm^3
# Si number density = 22.347770 Si / 1000 Ang^3
#
#
#
# Elastic Constant Matrix: (Units=GPa)
#
#
# Indices 1 2 3 4 5 6 
#
# 1 119.5926 58.7867 66.8865 3.4713 12.8951 -21.4052
# 2 58.7867 122.2111 49.9953 28.1060 6.3313 -17.1845
# 3 66.8865 49.9953 121.8193 5.3998 10.9448 -13.9948
# 4 3.4713 28.1060 5.3998 30.6773 -5.7042 3.0703
# 5 12.8951 6.3313 10.9448 -5.7042 48.0666 -7.6854
# 6 -21.4052 -17.1845 -13.9948 3.0703 -7.6854 45.0844
#
#
#
# Elastic Compliance Matrix: (Units=1/GPa)
#
#
# Indices 1 2 3 4 5 6 
#
# 1 0.014496 -0.005014 -0.005636 0.003463 -0.001087 0.002801
# 2 -0.005014 0.015223 -0.002400 -0.013516 -0.001174 0.003397
# 3 -0.005636 -0.002400 0.012356 0.000485 -0.000919 0.000055
# 4 0.003463 -0.013516 0.000485 0.046050 0.005312 -0.005588
# 5 -0.001087 -0.001174 -0.000919 0.005312 0.022445 0.002216
# 6 0.002801 0.003397 0.000055 -0.005588 0.002216 0.025581
#
#
# Mechanical properties :
#
#
# Convention : Reuss Voigt Hill
#
# Bulk Modulus (GPa) = 62.59374 79.44000 71.01687
# Shear Modulus (GPa) = 29.83756 37.29596 33.56676
#
# Velocity S-wave (km/s) = 3.65793 4.08964 3.87979
# Velocity P-wave (km/s) = 6.77572 7.61082 7.20538
#
# Compressibility (1/GPa) = 0.01597604
#
# Stress axis : x y z
#
# Youngs Moduli (GPa) = 68.98325 65.69051 80.93519
#
# Poissons Ratio (x) = 0.32936 0.45613
# Poissons Ratio (y) = 0.34587 0.19423
# Poissons Ratio (z) = 0.38877 0.15764
#
# Static dielectric constant tensor:
#      x y z
#    x 1.822820 -0.008200 -0.003920 
#    y -0.008200 1.873850 -0.066160 
#    z -0.003920 -0.066160 1.871820 
# 
# From -- ./inp_files/516497.got.cif
#   From: 2010.05.17/outbox.cif.g08.bks.cpg/sg2_259_cif.got.tgz:516497.got - 2010.06.03 11:33:40.
