data_PCOD9092353
_publ_section_title
;
Structure prediction by ZEFSAII (Michael W. Deem and Ramdas Pophale) SiO2 
 PCOD9092353
Probable space group: P -1
;
_chemical_formula_sum "Si O2"
_cell_formula_units_Z 16
_cell_length_a 15.505626
_cell_length_b 14.125704
_cell_length_c 5.746203
_cell_angle_alpha 95.549675
_cell_angle_beta 106.166810
_cell_angle_gamma 29.190977
_cell_volume 560.044928
_symmetry_space_group_name_H-M "P -1"
_symmetry_group_IT_number 2
_symmetry_cell_setting 'triclinic'
loop_
_space_group_symop_operation_xyz
x,y,z
-x,-y,-z
loop_
_atom_site_type_symbol
_atom_site_label
_atom_site_fract_x
_atom_site_fract_y
_atom_site_fract_z
Si Si1 0.152720 0.487272 0.064318
Si Si2 0.751774 0.783466 0.666855
Si Si3 0.800899 0.331564 0.806534
Si Si4 0.801160 0.889547 0.394896
Si Si5 0.594805 0.309695 0.970793
Si Si6 0.167002 0.676164 0.664322
Si Si7 0.648501 0.217868 0.488411
Si Si8 0.509241 0.887870 0.098944
O O1 0.227561 0.346571 0.288361
O O2 0.157322 0.593995 0.146914
O O3 0.291638 0.339100 0.909921
O O4 0.934523 0.659302 0.907241
O O5 0.796489 0.784827 0.448775
O O6 0.561242 0.013825 0.677220
O O7 0.857549 0.240714 0.572400
O O8 0.569998 0.545291 0.663810
O O9 0.874319 0.235322 0.096263
O O10 0.014089 0.733914 0.533518
O O11 0.683673 0.072860 0.515268
O O12 0.664561 0.016291 0.097874
O O13 0.395937 0.434987 0.801711
O O14 0.701712 0.211981 0.777796
O O15 0.500000 0.500000 0.000000
O O16 0.718539 0.167885 0.260021
O O17 0.500000 0.000000 0.000000
#
# Coordination Sequence:
#
# PCOD9092353 Si02
#       8
#     2   2   2   2   2   2   2   2
#     4  10  19  41  57  85 124 179 229 278 337 380
#     4  10  23  38  58  85 127 174 228 281 335 377
#     4  10  19  41  57  92 122 167 227 263 323 392
#     4  12  23  39  58  95 130 167 227 279 323 399
#     4  10  22  46  69  99 129 163 212 260 330 422
#     4  10  23  37  68  91 127 171 209 275 331 387
#     4  10  23  37  69  97 125 170 204 266 335 389
#     4  10  23  40  58  87 127 178 231 289 337 381
#
# _framework density 28.569139
#
# number of rings (size 3 to 8) (size 9 to 14) (size 15 to 20)
#    0.000    1.750    2.500    1.125    1.750    3.000 
#    4.500    5.000    0.000    0.000    0.000    0.000 
#    0.000    0.000    0.000    0.000    0.000    0.000 
#
# Total GULP energy -89302.424043 kJ/mol
# GULP energy per Si atom -5581.401503 kJ/mol
# Density = 2.850411 g / cm^3
# Si number density = 28.569139 Si / 1000 Ang^3
#
#
#
# Elastic Constant Matrix: (Units=GPa)
#
#
# Indices 1 2 3 4 5 6 
#
# 1 79.6755 15.9762 37.7630 1.4255 -8.6301 -2.3456
# 2 15.9762 98.0044 55.0109 2.8972 4.0769 -18.2443
# 3 37.7630 55.0109 208.8474 39.6231 -20.2746 -15.3904
# 4 1.4255 2.8972 39.6231 34.7006 4.1132 11.6721
# 5 -8.6301 4.0769 -20.2746 4.1132 52.9519 2.8211
# 6 -2.3456 -18.2443 -15.3904 11.6721 2.8211 47.6480
#
#
#
# Elastic Compliance Matrix: (Units=1/GPa)
#
#
# Indices 1 2 3 4 5 6 
#
# 1 0.014154 -0.001119 -0.002862 0.003149 0.001132 -0.001495
# 2 -0.001119 0.013189 -0.003798 0.002520 -0.003025 0.003330
# 3 -0.002862 -0.003798 0.009293 -0.012047 0.004101 0.004115
# 4 0.003149 0.002520 -0.012047 0.047822 -0.007259 -0.014056
# 5 0.001132 -0.003025 0.004101 -0.007259 0.021397 0.000733
# 6 -0.001495 0.003330 0.004115 -0.014056 0.000733 0.026918
#
#
# Mechanical properties :
#
#
# Convention : Reuss Voigt Hill
#
# Bulk Modulus (GPa) = 47.44406 67.11418 57.27912
# Shear Modulus (GPa) = 32.18369 45.57858 38.88113
#
# Velocity S-wave (km/s) = 3.36001 3.99855 3.69311
# Velocity P-wave (km/s) = 5.62989 6.69782 6.18694
#
# Compressibility (1/GPa) = 0.02107745
#
# Stress axis : x y z
#
# Youngs Moduli (GPa) = 70.65066 75.81917 107.60841
#
# Poissons Ratio (x) = 0.08486 0.30798
# Poissons Ratio (y) = 0.07907 0.40871
# Poissons Ratio (z) = 0.20221 0.28797
#
# Static dielectric constant tensor:
#      x y z
#    x 2.390390 -0.070250 -0.080990 
#    y -0.070250 2.177000 0.050940 
#    z -0.080990 0.050940 2.361680 
# 
# From -- ./inp_files/110913.got.cif
#   From: 2010.05.17/outbox.cif.g08.bks.cpg/sg2_56_cif.got.tgz:110913.got - 2010.06.03 11:33:40.
