data_PCOD9092401
_publ_section_title
;
Structure prediction by ZEFSAII (Michael W. Deem and Ramdas Pophale) SiO2 
 PCOD9092401
Probable space group: P -1
;
_chemical_formula_sum "Si O2"
_cell_formula_units_Z 16
_cell_length_a 11.327375
_cell_length_b 7.831393
_cell_length_c 24.295278
_cell_angle_alpha 48.423325
_cell_angle_beta 154.379857
_cell_angle_gamma 129.241081
_cell_volume 693.230027
_symmetry_space_group_name_H-M "P -1"
_symmetry_group_IT_number 2
_symmetry_cell_setting 'triclinic'
loop_
_space_group_symop_operation_xyz
x,y,z
-x,-y,-z
loop_
_atom_site_type_symbol
_atom_site_label
_atom_site_fract_x
_atom_site_fract_y
_atom_site_fract_z
Si Si1 0.941011 0.246146 0.867936
Si Si2 0.477640 0.965797 0.597843
Si Si3 0.435038 0.505614 0.219622
Si Si4 0.667023 0.811571 0.393199
Si Si5 0.883959 0.753009 0.943272
Si Si6 0.772382 0.410589 0.160043
Si Si7 0.862893 0.923840 0.335809
Si Si8 0.772336 0.425963 0.596832
O O1 0.621998 0.236055 0.750281
O O2 0.008107 0.484208 0.814999
O O3 0.954488 0.005889 0.892589
O O4 0.146356 0.223156 0.009428
O O5 0.562514 0.710784 0.692725
O O6 0.181272 0.951982 0.447661
O O7 0.414863 0.056561 0.614261
O O8 0.696470 0.152898 0.621691
O O9 0.385891 0.383292 0.165764
O O10 0.699286 0.686022 0.298717
O O11 0.154326 0.623386 0.080685
O O12 0.850315 0.932614 0.395855
O O13 0.774160 0.577760 0.510094
O O14 0.939558 0.509119 0.263911
O O15 0.732505 0.139528 0.209454
O O16 0.500000 0.500000 0.000000
O O17 0.500000 0.500000 0.500000
#
# Coordination Sequence:
#
# PCOD9092401 Si02
#       8
#     2   2   2   2   2   2   2   2
#     4  11  20  42  67  92 116 167 217 259 307 358
#     4  11  21  39  67  87 124 166 211 261 308 367
#     4  11  22  38  58  92 129 167 202 246 325 381
#     4  11  20  39  68  93 119 160 222 259 298 363
#     4  10  22  38  65  88 124 166 210 253 306 388
#     4  12  24  36  63  97 129 155 207 271 315 357
#     4  12  24  39  60  98 128 163 207 262 312 371
#     4  10  19  41  63  90 121 165 211 261 308 357
#
# _framework density 23.080361
#
# number of rings (size 3 to 8) (size 9 to 14) (size 15 to 20)
#    0.000    1.000    7.500    1.500    1.750    1.000 
#    0.000    1.250    2.750    1.500    0.000    0.000 
#    0.000    0.000    0.000    0.000    0.000    0.000 
#
# Total GULP energy -89238.730005 kJ/mol
# GULP energy per Si atom -5577.420625 kJ/mol
# Density = 2.302783 g / cm^3
# Si number density = 23.080361 Si / 1000 Ang^3
#
#
#
# Elastic Constant Matrix: (Units=GPa)
#
#
# Indices 1 2 3 4 5 6 
#
# 1 27.4289 14.4770 4.5928 -6.7276 -9.4567 8.6707
# 2 14.4770 165.4197 53.8827 -16.0228 -13.5345 11.0132
# 3 4.5928 53.8827 150.7790 -8.4517 -10.1061 2.0374
# 4 -6.7276 -16.0228 -8.4517 42.0225 8.2233 -17.0577
# 5 -9.4567 -13.5345 -10.1061 8.2233 25.4284 -0.4850
# 6 8.6707 11.0132 2.0374 -17.0577 -0.4850 26.1752
#
#
#
# Elastic Compliance Matrix: (Units=1/GPa)
#
#
# Indices 1 2 3 4 5 6 
#
# 1 0.048146 -0.002129 0.000525 -0.003349 0.017741 -0.016948
# 2 -0.002129 0.007349 -0.002362 0.001018 0.001823 -0.001506
# 3 0.000525 -0.002362 0.007605 0.000644 0.001766 0.000680
# 4 -0.003349 0.001018 0.000644 0.035626 -0.011518 0.023634
# 5 0.017741 0.001823 0.001766 -0.011518 0.051066 -0.013341
# 6 -0.016948 -0.001506 0.000680 0.023634 -0.013341 0.059553
#
#
# Mechanical properties :
#
#
# Convention : Reuss Voigt Hill
#
# Bulk Modulus (GPa) = 18.12642 54.39254 36.25948
# Shear Modulus (GPa) = 21.21639 36.77022 28.99331
#
# Velocity S-wave (km/s) = 3.03519 3.99574 3.54812
# Velocity P-wave (km/s) = 4.48930 6.70117 5.70349
#
# Compressibility (1/GPa) = 0.05516809
#
# Stress axis : x y z
#
# Youngs Moduli (GPa) = 20.77012 136.07500 131.48431
#
# Poissons Ratio (x) = 0.28971 -0.06898
# Poissons Ratio (y) = 0.04422 0.31053
# Poissons Ratio (z) = -0.01090 0.32137
#
# Static dielectric constant tensor:
#      x y z
#    x 1.941950 -0.072030 -0.029110 
#    y -0.072030 1.931250 0.018360 
#    z -0.029110 0.018360 1.897130 
# 
# From -- ./inp_files/623457.got.cif
#   From: 2010.05.17/outbox.cif.g08.bks.cpg/sg2_312_cif.got.tgz:623457.got - 2010.06.03 11:33:40.
