data_PCOD9092014
_publ_section_title
;
Structure prediction by ZEFSAII (Michael W. Deem and Ramdas Pophale) SiO2 
 PCOD9092014
Probable space group: P -1
;
_chemical_formula_sum "Si O2"
_cell_formula_units_Z 16
_cell_length_a 15.788565
_cell_length_b 11.960130
_cell_length_c 6.967797
_cell_angle_alpha 71.573723
_cell_angle_beta 76.840105
_cell_angle_gamma 35.314456
_cell_volume 720.495050
_symmetry_space_group_name_H-M "P -1"
_symmetry_group_IT_number 2
_symmetry_cell_setting 'triclinic'
loop_
_space_group_symop_operation_xyz
x,y,z
-x,-y,-z
loop_
_atom_site_type_symbol
_atom_site_label
_atom_site_fract_x
_atom_site_fract_y
_atom_site_fract_z
Si Si1 0.833704 0.903188 0.821083
Si Si2 0.352087 0.581349 0.684655
Si Si3 0.655412 0.305212 0.800231
Si Si4 0.388908 0.056808 0.177385
Si Si5 0.807786 0.370707 0.809901
Si Si6 0.665637 0.652445 0.389204
Si Si7 0.148145 0.493921 0.977309
Si Si8 0.073357 0.016360 0.596562
O O1 0.693493 0.972206 0.830005
O O2 0.886554 0.912679 0.592834
O O3 0.775130 0.072761 0.893518
O O4 0.972513 0.678894 0.951590
O O5 0.488777 0.446073 0.829462
O O6 0.349723 0.661695 0.445143
O O7 0.354317 0.448171 0.665621
O O8 0.209491 0.797204 0.732535
O O9 0.705234 0.369890 0.837506
O O10 0.249478 0.293461 0.154005
O O11 0.508571 0.886443 0.364338
O O12 0.500000 0.000000 0.000000
O O13 0.734512 0.547194 0.612640
O O14 0.826053 0.407717 0.987934
O O15 0.960368 0.172869 0.735601
O O16 0.781968 0.591348 0.224952
O O17 0.000000 0.000000 0.500000
#
# Coordination Sequence:
#
# PCOD9092014 Si02
#       8
#     2   2   2   2   2   2   2   2
#     4  11  19  38  65  87 118 164 202 243 309 356
#     4   9  16  31  57  87 118 152 201 240 294 367
#     4   9  18  31  58  92 118 156 198 241 305 369
#     4  10  23  41  66  85 114 167 212 252 295 349
#     4  11  22  38  60  95 127 154 196 251 303 370
#     4  10  19  40  65  82 119 164 199 249 305 346
#     4  11  24  39  60  91 122 160 206 249 296 359
#     4  11  18  34  60  93 121 158 193 238 309 370
#
# _framework density 22.206954
#
# number of rings (size 3 to 8) (size 9 to 14) (size 15 to 20)
#    0.000    1.750    6.250    0.375    1.750    1.000 
#    0.000    3.750    0.000    0.000    0.000    0.000 
#    0.000    0.000    0.000    0.000    0.000    0.000 
#
# Total GULP energy -89208.200065 kJ/mol
# GULP energy per Si atom -5575.512504 kJ/mol
# Density = 2.215641 g / cm^3
# Si number density = 22.206954 Si / 1000 Ang^3
#
#
#
# Elastic Constant Matrix: (Units=GPa)
#
#
# Indices 1 2 3 4 5 6 
#
# 1 58.0848 0.0560 9.9869 13.7431 -3.8553 -7.8271
# 2 0.0560 129.5533 40.2630 -37.9621 0.5197 -21.9288
# 3 9.9869 40.2630 57.7690 3.2525 2.0330 -5.9157
# 4 13.7431 -37.9621 3.2525 31.1378 0.9930 8.0879
# 5 -3.8553 0.5197 2.0330 0.9930 22.8932 -8.3735
# 6 -7.8271 -21.9288 -5.9157 8.0879 -8.3735 36.1639
#
#
#
# Elastic Compliance Matrix: (Units=1/GPa)
#
#
# Indices 1 2 3 4 5 6 
#
# 1 0.022836 -0.003622 0.000111 -0.016916 0.007699 0.008330
# 2 -0.003622 0.021544 -0.015664 0.028612 0.000289 0.003386
# 3 0.000111 -0.015664 0.029505 -0.022192 -0.001276 0.000020
# 4 -0.016916 0.028612 -0.022192 0.079578 -0.008532 -0.009714
# 5 0.007699 0.000289 -0.001276 -0.008532 0.051075 0.015367
# 6 0.008330 0.003386 0.000020 -0.009714 0.015367 0.037242
#
#
# Mechanical properties :
#
#
# Convention : Reuss Voigt Hill
#
# Bulk Modulus (GPa) = 28.14063 38.44654 33.29359
# Shear Modulus (GPa) = 17.12471 31.04575 24.08523
#
# Velocity S-wave (km/s) = 2.77996 3.74307 3.29687
# Velocity P-wave (km/s) = 4.79622 6.00259 5.43299
#
# Compressibility (1/GPa) = 0.03553580
#
# Stress axis : x y z
#
# Youngs Moduli (GPa) = 43.78955 46.41558 33.89281
#
# Poissons Ratio (x) = 0.16811 -0.00376
# Poissons Ratio (y) = 0.15860 0.53090
# Poissons Ratio (z) = -0.00486 0.72705
#
# Static dielectric constant tensor:
#      x y z
#    x 1.843010 -0.048180 -0.059880 
#    y -0.048180 1.878530 -0.006610 
#    z -0.059880 -0.006610 1.834070 
# 
# From -- ./inp_files/304970.got.cif
#   From: 2010.05.17/outbox.cif.g08.bks.cpg/sg2_153_cif.got.tgz:304970.got - 2010.06.03 11:33:40.
