data_PCOD9092766
_publ_section_title
;
Structure prediction by ZEFSAII (Michael W. Deem and Ramdas Pophale) SiO2 
 PCOD9092766
Probable space group: P -1
;
_chemical_formula_sum "Si O2"
_cell_formula_units_Z 10
_cell_length_a 6.702516
_cell_length_b 13.376130
_cell_length_c 10.937288
_cell_angle_alpha 33.348542
_cell_angle_beta 60.928489
_cell_angle_gamma 50.766414
_cell_volume 415.454061
_symmetry_space_group_name_H-M "P -1"
_symmetry_group_IT_number 2
_symmetry_cell_setting 'triclinic'
loop_
_space_group_symop_operation_xyz
x,y,z
-x,-y,-z
loop_
_atom_site_type_symbol
_atom_site_label
_atom_site_fract_x
_atom_site_fract_y
_atom_site_fract_z
Si Si1 0.618887 0.288769 0.336765
Si Si2 0.079806 0.341314 0.525191
Si Si3 0.265896 0.978648 0.024459
Si Si4 0.680918 0.588241 0.192673
Si Si5 0.961658 0.869843 0.814698
O O1 0.325252 0.334727 0.388512
O O2 0.648529 0.472369 0.204804
O O3 0.752555 0.238459 0.216329
O O4 0.787307 0.082065 0.577721
O O5 0.000000 0.500000 0.500000
O O6 0.851950 0.420918 0.413833
O O7 0.169831 0.125187 0.786326
O O8 0.406276 0.745557 0.173294
O O9 0.500000 0.000000 0.000000
O O10 0.053936 0.068770 0.102031
O O11 0.830402 0.721484 0.986164
#
# Coordination Sequence:
#
# PCOD9092766 Si02
#       5
#     2   2   2   2   2
#     4  11  24  42  71  94 131 179 211 263 339 377
#     4  12  22  42  70  97 129 172 221 267 318 392
#     4  10  19  42  68  89 138 164 208 284 308 368
#     4  11  23  44  70  96 130 171 221 268 317 389
#     4  10  21  44  66  94 139 167 209 281 317 379
#
# _framework density 24.070050999999999
#
# number of rings (size 3 to 8) (size 9 to 14) (size 15 to 20)
#    0.000    1.200    8.000    0.600    0.000    4.000 
#    3.600    6.000    0.000    0.000    0.000    0.000 
#    0.000    0.000    0.000    0.000    0.000    0.000 
#
# Total GULP energy -56048.718851 kJ/mol
# GULP energy per Si atom -5604.871885 kJ/mol
# Density = 2.401527 g / cm^3
# Si number density = 24.070051 Si / 1000 Ang^3
#
#
#
# Elastic Constant Matrix: (Units=GPa)
#
#
# Indices 1 2 3 4 5 6 
#
# 1 88.7635 65.8500 42.7819 -3.1908 12.1492 -5.4252
# 2 65.8500 218.9941 64.7157 17.4081 -10.9934 -23.0589
# 3 42.7819 64.7157 115.9243 -3.1541 -11.2524 -3.9839
# 4 -3.1908 17.4081 -3.1541 43.3741 -11.0036 -5.5593
# 5 12.1492 -10.9934 -11.2524 -11.0036 28.2733 1.4225
# 6 -5.4252 -23.0589 -3.9839 -5.5593 1.4225 34.0275
#
#
#
# Elastic Compliance Matrix: (Units=1/GPa)
#
#
# Indices 1 2 3 4 5 6 
#
# 1 0.019172 -0.004727 -0.005663 -0.000301 -0.012430 -0.000339
# 2 -0.004727 0.007254 -0.001950 -0.002184 0.003052 0.003449
# 3 -0.005663 -0.001950 0.012651 0.003245 0.008001 -0.000547
# 4 -0.000301 -0.002184 0.003245 0.027317 0.011060 0.002852
# 5 -0.012430 0.003052 0.008001 0.011060 0.049347 0.000767
# 6 -0.000339 0.003449 -0.000547 0.002852 0.000767 0.032041
#
#
# Mechanical properties :
#
#
# Convention : Reuss Voigt Hill
#
# Bulk Modulus (GPa) = 69.45766 85.59747 77.52757
# Shear Modulus (GPa) = 28.20706 37.82391 33.01549
#
# Velocity S-wave (km/s) = 3.42698 3.96840 3.70759
# Velocity P-wave (km/s) = 6.67668 7.52573 7.11388
#
# Compressibility (1/GPa) = 0.01439726
#
# Stress axis : x y z
#
# Youngs Moduli (GPa) = 52.15942 137.85544 79.04698
#
# Poissons Ratio (x) = 0.65167 0.44763
# Poissons Ratio (y) = 0.24657 0.15411
# Poissons Ratio (z) = 0.29537 0.26877
#
# Static dielectric constant tensor:
#      x y z
#    x 1.904850 -0.058560 -0.069950 
#    y -0.058560 1.886890 0.010280 
#    z -0.069950 0.010280 1.978180 
# 
# From -- ./inp_files/398014.got.cif
#   From: 2010.05.17/outbox.cif.g08.bks.cpg/sg2_200_cif.got.tgz:398014.got - 2010.06.03 11:33:40.
