data_PCOD9092338
_publ_section_title
;
Structure prediction by ZEFSAII (Michael W. Deem and Ramdas Pophale) SiO2 
 PCOD9092338
Probable space group: P -1
;
_chemical_formula_sum "Si O2"
_cell_formula_units_Z 11
_cell_length_a 7.745701
_cell_length_b 10.052348
_cell_length_c 9.574286
_cell_angle_alpha 115.720052
_cell_angle_beta 92.280850
_cell_angle_gamma 133.087255
_cell_volume 421.603633
_symmetry_space_group_name_H-M "P -1"
_symmetry_group_IT_number 2
_symmetry_cell_setting 'triclinic'
loop_
_space_group_symop_operation_xyz
x,y,z
-x,-y,-z
loop_
_atom_site_type_symbol
_atom_site_label
_atom_site_fract_x
_atom_site_fract_y
_atom_site_fract_z
Si Si1 0.555497 0.658958 0.695008
Si Si2 0.228996 0.140311 0.691077
Si Si3 0.190731 0.446079 0.213208
Si Si4 0.033795 0.707320 0.563088
Si Si5 0.083873 0.831367 0.179767
Si Si6 0.500000 0.000000 0.500000
O O1 0.500000 0.500000 0.500000
O O2 0.709800 0.659853 0.813489
O O3 0.238741 0.492551 0.632108
O O4 0.727270 0.911240 0.760670
O O5 0.516763 0.280964 0.692631
O O6 0.198436 0.274457 0.828644
O O7 0.120257 0.936829 0.690049
O O8 0.000000 0.000000 0.500000
O O9 0.047301 0.394324 0.329538
O O10 0.991659 0.325934 0.021103
O O11 0.303642 0.830854 0.552819
O O12 0.224769 0.852290 0.326452
#
# Coordination Sequence:
#
# PCOD9092338 Si02
#       6
#     2   2   2   2   2   1
#     4  10  19  40  73  98 125 172 222 277 329 384
#     4  12  20  42  74  98 133 172 226 276 327 396
#     4  11  23  40  72 105 130 167 226 291 328 371
#     4  11  24  43  68  99 130 180 223 269 336 401
#     4  12  24  43  68 103 138 172 222 278 333 398
#     4  12  28  44  64  96 140 186 222 260 340 416
#
# _framework density 26.090855999999999
#
# number of rings (size 3 to 8) (size 9 to 14) (size 15 to 20)
#    0.000    0.727    7.273    2.182    0.000    1.455 
#    0.000    0.909    0.000    0.000    0.000    0.000 
#    0.000    0.000    0.000    0.000    0.000    0.000 
#
# Total GULP energy -61331.776049 kJ/mol
# GULP energy per Si atom -5575.616004 kJ/mol
# Density = 2.603147 g / cm^3
# Si number density = 26.090856 Si / 1000 Ang^3
#
#
#
# Elastic Constant Matrix: (Units=GPa)
#
#
# Indices 1 2 3 4 5 6 
#
# 1 87.8407 40.8423 13.3077 -6.4352 13.2170 28.3270
# 2 40.8423 184.7774 44.3807 -0.8391 -9.6406 34.0764
# 3 13.3077 44.3807 133.3947 -10.8687 15.7353 -2.6780
# 4 -6.4352 -0.8391 -10.8687 33.2924 3.9662 5.6332
# 5 13.2170 -9.6406 15.7353 3.9662 22.4557 -7.7012
# 6 28.3270 34.0764 -2.6780 5.6332 -7.7012 63.4469
#
#
#
# Elastic Compliance Matrix: (Units=1/GPa)
#
#
# Indices 1 2 3 4 5 6 
#
# 1 0.019599 -0.004077 0.002201 0.008361 -0.019593 -0.009588
# 2 -0.004077 0.007768 -0.003353 -0.002428 0.008068 -0.001299
# 3 0.002201 -0.003353 0.010071 0.005010 -0.010855 -0.000519
# 4 0.008361 -0.002428 0.005010 0.036755 -0.018620 -0.007741
# 5 -0.019593 0.008068 -0.010855 -0.018620 0.075489 0.014773
# 6 -0.009588 -0.001299 -0.000519 -0.007741 0.014773 0.023198
#
#
# Mechanical properties :
#
#
# Convention : Reuss Voigt Hill
#
# Bulk Modulus (GPa) = 37.06498 67.00827 52.03662
# Shear Modulus (GPa) = 25.99688 44.33780 35.16734
#
# Velocity S-wave (km/s) = 3.16000 4.12680 3.67533
# Velocity P-wave (km/s) = 5.24891 6.96030 6.16429
#
# Compressibility (1/GPa) = 0.02697965
#
# Stress axis : x y z
#
# Youngs Moduli (GPa) = 51.02314 128.73690 99.29722
#
# Poissons Ratio (x) = 0.52483 -0.21856
# Poissons Ratio (y) = 0.20801 0.33297
# Poissons Ratio (z) = -0.11230 0.43168
#
# Static dielectric constant tensor:
#      x y z
#    x 1.849970 0.276950 0.261890 
#    y 0.276950 1.787580 -0.209240 
#    z 0.261890 -0.209240 1.803520 
# 
# From -- ./inp_files/171632.got.cif
#   From: 2010.05.17/outbox.cif.g08.bks.cpg/sg2_86_cif.got.tgz:171632.got - 2010.06.03 11:33:40.
