data_PCOD9092928
_publ_section_title
;
Structure prediction by ZEFSAII (Michael W. Deem and Ramdas Pophale) SiO2 
 PCOD9092928
Probable space group: P -1
;
_chemical_formula_sum "Si O2"
_cell_formula_units_Z 14
_cell_length_a 8.364095
_cell_length_b 11.151463
_cell_length_c 9.334349
_cell_angle_alpha 43.820955
_cell_angle_beta 115.729276
_cell_angle_gamma 115.199989
_cell_volume 534.149359
_symmetry_space_group_name_H-M "P -1"
_symmetry_group_IT_number 2
_symmetry_cell_setting 'triclinic'
loop_
_space_group_symop_operation_xyz
x,y,z
-x,-y,-z
loop_
_atom_site_type_symbol
_atom_site_label
_atom_site_fract_x
_atom_site_fract_y
_atom_site_fract_z
Si Si1 0.871836 0.455115 0.177141
Si Si2 0.441107 0.683278 0.031424
Si Si3 0.662182 0.896521 0.688986
Si Si4 0.865842 0.816525 0.572161
Si Si5 0.875116 0.212811 0.646094
Si Si6 0.265983 0.358772 0.603386
Si Si7 0.192920 0.725823 0.130748
O O1 0.704350 0.435962 0.022727
O O2 0.815553 0.363229 0.389389
O O3 0.005960 0.331037 0.269152
O O4 0.986462 0.651113 0.068475
O O5 0.584810 0.780324 0.892538
O O6 0.559684 0.607990 0.260160
O O7 0.318882 0.791019 0.989363
O O8 0.718918 0.803731 0.650934
O O9 0.500000 0.000000 0.500000
O O10 0.831640 0.039186 0.684629
O O11 0.751133 0.785686 0.405927
O O12 0.000000 0.000000 0.500000
O O13 0.791400 0.166447 0.809607
O O14 0.085485 0.287267 0.684729
O O15 0.243981 0.542460 0.365769
#
# Coordination Sequence:
#
# PCOD9092928 Si02
#       7
#     2   2   2   2   2   2   2
#     4  10  21  44  69  94 126 178 215 263 327 383
#     4  12  25  40  66 104 131 164 222 271 319 384
#     4  12  24  43  67  99 131 169 219 266 324 384
#     4  10  19  44  69  88 131 176 212 259 327 386
#     4  10  21  45  68  91 135 175 211 263 327 389
#     4  10  23  43  68  99 127 169 219 271 321 379
#     4  10  23  45  67  92 133 176 214 262 328 384
#
# _framework density 26.209897000000002
#
# number of rings (size 3 to 8) (size 9 to 14) (size 15 to 20)
#    0.000    1.714    4.286    2.571    2.000    2.286 
#    2.571    8.571    0.000    0.000    0.000    0.000 
#    0.000    0.000    0.000    0.000    0.000    0.000 
#
# Total GULP energy -78342.324144 kJ/mol
# GULP energy per Si atom -5595.880296 kJ/mol
# Density = 2.615024 g / cm^3
# Si number density = 26.209897 Si / 1000 Ang^3
#
#
#
# Elastic Constant Matrix: (Units=GPa)
#
#
# Indices 1 2 3 4 5 6 
#
# 1 98.8421 30.2302 41.5248 18.1206 -24.0634 2.9314
# 2 30.2302 90.3278 27.3648 31.9250 13.4767 -12.5341
# 3 41.5248 27.3648 84.2719 42.2770 0.1578 0.9714
# 4 18.1206 31.9250 42.2770 52.1601 4.0238 0.3252
# 5 -24.0634 13.4767 0.1578 4.0238 63.3753 21.5874
# 6 2.9314 -12.5341 0.9714 0.3252 21.5874 44.5347
#
#
#
# Elastic Compliance Matrix: (Units=1/GPa)
#
#
# Indices 1 2 3 4 5 6 
#
# 1 0.018529 -0.008237 -0.008855 0.004946 0.011554 -0.008982
# 2 -0.008237 0.019954 0.003014 -0.011054 -0.010515 0.011270
# 3 -0.008855 0.003014 0.024377 -0.018244 -0.003902 0.002924
# 4 0.004946 -0.011054 -0.018244 0.038765 0.003527 -0.005031
# 5 0.011554 -0.010515 -0.003902 0.003527 0.028070 -0.017267
# 6 -0.008982 0.011270 0.002924 -0.005031 -0.017267 0.034560
#
#
# Mechanical properties :
#
#
# Convention : Reuss Voigt Hill
#
# Bulk Modulus (GPa) = 28.81438 52.40904 40.61171
# Shear Modulus (GPa) = 24.51246 43.63549 34.07398
#
# Velocity S-wave (km/s) = 3.06148 4.08468 3.60952
# Velocity P-wave (km/s) = 4.84917 6.50273 5.73585
#
# Compressibility (1/GPa) = 0.03470489
#
# Stress axis : x y z
#
# Youngs Moduli (GPa) = 53.96969 50.11605 41.02244
#
# Poissons Ratio (x) = 0.41280 0.36325
# Poissons Ratio (y) = 0.44454 -0.12366
# Poissons Ratio (z) = 0.47789 -0.15107
#
# Static dielectric constant tensor:
#      x y z
#    x 2.110260 -0.011410 -0.020660 
#    y -0.011410 2.029190 0.001400 
#    z -0.020660 0.001400 2.229260 
# 
# From -- ./inp_files/175475.got.cif
#   From: 2010.05.17/outbox.cif.g08.bks.cpg/sg2_88_cif.got.tgz:175475.got - 2010.06.03 11:33:40.
