data_PCOD9092824
_publ_section_title
;
Structure prediction by ZEFSAII (Michael W. Deem and Ramdas Pophale) SiO2 
 PCOD9092824
Probable space group: P -1
;
_chemical_formula_sum "Si O2"
_cell_formula_units_Z 16
_cell_length_a 5.535791
_cell_length_b 11.647856
_cell_length_c 20.462654
_cell_angle_alpha 39.870835
_cell_angle_beta 56.329680
_cell_angle_gamma 57.411835
_cell_volume 687.942829
_symmetry_space_group_name_H-M "P -1"
_symmetry_group_IT_number 2
_symmetry_cell_setting 'triclinic'
loop_
_space_group_symop_operation_xyz
x,y,z
-x,-y,-z
loop_
_atom_site_type_symbol
_atom_site_label
_atom_site_fract_x
_atom_site_fract_y
_atom_site_fract_z
Si Si1 0.933585 0.486807 0.597271
Si Si2 0.497197 0.694995 0.338690
Si Si3 0.448243 0.139658 0.508122
Si Si4 0.098122 0.632533 0.208873
Si Si5 0.088844 0.665383 0.705930
Si Si6 0.727814 0.341492 0.074372
Si Si7 0.304369 0.404015 0.907559
Si Si8 0.395601 0.030476 0.298179
O O1 0.760915 0.407616 0.600017
O O2 0.850379 0.705492 0.520299
O O3 0.803463 0.395529 0.719027
O O4 0.277074 0.410920 0.594195
O O5 0.741666 0.710593 0.237217
O O6 0.369972 0.886665 0.308660
O O7 0.692028 0.264381 0.406825
O O8 0.500000 0.000000 0.500000
O O9 0.484706 0.052913 0.612636
O O10 0.352764 0.706118 0.099564
O O11 0.127325 0.429207 0.263214
O O12 0.222902 0.511281 0.805355
O O13 0.918453 0.839593 0.694935
O O14 0.742559 0.437577 0.099864
O O15 0.600831 0.161827 0.182421
O O16 0.500000 0.500000 0.000000
O O17 0.047627 0.297194 0.010711
#
# Coordination Sequence:
#
# PCOD9092824 Si02
#       8
#     2   2   2   2   2   2   2   2
#     4  10  22  44  69  96 147 191 230 267 358 426
#     4  10  24  44  68 100 146 193 231 278 349 434
#     4  12  24  41  71 111 139 179 238 291 347 418
#     4  10  19  42  72  96 135 188 233 277 347 425
#     4  12  21  43  70 102 138 178 234 294 349 414
#     4  11  23  42  63 104 138 183 229 297 365 399
#     4  11  20  38  76  97 130 185 236 288 355 419
#     4  12  26  41  66 107 144 177 236 295 345 420
#
# _framework density 23.257747999999999
#
# number of rings (size 3 to 8) (size 9 to 14) (size 15 to 20)
#    0.750    0.250    5.000    1.875    0.000    4.000 
#    0.000    0.625    0.000    3.750    0.000    0.000 
#    0.000    0.000    0.000    0.000    0.000    0.000 
#
# Total GULP energy -89307.958458 kJ/mol
# GULP energy per Si atom -5581.747404 kJ/mol
# Density = 2.320481 g / cm^3
# Si number density = 23.257748 Si / 1000 Ang^3
#
#
#
# Elastic Constant Matrix: (Units=GPa)
#
#
# Indices 1 2 3 4 5 6 
#
# 1 90.0393 15.8530 37.0209 6.9997 -14.8535 15.2652
# 2 15.8530 107.6068 2.7861 4.9595 -11.6904 4.8735
# 3 37.0209 2.7861 107.0916 16.0796 -28.6226 4.0739
# 4 6.9997 4.9595 16.0796 25.9759 -5.5671 -11.5006
# 5 -14.8535 -11.6904 -28.6226 -5.5671 35.0189 16.7281
# 6 15.2652 4.8735 4.0739 -11.5006 16.7281 38.2616
#
#
#
# Elastic Compliance Matrix: (Units=1/GPa)
#
#
# Indices 1 2 3 4 5 6 
#
# 1 0.016269 -0.000194 -0.000985 -0.007289 0.011322 -0.013502
# 2 -0.000194 0.010710 0.003084 -0.005123 0.008477 -0.006861
# 3 -0.000985 0.003084 0.017366 -0.013249 0.019573 -0.014389
# 4 -0.007289 -0.005123 -0.013249 0.059282 -0.021605 0.032236
# 5 0.011322 0.008477 0.019573 -0.021605 0.070179 -0.044857
# 6 -0.013502 -0.006861 -0.014389 0.032236 -0.044857 0.063230
#
#
# Mechanical properties :
#
#
# Convention : Reuss Voigt Hill
#
# Bulk Modulus (GPa) = 20.76626 46.22863 33.49744
# Shear Modulus (GPa) = 20.05803 36.45648 28.25725
#
# Velocity S-wave (km/s) = 2.93989 3.96346 3.48941
# Velocity P-wave (km/s) = 4.52461 6.39259 5.53793
#
# Compressibility (1/GPa) = 0.04815504
#
# Stress axis : x y z
#
# Youngs Moduli (GPa) = 61.46733 93.37445 57.58366
#
# Poissons Ratio (x) = 0.01810 0.05672
# Poissons Ratio (y) = 0.01192 -0.17760
# Poissons Ratio (z) = 0.06055 -0.28798
#
# Static dielectric constant tensor:
#      x y z
#    x 1.961060 -0.037200 -0.002670 
#    y -0.037200 1.916410 0.081640 
#    z -0.002670 0.081640 1.909010 
# 
# From -- ./inp_files/582986.got.cif
#   From: 2010.05.17/outbox.cif.g08.bks.cpg/sg2_292_cif.got.tgz:582986.got - 2010.06.03 11:33:40.
