data_PCOD9092834
_publ_section_title
;
Structure prediction by ZEFSAII (Michael W. Deem and Ramdas Pophale) SiO2 
 PCOD9092834
Probable space group: P -1
;
_chemical_formula_sum "Si O2"
_cell_formula_units_Z 16
_cell_length_a 18.451079
_cell_length_b 22.431913
_cell_length_c 9.703233
_cell_angle_alpha 36.370360
_cell_angle_beta 36.429547
_cell_angle_gamma 16.095728
_cell_volume 648.463974
_symmetry_space_group_name_H-M "P -1"
_symmetry_group_IT_number 2
_symmetry_cell_setting 'triclinic'
loop_
_space_group_symop_operation_xyz
x,y,z
-x,-y,-z
loop_
_atom_site_type_symbol
_atom_site_label
_atom_site_fract_x
_atom_site_fract_y
_atom_site_fract_z
Si Si1 0.205210 0.384728 0.071979
Si Si2 0.005349 0.731485 0.682259
Si Si3 0.118210 0.796614 0.012400
Si Si4 0.903760 0.745638 0.393857
Si Si5 0.476033 0.888622 0.481951
Si Si6 0.275390 0.094418 0.941575
Si Si7 0.462362 0.525709 0.246721
Si Si8 0.491804 0.301684 0.027814
O O1 0.068816 0.388230 0.346324
O O2 0.341725 0.356001 0.032951
O O3 0.448486 0.166133 0.014947
O O4 0.024723 0.597363 0.872584
O O5 0.283821 0.577823 0.504727
O O6 0.776101 0.943515 0.540953
O O7 0.905974 0.821347 0.821845
O O8 0.267318 0.717613 0.071081
O O9 0.113606 0.677149 0.245192
O O10 0.294221 0.698303 0.795138
O O11 0.813079 0.053639 0.987013
O O12 0.636538 0.978248 0.451970
O O13 0.853614 0.798781 0.210176
O O14 0.661620 0.838151 0.230543
O O15 0.595819 0.696429 0.705226
O O16 0.559515 0.544121 0.160547
#
# Coordination Sequence:
#
# PCOD9092834 Si02
#       8
#     2   2   2   2   2   2   2   2
#     4  11  24  42  69 101 129 173 210 270 338 387
#     4  12  27  41  61 104 141 160 217 276 329 376
#     4  10  22  43  70  93 124 172 230 267 308 381
#     4  10  19  42  74  92 126 170 224 260 316 400
#     4  10  20  44  69  97 129 170 219 273 316 394
#     4  11  22  43  69  97 135 170 209 274 335 384
#     4  11  25  43  64  98 130 174 225 268 308 389
#     4  11  21  43  75  89 125 178 225 259 317 388
#
# _framework density 24.673690000000001
#
# number of rings (size 3 to 8) (size 9 to 14) (size 15 to 20)
#    0.000    1.250    6.250    1.500    1.750    5.000 
#    2.250    1.250    0.000    0.000    0.000    0.000 
#    0.000    0.000    0.000    0.000    0.000    0.000 
#
# Total GULP energy -89592.755098 kJ/mol
# GULP energy per Si atom -5599.547194 kJ/mol
# Density = 2.461753 g / cm^3
# Si number density = 24.673690 Si / 1000 Ang^3
#
#
#
# Elastic Constant Matrix: (Units=GPa)
#
#
# Indices 1 2 3 4 5 6 
#
# 1 91.8860 18.4010 31.9229 13.7851 -6.0088 -3.3576
# 2 18.4010 71.7737 24.6242 14.2774 17.3181 6.6041
# 3 31.9229 24.6242 121.0302 34.7893 3.2585 17.8885
# 4 13.7851 14.2774 34.7893 48.2219 1.2909 -0.3521
# 5 -6.0088 17.3181 3.2585 1.2909 30.2517 0.9205
# 6 -3.3576 6.6041 17.8885 -0.3521 0.9205 33.8667
#
#
#
# Elastic Compliance Matrix: (Units=1/GPa)
#
#
# Indices 1 2 3 4 5 6 
#
# 1 0.013308 -0.003751 -0.003302 -0.000420 0.005053 0.003653
# 2 -0.003751 0.018970 -0.001090 -0.003480 -0.011240 -0.003226
# 3 -0.003302 -0.001090 0.012662 -0.007895 -0.000850 -0.006862
# 4 -0.000420 -0.003480 -0.007895 0.027583 0.001429 0.005055
# 5 0.005053 -0.011240 -0.000850 0.001429 0.040462 0.002057
# 6 0.003653 -0.003226 -0.006862 0.005055 0.002057 0.034140
#
#
# Mechanical properties :
#
#
# Convention : Reuss Voigt Hill
#
# Bulk Modulus (GPa) = 34.90079 48.28734 41.59407
# Shear Modulus (GPa) = 28.90791 36.45084 32.67938
#
# Velocity S-wave (km/s) = 3.42659 3.84776 3.64326
# Velocity P-wave (km/s) = 5.46178 6.27321 5.88150
#
# Compressibility (1/GPa) = 0.02865265
#
# Stress axis : x y z
#
# Youngs Moduli (GPa) = 75.14011 52.71564 78.97783
#
# Poissons Ratio (x) = 0.19773 0.26082
# Poissons Ratio (y) = 0.28184 0.08612
# Poissons Ratio (z) = 0.24814 0.05748
#
# Static dielectric constant tensor:
#      x y z
#    x 1.976880 -0.006250 0.022860 
#    y -0.006250 2.006730 -0.012760 
#    z 0.022860 -0.012760 1.981190 
# 
# From -- ./inp_files/338073.got.cif
#   From: 2010.05.17/outbox.cif.g08.bks.cpg/sg2_170_cif.got.tgz:338073.got - 2010.06.03 11:33:40.
