data_PCOD9092614
_publ_section_title
;
Structure prediction by ZEFSAII (Michael W. Deem and Ramdas Pophale) SiO2 
 PCOD9092614
Probable space group: P -1
;
_chemical_formula_sum "Si O2"
_cell_formula_units_Z 16
_cell_length_a 19.416904
_cell_length_b 9.000249
_cell_length_c 14.747150
_cell_angle_alpha 57.164361
_cell_angle_beta 161.932377
_cell_angle_gamma 120.717907
_cell_volume 671.470817
_symmetry_space_group_name_H-M "P -1"
_symmetry_group_IT_number 2
_symmetry_cell_setting 'triclinic'
loop_
_space_group_symop_operation_xyz
x,y,z
-x,-y,-z
loop_
_atom_site_type_symbol
_atom_site_label
_atom_site_fract_x
_atom_site_fract_y
_atom_site_fract_z
Si Si1 0.774755 0.928357 0.469256
Si Si2 0.038369 0.559985 0.926931
Si Si3 0.887216 0.948672 0.281563
Si Si4 0.223623 0.998826 0.338993
Si Si5 0.443019 0.733075 0.302383
Si Si6 0.287375 0.604259 0.558440
Si Si7 0.074034 0.426924 0.519557
Si Si8 0.574415 0.330522 0.894643
O O1 0.527341 0.865922 0.152196
O O2 0.910104 0.744629 0.686489
O O3 0.802258 0.980055 0.591415
O O4 0.909288 0.063910 0.531532
O O5 0.930574 0.427501 0.765468
O O6 0.290817 0.602659 0.209421
O O7 0.000000 0.500000 0.000000
O O8 0.787004 0.755417 0.232865
O O9 0.000000 0.000000 0.500000
O O10 0.711899 0.097536 0.980674
O O11 0.343290 0.807523 0.543279
O O12 0.366527 0.169808 0.436500
O O13 0.000000 0.000000 0.000000
O O14 0.516021 0.641371 0.330211
O O15 0.471243 0.466617 0.794016
O O16 0.208100 0.552753 0.577800
O O17 0.000000 0.500000 0.500000
O O18 0.836121 0.365358 0.201637
#
# Coordination Sequence:
#
# PCOD9092614 Si02
#       8
#     2   2   2   2   2   2   2   2
#     4   9  21  40  63  96 133 166 228 275 321 409
#     4  10  19  41  70  97 126 172 224 280 333 397
#     4  11  20  41  68  97 134 178 224 275 329 407
#     4  11  24  46  66  96 135 180 223 284 345 392
#     4  10  22  44  69 101 136 179 232 275 331 416
#     4  11  24  45  65  99 141 167 229 287 323 409
#     4  12  25  41  64  99 140 180 221 274 346 394
#     4  10  21  43  65  95 135 179 220 274 333 392
#
# _framework density 23.828287
#
# number of rings (size 3 to 8) (size 9 to 14) (size 15 to 20)
#    0.000    1.500    2.500    3.000    1.750    1.000 
#   11.250    6.875    0.000    0.000    0.000    0.000 
#    0.000    0.000    0.000    0.000    0.000    0.000 
#
# Total GULP energy -89412.952788 kJ/mol
# GULP energy per Si atom -5588.309549 kJ/mol
# Density = 2.377405 g / cm^3
# Si number density = 23.828287 Si / 1000 Ang^3
#
#
#
# Elastic Constant Matrix: (Units=GPa)
#
#
# Indices 1 2 3 4 5 6 
#
# 1 104.4186 16.4531 -1.6327 8.1373 7.0410 5.9883
# 2 16.4531 60.9145 -4.6697 9.8609 -11.2149 -7.7736
# 3 -1.6327 -4.6697 99.0811 12.4117 4.5608 -2.5507
# 4 8.1373 9.8609 12.4117 37.7090 1.4035 0.0712
# 5 7.0410 -11.2149 4.5608 1.4035 32.9877 6.7805
# 6 5.9883 -7.7736 -2.5507 0.0712 6.7805 45.0257
#
#
#
# Elastic Compliance Matrix: (Units=1/GPa)
#
#
# Indices 1 2 3 4 5 6 
#
# 1 0.010507 -0.003347 0.000289 -0.001371 -0.003055 -0.001497
# 2 -0.003347 0.019903 0.001287 -0.005169 0.006923 0.002920
# 3 0.000289 0.001287 0.010723 -0.003888 -0.001140 0.000969
# 4 -0.001371 -0.005169 -0.003888 0.029523 -0.002046 -0.000669
# 5 -0.003055 0.006923 -0.001140 -0.002046 0.034310 -0.003627
# 6 -0.001497 0.002920 0.000969 -0.000669 -0.003627 0.023515
#
#
# Mechanical properties :
#
#
# Convention : Reuss Voigt Hill
#
# Bulk Modulus (GPa) = 26.60244 31.63506 29.11875
# Shear Modulus (GPa) = 34.58904 40.09539 37.34222
#
# Velocity S-wave (km/s) = 3.81411 4.10650 3.96300
# Velocity P-wave (km/s) = 5.53038 5.98243 5.76084
#
# Compressibility (1/GPa) = 0.03759054
#
# Stress axis : x y z
#
# Youngs Moduli (GPa) = 95.17055 50.24314 93.26109
#
# Poissons Ratio (x) = 0.16819 -0.02697
# Poissons Ratio (y) = 0.31858 -0.12002
# Poissons Ratio (z) = -0.02752 -0.06466
#
# Static dielectric constant tensor:
#      x y z
#    x 1.915900 0.020030 0.066960 
#    y 0.020030 1.927790 0.005170 
#    z 0.066960 0.005170 2.026670 
# 
# From -- ./inp_files/540448.got.cif
#   From: 2010.05.17/outbox.cif.g08.bks.cpg/sg2_271_cif.got.tgz:540448.got - 2010.06.03 11:33:40.
