data_PCOD9092088
_publ_section_title
;
Structure prediction by ZEFSAII (Michael W. Deem and Ramdas Pophale) SiO2 
 PCOD9092088
Probable space group: P -1
;
_chemical_formula_sum "Si O2"
_cell_formula_units_Z 16
_cell_length_a 8.977892
_cell_length_b 8.773395
_cell_length_c 14.167155
_cell_angle_alpha 68.346023
_cell_angle_beta 39.356064
_cell_angle_gamma 73.477783
_cell_volume 657.694382
_symmetry_space_group_name_H-M "P -1"
_symmetry_group_IT_number 2
_symmetry_cell_setting 'triclinic'
loop_
_space_group_symop_operation_xyz
x,y,z
-x,-y,-z
loop_
_atom_site_type_symbol
_atom_site_label
_atom_site_fract_x
_atom_site_fract_y
_atom_site_fract_z
Si Si1 0.893871 0.728014 0.898791
Si Si2 0.568610 0.861232 0.872288
Si Si3 0.387590 0.756429 0.727441
Si Si4 0.938956 0.356628 0.637044
Si Si5 0.651502 0.505731 0.516709
Si Si6 0.814393 0.882160 0.568181
Si Si7 0.298681 0.588777 0.012476
Si Si8 0.508778 0.245038 0.786925
O O1 0.724242 0.844842 0.893375
O O2 0.888398 0.556338 0.883913
O O3 0.149772 0.796065 0.779769
O O4 0.757530 0.708753 0.069758
O O5 0.727698 0.783335 0.726919
O O6 0.533925 0.050576 0.820321
O O7 0.318430 0.767562 0.013537
O O8 0.534103 0.633249 0.617954
O O9 0.558027 0.907551 0.639233
O O10 0.332786 0.653786 0.872631
O O11 0.085012 0.421207 0.639532
O O12 0.043596 0.199595 0.568254
O O13 0.000000 0.500000 0.500000
O O14 0.663156 0.328119 0.776084
O O15 0.500000 0.500000 0.500000
O O16 0.622514 0.327748 0.620208
O O17 0.000000 0.000000 0.500000
O O18 0.500000 0.500000 0.000000
#
# Coordination Sequence:
#
# PCOD9092088 Si02
#       8
#     2   2   2   2   2   2   2   2
#     4  11  22  39  64  93 132 169 210 268 322 377
#     4  10  22  38  62  96 124 171 219 253 320 390
#     4  10  21  40  66  95 129 160 218 275 315 379
#     4   9  20  37  64  87 117 166 217 262 304 375
#     4  10  22  41  63  96 126 168 222 268 325 373
#     4  10  19  40  66  86 122 164 211 261 318 378
#     4   9  19  38  63  92 122 171 216 249 309 389
#     4  11  21  40  65  88 132 172 208 271 314 384
#
# _framework density 24.32741
#
# number of rings (size 3 to 8) (size 9 to 14) (size 15 to 20)
#    0.000    2.000    2.500    0.750    1.750    2.000 
#    4.500    5.625    0.000    0.000    0.000    0.000 
#    0.000    0.000    0.000    0.000    0.000    0.000 
#
# Total GULP energy -89083.763631 kJ/mol
# GULP energy per Si atom -5567.735227 kJ/mol
# Density = 2.427204 g / cm^3
# Si number density = 24.327410 Si / 1000 Ang^3
#
#
#
# Elastic Constant Matrix: (Units=GPa)
#
#
# Indices 1 2 3 4 5 6 
#
# 1 166.4427 48.6542 30.9544 -22.4483 -31.5659 32.1856
# 2 48.6542 95.4910 18.7084 -29.4956 -17.9784 17.0159
# 3 30.9544 18.7084 51.9787 -12.9893 -25.6330 4.3898
# 4 -22.4483 -29.4956 -12.9893 39.0374 13.9236 -6.7293
# 5 -31.5659 -17.9784 -25.6330 13.9236 58.7841 -7.8128
# 6 32.1856 17.0159 4.3898 -6.7293 -7.8128 27.8226
#
#
#
# Elastic Compliance Matrix: (Units=1/GPa)
#
#
# Indices 1 2 3 4 5 6 
#
# 1 0.009188 -0.002096 -0.003002 0.000665 0.001733 -0.008226
# 2 -0.002096 0.015520 -0.001590 0.009151 0.000154 -0.004560
# 3 -0.003002 -0.001590 0.026665 0.003276 0.009235 0.003623
# 4 0.000665 0.009151 0.003276 0.035443 -0.003725 0.000643
# 5 0.001733 0.000154 0.009235 -0.003725 0.023171 0.002049
# 6 -0.008226 -0.004560 0.003623 0.000643 0.002049 0.048406
#
#
# Mechanical properties :
#
#
# Convention : Reuss Voigt Hill
#
# Bulk Modulus (GPa) = 26.31698 56.72738 41.52218
# Shear Modulus (GPa) = 27.11002 39.50183 33.30593
#
# Velocity S-wave (km/s) = 3.34186 4.03396 3.70411
# Velocity P-wave (km/s) = 5.07267 6.71312 5.94971
#
# Compressibility (1/GPa) = 0.03799828
#
# Stress axis : x y z
#
# Youngs Moduli (GPa) = 108.83724 64.43428 37.50186
#
# Poissons Ratio (x) = 0.13504 0.11257
# Poissons Ratio (y) = 0.22810 0.05962
# Poissons Ratio (z) = 0.32670 0.10244
#
# Static dielectric constant tensor:
#      x y z
#    x 1.977800 0.006070 -0.007460 
#    y 0.006070 2.042740 0.027400 
#    z -0.007460 0.027400 2.099310 
# 
# From -- ./inp_files/208957.got.cif
#   From: 2010.05.17/outbox.cif.g08.bks.cpg/sg2_105_cif.got.tgz:208957.got - 2010.06.03 11:33:40.
