data_PCOD9092120
_publ_section_title
;
Structure prediction by ZEFSAII (Michael W. Deem and Ramdas Pophale) SiO2 
 PCOD9092120
Probable space group: P -1
;
_chemical_formula_sum "Si O2"
_cell_formula_units_Z 14
_cell_length_a 13.336713
_cell_length_b 8.643362
_cell_length_c 8.701725
_cell_angle_alpha 111.382212
_cell_angle_beta 123.967910
_cell_angle_gamma 46.468967
_cell_volume 602.792499
_symmetry_space_group_name_H-M "P -1"
_symmetry_group_IT_number 2
_symmetry_cell_setting 'triclinic'
loop_
_space_group_symop_operation_xyz
x,y,z
-x,-y,-z
loop_
_atom_site_type_symbol
_atom_site_label
_atom_site_fract_x
_atom_site_fract_y
_atom_site_fract_z
Si Si1 0.264312 0.847958 0.557217
Si Si2 0.221548 0.398475 0.985312
Si Si3 0.951159 0.776523 0.302296
Si Si4 0.381911 0.831697 0.330506
Si Si5 0.940854 0.880772 0.985595
Si Si6 0.284701 0.432004 0.398892
Si Si7 0.464123 0.427766 0.094964
O O1 0.329879 0.887107 0.481714
O O2 0.278361 0.639668 0.458530
O O3 0.376927 0.775735 0.772345
O O4 0.098744 0.062232 0.543235
O O5 0.286409 0.355815 0.200739
O O6 0.339461 0.389608 0.969484
O O7 0.176830 0.255448 0.841324
O O8 0.060973 0.638484 0.945482
O O9 0.119363 0.543687 0.378118
O O10 0.952875 0.874342 0.177624
O O11 0.557407 0.749272 0.441103
O O12 0.396694 0.623736 0.224989
O O13 0.235422 0.014948 0.171780
O O14 0.000000 0.000000 0.000000
O O15 0.500000 0.500000 0.000000
#
# Coordination Sequence:
#
# PCOD9092120 Si02
#       7
#     2   2   2   2   2   2   2
#     4  11  21  39  68  95 130 170 223 267 326 387
#     4  11  22  44  66  93 138 172 214 272 332 387
#     4  11  25  41  66  99 132 176 215 266 335 388
#     4  11  20  40  67  96 126 167 223 275 315 372
#     4  11  21  39  69  99 126 171 227 268 310 395
#     4  10  19  40  66  93 125 175 215 260 317 393
#     4  11  21  39  70  99 124 170 229 270 312 391
#
# _framework density 23.225238999999998
#
# number of rings (size 3 to 8) (size 9 to 14) (size 15 to 20)
#    0.000    1.143    4.286    4.714    0.000    0.571 
#    2.571    3.571    6.286    0.000    0.000    0.000 
#    0.000    0.000    0.000    0.000    0.000    0.000 
#
# Total GULP energy -78270.392952 kJ/mol
# GULP energy per Si atom -5590.742354 kJ/mol
# Density = 2.317238 g / cm^3
# Si number density = 23.225239 Si / 1000 Ang^3
#
#
#
# Elastic Constant Matrix: (Units=GPa)
#
#
# Indices 1 2 3 4 5 6 
#
# 1 121.6000 28.4066 45.7149 7.6031 8.0638 -16.4963
# 2 28.4066 55.0755 33.6975 -0.2979 1.7821 0.2548
# 3 45.7149 33.6975 99.9148 -22.6803 26.6649 -11.1053
# 4 7.6031 -0.2979 -22.6803 39.4897 -11.5890 9.1207
# 5 8.0638 1.7821 26.6649 -11.5890 36.7706 0.9235
# 6 -16.4963 0.2548 -11.1053 9.1207 0.9235 26.0640
#
#
#
# Elastic Compliance Matrix: (Units=1/GPa)
#
#
# Indices 1 2 3 4 5 6 
#
# 1 0.012718 -0.003541 -0.004979 -0.007862 -0.001705 0.008774
# 2 -0.003541 0.025802 -0.009811 -0.001414 0.006356 -0.006404
# 3 -0.004979 -0.009811 0.020860 0.008985 -0.010805 0.003071
# 4 -0.007862 -0.001414 0.008985 0.037536 0.007472 -0.014534
# 5 -0.001705 0.006356 -0.010805 0.007472 0.037696 -0.009695
# 6 0.008774 -0.006404 0.003071 -0.014534 -0.009695 0.050721
#
#
# Mechanical properties :
#
#
# Convention : Reuss Voigt Hill
#
# Bulk Modulus (GPa) = 44.01793 54.69203 49.35498
# Shear Modulus (GPa) = 21.78018 31.71629 26.74824
#
# Velocity S-wave (km/s) = 3.06564 3.69941 3.39734
# Velocity P-wave (km/s) = 5.61468 6.46894 6.05689
#
# Compressibility (1/GPa) = 0.02271802
#
# Stress axis : x y z
#
# Youngs Moduli (GPa) = 78.63154 38.75611 47.93878
#
# Poissons Ratio (x) = 0.13724 0.23868
# Poissons Ratio (y) = 0.27844 0.47033
# Poissons Ratio (z) = 0.39150 0.38024
#
# Static dielectric constant tensor:
#      x y z
#    x 1.906520 -0.015430 0.039670 
#    y -0.015430 1.870630 -0.021960 
#    z 0.039670 -0.021960 1.890530 
# 
# From -- ./inp_files/244694.got.cif
#   From: 2010.05.17/outbox.cif.g08.bks.cpg/sg2_123_cif.got.tgz:244694.got - 2010.06.03 11:33:40.
