data_PCOD9092827
_publ_section_title
;
Structure prediction by ZEFSAII (Michael W. Deem and Ramdas Pophale) SiO2 
 PCOD9092827
Probable space group: P -1
;
_chemical_formula_sum "Si O2"
_cell_formula_units_Z 15
_cell_length_a 12.769744
_cell_length_b 8.363535
_cell_length_c 8.241053
_cell_angle_alpha 69.954056
_cell_angle_beta 75.921316
_cell_angle_gamma 119.150413
_cell_volume 625.357824
_symmetry_space_group_name_H-M "P -1"
_symmetry_group_IT_number 2
_symmetry_cell_setting 'triclinic'
loop_
_space_group_symop_operation_xyz
x,y,z
-x,-y,-z
loop_
_atom_site_type_symbol
_atom_site_label
_atom_site_fract_x
_atom_site_fract_y
_atom_site_fract_z
Si Si1 0.878979 0.635185 0.745968
Si Si2 0.307286 0.430278 0.430556
Si Si3 0.440880 0.305475 0.224763
Si Si4 0.843241 0.121515 0.654223
Si Si5 0.765274 0.355889 0.402280
Si Si6 0.955927 0.028408 0.180604
Si Si7 0.500000 0.000000 0.500000
Si Si8 0.077377 0.707120 0.081053
O O1 0.740361 0.529592 0.734100
O O2 0.880225 0.446199 0.881321
O O3 0.014187 0.778183 0.527684
O O4 0.913587 0.809288 0.808790
O O5 0.421710 0.404604 0.357408
O O6 0.334302 0.598649 0.497752
O O7 0.165242 0.202825 0.620638
O O8 0.287096 0.109981 0.282205
O O9 0.504023 0.185190 0.302235
O O10 0.500000 0.500000 0.000000
O O11 0.811645 0.284869 0.559081
O O12 0.864469 0.146987 0.829300
O O13 0.909991 0.554776 0.205810
O O14 0.665030 0.158721 0.389356
O O15 0.887080 0.145499 0.137716
O O16 0.000000 0.000000 0.000000
#
# Coordination Sequence:
#
# PCOD9092827 Si02
#       8
#     2   2   2   2   2   2   1   2
#     4  11  21  40  65 103 141 180 219 283 361 426
#     4  12  23  43  71 100 136 181 234 289 356 423
#     4  11  27  48  74  98 137 194 243 286 354 420
#     4  10  19  42  73 102 139 180 228 290 354 425
#     4  10  20  41  71  96 138 184 227 281 354 413
#     4  12  24  35  59 111 149 171 219 286 360 421
#     4  10  26  50  68  98 142 188 238 304 332 414
#     4  11  21  39  68 106 138 175 223 286 358 432
#
# _framework density 23.986266000000001
#
# number of rings (size 3 to 8) (size 9 to 14) (size 15 to 20)
#    0.000    1.067    5.333    1.600    1.867    2.667 
#    2.400    2.667    0.000    0.000    0.000    0.000 
#    0.000    0.000    0.000    0.000    0.000    0.000 
#
# Total GULP energy -83528.302071 kJ/mol
# GULP energy per Si atom -5568.553471 kJ/mol
# Density = 2.393167 g / cm^3
# Si number density = 23.986266 Si / 1000 Ang^3
#
#
#
# Elastic Constant Matrix: (Units=GPa)
#
#
# Indices 1 2 3 4 5 6 
#
# 1 100.0763 1.2356 32.7448 -3.2309 21.8669 -3.4126
# 2 1.2356 23.1706 8.2832 5.9339 -7.3271 -13.2540
# 3 32.7448 8.2832 61.1325 -8.7968 19.7814 -15.4314
# 4 -3.2309 5.9339 -8.7968 35.7990 -10.9608 5.0477
# 5 21.8669 -7.3271 19.7814 -10.9608 36.8454 -0.0990
# 6 -3.4126 -13.2540 -15.4314 5.0477 -0.0990 38.7133
#
#
#
# Elastic Compliance Matrix: (Units=1/GPa)
#
#
# Indices 1 2 3 4 5 6 
#
# 1 0.012898 -0.000540 -0.005662 -0.001570 -0.005192 -0.001114
# 2 -0.000540 0.066310 -0.010371 -0.011621 0.015672 0.020076
# 3 -0.005662 -0.010371 0.026718 0.003209 -0.012075 0.006151
# 4 -0.001570 -0.011621 0.003209 0.033630 0.006883 -0.007205
# 5 -0.005192 0.015672 -0.012075 0.006883 0.041867 -0.000696
# 6 -0.001114 0.020076 0.006151 -0.007205 -0.000696 0.035995
#
#
# Mechanical properties :
#
#
# Convention : Reuss Voigt Hill
#
# Bulk Modulus (GPa) = 13.74037 29.87851 21.80944
# Shear Modulus (GPa) = 18.19341 31.74592 24.96967
#
# Velocity S-wave (km/s) = 2.75706 3.64195 3.22995
# Velocity P-wave (km/s) = 3.98448 5.49259 4.79816
#
# Compressibility (1/GPa) = 0.07277824
#
# Stress axis : x y z
#
# Youngs Moduli (GPa) = 77.53432 15.08059 37.42845
#
# Poissons Ratio (x) = 0.00815 0.21193
# Poissons Ratio (y) = 0.04189 0.38818
# Poissons Ratio (z) = 0.43901 0.15640
#
# Static dielectric constant tensor:
#      x y z
#    x 2.002510 -0.143390 0.081300 
#    y -0.143390 2.040690 0.015440 
#    z 0.081300 0.015440 1.968780 
# 
# From -- ./inp_files/237683.got.cif
#   From: 2010.05.17/outbox.cif.g08.bks.cpg/sg2_119_cif.got.tgz:237683.got - 2010.06.03 11:33:40.
