data_PCOD9092032
_publ_section_title
;
Structure prediction by ZEFSAII (Michael W. Deem and Ramdas Pophale) SiO2 
 PCOD9092032
Probable space group: P -1
;
_chemical_formula_sum "Si O2"
_cell_formula_units_Z 14
_cell_length_a 14.981029
_cell_length_b 9.134152
_cell_length_c 13.016576
_cell_angle_alpha 126.324093
_cell_angle_beta 64.046353
_cell_angle_gamma 149.861157
_cell_volume 708.169946
_symmetry_space_group_name_H-M "P -1"
_symmetry_group_IT_number 2
_symmetry_cell_setting 'triclinic'
loop_
_space_group_symop_operation_xyz
x,y,z
-x,-y,-z
loop_
_atom_site_type_symbol
_atom_site_label
_atom_site_fract_x
_atom_site_fract_y
_atom_site_fract_z
Si Si1 0.239413 0.789110 0.236318
Si Si2 0.074484 0.729842 0.656615
Si Si3 0.566321 0.607439 0.130820
Si Si4 0.899555 0.850407 0.300535
Si Si5 0.682510 0.377809 0.034710
Si Si6 0.280946 0.245905 0.295820
Si Si7 0.421690 0.583483 0.561776
O O1 0.075931 0.538016 0.293251
O O2 0.255526 0.004903 0.256943
O O3 0.428833 0.059641 0.314868
O O4 0.219979 0.591117 0.087584
O O5 0.000000 0.500000 0.500000
O O6 0.267787 0.018706 0.744057
O O7 0.075357 0.929934 0.687826
O O8 0.633156 0.504648 0.076995
O O9 0.389017 0.385478 0.194439
O O10 0.500000 0.500000 0.000000
O O11 0.796502 0.557737 0.155329
O O12 0.768163 0.689514 0.396233
O O13 0.089134 0.049631 0.310396
O O14 0.500000 0.000000 0.000000
O O15 0.397310 0.553626 0.440422
O O16 0.500000 0.500000 0.500000
#
# Coordination Sequence:
#
# PCOD9092032 Si02
#       7
#     2   2   2   2   2   2   2
#     4  11  22  39  69  90 124 172 211 258 314 383
#     4  11  24  45  65  92 128 170 212 259 324 380
#     4  11  26  44  65  92 134 169 210 268 317 375
#     4  11  24  39  66  95 130 161 211 267 315 374
#     4  11  21  43  64  92 124 170 215 253 318 382
#     4  11  23  41  63  94 127 164 215 264 312 372
#     4  10  19  40  65  89 123 169 208 255 313 375
#
# _framework density 19.769265000000001
#
# number of rings (size 3 to 8) (size 9 to 14) (size 15 to 20)
#    0.000    1.143    2.857    5.571    4.000    2.857 
#    2.571    1.429    0.000    0.000    0.000    0.000 
#    0.000    0.000    0.000    0.000    0.000    0.000 
#
# Total GULP energy -77998.611477 kJ/mol
# GULP energy per Si atom -5571.329391 kJ/mol
# Density = 1.972427 g / cm^3
# Si number density = 19.769265 Si / 1000 Ang^3
#
#
#
# Elastic Constant Matrix: (Units=GPa)
#
#
# Indices 1 2 3 4 5 6 
#
# 1 53.0167 21.2633 35.2522 -5.5389 12.6068 25.4501
# 2 21.2633 123.0336 51.7868 -26.2187 6.6408 13.8868
# 3 35.2522 51.7868 155.6389 -21.7224 14.4379 12.8901
# 4 -5.5389 -26.2187 -21.7224 50.7488 3.4833 -2.0731
# 5 12.6068 6.6408 14.4379 3.4833 29.0730 -1.3236
# 6 25.4501 13.8868 12.8901 -2.0731 -1.3236 27.6782
#
#
#
# Elastic Compliance Matrix: (Units=1/GPa)
#
#
# Indices 1 2 3 4 5 6 
#
# 1 0.047594 0.000431 -0.005110 0.002905 -0.020475 -0.042361
# 2 0.000431 0.010646 -0.002458 0.004463 -0.002131 -0.004361
# 3 -0.005110 -0.002458 0.008687 0.002087 -0.001697 0.001962
# 4 0.002905 0.004463 0.002087 0.023475 -0.006330 -0.004427
# 5 -0.020475 -0.002131 -0.001697 -0.006330 0.046384 0.022431
# 6 -0.042361 -0.004361 0.001962 -0.004427 0.022431 0.077095
#
#
# Mechanical properties :
#
#
# Convention : Reuss Voigt Hill
#
# Bulk Modulus (GPa) = 18.99258 60.92154 39.95706
# Shear Modulus (GPa) = 20.34939 36.39246 28.37093
#
# Velocity S-wave (km/s) = 3.21182 4.29518 3.79238
# Velocity P-wave (km/s) = 4.83553 7.44858 6.27948
#
# Compressibility (1/GPa) = 0.05265213
#
# Stress axis : x y z
#
# Youngs Moduli (GPa) = 21.01100 93.92788 115.11658
#
# Poissons Ratio (x) = -0.04048 0.58829
# Poissons Ratio (y) = -0.00906 0.28299
# Poissons Ratio (z) = 0.10737 0.23090
#
# Static dielectric constant tensor:
#      x y z
#    x 1.674970 0.042350 -0.010770 
#    y 0.042350 1.771780 0.010390 
#    z -0.010770 0.010390 1.634940 
# 
# From -- ./inp_files/175443.got.cif
#   From: 2010.05.17/outbox.cif.g08.bks.cpg/sg2_88_cif.got.tgz:175443.got - 2010.06.03 11:33:40.
