data_PCOD9092930
_publ_section_title
;
Structure prediction by ZEFSAII (Michael W. Deem and Ramdas Pophale) SiO2 
 PCOD9092930
Probable space group: P -1
;
_chemical_formula_sum "Si O2"
_cell_formula_units_Z 16
_cell_length_a 8.748166
_cell_length_b 11.614857
_cell_length_c 8.989109
_cell_angle_alpha 92.558078
_cell_angle_beta 50.180517
_cell_angle_gamma 103.168130
_cell_volume 676.794261
_symmetry_space_group_name_H-M "P -1"
_symmetry_group_IT_number 2
_symmetry_cell_setting 'triclinic'
loop_
_space_group_symop_operation_xyz
x,y,z
-x,-y,-z
loop_
_atom_site_type_symbol
_atom_site_label
_atom_site_fract_x
_atom_site_fract_y
_atom_site_fract_z
Si Si1 0.359094 0.696175 0.595394
Si Si2 0.057366 0.728861 0.564670
Si Si3 0.836888 0.995855 0.473579
Si Si4 0.631759 0.105377 0.169865
Si Si5 0.245455 0.120516 0.782143
Si Si6 0.282605 0.729824 0.138026
Si Si7 0.290113 0.289510 0.003757
Si Si8 0.762068 0.472584 0.093197
O O1 0.180282 0.654917 0.582856
O O2 0.289060 0.785717 0.759172
O O3 0.563211 0.775292 0.394248
O O4 0.376536 0.589156 0.684820
O O5 0.094395 0.709606 0.368553
O O6 0.167962 0.867634 0.537855
O O7 0.828224 0.707273 0.767592
O O8 0.615210 0.923071 0.665883
O O9 0.879356 0.935703 0.289547
O O10 0.000000 0.000000 0.500000
O O11 0.688050 0.988494 0.188207
O O12 0.697776 0.152362 0.966836
O O13 0.158414 0.186385 0.971337
O O14 0.492411 0.738576 0.100204
O O15 0.262795 0.620955 0.031403
O O16 0.302239 0.412623 0.919687
O O17 0.000000 0.500000 0.000000
#
# Coordination Sequence:
#
# PCOD9092930 Si02
#       8
#     2   2   2   2   2   2   2   2
#     4  10  19  44  69  94 130 181 226 272 335 411
#     4  12  23  43  69  99 140 176 229 282 341 398
#     4  11  22  38  65 107 142 175 227 283 331 411
#     4  10  20  42  72  93 137 191 219 267 353 407
#     4  11  22  43  71  98 140 188 220 273 351 408
#     4  11  26  46  71 101 138 180 228 291 340 396
#     4  12  26  44  70 105 136 180 236 282 339 409
#     4  11  25  46  73  98 134 182 234 284 345 409
#
# _framework density 23.640861000000001
#
# number of rings (size 3 to 8) (size 9 to 14) (size 15 to 20)
#    0.000    1.000    5.000    1.875    0.000    5.500 
#    0.000    0.000    0.000    0.000    0.000    0.000 
#    0.000    0.000    0.000    0.000    0.000    0.000 
#
# Total GULP energy -89574.007822 kJ/mol
# GULP energy per Si atom -5598.375489 kJ/mol
# Density = 2.358705 g / cm^3
# Si number density = 23.640861 Si / 1000 Ang^3
#
#
#
# Elastic Constant Matrix: (Units=GPa)
#
#
# Indices 1 2 3 4 5 6 
#
# 1 112.5008 29.8021 47.3012 1.5328 23.2481 -4.3777
# 2 29.8021 82.6224 45.5808 -8.1764 21.6809 -8.4721
# 3 47.3012 45.5808 135.1534 -9.5746 25.2541 -27.2123
# 4 1.5328 -8.1764 -9.5746 31.0156 -2.2989 13.8924
# 5 23.2481 21.6809 25.2541 -2.2989 37.4830 -1.4981
# 6 -4.3777 -8.4721 -27.2123 13.8924 -1.4981 29.3657
#
#
#
# Elastic Compliance Matrix: (Units=1/GPa)
#
#
# Indices 1 2 3 4 5 6 
#
# 1 0.011446 -0.001641 -0.002948 -0.001850 -0.004311 -0.000844
# 2 -0.001641 0.016588 -0.003886 0.003218 -0.005797 -0.000878
# 3 -0.002948 -0.003886 0.012539 -0.002185 -0.004071 0.010885
# 4 -0.001850 0.003218 -0.002185 0.042190 0.002498 -0.021204
# 5 -0.004311 -0.005797 -0.004071 0.002498 0.035384 -0.005464
# 6 -0.000844 -0.000878 0.010885 -0.021204 -0.005464 0.053513
#
#
# Mechanical properties :
#
#
# Convention : Reuss Voigt Hill
#
# Bulk Modulus (GPa) = 42.32887 63.96050 53.14469
# Shear Modulus (GPa) = 25.44741 33.41236 29.42989
#
# Velocity S-wave (km/s) = 3.28444 3.76351 3.53210
# Velocity P-wave (km/s) = 5.68570 6.78227 6.25805
#
# Compressibility (1/GPa) = 0.02362454
#
# Stress axis : x y z
#
# Youngs Moduli (GPa) = 87.36512 60.28295 79.75327
#
# Poissons Ratio (x) = 0.09890 0.23511
# Poissons Ratio (y) = 0.14333 0.30991
# Poissons Ratio (z) = 0.25755 0.23425
#
# Static dielectric constant tensor:
#      x y z
#    x 1.918690 -0.015680 -0.000790 
#    y -0.015680 1.890770 -0.012770 
#    z -0.000790 -0.012770 1.925420 
# 
# From -- ./inp_files/187352.got.cif
#   From: 2010.05.17/outbox.cif.g08.bks.cpg/sg2_94_cif.got.tgz:187352.got - 2010.06.03 11:33:40.
