data_PCOD9092955
_publ_section_title
;
Structure prediction by ZEFSAII (Michael W. Deem and Ramdas Pophale) SiO2 
 PCOD9092955
Probable space group: P -1
;
_chemical_formula_sum "Si O2"
_cell_formula_units_Z 16
_cell_length_a 11.025435
_cell_length_b 14.935134
_cell_length_c 9.020494
_cell_angle_alpha 125.146344
_cell_angle_beta 57.352641
_cell_angle_gamma 149.537041
_cell_volume 612.398810
_symmetry_space_group_name_H-M "P -1"
_symmetry_group_IT_number 2
_symmetry_cell_setting 'triclinic'
loop_
_space_group_symop_operation_xyz
x,y,z
-x,-y,-z
loop_
_atom_site_type_symbol
_atom_site_label
_atom_site_fract_x
_atom_site_fract_y
_atom_site_fract_z
Si Si1 0.822153 0.850992 0.342727
Si Si2 0.658406 0.974318 0.559536
Si Si3 0.813677 0.232245 0.275775
Si Si4 0.722696 0.367154 0.946601
Si Si5 0.878283 0.690544 0.617840
Si Si6 0.178319 0.550877 0.723183
Si Si7 0.360980 0.310687 0.990068
Si Si8 0.056022 0.779579 0.118155
O O1 0.840948 0.850854 0.149314
O O2 0.839971 0.733100 0.249604
O O3 0.616454 0.817563 0.454256
O O4 0.000000 0.000000 0.500000
O O5 0.739776 0.068462 0.755489
O O6 0.888617 0.122648 0.442747
O O7 0.431325 0.908892 0.606211
O O8 0.815213 0.351861 0.312559
O O9 0.031398 0.334773 0.335054
O O10 0.830519 0.154566 0.057969
O O11 0.669063 0.317389 0.107993
O O12 0.926483 0.585557 0.032410
O O13 0.522841 0.302862 0.916281
O O14 0.885651 0.369339 0.774641
O O15 0.743471 0.524526 0.440238
O O16 0.736994 0.700098 0.802076
O O17 0.500000 0.500000 0.000000
#
# Coordination Sequence:
#
# PCOD9092955 Si02
#       8
#     2   2   2   2   2   2   2   2
#     4  10  23  44  68  96 141 183 226 279 349 415
#     4  11  25  42  67  98 138 184 230 281 351 412
#     4  11  23  42  69 100 133 187 233 280 347 417
#     4  10  21  42  71 102 142 174 236 286 345 403
#     4  12  25  44  67 102 146 173 233 296 347 407
#     4  10  23  42  68 102 140 181 228 296 338 406
#     4  12  24  43  74 103 137 186 232 287 351 416
#     4  10  19  46  66  96 140 183 222 285 342 416
#
# _framework density 26.126764999999999
#
# number of rings (size 3 to 8) (size 9 to 14) (size 15 to 20)
#    0.000    1.250    3.750    1.875    3.500    1.000 
#    6.750    0.000    0.000    0.000    0.000    0.000 
#    0.000    0.000    0.000    0.000    0.000    0.000 
#
# Total GULP energy -89240.019301 kJ/mol
# GULP energy per Si atom -5577.501206 kJ/mol
# Density = 2.606730 g / cm^3
# Si number density = 26.126765 Si / 1000 Ang^3
#
#
#
# Elastic Constant Matrix: (Units=GPa)
#
#
# Indices 1 2 3 4 5 6 
#
# 1 101.3207 6.3743 18.4636 2.4289 8.0566 14.0121
# 2 6.3743 52.1767 28.0232 -12.9562 -4.0461 -6.5714
# 3 18.4636 28.0232 147.1351 1.6124 -10.3414 6.8872
# 4 2.4289 -12.9562 1.6124 30.7688 -4.0563 1.4455
# 5 8.0566 -4.0461 -10.3414 -4.0563 46.0450 3.6388
# 6 14.0121 -6.5714 6.8872 1.4455 3.6388 31.0807
#
#
#
# Elastic Compliance Matrix: (Units=1/GPa)
#
#
# Indices 1 2 3 4 5 6 
#
# 1 0.011048 -0.002086 -0.000887 -0.001748 -0.002082 -0.004900
# 2 -0.002086 0.025895 -0.004971 0.011273 0.001983 0.006760
# 3 -0.000887 -0.004971 0.008105 -0.002124 0.001552 -0.002530
# 4 -0.001748 0.011273 -0.002124 0.037965 0.004053 0.001402
# 5 -0.002082 0.001983 0.001552 0.004053 0.023111 -0.001880
# 6 -0.004900 0.006760 -0.002530 0.001402 -0.001880 0.036528
#
#
# Mechanical properties :
#
#
# Convention : Reuss Voigt Hill
#
# Bulk Modulus (GPa) = 34.29340 45.15053 39.72196
# Shear Modulus (GPa) = 29.71613 38.09699 33.90656
#
# Velocity S-wave (km/s) = 3.37617 3.82273 3.60637
# Velocity P-wave (km/s) = 5.32469 6.06656 5.70769
#
# Compressibility (1/GPa) = 0.02916013
#
# Stress axis : x y z
#
# Youngs Moduli (GPa) = 90.51700 38.61812 123.37700
#
# Poissons Ratio (x) = 0.08056 0.10942
# Poissons Ratio (y) = 0.18883 0.61327
# Poissons Ratio (z) = 0.08027 0.19196
#
# Static dielectric constant tensor:
#      x y z
#    x 2.051860 -0.049520 0.033660 
#    y -0.049520 2.180930 -0.076510 
#    z 0.033660 -0.076510 2.175380 
# 
# From -- ./inp_files/279808.got.cif
#   From: 2010.05.17/outbox.cif.g08.bks.cpg/sg2_140_cif.got.tgz:279808.got - 2010.06.03 11:33:40.
