data_PCOD9092975
_publ_section_title
;
Structure prediction by ZEFSAII (Michael W. Deem and Ramdas Pophale) SiO2 
 PCOD9092975
Probable space group: P -1
;
_chemical_formula_sum "Si O2"
_cell_formula_units_Z 14
_cell_length_a 9.649930
_cell_length_b 16.397659
_cell_length_c 5.420571
_cell_angle_alpha 74.935792
_cell_angle_beta 75.995948
_cell_angle_gamma 57.132144
_cell_volume 690.262996
_symmetry_space_group_name_H-M "P -1"
_symmetry_group_IT_number 2
_symmetry_cell_setting 'triclinic'
loop_
_space_group_symop_operation_xyz
x,y,z
-x,-y,-z
loop_
_atom_site_type_symbol
_atom_site_label
_atom_site_fract_x
_atom_site_fract_y
_atom_site_fract_z
Si Si1 0.498757 0.419200 0.317928
Si Si2 0.924984 0.098403 0.614991
Si Si3 0.552766 0.369215 0.835657
Si Si4 0.166238 0.737343 0.872503
Si Si5 0.641988 0.075440 0.922922
Si Si6 0.539544 0.888426 0.536369
Si Si7 0.159458 0.141614 0.816464
O O1 0.476704 0.369752 0.607545
O O2 0.425297 0.535037 0.274183
O O3 0.700866 0.366474 0.231864
O O4 0.444010 0.391516 0.110468
O O5 0.843704 0.184337 0.379298
O O6 0.797960 0.090159 0.856972
O O7 0.063027 0.108226 0.698038
O O8 0.000000 0.000000 0.500000
O O9 0.729471 0.277884 0.908074
O O10 0.979375 0.775715 0.010431
O O11 0.563481 0.110545 0.658667
O O12 0.519118 0.130905 0.161451
O O13 0.714451 0.957653 0.008119
O O14 0.731033 0.827775 0.416992
O O15 0.500000 0.000000 0.500000
#
# Coordination Sequence:
#
# PCOD9092975 Si02
#       7
#     2   2   2   2   2   2   2
#     4   8  15  30  47  68 101 132 159 205 266 318
#     4  12  23  34  50  77 111 143 177 223 261 304
#     4   8  15  30  46  69 101 133 159 202 266 319
#     4  10  20  29  50  77 107 130 177 212 271 296
#     4  11  23  38  51  69 101 146 182 216 261 307
#     4  10  22  38  55  66  93 141 191 221 258 302
#     4  11  22  34  54  74 102 136 189 228 258 297
#
# _framework density 20.282122999999999
#
# number of rings (size 3 to 8) (size 9 to 14) (size 15 to 20)
#    0.857    1.143    1.429    4.714    4.000    0.000 
#    0.000    0.000    0.000    0.000    0.000    0.000 
#    0.000    9.143    0.000    1.143    0.000    0.000 
#
# Total GULP energy -77937.547927 kJ/mol
# GULP energy per Si atom -5566.967709 kJ/mol
# Density = 2.023596 g / cm^3
# Si number density = 20.282123 Si / 1000 Ang^3
#
#
#
# Elastic Constant Matrix: (Units=GPa)
#
#
# Indices 1 2 3 4 5 6 
#
# 1 47.6274 1.4956 18.7038 6.1360 -4.4014 -5.3854
# 2 1.4956 66.5014 4.8331 7.9528 -6.6211 -11.8111
# 3 18.7038 4.8331 145.0722 4.1858 6.6698 -6.3409
# 4 6.1360 7.9528 4.1858 29.3226 -11.2793 2.0999
# 5 -4.4014 -6.6211 6.6698 -11.2793 38.5810 7.7747
# 6 -5.3854 -11.8111 -6.3409 2.0999 7.7747 4.3822
#
#
#
# Elastic Compliance Matrix: (Units=1/GPa)
#
#
# Indices 1 2 3 4 5 6 
#
# 1 0.011228 -0.020265 -0.007914 0.024012 0.029641 -0.116367
# 2 -0.020265 -0.021024 -0.009396 0.045664 0.050806 -0.207186
# 3 -0.007914 -0.009396 0.005281 0.010798 0.009798 -0.049967
# 4 0.024012 0.045664 0.010798 -0.025849 -0.054852 0.277913
# 5 0.029641 0.050806 0.009798 -0.054852 -0.035486 0.276781
# 6 -0.116367 -0.207186 -0.049967 0.277913 0.276781 -1.169760
#
#
# Mechanical properties :
#
#
# Convention : Reuss Voigt Hill
#
# Bulk Modulus (GPa) = -12.55233 34.36289 10.90528
# Shear Modulus (GPa) = -4.21225 30.06837 12.92806
#
# Velocity S-wave (km/s) = -1.44268 3.85451 2.52744
# Velocity P-wave (km/s) = 2.99623 6.06538 3.72904
#
# Compressibility (1/GPa) = -0.07966646
#
# Stress axis : x y z
#
# Youngs Moduli (GPa) = 89.05961 -47.56427 189.37582
#
# Poissons Ratio (x) = -0.96390 1.49879
# Poissons Ratio (y) = 1.80481 1.77939
# Poissons Ratio (z) = 0.70485 -0.44692
#
# Static dielectric constant tensor:
#      x y z
#    x 1.718370 -0.016700 0.023600 
#    y -0.016700 1.774100 0.040110 
#    z 0.023600 0.040110 1.857260 
# 
# From -- ./inp_files/49687.got.cif
#   From: 2010.05.17/outbox.cif.g08.bks.cpg/sg2_25_cif.got.tgz:49687.got - 2010.06.03 11:33:40.
