data_PCOD9092997
_publ_section_title
;
Structure prediction by ZEFSAII (Michael W. Deem and Ramdas Pophale) SiO2 
 PCOD9092997
Probable space group: P -1
;
_chemical_formula_sum "Si O2"
_cell_formula_units_Z 13
_cell_length_a 15.405401
_cell_length_b 11.824570
_cell_length_c 5.013706
_cell_angle_alpha 75.722732
_cell_angle_beta 63.666327
_cell_angle_gamma 48.318616
_cell_volume 609.724326
_symmetry_space_group_name_H-M "P -1"
_symmetry_group_IT_number 2
_symmetry_cell_setting 'triclinic'
loop_
_space_group_symop_operation_xyz
x,y,z
-x,-y,-z
loop_
_atom_site_type_symbol
_atom_site_label
_atom_site_fract_x
_atom_site_fract_y
_atom_site_fract_z
Si Si1 0.330625 0.519542 0.629392
Si Si2 0.830229 0.988999 0.422305
Si Si3 0.190674 0.792073 0.308741
Si Si4 0.945903 0.687892 0.745297
Si Si5 0.000000 0.000000 0.000000
Si Si6 0.612865 0.274316 0.283918
Si Si7 0.879423 0.483485 0.893117
O O1 0.242039 0.633464 0.446615
O O2 0.464593 0.370789 0.427398
O O3 0.361617 0.615391 0.693334
O O4 0.249199 0.488645 0.915589
O O5 0.865287 0.859209 0.644542
O O6 0.874799 0.084396 0.430065
O O7 0.689154 0.119617 0.441061
O O8 0.920281 0.937516 0.076613
O O9 0.101604 0.848017 0.148017
O O10 0.313701 0.772783 0.068888
O O11 0.862066 0.635063 0.879879
O O12 0.057183 0.582663 0.440491
O O13 0.015969 0.636324 0.962219
#
# Coordination Sequence:
#
# PCOD9092997 Si02
#       7
#     2   2   2   2   1   2   2
#     4  10  20  37  57  79 116 151 196 234 282 350
#     4  10  21  33  53  80 114 146 182 245 284 345
#     4  10  20  32  51  83 113 149 183 233 294 342
#     4  10  23  40  60  86 118 147 199 242 289 345
#     4  10  20  30  48  82 112 144 184 220 302 344
#     4   9  21  36  54  85 112 150 192 234 291 343
#     4  10  23  40  61  86 111 159 193 240 292 338
#
# _framework density 21.321109
#
# number of rings (size 3 to 8) (size 9 to 14) (size 15 to 20)
#    0.000    2.154    0.000    1.846   12.923    0.000 
#    0.000    0.769    0.000    0.923    0.000    0.000 
#    0.000    0.000    0.000    0.000    0.000    0.000 
#
# Total GULP energy -72413.978740 kJ/mol
# GULP energy per Si atom -5570.306057 kJ/mol
# Density = 2.127258 g / cm^3
# Si number density = 21.321109 Si / 1000 Ang^3
#
#
#
# Elastic Constant Matrix: (Units=GPa)
#
#
# Indices 1 2 3 4 5 6 
#
# 1 55.4056 26.4740 27.6778 -2.7106 -15.0649 -1.2602
# 2 26.4740 116.9577 34.0157 -19.1854 -22.7691 -13.9044
# 3 27.6778 34.0157 83.0142 -8.3233 -15.7822 -6.6388
# 4 -2.7106 -19.1854 -8.3233 41.0380 -0.7706 -2.9430
# 5 -15.0649 -22.7691 -15.7822 -0.7706 39.2513 7.0143
# 6 -1.2602 -13.9044 -6.6388 -2.9430 7.0143 20.5642
#
#
#
# Elastic Compliance Matrix: (Units=1/GPa)
#
#
# Indices 1 2 3 4 5 6 
#
# 1 0.024078 -0.003404 -0.006100 -0.001486 0.005668 -0.004941
# 2 -0.003404 0.012478 -0.002087 0.005764 0.003949 0.007032
# 3 -0.006100 -0.002087 0.015814 0.002075 0.002344 0.002818
# 4 -0.001486 0.005764 0.002075 0.027977 0.002813 0.007520
# 5 0.005668 0.003949 0.002344 0.002813 0.032154 -0.006791
# 6 -0.004941 0.007032 0.002818 0.007520 -0.006791 0.057383
#
#
# Mechanical properties :
#
#
# Convention : Reuss Voigt Hill
#
# Bulk Modulus (GPa) = 34.25943 47.96805 41.11374
# Shear Modulus (GPa) = 24.65539 31.31803 27.98671
#
# Velocity S-wave (km/s) = 3.40425 3.83675 3.62695
# Velocity P-wave (km/s) = 5.61739 6.49417 6.07163
#
# Compressibility (1/GPa) = 0.02918904
#
# Stress axis : x y z
#
# Youngs Moduli (GPa) = 41.53096 80.14172 63.23521
#
# Poissons Ratio (x) = 0.27280 0.38572
# Poissons Ratio (y) = 0.14137 0.13197
# Poissons Ratio (z) = 0.25333 0.16725
#
# Static dielectric constant tensor:
#      x y z
#    x 1.876990 0.347740 0.712570 
#    y 0.347740 2.802430 2.238050 
#    z 0.712570 2.238050 6.921090 
# 
# From -- ./inp_files/61797.got.cif
#   From: 2010.05.17/outbox.cif.g08.bks.cpg/sg2_31_cif.got.tgz:61797.got - 2010.06.03 11:33:40.
