data_PCOD9092681
_publ_section_title
;
Structure prediction by ZEFSAII (Michael W. Deem and Ramdas Pophale) SiO2 
 PCOD9092681
Probable space group: P -1
;
_chemical_formula_sum "Si O2"
_cell_formula_units_Z 14
_cell_length_a 7.204290
_cell_length_b 8.089167
_cell_length_c 21.162923
_cell_angle_alpha 41.325595
_cell_angle_beta 41.082558
_cell_angle_gamma 56.966261
_cell_volume 534.555571
_symmetry_space_group_name_H-M "P -1"
_symmetry_group_IT_number 2
_symmetry_cell_setting 'triclinic'
loop_
_space_group_symop_operation_xyz
x,y,z
-x,-y,-z
loop_
_atom_site_type_symbol
_atom_site_label
_atom_site_fract_x
_atom_site_fract_y
_atom_site_fract_z
Si Si1 0.680130 0.231471 0.459194
Si Si2 0.038103 0.197452 0.663880
Si Si3 0.688927 0.887765 0.930277
Si Si4 0.792469 0.194171 0.026217
Si Si5 0.411268 0.634380 0.848103
Si Si6 0.235404 0.323653 0.377870
Si Si7 0.010764 0.340427 0.231867
O O1 0.369003 0.275291 0.552140
O O2 0.746854 0.377166 0.335105
O O3 0.936487 0.292404 0.425034
O O4 0.715727 0.933023 0.524533
O O5 0.826408 0.421748 0.641830
O O6 0.000309 0.948595 0.702481
O O7 0.938577 0.082645 0.790000
O O8 0.493487 0.837421 0.932873
O O9 0.755974 0.625412 0.018960
O O10 0.500000 0.000000 0.000000
O O11 0.939387 0.465595 0.893439
O O12 0.716001 0.167722 0.127167
O O13 0.000000 0.000000 0.000000
O O14 0.501715 0.666869 0.742572
O O15 0.719195 0.605842 0.808649
#
# Coordination Sequence:
#
# PCOD9092681 Si02
#       7
#     2   2   2   2   2   2   2
#     4  10  24  43  60  91 130 169 217 257 322 377
#     4  12  21  39  67  91 126 168 211 266 320 376
#     4  11  21  39  65  95 126 164 211 264 328 377
#     4  11  23  41  66  96 130 169 211 263 332 386
#     4  10  19  42  63  87 129 164 203 261 329 375
#     4  10  23  42  64  91 127 167 214 269 311 388
#     4  10  21  42  63  87 128 167 210 261 312 390
#
# _framework density 26.189983999999999
#
# number of rings (size 3 to 8) (size 9 to 14) (size 15 to 20)
#    0.000    1.429    4.286    1.714    0.000    2.857 
#    7.714    1.429    0.000    0.000    0.000    0.000 
#    0.000    0.000    0.000    0.000    0.000    0.000 
#
# Total GULP energy -78313.559809 kJ/mol
# GULP energy per Si atom -5593.825701 kJ/mol
# Density = 2.613037 g / cm^3
# Si number density = 26.189984 Si / 1000 Ang^3
#
#
#
# Elastic Constant Matrix: (Units=GPa)
#
#
# Indices 1 2 3 4 5 6 
#
# 1 75.8280 14.7768 33.1689 8.7486 -18.4957 -9.4116
# 2 14.7768 171.2523 59.2640 21.6694 5.7463 -13.0722
# 3 33.1689 59.2640 172.5452 53.7629 6.2944 -6.3125
# 4 8.7486 21.6694 53.7629 51.1408 4.0704 -3.2430
# 5 -18.4957 5.7463 6.2944 4.0704 40.1376 -0.6172
# 6 -9.4116 -13.0722 -6.3125 -3.2430 -0.6172 29.8266
#
#
#
# Elastic Compliance Matrix: (Units=1/GPa)
#
#
# Indices 1 2 3 4 5 6 
#
# 1 0.017456 -0.000255 -0.003555 0.000479 0.008664 0.004875
# 2 -0.000255 0.006835 -0.002024 -0.000517 -0.000689 0.002416
# 3 -0.003555 -0.002024 0.010002 -0.008946 -0.002024 -0.000906
# 4 0.000479 -0.000517 -0.008946 0.029270 -0.001253 0.001188
# 5 0.008664 -0.000689 -0.002024 -0.001253 0.029488 0.002478
# 6 0.004875 0.002416 -0.000906 0.001188 0.002478 0.036113
#
#
# Mechanical properties :
#
#
# Convention : Reuss Voigt Hill
#
# Bulk Modulus (GPa) = 44.19952 70.44941 57.32446
# Shear Modulus (GPa) = 33.69892 45.04873 39.37383
#
# Velocity S-wave (km/s) = 3.59097 4.15188 3.88157
# Velocity P-wave (km/s) = 5.84008 7.06696 6.48261
#
# Compressibility (1/GPa) = 0.02262468
#
# Stress axis : x y z
#
# Youngs Moduli (GPa) = 57.28825 146.31243 99.97907
#
# Poissons Ratio (x) = 0.03733 0.35540
# Poissons Ratio (y) = 0.01462 0.20236
# Poissons Ratio (z) = 0.20364 0.29613
#
# Static dielectric constant tensor:
#      x y z
#    x 2.063650 0.022750 -0.039490 
#    y 0.022750 2.114410 0.026480 
#    z -0.039490 0.026480 2.095050 
# 
# From -- ./inp_files/178473.got.cif
#   From: 2010.05.17/outbox.cif.g08.bks.cpg/sg2_90_cif.got.tgz:178473.got - 2010.06.03 11:33:40.
