data_PCOD9092576
_publ_section_title
;
Structure prediction by ZEFSAII (Michael W. Deem and Ramdas Pophale) SiO2 
 PCOD9092576
Probable space group: P -1
;
_chemical_formula_sum "Si O2"
_cell_formula_units_Z 16
_cell_length_a 11.369970
_cell_length_b 12.123551
_cell_length_c 10.656867
_cell_angle_alpha 66.281941
_cell_angle_beta 87.007718
_cell_angle_gamma 142.235116
_cell_volume 618.624966
_symmetry_space_group_name_H-M "P -1"
_symmetry_group_IT_number 2
_symmetry_cell_setting 'triclinic'
loop_
_space_group_symop_operation_xyz
x,y,z
-x,-y,-z
loop_
_atom_site_type_symbol
_atom_site_label
_atom_site_fract_x
_atom_site_fract_y
_atom_site_fract_z
Si Si1 0.547067 0.850726 0.396259
Si Si2 0.441084 0.307544 0.091320
Si Si3 0.621796 0.510087 0.582862
Si Si4 0.324827 0.707230 0.961056
Si Si5 0.215013 0.761946 0.446075
Si Si6 0.134873 0.936439 0.495559
Si Si7 0.923262 0.302301 0.959638
Si Si8 0.145164 0.008951 0.014394
O O1 0.349935 0.578899 0.469640
O O2 0.382400 0.809796 0.483762
O O3 0.754649 0.967450 0.414335
O O4 0.715390 0.066976 0.180446
O O5 0.652572 0.415091 0.963686
O O6 0.374432 0.207412 0.280191
O O7 0.500000 0.500000 0.000000
O O8 0.193529 0.056445 0.137277
O O9 0.500000 0.500000 0.500000
O O10 0.406265 0.269907 0.803215
O O11 0.877322 0.766048 0.534702
O O12 0.203507 0.685853 0.080613
O O13 0.603406 0.007292 0.772028
O O14 0.166349 0.564722 0.905475
O O15 0.000000 0.500000 0.500000
O O16 0.116469 0.778966 0.531466
O O17 0.966039 0.222329 0.911633
O O18 0.000000 0.000000 0.000000
#
# Coordination Sequence:
#
# PCOD9092576 Si02
#       8
#     2   2   2   2   2   2   2   2
#     4  10  22  41  72  99 139 178 227 293 347 417
#     4  11  25  43  65  98 141 181 236 280 344 422
#     4  11  25  43  67  99 136 179 239 284 344 418
#     4   9  20  39  66 101 134 179 229 282 345 419
#     4  10  19  41  69 103 142 179 230 285 347 422
#     4  11  24  44  70 104 137 189 230 287 355 414
#     4   9  20  42  67  99 136 173 235 286 353 417
#     4  11  24  44  68  94 136 186 227 298 352 409
#
# _framework density 25.863811999999999
#
# number of rings (size 3 to 8) (size 9 to 14) (size 15 to 20)
#    0.000    1.750    1.250    1.875    3.500    2.000 
#    4.500    6.250    0.000    0.000    0.000    0.000 
#    0.000    0.000    0.000    0.000    0.000    0.000 
#
# Total GULP energy -89428.119538 kJ/mol
# GULP energy per Si atom -5589.257471 kJ/mol
# Density = 2.580494 g / cm^3
# Si number density = 25.863812 Si / 1000 Ang^3
#
#
#
# Elastic Constant Matrix: (Units=GPa)
#
#
# Indices 1 2 3 4 5 6 
#
# 1 179.5954 39.6818 14.7545 -4.3482 3.3970 -15.0476
# 2 39.6818 108.1089 9.4229 -25.5204 -0.0071 -15.9249
# 3 14.7545 9.4229 60.6552 -9.9488 17.1950 -6.6879
# 4 -4.3482 -25.5204 -9.9488 35.0958 2.3456 4.9268
# 5 3.3970 -0.0071 17.1950 2.3456 35.1200 -4.7228
# 6 -15.0476 -15.9249 -6.6879 4.9268 -4.7228 54.7680
#
#
#
# Elastic Compliance Matrix: (Units=1/GPa)
#
#
# Indices 1 2 3 4 5 6 
#
# 1 0.006250 -0.002381 -0.001372 -0.001509 0.000305 0.001019
# 2 -0.002381 0.012439 0.000355 0.008554 -0.000214 0.002218
# 3 -0.001372 0.000355 0.020891 0.006597 -0.010431 0.000784
# 4 -0.001509 0.008554 0.006597 0.036906 -0.005672 -0.000931
# 5 0.000305 -0.000214 -0.010431 -0.005672 0.034227 0.002210
# 6 0.001019 0.002218 0.000784 -0.000931 0.002210 0.019554
#
#
# Mechanical properties :
#
#
# Convention : Reuss Voigt Hill
#
# Bulk Modulus (GPa) = 30.50247 52.89752 41.70000
# Shear Modulus (GPa) = 33.78609 43.96345 38.87477
#
# Velocity S-wave (km/s) = 3.61821 4.12734 3.88113
# Velocity P-wave (km/s) = 5.41058 6.57343 6.02015
#
# Compressibility (1/GPa) = 0.03278423
#
# Stress axis : x y z
#
# Youngs Moduli (GPa) = 160.00322 80.39436 47.86813
#
# Poissons Ratio (x) = 0.19138 0.06567
# Poissons Ratio (y) = 0.38089 -0.01699
# Poissons Ratio (z) = 0.21951 -0.02853
#
# Static dielectric constant tensor:
#      x y z
#    x 2.259350 0.020890 -0.026650 
#    y 0.020890 2.005670 0.032570 
#    z -0.026650 0.032570 2.053000 
# 
# From -- ./inp_files/427987.got.cif
#   From: 2010.05.17/outbox.cif.g08.bks.cpg/sg2_214_cif.got.tgz:427987.got - 2010.06.03 11:33:40.
