data_PCOD9092340
_publ_section_title
;
Structure prediction by ZEFSAII (Michael W. Deem and Ramdas Pophale) SiO2 
 PCOD9092340
Probable space group: P -1
;
_chemical_formula_sum "Si O2"
_cell_formula_units_Z 16
_cell_length_a 11.476499
_cell_length_b 12.685309
_cell_length_c 8.503534
_cell_angle_alpha 93.834850
_cell_angle_beta 56.509533
_cell_angle_gamma 55.939956
_cell_volume 717.637012
_symmetry_space_group_name_H-M "P -1"
_symmetry_group_IT_number 2
_symmetry_cell_setting 'triclinic'
loop_
_space_group_symop_operation_xyz
x,y,z
-x,-y,-z
loop_
_atom_site_type_symbol
_atom_site_label
_atom_site_fract_x
_atom_site_fract_y
_atom_site_fract_z
Si Si1 0.222481 0.100470 0.634246
Si Si2 0.579131 0.048534 0.838508
Si Si3 0.989567 0.130867 0.536327
Si Si4 0.593599 0.603874 0.642300
Si Si5 0.900040 0.595158 0.242477
Si Si6 0.233471 0.889158 0.783635
Si Si7 0.614162 0.354988 0.623892
Si Si8 0.314215 0.403335 0.072835
O O1 0.032696 0.154023 0.680661
O O2 0.186610 0.241475 0.709996
O O3 0.398597 0.997045 0.364239
O O4 0.264047 0.995478 0.730238
O O5 0.809251 0.941669 0.709861
O O6 0.443145 0.225597 0.959767
O O7 0.500000 0.000000 0.000000
O O8 0.783715 0.273535 0.624186
O O9 0.000000 0.000000 0.500000
O O10 0.737788 0.601023 0.431650
O O11 0.373052 0.773665 0.808789
O O12 0.594345 0.481666 0.577066
O O13 0.660429 0.566857 0.768782
O O14 0.082114 0.509157 0.221027
O O15 0.000000 0.500000 0.000000
O O16 0.308466 0.776288 0.568826
O O17 0.000000 0.000000 0.000000
O O18 0.413636 0.423329 0.866941
#
# Coordination Sequence:
#
# PCOD9092340 Si02
#       8
#     2   2   2   2   2   2   2   2
#     4  10  24  47  70 104 150 181 242 302 355 429
#     4  10  22  40  75 104 144 179 243 300 355 419
#     4  10  19  40  74 103 139 179 237 291 357 411
#     4  12  30  46  72 111 145 193 244 289 364 437
#     4  12  29  50  74 102 150 196 238 293 370 432
#     4  12  28  45  74 108 149 188 245 298 360 428
#     4  12  24  48  73 106 147 188 239 304 360 426
#     4  12  25  48  75 105 144 186 246 299 360 429
#
# _framework density 22.295394999999999
#
# number of rings (size 3 to 8) (size 9 to 14) (size 15 to 20)
#    0.750    0.000    3.750    3.375    8.750    0.500 
#    2.250    0.000    0.000    0.000    0.000    0.000 
#    0.000    0.000    0.000    0.000    0.000    0.000 
#
# Total GULP energy -89498.026462 kJ/mol
# GULP energy per Si atom -5593.626654 kJ/mol
# Density = 2.224465 g / cm^3
# Si number density = 22.295395 Si / 1000 Ang^3
#
#
#
# Elastic Constant Matrix: (Units=GPa)
#
#
# Indices 1 2 3 4 5 6 
#
# 1 75.8250 36.2288 18.5304 -6.6084 -6.1962 3.6294
# 2 36.2288 119.1971 26.1896 -2.1227 -2.7230 38.2884
# 3 18.5304 26.1896 92.8670 -10.9756 -13.4065 30.4478
# 4 -6.6084 -2.1227 -10.9756 32.6221 9.9033 -4.5774
# 5 -6.1962 -2.7230 -13.4065 9.9033 52.0303 3.9608
# 6 3.6294 38.2884 30.4478 -4.5774 3.9608 54.0715
#
#
#
# Elastic Compliance Matrix: (Units=1/GPa)
#
#
# Indices 1 2 3 4 5 6 
#
# 1 0.016789 -0.006019 -0.002984 0.002708 0.000016 0.005043
# 2 -0.006019 0.013126 0.000546 -0.001866 0.001185 -0.009443
# 3 -0.002984 0.000546 0.014828 0.002067 0.003758 -0.008636
# 4 0.002708 -0.001866 0.002067 0.034053 -0.005975 0.003296
# 5 0.000016 0.001185 0.003758 -0.005975 0.021774 -0.005057
# 6 0.005043 -0.009443 -0.008636 0.003296 -0.005057 0.030354
#
#
# Mechanical properties :
#
#
# Convention : Reuss Voigt Hill
#
# Bulk Modulus (GPa) = 35.93350 49.97630 42.95490
# Shear Modulus (GPa) = 31.82402 41.54080 36.68241
#
# Velocity S-wave (km/s) = 3.78217 4.32116 4.06062
# Velocity P-wave (km/s) = 5.93507 6.88192 6.42596
#
# Compressibility (1/GPa) = 0.02782919
#
# Stress axis : x y z
#
# Youngs Moduli (GPa) = 59.56249 76.18556 67.44095
#
# Poissons Ratio (x) = 0.45853 0.20123
# Poissons Ratio (y) = 0.35849 -0.03680
# Poissons Ratio (z) = 0.17772 -0.04157
#
# Static dielectric constant tensor:
#      x y z
#    x 1.838750 -0.012620 0.027650 
#    y -0.012620 1.787090 0.004080 
#    z 0.027650 0.004080 1.775720 
# 
# From -- ./inp_files/262454.got.cif
#   From: 2010.05.17/outbox.cif.g08.bks.cpg/sg2_132_cif.got.tgz:262454.got - 2010.06.03 11:33:40.
