data_PCOD9092524
_publ_section_title
;
Structure prediction by ZEFSAII (Michael W. Deem and Ramdas Pophale) SiO2 
 PCOD9092524
Probable space group: P -1
;
_chemical_formula_sum "Si O2"
_cell_formula_units_Z 15
_cell_length_a 9.930029
_cell_length_b 14.582450
_cell_length_c 9.019979
_cell_angle_alpha 51.348768
_cell_angle_beta 81.115813
_cell_angle_gamma 45.008558
_cell_volume 616.229109
_symmetry_space_group_name_H-M "P -1"
_symmetry_group_IT_number 2
_symmetry_cell_setting 'triclinic'
loop_
_space_group_symop_operation_xyz
x,y,z
-x,-y,-z
loop_
_atom_site_type_symbol
_atom_site_label
_atom_site_fract_x
_atom_site_fract_y
_atom_site_fract_z
Si Si1 0.563283 0.670211 0.756676
Si Si2 0.178970 0.962903 0.702547
Si Si3 0.009517 0.495947 0.826163
Si Si4 0.124827 0.744782 0.790309
Si Si5 0.069181 0.584033 0.460329
Si Si6 0.789467 0.857483 0.969702
Si Si7 0.565112 0.237113 0.637143
Si Si8 0.000000 0.000000 0.000000
O O1 0.417425 0.845419 0.718985
O O2 0.429806 0.728643 0.571047
O O3 0.772938 0.597634 0.726178
O O4 0.676122 0.483673 0.008236
O O5 0.188706 0.824100 0.773229
O O6 0.138612 0.973910 0.869865
O O7 0.987645 0.157773 0.446346
O O8 0.021303 0.607490 0.619410
O O9 0.210506 0.275445 0.956015
O O10 0.000000 0.500000 0.000000
O O11 0.939246 0.819395 0.858553
O O12 0.327858 0.436537 0.541316
O O13 0.000000 0.500000 0.500000
O O14 0.925035 0.764662 0.195098
O O15 0.577731 0.085029 0.792229
O O16 0.779967 0.138495 0.785428
#
# Coordination Sequence:
#
# PCOD9092524 Si02
#       8
#     2   2   2   2   2   2   2   1
#     4  11  22  42  73  88 131 180 214 266 340 390
#     4  11  22  41  62  93 135 168 220 269 318 396
#     4  10  23  43  66 102 129 163 226 277 326 393
#     4  10  19  41  67  94 122 177 220 259 330 396
#     4  10  21  42  70  95 132 174 219 275 328 392
#     4  10  20  42  69  94 131 175 219 262 342 395
#     4  12  22  44  67  96 134 177 219 271 325 394
#     4  12  28  40  62 102 138 170 224 276 314 390
#
# _framework density 24.341598000000001
#
# number of rings (size 3 to 8) (size 9 to 14) (size 15 to 20)
#    0.000    1.333    6.667    1.200    1.867    2.133 
#    4.800    5.333    0.000    0.000    0.000    0.000 
#    0.000    0.000    0.000    0.000    0.000    0.000 
#
# Total GULP energy -83578.239163 kJ/mol
# GULP energy per Si atom -5571.882611 kJ/mol
# Density = 2.428620 g / cm^3
# Si number density = 24.341598 Si / 1000 Ang^3
#
#
#
# Elastic Constant Matrix: (Units=GPa)
#
#
# Indices 1 2 3 4 5 6 
#
# 1 35.5313 16.3681 3.2204 -3.8492 12.0619 -2.8290
# 2 16.3681 98.5847 76.1283 27.0390 -2.2157 -8.8415
# 3 3.2204 76.1283 214.0024 20.0881 3.4219 -0.4069
# 4 -3.8492 27.0390 20.0881 52.3805 -5.4581 -7.6363
# 5 12.0619 -2.2157 3.4219 -5.4581 28.4979 7.8262
# 6 -2.8290 -8.8415 -0.4069 -7.6363 7.8262 30.2280
#
#
#
# Elastic Compliance Matrix: (Units=1/GPa)
#
#
# Indices 1 2 3 4 5 6 
#
# 1 0.040409 -0.010391 0.002812 0.006336 -0.019043 0.007312
# 2 -0.010391 0.018660 -0.005855 -0.007466 0.004769 0.001286
# 3 0.002812 -0.005855 0.006717 0.000321 -0.002196 -0.000709
# 4 0.006336 -0.007466 0.000321 0.023943 0.000064 0.004445
# 5 -0.019043 0.004769 -0.002196 0.000064 0.047268 -0.012639
# 6 0.007312 0.001286 -0.000709 0.004445 -0.012639 0.038528
#
#
# Mechanical properties :
#
#
# Convention : Reuss Voigt Hill
#
# Bulk Modulus (GPa) = 25.69423 59.95025 42.82224
# Shear Modulus (GPa) = 23.21640 39.04804 31.13222
#
# Velocity S-wave (km/s) = 3.09167 4.00955 3.58015
# Velocity P-wave (km/s) = 4.82941 6.79099 5.89240
#
# Compressibility (1/GPa) = 0.03891924
#
# Stress axis : x y z
#
# Youngs Moduli (GPa) = 24.74680 53.59037 148.87822
#
# Poissons Ratio (x) = 0.55684 -0.41863
# Poissons Ratio (y) = 0.25714 0.87163
# Poissons Ratio (z) = -0.06958 0.31375
#
# Static dielectric constant tensor:
#      x y z
#    x 2.006950 0.077750 0.008430 
#    y 0.077750 1.908080 -0.008080 
#    z 0.008430 -0.008080 1.928830 
# 
# From -- ./inp_files/279025.got.cif
#   From: 2010.05.17/outbox.cif.g08.bks.cpg/sg2_140_cif.got.tgz:279025.got - 2010.06.03 11:33:40.
