data_PCOD9092239
_publ_section_title
;
Structure prediction by ZEFSAII (Michael W. Deem and Ramdas Pophale) SiO2 
 PCOD9092239
Probable space group: P -1
;
_chemical_formula_sum "Si O2"
_cell_formula_units_Z 16
_cell_length_a 12.105866
_cell_length_b 15.730551
_cell_length_c 14.445942
_cell_angle_alpha 33.411587
_cell_angle_beta 151.517330
_cell_angle_gamma 141.793771
_cell_volume 708.052625
_symmetry_space_group_name_H-M "P -1"
_symmetry_group_IT_number 2
_symmetry_cell_setting 'triclinic'
loop_
_space_group_symop_operation_xyz
x,y,z
-x,-y,-z
loop_
_atom_site_type_symbol
_atom_site_label
_atom_site_fract_x
_atom_site_fract_y
_atom_site_fract_z
Si Si1 0.005151 0.704577 0.471669
Si Si2 0.120415 0.754187 0.322339
Si Si3 0.623598 0.349759 0.739668
Si Si4 0.493996 0.775210 0.033232
Si Si5 0.889160 0.489248 0.104099
Si Si6 0.327343 0.346182 0.050718
Si Si7 0.658697 0.127027 0.797866
Si Si8 0.837353 0.977338 0.746065
O O1 0.744916 0.731593 0.231083
O O2 0.113731 0.652237 0.503812
O O3 0.994382 0.586539 0.654625
O O4 0.158930 0.877539 0.453401
O O5 0.323187 0.780913 0.370028
O O6 0.131240 0.923489 0.225656
O O7 0.881637 0.695003 0.142278
O O8 0.500000 0.500000 0.500000
O O9 0.528492 0.248486 0.851349
O O10 0.596339 0.238840 0.730301
O O11 0.903661 0.419614 0.889938
O O12 0.287243 0.648899 0.950517
O O13 0.498023 0.953621 0.842810
O O14 0.751230 0.604131 0.951809
O O15 0.376282 0.170310 0.264918
O O16 0.500000 0.500000 0.000000
O O17 0.924813 0.089602 0.040309
#
# Coordination Sequence:
#
# PCOD9092239 Si02
#       8
#     2   2   2   2   2   2   2   2
#     4   9  21  40  67  92 129 173 209 258 324 386
#     4   9  18  37  65  88 129 170 206 256 320 394
#     4  12  24  45  66  93 131 170 221 276 315 369
#     4  11  24  41  70  91 126 175 221 258 326 380
#     4  12  24  41  64 100 132 164 216 276 319 372
#     4  11  20  33  60 100 130 163 213 259 322 386
#     4  10  19  40  68  94 120 180 216 251 330 391
#     4   8  18  36  62  87 128 168 205 252 314 395
#
# _framework density 22.597190999999999
#
# number of rings (size 3 to 8) (size 9 to 14) (size 15 to 20)
#    0.750    1.000    3.750    3.000    1.750    0.500 
#    0.000    4.375    0.000    0.000    0.000    0.000 
#    0.000    0.000    0.000    0.000    0.000    0.000 
#
# Total GULP energy -89246.600925 kJ/mol
# GULP energy per Si atom -5577.912558 kJ/mol
# Density = 2.254576 g / cm^3
# Si number density = 22.597191 Si / 1000 Ang^3
#
#
#
# Elastic Constant Matrix: (Units=GPa)
#
#
# Indices 1 2 3 4 5 6 
#
# 1 135.5845 39.4044 10.8944 4.4784 2.7714 -3.6316
# 2 39.4044 152.5751 4.8641 -0.5447 14.2724 1.1236
# 3 10.8944 4.8641 34.1399 -2.7873 0.8005 -5.8132
# 4 4.4784 -0.5447 -2.7873 21.7882 1.2916 1.4767
# 5 2.7714 14.2724 0.8005 1.2916 28.8883 -3.5254
# 6 -3.6316 1.1236 -5.8132 1.4767 -3.5254 51.8018
#
#
#
# Elastic Compliance Matrix: (Units=1/GPa)
#
#
# Indices 1 2 3 4 5 6 
#
# 1 0.008257 -0.002109 -0.002443 -0.002120 0.000466 0.000443
# 2 -0.002109 0.007452 -0.000342 0.000830 -0.003582 -0.000615
# 3 -0.002443 -0.000342 0.031015 0.004261 -0.000259 0.003177
# 4 -0.002120 0.000830 0.004261 0.047133 -0.002580 -0.001208
# 5 0.000466 -0.003582 -0.000259 -0.002580 0.036788 0.002658
# 6 0.000443 -0.000615 0.003177 -0.001208 0.002658 0.019921
#
#
# Mechanical properties :
#
#
# Convention : Reuss Voigt Hill
#
# Bulk Modulus (GPa) = 27.07371 48.06948 37.57159
# Shear Modulus (GPa) = 28.95775 38.30478 33.63127
#
# Velocity S-wave (km/s) = 3.58365 4.12164 3.86203
# Velocity P-wave (km/s) = 5.39726 6.63092 6.04564
#
# Compressibility (1/GPa) = 0.03693621
#
# Stress axis : x y z
#
# Youngs Moduli (GPa) = 121.10822 134.18628 32.24288
#
# Poissons Ratio (x) = 0.28301 0.07877
# Poissons Ratio (y) = 0.25542 0.01102
# Poissons Ratio (z) = 0.29588 0.04586
#
# Static dielectric constant tensor:
#      x y z
#    x 1.861920 0.057550 0.013930 
#    y 0.057550 1.870160 -0.011550 
#    z 0.013930 -0.011550 1.932830 
# 
# From -- ./inp_files/521515.got.cif
#   From: 2010.05.17/outbox.cif.g08.bks.cpg/sg2_261_cif.got.tgz:521515.got - 2010.06.03 11:33:40.
