data_PCOD9092411
_publ_section_title
;
Structure prediction by ZEFSAII (Michael W. Deem and Ramdas Pophale) SiO2 
 PCOD9092411
Probable space group: P -1
;
_chemical_formula_sum "Si O2"
_cell_formula_units_Z 16
_cell_length_a 10.790729
_cell_length_b 8.462431
_cell_length_c 12.697340
_cell_angle_alpha 51.705948
_cell_angle_beta 113.909098
_cell_angle_gamma 125.235828
_cell_volume 741.206233
_symmetry_space_group_name_H-M "P -1"
_symmetry_group_IT_number 2
_symmetry_cell_setting 'triclinic'
loop_
_space_group_symop_operation_xyz
x,y,z
-x,-y,-z
loop_
_atom_site_type_symbol
_atom_site_label
_atom_site_fract_x
_atom_site_fract_y
_atom_site_fract_z
Si Si1 0.521366 0.566693 0.357924
Si Si2 0.943585 0.670473 0.721277
Si Si3 0.779434 0.999864 0.181799
Si Si4 0.902974 0.358797 0.424646
Si Si5 0.687794 0.205470 0.885060
Si Si6 0.288878 0.139657 0.363723
Si Si7 0.767897 0.930233 0.871430
Si Si8 0.118278 0.251616 0.846291
O O1 0.500000 0.500000 0.500000
O O2 0.686913 0.766749 0.309291
O O3 0.420313 0.683203 0.229442
O O4 0.456271 0.325251 0.377669
O O5 0.854967 0.418538 0.841714
O O6 0.831330 0.782654 0.658440
O O7 0.986449 0.664699 0.616250
O O8 0.098947 0.814805 0.777677
O O9 0.860133 0.925823 0.148476
O O10 0.681476 0.099371 0.042000
O O11 0.830951 0.508102 0.286633
O O12 0.000000 0.500000 0.500000
O O13 0.773357 0.115925 0.513796
O O14 0.667539 0.016285 0.869368
O O15 0.279283 0.135679 0.236296
O O16 0.790136 0.737850 0.021468
O O17 0.937532 0.139231 0.845267
#
# Coordination Sequence:
#
# PCOD9092411 Si02
#       8
#     2   2   2   2   2   2   2   2
#     4  11  26  45  59  86 131 173 209 257 307 370
#     4  11  21  36  64  99 121 156 208 268 308 368
#     4  11  22  42  65  94 125 164 209 257 314 370
#     4  12  21  35  57  93 124 161 202 256 309 366
#     4  10  22  40  69  92 124 162 206 259 317 371
#     4  11  23  40  63  90 123 169 212 252 308 374
#     4  10  19  41  63  95 126 157 201 261 318 367
#     4  10  21  36  64  93 131 155 197 261 320 363
#
# _framework density 21.586437
#
# number of rings (size 3 to 8) (size 9 to 14) (size 15 to 20)
#    0.000    1.250    3.750    1.875    0.000    6.000 
#    0.000    7.500    0.000    0.000    0.000    0.000 
#    0.000    0.000    0.000    0.000    0.000    0.000 
#
# Total GULP energy -89381.950110 kJ/mol
# GULP energy per Si atom -5586.371882 kJ/mol
# Density = 2.153730 g / cm^3
# Si number density = 21.586437 Si / 1000 Ang^3
#
#
#
# Elastic Constant Matrix: (Units=GPa)
#
#
# Indices 1 2 3 4 5 6 
#
# 1 8.9563 6.9976 -6.1744 -0.0138 -4.5775 -3.6487
# 2 6.9976 106.4730 62.2630 -9.9663 -7.4256 -5.4071
# 3 -6.1744 62.2630 147.9618 -15.6272 -10.8756 -3.9688
# 4 -0.0138 -9.9663 -15.6272 20.3411 -8.8536 -6.8942
# 5 -4.5775 -7.4256 -10.8756 -8.8536 29.8034 -4.1196
# 6 -3.6487 -5.4071 -3.9688 -6.8942 -4.1196 24.9375
#
#
#
# Elastic Compliance Matrix: (Units=1/GPa)
#
#
# Indices 1 2 3 4 5 6 
#
# 1 0.197880 -0.016348 0.027424 0.059119 0.061672 0.056304
# 2 -0.016348 0.014444 -0.006663 0.001545 -0.000890 -0.000040
# 3 0.027424 -0.006663 0.014030 0.018095 0.014738 0.012238
# 4 0.059119 0.001545 0.018095 0.104079 0.053833 0.049531
# 5 0.061672 -0.000890 0.014738 0.053833 0.069360 0.037517
# 6 0.056304 -0.000040 0.012238 0.049531 0.037517 0.070168
#
#
# Mechanical properties :
#
#
# Convention : Reuss Voigt Hill
#
# Bulk Modulus (GPa) = 4.25209 43.28483 23.76846
# Shear Modulus (GPa) = 9.26737 28.37006 18.81871
#
# Velocity S-wave (km/s) = 2.07424 3.62920 2.95580
# Velocity P-wave (km/s) = 2.77681 6.13652 4.76275
#
# Compressibility (1/GPa) = 0.23517872
#
# Stress axis : x y z
#
# Youngs Moduli (GPa) = 5.05357 69.23500 71.27803
#
# Poissons Ratio (x) = 1.13183 -1.95472
# Poissons Ratio (y) = 0.08261 0.47496
# Poissons Ratio (z) = -0.13859 0.46134
#
# Static dielectric constant tensor:
#      x y z
#    x 1.845180 0.001540 -0.001150 
#    y 0.001540 1.771560 -0.011970 
#    z -0.001150 -0.011970 1.799500 
# 
# From -- ./inp_files/243857.got.cif
#   From: 2010.05.17/outbox.cif.g08.bks.cpg/sg2_122_cif.got.tgz:243857.got - 2010.06.03 11:33:40.
