data_PCOD9092210
_publ_section_title
;
Structure prediction by ZEFSAII (Michael W. Deem and Ramdas Pophale) SiO2 
 PCOD9092210
Probable space group: P -1
;
_chemical_formula_sum "Si O2"
_cell_formula_units_Z 16
_cell_length_a 11.117599
_cell_length_b 13.590442
_cell_length_c 8.094277
_cell_angle_alpha 129.643317
_cell_angle_beta 68.214917
_cell_angle_gamma 137.254285
_cell_volume 628.002571
_symmetry_space_group_name_H-M "P -1"
_symmetry_group_IT_number 2
_symmetry_cell_setting 'triclinic'
loop_
_space_group_symop_operation_xyz
x,y,z
-x,-y,-z
loop_
_atom_site_type_symbol
_atom_site_label
_atom_site_fract_x
_atom_site_fract_y
_atom_site_fract_z
Si Si1 0.552888 0.143670 0.753117
Si Si2 0.795567 0.666619 0.555601
Si Si3 0.330397 0.350941 0.043864
Si Si4 0.337056 0.685497 0.670215
Si Si5 0.816832 0.003850 0.152997
Si Si6 0.759242 0.902541 0.704387
Si Si7 0.166524 0.770614 0.055566
Si Si8 0.795938 0.477876 0.795455
O O1 0.365763 0.041552 0.828891
O O2 0.726617 0.207124 0.820335
O O3 0.624665 0.321166 0.822416
O O4 0.500000 0.000000 0.500000
O O5 0.662056 0.616906 0.725240
O O6 0.743290 0.483450 0.353147
O O7 0.776455 0.760299 0.521280
O O8 0.002303 0.809215 0.669675
O O9 0.192744 0.364656 0.072823
O O10 0.500000 0.500000 0.000000
O O11 0.245868 0.153157 0.861911
O O12 0.548507 0.796049 0.676073
O O13 0.241653 0.607475 0.456905
O O14 0.295421 0.798249 0.876970
O O15 0.842893 0.967746 0.917202
O O16 0.848227 0.086301 0.767789
O O17 0.979262 0.574145 0.898141
#
# Coordination Sequence:
#
# PCOD9092210 Si02
#       8
#     2   2   2   2   2   2   2   2
#     4  12  27  43  66  95 139 179 221 278 342 399
#     4  10  23  40  67 104 130 174 227 283 326 396
#     4  10  19  40  67  97 129 176 219 271 338 394
#     4  11  23  40  70 101 132 171 225 281 332 399
#     4  11  22  42  68  96 133 178 227 274 331 400
#     4  11  21  41  67  98 130 168 225 275 330 392
#     4  12  25  44  69  98 132 178 228 278 334 406
#     4  11  24  43  66  99 135 173 223 278 340 401
#
# _framework density 25.477602999999998
#
# number of rings (size 3 to 8) (size 9 to 14) (size 15 to 20)
#    0.000    1.000    2.500    6.000    3.500    0.000 
#    0.000    0.000    0.000    2.250    0.000    0.000 
#    0.000    0.000    0.000    0.000    0.000    0.000 
#
# Total GULP energy -89326.588140 kJ/mol
# GULP energy per Si atom -5582.911759 kJ/mol
# Density = 2.541961 g / cm^3
# Si number density = 25.477603 Si / 1000 Ang^3
#
#
#
# Elastic Constant Matrix: (Units=GPa)
#
#
# Indices 1 2 3 4 5 6 
#
# 1 76.8403 29.5693 20.5567 4.0197 14.4815 -6.4476
# 2 29.5693 104.7807 20.7918 25.5971 -5.4012 -9.3403
# 3 20.5567 20.7918 55.3768 19.9161 20.7021 -0.4200
# 4 4.0197 25.5971 19.9161 26.2991 5.5712 1.8056
# 5 14.4815 -5.4012 20.7021 5.5712 35.5292 17.0082
# 6 -6.4476 -9.3403 -0.4200 1.8056 17.0082 44.3316
#
#
#
# Elastic Compliance Matrix: (Units=1/GPa)
#
#
# Indices 1 2 3 4 5 6 
#
# 1 0.018301 -0.006508 -0.003439 0.007926 -0.009966 0.004759
# 2 -0.006508 0.015708 -0.001037 -0.015214 0.008094 -0.000132
# 3 -0.003439 -0.001037 0.034644 -0.021130 -0.019421 0.007921
# 4 0.007926 -0.015214 -0.021130 0.068317 -0.001878 -0.004315
# 5 -0.009966 0.008094 -0.019421 -0.001878 0.055097 -0.020990
# 6 0.004759 -0.000132 0.007921 -0.004315 -0.020990 0.031525
#
#
# Mechanical properties :
#
#
# Convention : Reuss Voigt Hill
#
# Bulk Modulus (GPa) = 21.41987 42.09260 31.75624
# Shear Modulus (GPa) = 19.14814 32.30400 25.72607
#
# Velocity S-wave (km/s) = 2.74445 3.56467 3.18111
# Velocity P-wave (km/s) = 4.29747 5.78790 5.09745
#
# Compressibility (1/GPa) = 0.04668563
#
# Stress axis : x y z
#
# Youngs Moduli (GPa) = 54.64114 63.66087 28.86512
#
# Poissons Ratio (x) = 0.41430 0.09927
# Poissons Ratio (y) = 0.35560 0.02993
# Poissons Ratio (z) = 0.18791 0.06601
#
# Static dielectric constant tensor:
#      x y z
#    x 2.112350 -0.032110 -0.114400 
#    y -0.032110 2.041970 -0.057920 
#    z -0.114400 -0.057920 2.089110 
# 
# From -- ./inp_files/274364.got.cif
#   From: 2010.05.17/outbox.cif.g08.bks.cpg/sg2_138_cif.got.tgz:274364.got - 2010.06.03 11:33:40.
