data_PCOD9092951
_publ_section_title
;
Structure prediction by ZEFSAII (Michael W. Deem and Ramdas Pophale) SiO2 
 PCOD9092951
Probable space group: P -1
;
_chemical_formula_sum "Si O2"
_cell_formula_units_Z 14
_cell_length_a 7.779221
_cell_length_b 5.550948
_cell_length_c 13.873352
_cell_angle_alpha 111.966929
_cell_angle_beta 100.324602
_cell_angle_gamma 66.864426
_cell_volume 510.539607
_symmetry_space_group_name_H-M "P -1"
_symmetry_group_IT_number 2
_symmetry_cell_setting 'triclinic'
loop_
_space_group_symop_operation_xyz
x,y,z
-x,-y,-z
loop_
_atom_site_type_symbol
_atom_site_label
_atom_site_fract_x
_atom_site_fract_y
_atom_site_fract_z
Si Si1 0.471225 0.400026 0.804016
Si Si2 0.586118 0.936509 0.604423
Si Si3 0.747972 0.533765 0.703097
Si Si4 0.304740 0.997469 0.938216
Si Si5 0.095787 0.112010 0.767854
Si Si6 0.007842 0.185156 0.436002
Si Si7 0.807386 0.043852 0.880919
O O1 0.601695 0.487323 0.753694
O O2 0.314847 0.688901 0.861012
O O3 0.613684 0.303161 0.894108
O O4 0.446042 0.153469 0.698779
O O5 0.651333 0.616570 0.601103
O O6 0.786212 0.973018 0.612498
O O7 0.500000 0.000000 0.500000
O O8 0.963438 0.344553 0.717737
O O9 0.757359 0.827871 0.777827
O O10 0.166505 0.080894 0.028399
O O11 0.256853 0.160787 0.855359
O O12 0.500000 0.000000 0.000000
O O13 0.962535 0.109673 0.845186
O O14 0.136576 0.839878 0.664123
O O15 0.000000 0.500000 0.500000
O O16 0.000000 0.000000 0.500000
#
# Coordination Sequence:
#
# PCOD9092951 Si02
#       7
#     2   2   2   2   2   2   2
#     4  10  22  43  69  96 146 179 237 299 362 440
#     4  11  25  45  75 104 140 192 239 313 378 434
#     4  10  19  45  70  95 137 192 238 286 370 450
#     4  12  25  43  68 109 141 187 244 301 364 432
#     4  11  25  46  71  99 144 195 238 302 365 447
#     4  12  27  48  74 112 148 194 255 311 376 454
#     4  10  21  45  69  94 137 189 232 292 360 441
#
# _framework density 27.421965
#
# number of rings (size 3 to 8) (size 9 to 14) (size 15 to 20)
#    0.000    1.143    5.714    1.714    2.000    2.286 
#    5.143    0.000    0.000    0.000    0.000    0.000 
#    0.000    0.000    0.000    0.000    0.000    0.000 
#
# Total GULP energy -78136.628727 kJ/mol
# GULP energy per Si atom -5581.187766 kJ/mol
# Density = 2.735955 g / cm^3
# Si number density = 27.421965 Si / 1000 Ang^3
#
#
#
# Elastic Constant Matrix: (Units=GPa)
#
#
# Indices 1 2 3 4 5 6 
#
# 1 50.5226 -9.2994 23.3916 -3.0400 -7.0005 6.0357
# 2 -9.2994 97.4012 45.2875 -23.3929 6.0855 -9.1941
# 3 23.3916 45.2875 191.2996 -45.6366 2.7155 -5.4149
# 4 -3.0400 -23.3929 -45.6366 52.6144 -4.0977 -9.4297
# 5 -7.0005 6.0855 2.7155 -4.0977 55.0021 -8.3038
# 6 6.0357 -9.1941 -5.4149 -9.4297 -8.3038 36.6671
#
#
#
# Elastic Compliance Matrix: (Units=1/GPa)
#
#
# Indices 1 2 3 4 5 6 
#
# 1 0.022868 0.003324 -0.003960 -0.001058 0.002162 -0.003298
# 2 0.003324 0.013115 -0.002293 0.004678 -0.000023 0.003601
# 3 -0.003960 -0.002293 0.007765 0.006012 0.000241 0.002824
# 4 -0.001058 0.004678 0.006012 0.028260 0.002683 0.010110
# 5 0.002162 -0.000023 0.000241 0.002683 0.019364 0.004749
# 6 -0.003298 0.003601 0.002824 0.010110 0.004749 0.032811
#
#
# Mechanical properties :
#
#
# Convention : Reuss Voigt Hill
#
# Bulk Modulus (GPa) = 26.39171 50.88697 38.63934
# Shear Modulus (GPa) = 35.04567 47.51297 41.27932
#
# Velocity S-wave (km/s) = 3.57881 4.16704 3.88408
# Velocity P-wave (km/s) = 5.16937 6.46139 5.85115
#
# Compressibility (1/GPa) = 0.03789068
#
# Stress axis : x y z
#
# Youngs Moduli (GPa) = 43.72921 76.24798 128.78048
#
# Poissons Ratio (x) = -0.25344 0.50991
# Poissons Ratio (y) = -0.14535 0.29530
# Poissons Ratio (z) = 0.17315 0.17484
#
# Static dielectric constant tensor:
#      x y z
#    x 2.301310 -0.054770 0.090080 
#    y -0.054770 2.428580 -0.026350 
#    z 0.090080 -0.026350 2.200040 
# 
# From -- ./inp_files/487943.got.cif
#   From: 2010.05.17/outbox.cif.g08.bks.cpg/sg2_244_cif.got.tgz:487943.got - 2010.06.03 11:33:40.
