data_PCOD9092600
_publ_section_title
;
Structure prediction by ZEFSAII (Michael W. Deem and Ramdas Pophale) SiO2 
 PCOD9092600
Probable space group: P -1
;
_chemical_formula_sum "Si O2"
_cell_formula_units_Z 16
_cell_length_a 12.146062
_cell_length_b 12.932097
_cell_length_c 12.288880
_cell_angle_alpha 33.043063
_cell_angle_beta 144.601889
_cell_angle_gamma 137.573483
_cell_volume 600.413926
_symmetry_space_group_name_H-M "P -1"
_symmetry_group_IT_number 2
_symmetry_cell_setting 'triclinic'
loop_
_space_group_symop_operation_xyz
x,y,z
-x,-y,-z
loop_
_atom_site_type_symbol
_atom_site_label
_atom_site_fract_x
_atom_site_fract_y
_atom_site_fract_z
Si Si1 0.372624 0.887915 0.589464
Si Si2 0.536560 0.917096 0.315263
Si Si3 0.977587 0.745301 0.298868
Si Si4 0.892407 0.234013 0.100506
Si Si5 0.095968 0.829815 0.076044
Si Si6 0.215976 0.223898 0.533360
Si Si7 0.457560 0.663458 0.157701
Si Si8 0.564953 0.576439 0.104917
O O1 0.186110 0.746463 0.520594
O O2 0.529776 0.791202 0.863937
O O3 0.500000 0.000000 0.500000
O O4 0.319828 0.029044 0.514753
O O5 0.626956 0.778552 0.432314
O O6 0.530756 0.111753 0.069447
O O7 0.324907 0.830260 0.262476
O O8 0.998226 0.746723 0.183011
O O9 0.933988 0.948067 0.131976
O O10 0.787816 0.587643 0.304960
O O11 0.964307 0.264412 0.007060
O O12 0.714340 0.342928 0.888816
O O13 0.033600 0.282021 0.275417
O O14 0.838447 0.998877 0.273158
O O15 0.334197 0.345363 0.615835
O O16 0.435690 0.529190 0.150718
O O17 0.500000 0.500000 0.000000
#
# Coordination Sequence:
#
# PCOD9092600 Si02
#       8
#     2   2   2   2   2   2   2   2
#     4  11  20  35  59  89 115 148 187 233 284 343
#     4  10  16  29  48  81 119 144 171 233 289 335
#     4  11  21  34  56  81 116 155 188 228 287 341
#     4  10  18  28  47  79 110 143 181 226 283 341
#     4  11  17  32  53  85 120 144 178 237 295 335
#     4  10  17  26  47  76 111 146 178 222 285 342
#     4  10  18  33  50  71 110 147 186 228 277 331
#     4  11  25  42  57  81 117 155 194 237 280 332
#
# _framework density 26.648281000000001
#
# number of rings (size 3 to 8) (size 9 to 14) (size 15 to 20)
#    0.000    1.500    6.250    2.250    0.000    4.500 
#    0.000    0.000    0.000    0.750    0.000    4.375 
#    0.000    0.000    0.000    0.000    0.000    0.000 
#
# Total GULP energy -89385.065732 kJ/mol
# GULP energy per Si atom -5586.566608 kJ/mol
# Density = 2.658763 g / cm^3
# Si number density = 26.648281 Si / 1000 Ang^3
#
#
#
# Elastic Constant Matrix: (Units=GPa)
#
#
# Indices 1 2 3 4 5 6 
#
# 1 127.5632 32.0745 17.9762 14.4066 -7.5440 -29.8665
# 2 32.0745 84.8653 40.9154 25.2522 -2.3796 -22.3210
# 3 17.9762 40.9154 103.4869 34.0784 10.0876 -7.6113
# 4 14.4066 25.2522 34.0784 44.0671 -3.2292 -11.9657
# 5 -7.5440 -2.3796 10.0876 -3.2292 39.0639 15.5831
# 6 -29.8665 -22.3210 -7.6113 -11.9657 15.5831 45.1318
#
#
#
# Elastic Compliance Matrix: (Units=1/GPa)
#
#
# Indices 1 2 3 4 5 6 
#
# 1 0.009665 -0.001976 -0.000369 -0.000303 -0.000334 0.005391
# 2 -0.001976 0.017545 -0.004692 -0.004287 -0.000726 0.005692
# 3 -0.000369 -0.004692 0.015079 -0.009442 -0.004667 -0.000913
# 4 -0.000303 -0.004287 -0.009442 0.033856 0.003360 0.003903
# 5 -0.000334 -0.000726 -0.004667 0.003360 0.031502 -0.011354
# 6 0.005391 0.005692 -0.000913 0.003903 -0.011354 0.033341
#
#
# Mechanical properties :
#
#
# Convention : Reuss Voigt Hill
#
# Bulk Modulus (GPa) = 35.44294 55.31639 45.37966
# Shear Modulus (GPa) = 30.40100 40.64920 35.52510
#
# Velocity S-wave (km/s) = 3.38127 3.90987 3.65514
# Velocity P-wave (km/s) = 5.34539 6.41762 5.90588
#
# Compressibility (1/GPa) = 0.02821437
#
# Stress axis : x y z
#
# Youngs Moduli (GPa) = 103.46791 56.99649 66.31617
#
# Poissons Ratio (x) = 0.11264 0.02445
# Poissons Ratio (y) = 0.20449 0.31118
# Poissons Ratio (z) = 0.03815 0.26745
#
# Static dielectric constant tensor:
#      x y z
#    x 2.215740 -0.128390 0.022920 
#    y -0.128390 2.355200 -0.066490 
#    z 0.022920 -0.066490 2.156720 
# 
# From -- ./inp_files/424570.got.cif
#   From: 2010.05.17/outbox.cif.g08.bks.cpg/sg2_213_cif.got.tgz:424570.got - 2010.06.03 11:33:40.
