data_PCOD9092035
_publ_section_title
;
Structure prediction by ZEFSAII (Michael W. Deem and Ramdas Pophale) SiO2 
 PCOD9092035
Probable space group: P -1
;
_chemical_formula_sum "Si O2"
_cell_formula_units_Z 16
_cell_length_a 9.110042
_cell_length_b 9.724569
_cell_length_c 12.359240
_cell_angle_alpha 77.469837
_cell_angle_beta 59.982463
_cell_angle_gamma 63.095800
_cell_volume 845.384307
_symmetry_space_group_name_H-M "P -1"
_symmetry_group_IT_number 2
_symmetry_cell_setting 'triclinic'
loop_
_space_group_symop_operation_xyz
x,y,z
-x,-y,-z
loop_
_atom_site_type_symbol
_atom_site_label
_atom_site_fract_x
_atom_site_fract_y
_atom_site_fract_z
Si Si1 0.540907 0.715774 0.429827
Si Si2 0.594019 0.848140 0.793851
Si Si3 0.827181 0.698272 0.945226
Si Si4 0.245704 0.493989 0.812474
Si Si5 0.802217 0.007624 0.541391
Si Si6 0.249106 0.067302 0.660945
Si Si7 0.535692 0.297845 0.309281
Si Si8 0.152806 0.070092 0.924372
O O1 0.651086 0.609259 0.310051
O O2 0.606420 0.854375 0.401988
O O3 0.560544 0.634147 0.552238
O O4 0.328352 0.811836 0.459460
O O5 0.694565 0.786218 0.880818
O O6 0.700229 0.939647 0.677015
O O7 0.596000 0.711735 0.736524
O O8 0.373134 0.955154 0.871917
O O9 0.027843 0.579117 0.851120
O O10 0.738076 0.609664 0.070229
O O11 0.872996 0.810424 0.990946
O O12 0.334930 0.615568 0.782671
O O13 0.826820 0.916410 0.434413
O O14 0.000000 0.000000 0.500000
O O15 0.126220 0.137286 0.800426
O O16 0.340761 0.883217 0.679600
O O17 0.000000 0.000000 0.000000
#
# Coordination Sequence:
#
# PCOD9092035 Si02
#       8
#     2   2   2   2   2   2   2   2
#     4  11  19  42  65  90 121 163 201 253 306 371
#     4  11  22  40  62  93 127 154 206 269 301 354
#     4  11  24  40  59  87 128 166 206 254 301 363
#     4  11  24  41  61  85 124 171 210 239 309 376
#     4  11  22  36  66 100 124 150 199 267 317 352
#     4  10  19  40  65  90 121 156 204 253 303 364
#     4  10  20  38  64  89 117 163 200 251 308 365
#     4  11  22  39  66  93 120 165 211 251 305 363
#
# _framework density 18.926302
#
# number of rings (size 3 to 8) (size 9 to 14) (size 15 to 20)
#    0.000    1.250    5.000    3.000    5.250    0.500 
#    0.000    1.875    0.000    0.000    0.000    0.000 
#    0.000    0.000    0.000    0.000    0.000    0.000 
#
# Total GULP energy -89218.360100 kJ/mol
# GULP energy per Si atom -5576.147506 kJ/mol
# Density = 1.888323 g / cm^3
# Si number density = 18.926302 Si / 1000 Ang^3
#
#
#
# Elastic Constant Matrix: (Units=GPa)
#
#
# Indices 1 2 3 4 5 6 
#
# 1 110.1643 44.5643 66.7730 0.1687 -7.7374 9.4061
# 2 44.5643 54.3584 36.3713 4.2912 6.0767 10.1994
# 3 66.7730 36.3713 115.9737 0.9071 6.0186 1.9081
# 4 0.1687 4.2912 0.9071 39.5125 7.5321 -10.1424
# 5 -7.7374 6.0767 6.0186 7.5321 27.5103 -6.4037
# 6 9.4061 10.1994 1.9081 -10.1424 -6.4037 24.9397
#
#
#
# Elastic Compliance Matrix: (Units=1/GPa)
#
#
# Indices 1 2 3 4 5 6 
#
# 1 0.019276 -0.011647 -0.007968 -0.000407 0.009964 0.000495
# 2 -0.011647 0.034655 -0.003244 -0.005088 -0.012261 -0.014749
# 3 -0.007968 -0.003244 0.014403 0.001612 -0.004480 0.002735
# 4 -0.000407 -0.005088 0.001612 0.030069 -0.004507 0.013182
# 5 0.009964 -0.012261 -0.004480 -0.004507 0.046819 0.011788
# 6 0.000495 -0.014749 0.002735 0.013182 0.011788 0.054120
#
#
# Mechanical properties :
#
#
# Convention : Reuss Voigt Hill
#
# Bulk Modulus (GPa) = 44.21525 63.99039 54.10282
# Shear Modulus (GPa) = 19.79432 27.24501 23.51967
#
# Velocity S-wave (km/s) = 3.23749 3.79823 3.52902
# Velocity P-wave (km/s) = 6.11454 7.28829 6.72706
#
# Compressibility (1/GPa) = 0.02261663
#
# Stress axis : x y z
#
# Youngs Moduli (GPa) = 51.87665 28.85600 69.43173
#
# Poissons Ratio (x) = 0.33607 0.55324
# Poissons Ratio (y) = 0.60418 0.22523
# Poissons Ratio (z) = 0.41336 0.09361
#
# Static dielectric constant tensor:
#      x y z
#    x 1.654520 0.004760 0.000240 
#    y 0.004760 1.683980 0.015020 
#    z 0.000240 0.015020 1.721910 
# 
# From -- ./inp_files/343423.got.cif
#   From: 2010.05.17/outbox.cif.g08.bks.cpg/sg2_172_cif.got.tgz:343423.got - 2010.06.03 11:33:40.
