data_PCOD9092419
_publ_section_title
;
Structure prediction by ZEFSAII (Michael W. Deem and Ramdas Pophale) SiO2 
 PCOD9092419
Probable space group: P -1
;
_chemical_formula_sum "Si O2"
_cell_formula_units_Z 16
_cell_length_a 11.185808
_cell_length_b 8.045722
_cell_length_c 15.833395
_cell_angle_alpha 58.868210
_cell_angle_beta 144.102741
_cell_angle_gamma 118.942112
_cell_volume 709.135195
_symmetry_space_group_name_H-M "P -1"
_symmetry_group_IT_number 2
_symmetry_cell_setting 'triclinic'
loop_
_space_group_symop_operation_xyz
x,y,z
-x,-y,-z
loop_
_atom_site_type_symbol
_atom_site_label
_atom_site_fract_x
_atom_site_fract_y
_atom_site_fract_z
Si Si1 0.041002 0.869637 0.975093
Si Si2 0.860380 0.756529 0.306709
Si Si3 0.330961 0.209418 0.995129
Si Si4 0.693957 0.375743 0.404257
Si Si5 0.370971 0.036143 0.333165
Si Si6 0.094330 0.481153 0.902169
Si Si7 0.685429 0.130382 0.119978
Si Si8 0.686003 0.404671 0.593080
O O1 0.853928 0.901987 0.796491
O O2 0.007495 0.646630 0.044733
O O3 0.253192 0.983490 0.033948
O O4 0.000000 0.000000 0.000000
O O5 0.795249 0.752266 0.172279
O O6 0.713239 0.580812 0.313204
O O7 0.092393 0.712592 0.462134
O O8 0.832208 0.970544 0.269607
O O9 0.254219 0.352846 0.982759
O O10 0.571489 0.228887 0.105267
O O11 0.506092 0.211253 0.315400
O O12 0.674200 0.411782 0.483464
O O13 0.500000 0.000000 0.500000
O O14 0.335573 0.821467 0.329201
O O15 0.206725 0.698018 0.922552
O O16 0.907541 0.500530 0.726123
O O17 0.500000 0.000000 0.000000
O O18 0.500000 0.500000 0.500000
#
# Coordination Sequence:
#
# PCOD9092419 Si02
#       8
#     2   2   2   2   2   2   2   2
#     4  10  20  38  66  94 126 165 216 262 325 392
#     4  10  21  42  62  88 128 171 220 261 318 394
#     4  10  19  41  64  87 129 167 210 266 323 388
#     4  10  22  41  66  89 128 174 217 261 327 391
#     4  10  20  39  66  94 126 171 216 264 323 390
#     4  11  22  42  65  92 130 173 213 270 334 387
#     4  10  24  39  61  90 126 166 218 269 318 382
#     4  11  23  41  65  98 131 164 216 278 328 387
#
# _framework density 22.562695000000001
#
# number of rings (size 3 to 8) (size 9 to 14) (size 15 to 20)
#    0.000    1.750    3.750    1.125    5.250    1.000 
#    2.250    3.125    0.000    0.000    0.000    0.000 
#    0.000    0.000    0.000    0.000    0.000    0.000 
#
# Total GULP energy -89405.847636 kJ/mol
# GULP energy per Si atom -5587.865477 kJ/mol
# Density = 2.251134 g / cm^3
# Si number density = 22.562695 Si / 1000 Ang^3
#
#
#
# Elastic Constant Matrix: (Units=GPa)
#
#
# Indices 1 2 3 4 5 6 
#
# 1 55.2078 30.7655 9.7762 -12.1198 5.3207 13.6716
# 2 30.7655 167.0614 11.1311 -12.4219 -1.7478 36.2286
# 3 9.7762 11.1311 54.2318 -7.0562 -1.1088 -0.8634
# 4 -12.1198 -12.4219 -7.0562 33.8683 0.2626 -6.1958
# 5 5.3207 -1.7478 -1.1088 0.2626 31.0300 -8.5845
# 6 13.6716 36.2286 -0.8634 -6.1958 -8.5845 38.9333
#
#
#
# Elastic Compliance Matrix: (Units=1/GPa)
#
#
# Indices 1 2 3 4 5 6 
#
# 1 0.023456 -0.002311 -0.003242 0.005710 -0.006143 -0.006604
# 2 -0.002311 0.008007 -0.001279 0.000606 -0.001088 -0.006811
# 3 -0.003242 -0.001279 0.019803 0.003167 0.002204 0.003757
# 4 0.005710 0.000606 0.003167 0.032941 -0.000374 0.002661
# 5 -0.006143 -0.001088 0.002204 -0.000374 0.036395 0.011184
# 6 -0.006604 -0.006811 0.003757 0.002661 0.011184 0.037315
#
#
# Mechanical properties :
#
#
# Convention : Reuss Voigt Hill
#
# Bulk Modulus (GPa) = 26.59329 42.20515 34.39922
# Shear Modulus (GPa) = 27.15675 35.75486 31.45581
#
# Velocity S-wave (km/s) = 3.47308 3.98513 3.73788
# Velocity P-wave (km/s) = 5.28157 6.31834 5.82307
#
# Compressibility (1/GPa) = 0.03760347
#
# Stress axis : x y z
#
# Youngs Moduli (GPa) = 42.63215 124.88422 50.49694
#
# Poissons Ratio (x) = 0.28864 0.16370
# Poissons Ratio (y) = 0.09853 0.06457
# Poissons Ratio (z) = 0.13821 0.15970
#
# Static dielectric constant tensor:
#      x y z
#    x 1.877620 0.000260 -0.011980 
#    y 0.000260 1.871900 -0.001340 
#    z -0.011980 -0.001340 1.841920 
# 
# From -- ./inp_files/407249.got.cif
#   From: 2010.05.17/outbox.cif.g08.bks.cpg/sg2_204_cif.got.tgz:407249.got - 2010.06.03 11:33:40.
