data_PCOD9092812
_publ_section_title
;
Structure prediction by ZEFSAII (Michael W. Deem and Ramdas Pophale) SiO2 
 PCOD9092812
Probable space group: P -1
;
_chemical_formula_sum "Si O2"
_cell_formula_units_Z 16
_cell_length_a 11.261718
_cell_length_b 13.042165
_cell_length_c 13.916870
_cell_angle_alpha 143.897437
_cell_angle_beta 84.121850
_cell_angle_gamma 68.191991
_cell_volume 757.178573
_symmetry_space_group_name_H-M "P -1"
_symmetry_group_IT_number 2
_symmetry_cell_setting 'triclinic'
loop_
_space_group_symop_operation_xyz
x,y,z
-x,-y,-z
loop_
_atom_site_type_symbol
_atom_site_label
_atom_site_fract_x
_atom_site_fract_y
_atom_site_fract_z
Si Si1 0.373516 0.957052 0.231908
Si Si2 0.424205 0.895344 0.949935
Si Si3 0.076725 0.076993 0.441048
Si Si4 0.934923 0.109204 0.888106
Si Si5 0.297770 0.656676 0.274694
Si Si6 0.353663 0.698371 0.516072
Si Si7 0.333027 0.385363 0.571705
Si Si8 0.977670 0.713718 0.713061
O O1 0.169789 0.138570 0.429964
O O2 0.421021 0.097597 0.366043
O O3 0.384899 0.935211 0.098532
O O4 0.522010 0.641647 0.011551
O O5 0.574230 0.576678 0.672554
O O6 0.500000 0.000000 0.000000
O O7 0.222618 0.077624 0.057710
O O8 0.104265 0.893829 0.221178
O O9 0.188282 0.902532 0.395826
O O10 0.853433 0.322964 0.666430
O O11 0.951905 0.906841 0.790320
O O12 0.770622 0.407640 0.173506
O O13 0.140035 0.965170 0.769065
O O14 0.351416 0.697004 0.398180
O O15 0.504880 0.666667 0.514890
O O16 0.162515 0.545094 0.632107
O O17 0.000000 0.500000 0.500000
#
# Coordination Sequence:
#
# PCOD9092812 Si02
#       8
#     2   2   2   2   2   2   2   2
#     4  11  22  39  61  90 125 161 207 253 307 375
#     4  11  22  40  62  89 120 162 218 259 295 364
#     4  10  19  42  71  92 119 160 210 264 310 364
#     4  11  22  40  62  88 126 161 203 258 314 369
#     4   9  21  40  70  96 116 158 214 262 308 365
#     4  10  23  40  61  89 128 159 208 260 309 364
#     4  12  25  39  58  90 133 167 202 253 318 375
#     4  12  22  41  60  85 119 166 214 253 302 362
#
# _framework density 21.131079
#
# number of rings (size 3 to 8) (size 9 to 14) (size 15 to 20)
#    0.000    1.250    3.750    2.250    0.000    4.500 
#    0.000    2.500    0.000    4.500    0.000    0.000 
#    0.000    0.000    0.000    0.000    0.000    0.000 
#
# Total GULP energy -89423.320091 kJ/mol
# GULP energy per Si atom -5588.957506 kJ/mol
# Density = 2.108298 g / cm^3
# Si number density = 21.131079 Si / 1000 Ang^3
#
#
#
# Elastic Constant Matrix: (Units=GPa)
#
#
# Indices 1 2 3 4 5 6 
#
# 1 139.1783 25.7029 12.0947 -3.9380 -19.5132 -1.6718
# 2 25.7029 58.4975 -8.7638 -3.9084 -2.7971 -13.6331
# 3 12.0947 -8.7638 53.5066 -2.7715 -8.2144 0.3669
# 4 -3.9380 -3.9084 -2.7715 20.3142 -0.0387 -5.7386
# 5 -19.5132 -2.7971 -8.2144 -0.0387 35.5805 -1.2016
# 6 -1.6718 -13.6331 0.3669 -5.7386 -1.2016 29.5632
#
#
#
# Elastic Compliance Matrix: (Units=1/GPa)
#
#
# Indices 1 2 3 4 5 6 
#
# 1 0.008678 -0.004192 -0.002024 0.000266 0.003922 -0.001206
# 2 -0.004192 0.023050 0.005213 0.007688 0.001126 0.011866
# 3 -0.002024 0.005213 0.020852 0.004322 0.004221 0.003041
# 4 0.000266 0.007688 0.004322 0.055407 0.002293 0.014355
# 5 0.003922 0.001126 0.004221 0.002293 0.031403 0.002410
# 6 -0.001206 0.011866 0.003041 0.014355 0.002410 0.042076
#
#
# Mechanical properties :
#
#
# Convention : Reuss Voigt Hill
#
# Bulk Modulus (GPa) = 19.77327 34.36111 27.06719
# Shear Modulus (GPa) = 24.95872 31.90147 28.43010
#
# Velocity S-wave (km/s) = 3.44050 3.88969 3.67197
# Velocity P-wave (km/s) = 5.01602 6.03897 5.55111
#
# Compressibility (1/GPa) = 0.05057334
#
# Stress axis : x y z
#
# Youngs Moduli (GPa) = 115.23392 43.38307 47.95780
#
# Poissons Ratio (x) = 0.18186 0.09707
# Poissons Ratio (y) = 0.48306 -0.24999
# Poissons Ratio (z) = 0.23324 -0.22614
#
# Static dielectric constant tensor:
#      x y z
#    x 1.773850 -0.010100 -0.030590 
#    y -0.010100 1.788390 -0.006120 
#    z -0.030590 -0.006120 1.776990 
# 
# From -- ./inp_files/273139.got.cif
#   From: 2010.05.17/outbox.cif.g08.bks.cpg/sg2_137_cif.got.tgz:273139.got - 2010.06.03 11:33:40.
