data_PCOD9092385
_publ_section_title
;
Structure prediction by ZEFSAII (Michael W. Deem and Ramdas Pophale) SiO2 
 PCOD9092385
Probable space group: P -1
;
_chemical_formula_sum "Si O2"
_cell_formula_units_Z 16
_cell_length_a 16.120872
_cell_length_b 12.638040
_cell_length_c 5.293573
_cell_angle_alpha 100.237459
_cell_angle_beta 83.386633
_cell_angle_gamma 42.615141
_cell_volume 667.835652
_symmetry_space_group_name_H-M "P -1"
_symmetry_group_IT_number 2
_symmetry_cell_setting 'triclinic'
loop_
_space_group_symop_operation_xyz
x,y,z
-x,-y,-z
loop_
_atom_site_type_symbol
_atom_site_label
_atom_site_fract_x
_atom_site_fract_y
_atom_site_fract_z
Si Si1 0.425674 0.813595 0.833250
Si Si2 0.857445 0.952933 0.782052
Si Si3 0.312730 0.095273 0.665210
Si Si4 0.053171 0.251312 0.826216
Si Si5 0.225149 0.523903 0.997113
Si Si6 0.649866 0.434024 0.700668
Si Si7 0.759379 0.266627 0.097200
Si Si8 0.442652 0.155007 0.854236
O O1 0.517560 0.618291 0.715964
O O2 0.358920 0.929319 0.658568
O O3 0.518751 0.816283 0.902818
O O4 0.299660 0.918012 0.100967
O O5 0.917799 0.864448 0.453889
O O6 0.917720 0.823292 0.935518
O O7 0.862481 0.073985 0.898320
O O8 0.158968 0.239409 0.728185
O O9 0.346763 0.148506 0.891393
O O10 0.416835 0.020980 0.381593
O O11 0.899294 0.429135 0.931667
O O12 0.255465 0.557793 0.261580
O O13 0.192898 0.657419 0.886742
O O14 0.357770 0.327677 0.798254
O O15 0.707323 0.299052 0.410379
O O16 0.650372 0.380734 0.956877
#
# Coordination Sequence:
#
# PCOD9092385 Si02
#       8
#     2   2   2   2   2   2   2   2
#     4  10  20  37  59  87 124 155 197 246 301 352
#     4  11  24  38  62  86 123 160 202 245 296 348
#     4  10  21  36  67  87 122 150 206 239 309 350
#     4  11  24  41  60  90 123 158 197 251 294 354
#     4   9  23  38  62  85 128 154 204 240 301 347
#     4   9  21  36  60  85 124 157 199 243 294 348
#     4  10  21  39  56  93 116 163 200 244 292 354
#     4  10  19  41  62  91 114 161 194 252 295 363
#
# _framework density 23.957989000000001
#
# number of rings (size 3 to 8) (size 9 to 14) (size 15 to 20)
#    0.750    1.250    1.250    1.875    1.750    2.500 
#    0.000    0.000    0.000    2.250    0.000    0.000 
#    0.000    0.000    0.000    0.000    0.000    0.000 
#
# Total GULP energy -89178.402308 kJ/mol
# GULP energy per Si atom -5573.650144 kJ/mol
# Density = 2.390346 g / cm^3
# Si number density = 23.957989 Si / 1000 Ang^3
#
#
#
# Elastic Constant Matrix: (Units=GPa)
#
#
# Indices 1 2 3 4 5 6 
#
# 1 101.2093 23.2969 9.1690 6.2204 -4.3068 -18.6160
# 2 23.2969 31.6758 4.6570 0.2212 -3.9998 -9.1327
# 3 9.1690 4.6570 71.0637 -16.0972 11.4223 -5.4683
# 4 6.2204 0.2212 -16.0972 22.2635 -3.9446 -0.3417
# 5 -4.3068 -3.9998 11.4223 -3.9446 14.2327 6.0992
# 6 -18.6160 -9.1327 -5.4683 -0.3417 6.0992 35.1333
#
#
#
# Elastic Compliance Matrix: (Units=1/GPa)
#
#
# Indices 1 2 3 4 5 6 
#
# 1 0.013010 -0.007966 -0.001909 -0.004875 -0.000044 0.004486
# 2 -0.007966 0.040184 -0.002390 0.001847 0.009504 0.004221
# 3 -0.001909 -0.002390 0.020173 0.012396 -0.015882 0.004385
# 4 -0.004875 0.001847 0.012396 0.056073 0.004837 -0.000468
# 5 -0.000044 0.009504 -0.015882 0.004837 0.093988 -0.016294
# 6 0.004486 0.004221 0.004385 -0.000468 -0.016294 0.035444
#
#
# Mechanical properties :
#
#
# Convention : Reuss Voigt Hill
#
# Bulk Modulus (GPa) = 20.47589 30.91049 25.69319
# Shear Modulus (GPa) = 16.68451 25.44763 21.06607
#
# Velocity S-wave (km/s) = 2.64182 3.26264 2.96850
# Velocity P-wave (km/s) = 4.22738 5.20798 4.74309
#
# Compressibility (1/GPa) = 0.04883793
#
# Stress axis : x y z
#
# Youngs Moduli (GPa) = 76.86423 24.88544 49.57163
#
# Poissons Ratio (x) = 0.19824 0.09461
# Poissons Ratio (y) = 0.61230 0.11847
# Poissons Ratio (z) = 0.14670 0.05947
#
# Static dielectric constant tensor:
#      x y z
#    x 2.001950 0.018240 -0.029800 
#    y 0.018240 1.926770 -0.024680 
#    z -0.029800 -0.024680 1.917180 
# 
# From -- ./inp_files/110961.got.cif
#   From: 2010.05.17/outbox.cif.g08.bks.cpg/sg2_56_cif.got.tgz:110961.got - 2010.06.03 11:33:40.
