data_PCOD9092949
_publ_section_title
;
Structure prediction by ZEFSAII (Michael W. Deem and Ramdas Pophale) SiO2 
 PCOD9092949
Probable space group: P -1
;
_chemical_formula_sum "Si O2"
_cell_formula_units_Z 13
_cell_length_a 15.485295
_cell_length_b 15.097678
_cell_length_c 8.427923
_cell_angle_alpha 51.451920
_cell_angle_beta 145.823802
_cell_angle_gamma 153.522126
_cell_volume 435.951211
_symmetry_space_group_name_H-M "P -1"
_symmetry_group_IT_number 2
_symmetry_cell_setting 'triclinic'
loop_
_space_group_symop_operation_xyz
x,y,z
-x,-y,-z
loop_
_atom_site_type_symbol
_atom_site_label
_atom_site_fract_x
_atom_site_fract_y
_atom_site_fract_z
Si Si1 0.746840 0.259786 0.054138
Si Si2 0.946572 0.705337 0.754006
Si Si3 0.324262 0.150790 0.675585
Si Si4 0.000000 0.500000 0.500000
Si Si5 0.567213 0.469938 0.946902
Si Si6 0.198357 0.097706 0.038743
Si Si7 0.829761 0.158294 0.701851
O O1 0.964917 0.434666 0.335847
O O2 0.947423 0.339163 0.127614
O O3 0.529166 0.232288 0.754669
O O4 0.500000 0.000000 0.000000
O O5 0.608818 0.538763 0.393309
O O6 0.012854 0.736765 0.004164
O O7 0.142947 0.931576 0.720574
O O8 0.530762 0.337199 0.919632
O O9 0.069365 0.074026 0.311559
O O10 0.253681 0.765993 0.541722
O O11 0.421276 0.335053 0.039762
O O12 0.924710 0.714589 0.205809
O O13 0.356919 0.076575 0.317738
O O14 0.000000 0.000000 0.000000
#
# Coordination Sequence:
#
# PCOD9092949 Si02
#       7
#     2   2   2   1   2   2   2
#     4  10  24  46  73 101 148 199 238 302 370 432
#     4  10  21  42  75  99 141 192 242 298 364 437
#     4  10  19  45  70 104 135 190 244 292 366 444
#     4  12  28  46  66 108 158 184 252 306 354 452
#     4  11  21  44  72 103 136 189 245 303 367 438
#     4  11  25  43  72 108 142 186 247 308 371 436
#     4  12  25  44  69 104 147 193 241 309 366 435
#
# _framework density 29.819852000000001
#
# number of rings (size 3 to 8) (size 9 to 14) (size 15 to 20)
#    0.000    1.231    4.615    1.385    6.462    1.231 
#    2.769    3.846    0.000    0.000    0.000    0.000 
#    0.000    0.000    0.000    0.000    0.000    0.000 
#
# Total GULP energy -72649.232779 kJ/mol
# GULP energy per Si atom -5588.402521 kJ/mol
# Density = 2.975198 g / cm^3
# Si number density = 29.819852 Si / 1000 Ang^3
#
#
#
# Elastic Constant Matrix: (Units=GPa)
#
#
# Indices 1 2 3 4 5 6 
#
# 1 198.2793 40.5187 39.7428 -11.0446 5.9301 15.8697
# 2 40.5187 142.3263 34.3995 -19.0578 3.8253 -4.7487
# 3 39.7428 34.3995 84.5709 -21.5881 11.3267 -6.6673
# 4 -11.0446 -19.0578 -21.5881 50.7193 -10.1544 5.9354
# 5 5.9301 3.8253 11.3267 -10.1544 65.0615 4.0282
# 6 15.8697 -4.7487 -6.6673 5.9354 4.0282 71.5713
#
#
#
# Elastic Compliance Matrix: (Units=1/GPa)
#
#
# Indices 1 2 3 4 5 6 
#
# 1 0.005893 -0.001142 -0.002435 0.000018 0.000057 -0.001614
# 2 -0.001142 0.008165 -0.002321 0.001841 0.000290 0.000410
# 3 -0.002435 -0.002321 0.015449 0.004654 -0.001700 0.001535
# 4 0.000018 0.001841 0.004654 0.023129 0.002784 -0.001523
# 5 0.000057 0.000290 -0.001700 0.002784 0.016158 -0.001292
# 6 -0.001614 0.000410 0.001535 -0.001523 -0.001292 0.014699
#
#
# Mechanical properties :
#
#
# Convention : Reuss Voigt Hill
#
# Bulk Modulus (GPa) = 56.46162 72.72205 64.59183
# Shear Modulus (GPa) = 49.41039 58.17146 53.79093
#
# Velocity S-wave (km/s) = 4.07500 4.42154 4.25180
# Velocity P-wave (km/s) = 6.41219 7.10681 6.76841
#
# Compressibility (1/GPa) = 0.01771115
#
# Stress axis : x y z
#
# Youngs Moduli (GPa) = 169.68153 122.47946 64.72771
#
# Poissons Ratio (x) = 0.13989 0.15762
# Poissons Ratio (y) = 0.19381 0.15022
# Poissons Ratio (z) = 0.41321 0.28424
#
# Static dielectric constant tensor:
#      x y z
#    x 1.439160 0.390300 -2.479170 
#    y 0.390300 2.130010 1.255380 
#    z -2.479170 1.255380 -5.347210 
# 
# From -- ./inp_files/311101.got.cif
#   From: 2010.05.17/outbox.cif.g08.bks.cpg/sg2_156_cif.got.tgz:311101.got - 2010.06.03 11:33:40.
