data_PCOD9092097
_publ_section_title
;
Structure prediction by ZEFSAII (Michael W. Deem and Ramdas Pophale) SiO2 
 PCOD9092097
Probable space group: P -1
;
_chemical_formula_sum "Si O2"
_cell_formula_units_Z 14
_cell_length_a 12.730525
_cell_length_b 10.021819
_cell_length_c 18.402792
_cell_angle_alpha 33.013819
_cell_angle_beta 34.895952
_cell_angle_gamma 36.844768
_cell_volume 682.499216
_symmetry_space_group_name_H-M "P -1"
_symmetry_group_IT_number 2
_symmetry_cell_setting 'triclinic'
loop_
_space_group_symop_operation_xyz
x,y,z
-x,-y,-z
loop_
_atom_site_type_symbol
_atom_site_label
_atom_site_fract_x
_atom_site_fract_y
_atom_site_fract_z
Si Si1 0.975488 0.329835 0.024381
Si Si2 0.914763 0.611731 0.666492
Si Si3 0.374310 0.226322 0.025287
Si Si4 0.754502 0.251370 0.829295
Si Si5 0.204779 0.412842 0.716675
Si Si6 0.775251 0.197560 0.674080
Si Si7 0.639459 0.160756 0.617744
O O1 0.105509 0.359679 0.869505
O O2 0.745784 0.476999 0.066881
O O3 0.000000 0.500000 0.000000
O O4 0.065654 0.025292 0.135066
O O5 0.802489 0.469026 0.747253
O O6 0.066112 0.413626 0.727218
O O7 0.042104 0.734436 0.488492
O O8 0.767243 0.855297 0.683293
O O9 0.206278 0.106281 0.193026
O O10 0.547158 0.225468 0.981729
O O11 0.500000 0.000000 0.000000
O O12 0.728849 0.311382 0.729671
O O13 0.428717 0.211921 0.679395
O O14 0.241641 0.688220 0.563117
O O15 0.620581 0.279937 0.656287
#
# Coordination Sequence:
#
# PCOD9092097 Si02
#       7
#     2   2   2   2   2   2   2
#     4  12  22  38  64  88 125 162 207 260 297 368
#     4  11  23  41  62  92 131 163 198 262 318 363
#     4  10  20  37  61  91 117 159 211 247 301 364
#     4  11  25  38  61  98 129 160 202 258 320 362
#     4  10  23  40  63  94 119 168 217 245 309 370
#     4  10  19  40  66  89 118 166 214 250 298 370
#     4  10  21  39  69  88 123 165 212 259 295 374
#
# _framework density 20.512843
#
# number of rings (size 3 to 8) (size 9 to 14) (size 15 to 20)
#    0.000    1.429    2.857    4.714    2.000    1.714 
#    0.000    5.000    0.000    7.714    0.000    0.000 
#    0.000    0.000    0.000    0.000    0.000    0.000 
#
# Total GULP energy -77993.958370 kJ/mol
# GULP energy per Si atom -5570.997026 kJ/mol
# Density = 2.046616 g / cm^3
# Si number density = 20.512843 Si / 1000 Ang^3
#
#
#
# Elastic Constant Matrix: (Units=GPa)
#
#
# Indices 1 2 3 4 5 6 
#
# 1 129.5054 38.1664 43.3008 5.4371 -16.2777 2.7514
# 2 38.1664 59.7288 15.7288 1.6156 -5.8727 -8.4161
# 3 43.3008 15.7288 75.8362 9.6029 -1.6572 14.6409
# 4 5.4371 1.6156 9.6029 18.7566 2.7921 3.9514
# 5 -16.2777 -5.8727 -1.6572 2.7921 39.3734 3.1474
# 6 2.7514 -8.4161 14.6409 3.9514 3.1474 37.2375
#
#
#
# Elastic Compliance Matrix: (Units=1/GPa)
#
#
# Indices 1 2 3 4 5 6 
#
# 1 0.011684 -0.005739 -0.005240 -0.000706 0.003832 -0.000349
# 2 -0.005739 0.021998 -0.002464 -0.000361 0.000321 0.006376
# 3 -0.005240 -0.002464 0.018793 -0.006342 -0.000748 -0.006823
# 4 -0.000706 -0.000361 -0.006342 0.058164 -0.004471 -0.003330
# 5 0.003832 0.000321 -0.000748 -0.004471 0.027456 -0.001763
# 6 -0.000349 0.006376 -0.006823 -0.003330 -0.001763 0.031506
#
#
# Mechanical properties :
#
#
# Convention : Reuss Voigt Hill
#
# Bulk Modulus (GPa) = 39.07989 51.05140 45.06565
# Shear Modulus (GPa) = 24.38802 30.26513 27.32657
#
# Velocity S-wave (km/s) = 3.45180 3.84529 3.65385
# Velocity P-wave (km/s) = 5.91434 6.68256 6.31015
#
# Compressibility (1/GPa) = 0.02558861
#
# Stress axis : x y z
#
# Youngs Moduli (GPa) = 85.58749 45.45823 53.21051
#
# Poissons Ratio (x) = 0.26090 0.27884
# Poissons Ratio (y) = 0.49121 0.13110
# Poissons Ratio (z) = 0.44851 0.11200
#
# Static dielectric constant tensor:
#      x y z
#    x 1.771720 -0.048750 0.059220 
#    y -0.048750 1.731230 0.033120 
#    z 0.059220 0.033120 1.822020 
# 
# From -- ./inp_files/416119.got.cif
#   From: 2010.05.17/outbox.cif.g08.bks.cpg/sg2_209_cif.got.tgz:416119.got - 2010.06.03 11:33:40.
