data_PCOD9092836
_publ_section_title
;
Structure prediction by ZEFSAII (Michael W. Deem and Ramdas Pophale) SiO2 
 PCOD9092836
Probable space group: P -1
;
_chemical_formula_sum "Si O2"
_cell_formula_units_Z 14
_cell_length_a 8.166519
_cell_length_b 9.260758
_cell_length_c 9.087245
_cell_angle_alpha 62.797564
_cell_angle_beta 87.147248
_cell_angle_gamma 79.559651
_cell_volume 600.690064
_symmetry_space_group_name_H-M "P -1"
_symmetry_group_IT_number 2
_symmetry_cell_setting 'triclinic'
loop_
_space_group_symop_operation_xyz
x,y,z
-x,-y,-z
loop_
_atom_site_type_symbol
_atom_site_label
_atom_site_fract_x
_atom_site_fract_y
_atom_site_fract_z
Si Si1 0.525539 0.140913 0.543796
Si Si2 0.639714 0.992950 0.122399
Si Si3 0.540060 0.666580 0.991275
Si Si4 0.562196 0.494515 0.664138
Si Si5 0.948828 0.363678 0.674170
Si Si6 0.868623 0.788827 0.989046
Si Si7 0.918585 0.043263 0.643289
O O1 0.478054 0.313763 0.380757
O O2 0.717348 0.101238 0.608036
O O3 0.500000 0.000000 0.500000
O O4 0.400695 0.128316 0.691440
O O5 0.798814 0.933067 0.043424
O O6 0.605372 0.176912 0.103890
O O7 0.500000 0.000000 0.000000
O O8 0.534744 0.620032 0.184694
O O9 0.719076 0.720718 0.942314
O O10 0.500000 0.500000 0.000000
O O11 0.500000 0.500000 0.500000
O O12 0.754732 0.417955 0.694671
O O13 0.976533 0.194229 0.656913
O O14 0.000000 0.500000 0.500000
O O15 0.036545 0.344875 0.839253
O O16 0.957868 0.879576 0.818841
O O17 0.000000 0.000000 0.500000
#
# Coordination Sequence:
#
# PCOD9092836 Si02
#       7
#     2   2   2   2   2   2   2
#     4  12  25  44  74 106 140 187 241 298 357 428
#     4  10  19  42  74  95 135 183 244 285 344 428
#     4  11  23  42  71 105 141 177 238 300 354 415
#     4  12  24  45  73 103 138 187 243 297 352 428
#     4  12  27  49  73 107 148 191 242 302 365 431
#     4  11  25  49  73 107 142 196 245 293 363 439
#     4  12  28  49  71 106 151 192 239 299 371 433
#
# _framework density 23.306529999999999
#
# number of rings (size 3 to 8) (size 9 to 14) (size 15 to 20)
#    0.000    0.571    4.286    5.571    4.000    0.000 
#    2.571    1.429    0.000    0.000    0.000    0.000 
#    0.000    0.000    0.000    0.000    0.000    0.000 
#
# Total GULP energy -78292.220464 kJ/mol
# GULP energy per Si atom -5592.301462 kJ/mol
# Density = 2.325348 g / cm^3
# Si number density = 23.306530 Si / 1000 Ang^3
#
#
#
# Elastic Constant Matrix: (Units=GPa)
#
#
# Indices 1 2 3 4 5 6 
#
# 1 60.4322 18.5803 18.4610 4.0397 11.8460 6.8599
# 2 18.5803 120.8433 10.8260 -10.6747 -3.7369 22.1597
# 3 18.4610 10.8260 147.9903 -13.0040 -19.8558 3.6252
# 4 4.0397 -10.6747 -13.0040 42.6707 1.6340 -2.3563
# 5 11.8460 -3.7369 -19.8558 1.6340 37.2478 -3.1938
# 6 6.8599 22.1597 3.6252 -2.3563 -3.1938 34.5687
#
#
#
# Elastic Compliance Matrix: (Units=1/GPa)
#
#
# Indices 1 2 3 4 5 6 
#
# 1 0.021022 -0.002951 -0.003888 -0.003727 -0.009146 -0.002971
# 2 -0.002951 0.009991 0.000186 0.002474 0.001457 -0.005535
# 3 -0.003888 0.000186 0.008201 0.002728 0.005549 0.000491
# 4 -0.003727 0.002474 0.002728 0.025210 0.001847 0.000757
# 5 -0.009146 0.001457 0.005549 0.001847 0.033078 0.003481
# 6 -0.002971 -0.005535 0.000491 0.000757 0.003481 0.033387
#
#
# Mechanical properties :
#
#
# Convention : Reuss Voigt Hill
#
# Bulk Modulus (GPa) = 38.60082 47.22228 42.91155
# Shear Modulus (GPa) = 32.71590 41.65734 37.18662
#
# Velocity S-wave (km/s) = 3.75069 4.23231 3.99876
# Velocity P-wave (km/s) = 5.94602 6.64746 6.30650
#
# Compressibility (1/GPa) = 0.02590619
#
# Stress axis : x y z
#
# Youngs Moduli (GPa) = 47.56976 100.09131 121.93742
#
# Poissons Ratio (x) = 0.29538 0.47413
# Poissons Ratio (y) = 0.14038 -0.02264
# Poissons Ratio (z) = 0.18496 -0.01859
#
# Static dielectric constant tensor:
#      x y z
#    x 1.920010 0.006300 -0.020270 
#    y 0.006300 1.906290 0.032010 
#    z -0.020270 0.032010 1.844700 
# 
# From -- ./inp_files/156587.got.cif
#   From: 2010.05.17/outbox.cif.g08.bks.cpg/sg2_79_cif.got.tgz:156587.got - 2010.06.03 11:33:40.
