data_PCOD9092441
_publ_section_title
;
Structure prediction by ZEFSAII (Michael W. Deem and Ramdas Pophale) SiO2 
 PCOD9092441
Probable space group: P -1
;
_chemical_formula_sum "Si O2"
_cell_formula_units_Z 16
_cell_length_a 10.301260
_cell_length_b 8.703165
_cell_length_c 12.175209
_cell_angle_alpha 133.297957
_cell_angle_beta 55.169766
_cell_angle_gamma 109.209077
_cell_volume 648.506133
_symmetry_space_group_name_H-M "P -1"
_symmetry_group_IT_number 2
_symmetry_cell_setting 'triclinic'
loop_
_space_group_symop_operation_xyz
x,y,z
-x,-y,-z
loop_
_atom_site_type_symbol
_atom_site_label
_atom_site_fract_x
_atom_site_fract_y
_atom_site_fract_z
Si Si1 0.226412 0.266284 0.197618
Si Si2 0.831624 0.945599 0.098543
Si Si3 0.495061 0.518598 0.806822
Si Si4 0.830735 0.630514 0.147002
Si Si5 0.457858 0.760420 0.567585
Si Si6 0.658861 0.141428 0.652895
Si Si7 0.032060 0.724715 0.525396
Si Si8 0.768733 0.754197 0.492516
O O1 0.409416 0.275760 0.146873
O O2 0.136805 0.498857 0.385559
O O3 0.094148 0.148237 0.268314
O O4 0.227879 0.205178 0.040908
O O5 0.828880 0.820330 0.152709
O O6 0.714487 0.163328 0.266269
O O7 0.000000 0.000000 0.000000
O O8 0.306615 0.517642 0.895223
O O9 0.546314 0.374938 0.605507
O O10 0.571242 0.376159 0.802361
O O11 0.801897 0.702390 0.322784
O O12 0.000000 0.500000 0.000000
O O13 0.594085 0.672484 0.546527
O O14 0.528073 0.983490 0.606679
O O15 0.822232 0.142278 0.507138
O O16 0.728925 0.008363 0.659535
O O17 0.918670 0.677332 0.454575
#
# Coordination Sequence:
#
# PCOD9092441 Si02
#       8
#     2   2   2   2   2   2   2   2
#     4  10  25  38  61  90 126 167 198 249 321 363
#     4  12  26  42  63  92 129 164 205 259 312 372
#     4  10  19  41  65  87 119 166 211 253 294 373
#     4  11  22  41  63  94 126 159 210 257 313 365
#     4   9  20  37  63  89 114 160 211 247 302 367
#     4   9  17  33  66  86 112 157 206 256 296 351
#     4  10  20  39  60  93 124 154 209 253 303 377
#     4   9  19  37  64  91 114 158 208 255 299 356
#
# _framework density 24.672089
#
# number of rings (size 3 to 8) (size 9 to 14) (size 15 to 20)
#    0.750    1.250    1.250    2.250    7.000    0.500 
#    4.500    1.875    0.000    0.000    0.000    0.000 
#    0.000    0.000    0.000    0.000    0.000    0.000 
#
# Total GULP energy -89109.766238 kJ/mol
# GULP energy per Si atom -5569.360390 kJ/mol
# Density = 2.461593 g / cm^3
# Si number density = 24.672089 Si / 1000 Ang^3
#
#
#
# Elastic Constant Matrix: (Units=GPa)
#
#
# Indices 1 2 3 4 5 6 
#
# 1 153.5878 31.7872 51.2951 -22.7212 -29.9041 19.3476
# 2 31.7872 28.3923 14.8249 -16.0348 0.0147 10.8782
# 3 51.2951 14.8249 80.0245 -18.4352 -12.3228 11.4174
# 4 -22.7212 -16.0348 -18.4352 22.8818 2.0619 -3.0407
# 5 -29.9041 0.0147 -12.3228 2.0619 54.4279 -8.3180
# 6 19.3476 10.8782 11.4174 -3.0407 -8.3180 37.4964
#
#
#
# Elastic Compliance Matrix: (Units=1/GPa)
#
#
# Indices 1 2 3 4 5 6 
#
# 1 0.011074 -0.009996 -0.004442 -0.000087 0.005031 -0.000353
# 2 -0.009996 0.076243 0.003628 0.045051 -0.008902 -0.016388
# 3 -0.004442 0.003628 0.018029 0.012181 0.000704 -0.003106
# 4 -0.000087 0.045051 0.012181 0.083805 -0.002066 -0.010396
# 5 0.005031 -0.008902 0.000704 -0.002066 0.022065 0.004499
# 6 -0.000353 -0.016388 -0.003106 -0.010396 0.004499 0.032706
#
#
# Mechanical properties :
#
#
# Convention : Reuss Voigt Hill
#
# Bulk Modulus (GPa) = 11.94337 50.86878 31.40607
# Shear Modulus (GPa) = 17.03863 33.90105 25.46984
#
# Velocity S-wave (km/s) = 2.63078 3.71086 3.21648
# Velocity P-wave (km/s) = 3.75225 6.24687 5.15280
#
# Compressibility (1/GPa) = 0.08372846
#
# Stress axis : x y z
#
# Youngs Moduli (GPa) = 90.29936 13.11591 55.46633
#
# Poissons Ratio (x) = 0.13110 0.24637
# Poissons Ratio (y) = 0.90260 -0.20126
# Poissons Ratio (z) = 0.40109 -0.04759
#
# Static dielectric constant tensor:
#      x y z
#    x 1.982610 0.034100 -0.015960 
#    y 0.034100 2.353930 -0.032790 
#    z -0.015960 -0.032790 1.987380 
# 
# From -- ./inp_files/419906.got.cif
#   From: 2010.05.17/outbox.cif.g08.bks.cpg/sg2_210_cif.got.tgz:419906.got - 2010.06.03 11:33:40.
