data_PCOD9092587
_publ_section_title
;
Structure prediction by ZEFSAII (Michael W. Deem and Ramdas Pophale) SiO2 
 PCOD9092587
Probable space group: P -1
;
_chemical_formula_sum "Si O2"
_cell_formula_units_Z 12
_cell_length_a 6.861677
_cell_length_b 9.432623
_cell_length_c 9.818184
_cell_angle_alpha 74.636153
_cell_angle_beta 72.122742
_cell_angle_gamma 57.268828
_cell_volume 504.853834
_symmetry_space_group_name_H-M "P -1"
_symmetry_group_IT_number 2
_symmetry_cell_setting 'triclinic'
loop_
_space_group_symop_operation_xyz
x,y,z
-x,-y,-z
loop_
_atom_site_type_symbol
_atom_site_label
_atom_site_fract_x
_atom_site_fract_y
_atom_site_fract_z
Si Si1 0.882317 0.922992 0.099556
Si Si2 0.357189 0.608062 0.133102
Si Si3 0.387170 0.925822 0.103274
Si Si4 0.099685 0.155786 0.349861
Si Si5 0.288119 0.910027 0.618228
Si Si6 0.229716 0.386510 0.390149
O O1 0.078261 0.726435 0.123358
O O2 0.732534 0.026234 0.238964
O O3 0.154485 0.803428 0.656800
O O4 0.648903 0.927886 0.056250
O O5 0.466755 0.726232 0.123167
O O6 0.347598 0.492206 0.283493
O O7 0.500000 0.500000 0.000000
O O8 0.280562 0.009531 0.249376
O O9 0.115020 0.976193 0.069481
O O10 0.855477 0.926817 0.488636
O O11 0.144188 0.312322 0.304153
O O12 0.556490 0.785767 0.547189
O O13 0.000000 0.500000 0.500000
#
# Coordination Sequence:
#
# PCOD9092587 Si02
#       6
#     2   2   2   2   2   2
#     4  10  19  41  69  93 130 182 224 270 334 407
#     4  11  23  42  66  99 139 174 218 288 351 393
#     4  11  23  43  72  99 129 184 241 272 330 425
#     4  11  24  44  72 100 131 187 244 268 334 426
#     4  11  23  45  73  96 139 187 234 278 333 428
#     4  12  27  44  67 105 146 178 220 296 363 393
#
# _framework density 23.769257
#
# number of rings (size 3 to 8) (size 9 to 14) (size 15 to 20)
#    0.000    1.000    3.333    5.500    2.333    2.000 
#    3.000    1.667    0.000    0.000    0.000    0.000 
#    0.000    0.000    0.000    0.000    0.000    0.000 
#
# Total GULP energy -66940.789429 kJ/mol
# GULP energy per Si atom -5578.399119 kJ/mol
# Density = 2.371516 g / cm^3
# Si number density = 23.769257 Si / 1000 Ang^3
#
#
#
# Elastic Constant Matrix: (Units=GPa)
#
#
# Indices 1 2 3 4 5 6 
#
# 1 177.7042 55.5529 29.4993 7.1524 -13.4410 21.4892
# 2 55.5529 106.5918 45.9343 22.1683 -0.3720 18.6554
# 3 29.4993 45.9343 105.1203 19.5223 -6.6396 16.1974
# 4 7.1524 22.1683 19.5223 42.2202 -3.2142 -5.1305
# 5 -13.4410 -0.3720 -6.6396 -3.2142 44.4579 0.1683
# 6 21.4892 18.6554 16.1974 -5.1305 0.1683 66.7045
#
#
#
# Elastic Compliance Matrix: (Units=1/GPa)
#
#
# Indices 1 2 3 4 5 6 
#
# 1 0.007037 -0.003502 -0.000279 0.000795 0.002118 -0.001164
# 2 -0.003502 0.014539 -0.004091 -0.005585 -0.001943 -0.002369
# 3 -0.000279 -0.004091 0.012485 -0.003718 0.001485 -0.002087
# 4 0.000795 -0.005585 -0.003718 0.028870 0.001709 0.004425
# 5 0.002118 -0.001943 0.001485 0.001709 0.023464 -0.000428
# 6 -0.001164 -0.002369 -0.002087 0.004425 -0.000428 0.016877
#
#
# Mechanical properties :
#
#
# Convention : Reuss Voigt Hill
#
# Bulk Modulus (GPa) = 54.59242 72.37658 63.48450
# Shear Modulus (GPa) = 39.96099 47.90518 43.93308
#
# Velocity S-wave (km/s) = 4.10470 4.49422 4.30387
# Velocity P-wave (km/s) = 6.74405 7.57934 7.17387
#
# Compressibility (1/GPa) = 0.01831756
#
# Stress axis : x y z
#
# Youngs Moduli (GPa) = 142.09906 68.78140 80.09760
#
# Poissons Ratio (x) = 0.24084 0.02237
# Poissons Ratio (y) = 0.49757 0.32766
# Poissons Ratio (z) = 0.03968 0.28137
#
# Static dielectric constant tensor:
#      x y z
#    x 2.196940 0.014610 -0.053000 
#    y 0.014610 1.850020 -0.089850 
#    z -0.053000 -0.089850 1.833520 
# 
# From -- ./inp_files/373936.got.cif
#   From: 2010.05.17/outbox.cif.g08.bks.cpg/sg2_187_cif.got.tgz:373936.got - 2010.06.03 11:33:40.
