data_PCOD9092565
_publ_section_title
;
Structure prediction by ZEFSAII (Michael W. Deem and Ramdas Pophale) SiO2 
 PCOD9092565
Probable space group: P -1
;
_chemical_formula_sum "Si O2"
_cell_formula_units_Z 14
_cell_length_a 9.373156
_cell_length_b 9.065513
_cell_length_c 12.167478
_cell_angle_alpha 114.564418
_cell_angle_beta 52.436837
_cell_angle_gamma 131.041515
_cell_volume 617.929851
_symmetry_space_group_name_H-M "P -1"
_symmetry_group_IT_number 2
_symmetry_cell_setting 'triclinic'
loop_
_space_group_symop_operation_xyz
x,y,z
-x,-y,-z
loop_
_atom_site_type_symbol
_atom_site_label
_atom_site_fract_x
_atom_site_fract_y
_atom_site_fract_z
Si Si1 0.851163 0.081033 0.561763
Si Si2 0.310517 0.241156 0.627137
Si Si3 0.526187 0.933214 0.142803
Si Si4 0.810594 0.365681 0.169567
Si Si5 0.210256 0.176262 0.893978
Si Si6 0.227960 0.479058 0.554971
Si Si7 0.692704 0.414882 0.025492
O O1 0.673886 0.051177 0.724889
O O2 0.012490 0.314401 0.543507
O O3 0.727934 0.950458 0.473381
O O4 0.000000 0.000000 0.500000
O O5 0.171305 0.174395 0.781926
O O6 0.256993 0.352555 0.595909
O O7 0.563979 0.398189 0.580447
O O8 0.593480 0.848911 0.183959
O O9 0.735662 0.152443 0.096848
O O10 0.467840 0.786864 0.023516
O O11 0.772946 0.366210 0.316599
O O12 0.667885 0.404022 0.165973
O O13 0.063619 0.530919 0.088866
O O14 0.287881 0.392019 0.966027
O O15 0.000000 0.000000 0.000000
#
# Coordination Sequence:
#
# PCOD9092565 Si02
#       7
#     2   2   2   2   2   2   2
#     4  10  22  39  68 101 127 164 222 284 331 390
#     4  10  22  42  67  93 133 174 218 276 339 386
#     4  12  24  43  67 100 137 179 224 272 339 402
#     4  11  21  40  71  97 132 173 229 282 331 384
#     4  12  26  47  65  95 144 186 218 269 338 410
#     4  10  19  41  68  97 127 167 225 281 332 383
#     4  11  24  43  66  98 137 181 227 274 329 396
#
# _framework density 22.656293999999999
#
# number of rings (size 3 to 8) (size 9 to 14) (size 15 to 20)
#    0.000    1.143    5.714    0.857    0.000    0.571 
#   10.286    0.714    0.000    0.000    0.000    0.000 
#    0.000    0.000    0.000    0.000    0.000    0.000 
#
# Total GULP energy -78076.053566 kJ/mol
# GULP energy per Si atom -5576.860969 kJ/mol
# Density = 2.260473 g / cm^3
# Si number density = 22.656294 Si / 1000 Ang^3
#
#
#
# Elastic Constant Matrix: (Units=GPa)
#
#
# Indices 1 2 3 4 5 6 
#
# 1 40.9830 18.4982 1.5475 1.3775 -8.5705 -5.9853
# 2 18.4982 151.9836 36.4144 16.4372 17.1088 23.3442
# 3 1.5475 36.4144 87.9724 1.0840 1.1597 2.6428
# 4 1.3775 16.4372 1.0840 37.9271 1.6872 2.8824
# 5 -8.5705 17.1088 1.1597 1.6872 22.0904 1.8614
# 6 -5.9853 23.3442 2.6428 2.8824 1.8614 36.6014
#
#
#
# Elastic Compliance Matrix: (Units=1/GPa)
#
#
# Indices 1 2 3 4 5 6 
#
# 1 0.033173 -0.008168 0.002263 0.000739 0.018221 0.009486
# 2 -0.008168 0.011289 -0.004121 -0.003433 -0.010808 -0.007418
# 3 0.002263 -0.004121 0.012924 0.001056 0.003157 0.001822
# 4 0.000739 -0.003433 0.001056 0.027762 0.000769 0.000009
# 5 0.018221 -0.010808 0.003157 0.000769 0.059933 0.006536
# 6 0.009486 -0.007418 0.001822 0.000009 0.006536 0.033139
#
#
# Mechanical properties :
#
#
# Convention : Reuss Voigt Hill
#
# Bulk Modulus (GPa) = 26.78600 43.76215 35.27407
# Shear Modulus (GPa) = 23.72861 34.28905 29.00883
#
# Velocity S-wave (km/s) = 3.23976 3.89452 3.58213
# Velocity P-wave (km/s) = 5.08361 6.29132 5.71943
#
# Compressibility (1/GPa) = 0.03733294
#
# Stress axis : x y z
#
# Youngs Moduli (GPa) = 30.14545 88.58518 77.37547
#
# Poissons Ratio (x) = 0.72354 -0.17511
# Poissons Ratio (y) = 0.24622 0.31889
# Poissons Ratio (z) = -0.06822 0.36509
#
# Static dielectric constant tensor:
#      x y z
#    x 1.905140 -0.042670 -0.018710 
#    y -0.042670 1.866270 0.032020 
#    z -0.018710 0.032020 1.910440 
# 
# From -- ./inp_files/294333.got.cif
#   From: 2010.05.17/outbox.cif.g08.bks.cpg/sg2_148_cif.got.tgz:294333.got - 2010.06.03 11:33:40.
