data_PCOD9092289
_publ_section_title
;
Structure prediction by ZEFSAII (Michael W. Deem and Ramdas Pophale) SiO2 
 PCOD9092289
Probable space group: P -1
;
_chemical_formula_sum "Si O2"
_cell_formula_units_Z 16
_cell_length_a 13.448336
_cell_length_b 20.687273
_cell_length_c 8.999186
_cell_angle_alpha 32.778883
_cell_angle_beta 131.661268
_cell_angle_gamma 144.186961
_cell_volume 791.993225
_symmetry_space_group_name_H-M "P -1"
_symmetry_group_IT_number 2
_symmetry_cell_setting 'triclinic'
loop_
_space_group_symop_operation_xyz
x,y,z
-x,-y,-z
loop_
_atom_site_type_symbol
_atom_site_label
_atom_site_fract_x
_atom_site_fract_y
_atom_site_fract_z
Si Si1 0.603269 0.211681 0.421937
Si Si2 0.285736 0.178744 0.598511
Si Si3 0.305491 0.918589 0.014844
Si Si4 0.353138 0.271701 0.154130
Si Si5 0.741624 0.126312 0.276613
Si Si6 0.049726 0.967698 0.266216
Si Si7 0.423868 0.526363 0.515708
Si Si8 0.801596 0.400877 0.960636
O O1 0.729612 0.206039 0.662453
O O2 0.513491 0.271129 0.302993
O O3 0.445635 0.034330 0.569602
O O4 0.694744 0.313122 0.172702
O O5 0.304750 0.253225 0.313835
O O6 0.439084 0.302019 0.619992
O O7 0.112595 0.119812 0.619657
O O8 0.288743 0.038719 0.839077
O O9 0.211656 0.865140 0.867185
O O10 0.500000 0.000000 0.000000
O O11 0.201213 0.123452 0.198208
O O12 0.391689 0.415139 0.830690
O O13 0.876216 0.123376 0.507879
O O14 0.749933 0.268215 0.051199
O O15 0.000000 0.000000 0.000000
O O16 0.500000 0.500000 0.500000
O O17 0.256591 0.504183 0.342869
O O18 0.000000 0.500000 0.000000
#
# Coordination Sequence:
#
# PCOD9092289 Si02
#       8
#     2   2   2   2   2   2   2   2
#     4  10  21  42  71  95 131 170 228 276 335 395
#     4  12  24  42  73  98 131 182 223 279 337 402
#     4  10  19  40  69  99 125 165 228 281 327 395
#     4  11  23  44  67 100 134 178 226 277 334 404
#     4  10  23  43  68  96 134 170 226 279 333 400
#     4  11  25  40  68 103 137 169 227 284 338 388
#     4  12  26  45  68  94 141 184 224 271 341 411
#     4  12  28  44  65 100 136 181 222 276 344 397
#
# _framework density 20.202193000000001
#
# number of rings (size 3 to 8) (size 9 to 14) (size 15 to 20)
#    0.000    1.000    5.000    3.375    7.000    0.000 
#    0.000    0.625    0.000    0.000    0.000    0.000 
#    0.000    0.000    0.000    0.000    0.000    0.000 
#
# Total GULP energy -89446.437458 kJ/mol
# GULP energy per Si atom -5590.402341 kJ/mol
# Density = 2.015621 g / cm^3
# Si number density = 20.202193 Si / 1000 Ang^3
#
#
#
# Elastic Constant Matrix: (Units=GPa)
#
#
# Indices 1 2 3 4 5 6 
#
# 1 91.3764 21.5274 41.4730 3.6920 -11.9997 0.9838
# 2 21.5274 50.4636 19.7148 13.3267 -5.5861 4.4574
# 3 41.4730 19.7148 135.5475 25.6330 1.6958 3.2667
# 4 3.6920 13.3267 25.6330 33.5465 1.1340 -2.6697
# 5 -11.9997 -5.5861 1.6958 1.1340 28.5299 10.2068
# 6 0.9838 4.4574 3.2667 -2.6697 10.2068 28.4565
#
#
#
# Elastic Compliance Matrix: (Units=1/GPa)
#
#
# Indices 1 2 3 4 5 6 
#
# 1 0.014731 -0.004695 -0.004520 0.003423 0.005768 -0.001003
# 2 -0.004695 0.025948 -0.000291 -0.010331 0.006039 -0.007004
# 3 -0.004520 -0.000291 0.010211 -0.007200 -0.001938 -0.000951
# 4 0.003423 -0.010331 -0.007200 0.039800 -0.004480 0.007667
# 5 0.005768 0.006039 -0.001938 -0.004480 0.045238 -0.017569
# 6 -0.001003 -0.007004 -0.000951 0.007667 -0.017569 0.043403
#
#
# Mechanical properties :
#
#
# Convention : Reuss Voigt Hill
#
# Bulk Modulus (GPa) = 31.36784 49.20200 40.28492
# Shear Modulus (GPa) = 23.92692 31.08473 27.50583
#
# Velocity S-wave (km/s) = 3.44520 3.92686 3.69389
# Velocity P-wave (km/s) = 5.60237 6.70581 6.17877
#
# Compressibility (1/GPa) = 0.03187979
#
# Stress axis : x y z
#
# Youngs Moduli (GPa) = 67.88327 38.53822 97.93096
#
# Poissons Ratio (x) = 0.18095 0.44261
# Poissons Ratio (y) = 0.31874 0.02845
# Poissons Ratio (z) = 0.30680 0.01120
#
# Static dielectric constant tensor:
#      x y z
#    x 1.691970 -0.012770 0.000520 
#    y -0.012770 1.735830 0.013200 
#    z 0.000520 0.013200 1.738870 
# 
# From -- ./inp_files/282658.got.cif
#   From: 2010.05.17/outbox.cif.g08.bks.cpg/sg2_142_cif.got.tgz:282658.got - 2010.06.03 11:33:40.
