data_PCOD9092796
_publ_section_title
;
Structure prediction by ZEFSAII (Michael W. Deem and Ramdas Pophale) SiO2 
 PCOD9092796
Probable space group: P -1
;
_chemical_formula_sum "Si O2"
_cell_formula_units_Z 14
_cell_length_a 10.613609
_cell_length_b 5.115725
_cell_length_c 24.351291
_cell_angle_alpha 60.613697
_cell_angle_beta 28.225036
_cell_angle_gamma 67.428803
_cell_volume 541.061152
_symmetry_space_group_name_H-M "P -1"
_symmetry_group_IT_number 2
_symmetry_cell_setting 'triclinic'
loop_
_space_group_symop_operation_xyz
x,y,z
-x,-y,-z
loop_
_atom_site_type_symbol
_atom_site_label
_atom_site_fract_x
_atom_site_fract_y
_atom_site_fract_z
Si Si1 0.677942 0.245259 0.978427
Si Si2 0.232264 0.628874 0.713505
Si Si3 0.276250 0.782860 0.798796
Si Si4 0.245516 0.319007 0.439816
Si Si5 0.336978 0.685626 0.185021
Si Si6 0.032129 0.879635 0.658797
Si Si7 0.222099 0.710337 0.937474
O O1 0.681337 0.195987 0.048495
O O2 0.530563 0.923053 0.050106
O O3 0.500000 0.500000 0.000000
O O4 0.981735 0.370142 0.834518
O O5 0.192895 0.837575 0.761115
O O6 0.517523 0.511133 0.629592
O O7 0.227535 0.815185 0.640248
O O8 0.588156 0.756330 0.669909
O O9 0.231715 0.941502 0.858582
O O10 0.062012 0.486134 0.923459
O O11 0.000000 0.500000 0.500000
O O12 0.154100 0.020539 0.541171
O O13 0.554137 0.496028 0.147675
O O14 0.138251 0.439705 0.254972
O O15 0.155964 0.877529 0.271653
#
# Coordination Sequence:
#
# PCOD9092796 Si02
#       7
#     2   2   2   2   2   2   2
#     4  11  21  43  72 114 154 194 254 316 390 454
#     4   9  21  44  73 114 152 202 259 318 387 453
#     4   8  20  40  71 103 150 194 255 309 388 444
#     4  10  22  46  79 110 155 207 265 316 379 464
#     4  12  25  44  78 114 155 201 251 319 395 454
#     4  12  25  47  77 112 161 201 257 317 383 462
#     4  10  19  42  70 107 150 194 246 322 380 455
#
# _framework density 25.875081000000002
#
# number of rings (size 3 to 8) (size 9 to 14) (size 15 to 20)
#    0.857    0.857    2.857    1.286    0.000    2.286 
#    0.000   16.429    0.000    0.000    0.000    0.000 
#    0.000    0.000    0.000    0.000    0.000    0.000 
#
# Total GULP energy -78104.814888 kJ/mol
# GULP energy per Si atom -5578.915349 kJ/mol
# Density = 2.581619 g / cm^3
# Si number density = 25.875081 Si / 1000 Ang^3
#
#
#
# Elastic Constant Matrix: (Units=GPa)
#
#
# Indices 1 2 3 4 5 6 
#
# 1 173.2495 51.3119 108.5761 -8.4886 26.0016 -22.5102
# 2 51.3119 109.3363 42.3017 2.0914 -5.4314 -4.2042
# 3 108.5761 42.3017 147.4886 -6.3467 -3.9105 -10.2062
# 4 -8.4886 2.0914 -6.3467 34.9500 -3.5254 -0.3692
# 5 26.0016 -5.4314 -3.9105 -3.5254 52.7320 4.4354
# 6 -22.5102 -4.2042 -10.2062 -0.3692 4.4354 39.3901
#
#
#
# Elastic Compliance Matrix: (Units=1/GPa)
#
#
# Indices 1 2 3 4 5 6 
#
# 1 0.015529 -0.003594 -0.010112 0.001288 -0.009274 0.006927
# 2 -0.003594 0.011200 -0.000643 -0.001382 0.002901 -0.001365
# 3 -0.010112 -0.000643 0.014415 0.000804 0.006279 -0.002812
# 4 0.001288 -0.001382 0.000804 0.029281 0.001161 0.000941
# 5 -0.009274 0.002901 0.006279 0.001161 0.024896 -0.006156
# 6 0.006927 -0.001365 -0.002812 0.000941 -0.006156 0.029173
#
#
# Mechanical properties :
#
#
# Convention : Reuss Voigt Hill
#
# Bulk Modulus (GPa) = 80.35508 92.71709 86.53609
# Shear Modulus (GPa) = 31.77811 40.60674 36.19242
#
# Velocity S-wave (km/s) = 3.50828 3.96578 3.74403
# Velocity P-wave (km/s) = 6.89443 7.54190 7.22542
#
# Compressibility (1/GPa) = 0.01244476
#
# Stress axis : x y z
#
# Youngs Moduli (GPa) = 64.39732 89.28693 69.37142
#
# Poissons Ratio (x) = 0.32093 0.70147
# Poissons Ratio (y) = 0.23147 0.04462
# Poissons Ratio (z) = 0.65117 0.05743
#
# Static dielectric constant tensor:
#      x y z
#    x 2.215340 -0.062270 0.004390 
#    y -0.062270 2.223890 0.004760 
#    z 0.004390 0.004760 2.019920 
# 
# From -- ./inp_files/617821.got.cif
#   From: 2010.05.17/outbox.cif.g08.bks.cpg/sg2_309_cif.got.tgz:617821.got - 2010.06.03 11:33:40.
