data_PCOD9092292
_publ_section_title
;
Structure prediction by ZEFSAII (Michael W. Deem and Ramdas Pophale) SiO2 
 PCOD9092292
Probable space group: P -1
;
_chemical_formula_sum "Si O2"
_cell_formula_units_Z 14
_cell_length_a 11.700521
_cell_length_b 12.544681
_cell_length_c 8.934038
_cell_angle_alpha 61.405002
_cell_angle_beta 52.568895
_cell_angle_gamma 37.644914
_cell_volume 635.986466
_symmetry_space_group_name_H-M "P -1"
_symmetry_group_IT_number 2
_symmetry_cell_setting 'triclinic'
loop_
_space_group_symop_operation_xyz
x,y,z
-x,-y,-z
loop_
_atom_site_type_symbol
_atom_site_label
_atom_site_fract_x
_atom_site_fract_y
_atom_site_fract_z
Si Si1 0.647687 0.998172 0.282052
Si Si2 0.227890 0.866887 0.480039
Si Si3 0.998700 0.150772 0.695561
Si Si4 0.273255 0.146211 0.015761
Si Si5 0.137085 0.670079 0.628361
Si Si6 0.366152 0.344851 0.854558
Si Si7 0.443502 0.674740 0.982888
O O1 0.500000 0.000000 0.500000
O O2 0.878182 0.860798 0.262664
O O3 0.686086 0.912117 0.149020
O O4 0.558677 0.192158 0.195304
O O5 0.279565 0.695022 0.551975
O O6 0.403458 0.824671 0.274486
O O7 0.182348 0.956474 0.611717
O O8 0.000000 0.000000 0.500000
O O9 0.918652 0.284154 0.533147
O O10 0.799060 0.194034 0.870032
O O11 0.226237 0.311383 0.997982
O O12 0.078156 0.192033 0.202855
O O13 0.500000 0.000000 0.000000
O O14 0.261354 0.480636 0.712130
O O15 0.410840 0.386608 0.946884
O O16 0.500000 0.500000 0.000000
#
# Coordination Sequence:
#
# PCOD9092292 Si02
#       7
#     2   2   2   2   2   2   2
#     4  12  27  49  73 104 146 197 242 296 360 434
#     4  10  19  40  69  99 133 183 240 290 339 427
#     4  11  25  45  72 107 142 190 246 295 360 434
#     4  12  24  46  73 100 139 194 249 291 350 440
#     4  11  24  41  70 108 142 182 240 303 363 426
#     4  12  24  43  71 106 146 186 240 300 367 419
#     4  12  28  46  72 109 152 189 236 306 368 428
#
# _framework density 22.013045999999999
#
# number of rings (size 3 to 8) (size 9 to 14) (size 15 to 20)
#    0.000    0.571    4.286    5.571    4.000    1.143 
#    0.000    1.429    0.000    0.000    0.000    0.000 
#    0.000    0.000    0.000    0.000    0.000    0.000 
#
# Total GULP energy -77946.321348 kJ/mol
# GULP energy per Si atom -5567.594382 kJ/mol
# Density = 2.196294 g / cm^3
# Si number density = 22.013046 Si / 1000 Ang^3
#
#
#
# Elastic Constant Matrix: (Units=GPa)
#
#
# Indices 1 2 3 4 5 6 
#
# 1 158.8496 35.9455 63.0841 -14.1269 21.2238 6.2478
# 2 35.9455 72.4843 20.0228 -12.4778 -2.7852 -4.2787
# 3 63.0841 20.0228 126.1085 -6.8790 -16.9482 -1.8712
# 4 -14.1269 -12.4778 -6.8790 36.8506 3.4334 -1.4743
# 5 21.2238 -2.7852 -16.9482 3.4334 42.4025 -0.7324
# 6 6.2478 -4.2787 -1.8712 -1.4743 -0.7324 38.9446
#
#
#
# Elastic Compliance Matrix: (Units=1/GPa)
#
#
# Indices 1 2 3 4 5 6 
#
# 1 0.010927 -0.003839 -0.005877 0.002466 -0.008314 -0.002520
# 2 -0.003839 0.016680 -0.000108 0.004011 0.002695 0.002646
# 3 -0.005877 -0.000108 0.011917 -0.000725 0.007784 0.001623
# 4 0.002466 0.004011 -0.000725 0.029687 -0.003646 0.001066
# 5 -0.008314 0.002695 0.007784 -0.003646 0.031371 0.002456
# 6 -0.002520 0.002646 0.001623 0.001066 0.002456 0.026537
#
#
# Mechanical properties :
#
#
# Convention : Reuss Voigt Hill
#
# Bulk Modulus (GPa) = 50.30907 66.17193 58.24050
# Shear Modulus (GPa) = 32.59629 39.53218 36.06423
#
# Velocity S-wave (km/s) = 3.85225 4.24235 4.05200
# Velocity P-wave (km/s) = 6.53378 7.35678 6.95746
#
# Compressibility (1/GPa) = 0.01987713
#
# Stress axis : x y z
#
# Youngs Moduli (GPa) = 91.51604 59.95253 83.91206
#
# Poissons Ratio (x) = 0.23017 0.49313
# Poissons Ratio (y) = 0.35135 0.00903
# Poissons Ratio (z) = 0.53782 0.00645
#
# Static dielectric constant tensor:
#      x y z
#    x 1.827990 0.084950 0.016260 
#    y 0.084950 1.996520 -0.097330 
#    z 0.016260 -0.097330 1.852600 
# 
# From -- ./inp_files/191151.got.cif
#   From: 2010.05.17/outbox.cif.g08.bks.cpg/sg2_96_cif.got.tgz:191151.got - 2010.06.03 11:33:40.
