data_PCOD9092910
_publ_section_title
;
Structure prediction by ZEFSAII (Michael W. Deem and Ramdas Pophale) SiO2 
 PCOD9092910
Probable space group: P -1
;
_chemical_formula_sum "Si O2"
_cell_formula_units_Z 16
_cell_length_a 15.387171
_cell_length_b 16.740174
_cell_length_c 5.459426
_cell_angle_alpha 103.720940
_cell_angle_beta 96.683468
_cell_angle_gamma 146.512338
_cell_volume 610.686359
_symmetry_space_group_name_H-M "P -1"
_symmetry_group_IT_number 2
_symmetry_cell_setting 'triclinic'
loop_
_space_group_symop_operation_xyz
x,y,z
-x,-y,-z
loop_
_atom_site_type_symbol
_atom_site_label
_atom_site_fract_x
_atom_site_fract_y
_atom_site_fract_z
Si Si1 0.157237 0.377901 0.246389
Si Si2 0.861459 0.487042 0.330445
Si Si3 0.545040 0.641967 0.790034
Si Si4 0.721683 0.009225 0.888371
Si Si5 0.530225 0.785220 0.167932
Si Si6 0.812401 0.733533 0.166947
Si Si7 0.730347 0.191245 0.167064
Si Si8 0.163420 0.114381 0.333900
O O1 0.165458 0.480770 0.404360
O O2 0.324852 0.476029 0.530795
O O3 0.187844 0.361842 0.977633
O O4 0.944732 0.168382 0.106006
O O5 0.798016 0.338834 0.221426
O O6 0.093181 0.684879 0.494431
O O7 0.700053 0.390007 0.030400
O O8 0.664264 0.775928 0.693838
O O9 0.578788 0.730262 0.096389
O O10 0.647034 0.640902 0.879942
O O11 0.622770 0.894479 0.526308
O O12 0.739990 0.122931 0.936644
O O13 0.610868 0.897433 0.026665
O O14 0.772760 0.747617 0.415646
O O15 0.034013 0.948658 0.345995
O O16 0.500000 0.000000 0.000000
O O17 0.000000 0.000000 0.000000
#
# Coordination Sequence:
#
# PCOD9092910 Si02
#       8
#     2   2   2   2   2   2   2   2
#     4  10  22  41  61  96 141 174 238 288 352 417
#     4   9  21  42  69 109 140 183 234 292 349 430
#     4  10  22  39  60  91 132 179 226 296 342 414
#     4  11  25  44  72 104 136 190 227 292 355 424
#     4  11  24  44  70 102 145 180 240 287 350 413
#     4  10  20  37  62  89 122 183 233 286 349 413
#     4  10  19  43  77 104 144 183 232 285 362 425
#     4   9  20  35  59  88 121 170 233 289 345 409
#
# _framework density 26.200026999999999
#
# number of rings (size 3 to 8) (size 9 to 14) (size 15 to 20)
#    0.000    2.000    1.250    1.125    7.000    1.000 
#    2.250    8.125    0.000    0.000    0.000    0.000 
#    0.000    0.000    0.000    0.000    0.000    0.000 
#
# Total GULP energy -89333.811801 kJ/mol
# GULP energy per Si atom -5583.363238 kJ/mol
# Density = 2.614040 g / cm^3
# Si number density = 26.200027 Si / 1000 Ang^3
#
#
#
# Elastic Constant Matrix: (Units=GPa)
#
#
# Indices 1 2 3 4 5 6 
#
# 1 144.0117 41.5043 44.1319 20.0144 -3.8516 1.7951
# 2 41.5043 128.1745 67.5300 23.3454 17.0793 16.7051
# 3 44.1319 67.5300 165.7344 21.7652 2.7946 28.1977
# 4 20.0144 23.3454 21.7652 45.0636 20.8627 15.9229
# 5 -3.8516 17.0793 2.7946 20.8627 47.4995 26.7586
# 6 1.7951 16.7051 28.1977 15.9229 26.7586 34.2804
#
#
#
# Elastic Compliance Matrix: (Units=1/GPa)
#
#
# Indices 1 2 3 4 5 6 
#
# 1 0.008435 -0.001864 -0.001300 -0.003714 0.002186 0.001555
# 2 -0.001864 0.011211 -0.004182 -0.001709 -0.004548 0.002418
# 3 -0.001300 -0.004182 0.010217 -0.001824 0.008334 -0.011956
# 4 -0.003714 -0.001709 -0.001824 0.032256 -0.012013 -0.003077
# 5 0.002186 -0.004548 0.008334 -0.012013 0.048523 -0.037050
# 6 0.001555 0.002418 -0.011956 -0.003077 -0.037050 0.068096
#
#
# Mechanical properties :
#
#
# Convention : Reuss Voigt Hill
#
# Bulk Modulus (GPa) = 65.91537 82.69478 74.30508
# Shear Modulus (GPa) = 25.19064 44.35232 34.77148
#
# Velocity S-wave (km/s) = 3.10413 4.11887 3.64697
# Velocity P-wave (km/s) = 6.16933 7.36556 6.79383
#
# Compressibility (1/GPa) = 0.01517097
#
# Stress axis : x y z
#
# Youngs Moduli (GPa) = 118.55776 89.19994 97.87370
#
# Poissons Ratio (x) = 0.16623 0.12727
# Poissons Ratio (y) = 0.22095 0.40930
# Poissons Ratio (z) = 0.15416 0.37303
#
# Static dielectric constant tensor:
#      x y z
#    x 2.089550 -0.031580 0.017930 
#    y -0.031580 2.181190 -0.019670 
#    z 0.017930 -0.019670 2.098170 
# 
# From -- ./inp_files/112264.got.cif
#   From: 2010.05.17/outbox.cif.g08.bks.cpg/sg2_57_cif.got.tgz:112264.got - 2010.06.03 11:33:40.
