data_PCOD9092212
_publ_section_title
;
Structure prediction by ZEFSAII (Michael W. Deem and Ramdas Pophale) SiO2 
 PCOD9092212
Probable space group: P -1
;
_chemical_formula_sum "Si O2"
_cell_formula_units_Z 15
_cell_length_a 13.246400
_cell_length_b 11.572033
_cell_length_c 22.107997
_cell_angle_alpha 29.236200
_cell_angle_beta 159.368725
_cell_angle_gamma 143.456859
_cell_volume 581.474084
_symmetry_space_group_name_H-M "P -1"
_symmetry_group_IT_number 2
_symmetry_cell_setting 'triclinic'
loop_
_space_group_symop_operation_xyz
x,y,z
-x,-y,-z
loop_
_atom_site_type_symbol
_atom_site_label
_atom_site_fract_x
_atom_site_fract_y
_atom_site_fract_z
Si Si1 0.790827 0.789645 0.184844
Si Si2 0.222809 0.346263 0.090043
Si Si3 0.500000 0.000000 0.500000
Si Si4 0.411227 0.637030 0.948382
Si Si5 0.189888 0.320644 0.446343
Si Si6 0.801770 0.179322 0.846419
Si Si7 0.264268 0.764877 0.994022
Si Si8 0.307363 0.527969 0.549753
O O1 0.507378 0.802195 0.062163
O O2 0.019329 0.565765 0.412380
O O3 0.653449 0.793699 0.039232
O O4 0.939386 0.015195 0.194349
O O5 0.090831 0.570778 0.952483
O O6 0.442581 0.208283 0.321179
O O7 0.367768 0.446489 0.065186
O O8 0.967120 0.196215 0.994190
O O9 0.425635 0.787887 0.502925
O O10 0.106249 0.774234 0.699244
O O11 0.500000 0.500000 0.000000
O O12 0.467440 0.139955 0.675769
O O13 0.200184 0.554176 0.303309
O O14 0.212086 0.430468 0.475988
O O15 0.000000 0.000000 0.000000
O O16 0.460998 0.662774 0.205284
#
# Coordination Sequence:
#
# PCOD9092212 Si02
#       8
#     2   2   1   2   2   2   2   2
#     4  10  20  39  64  87 128 173 213 266 329 385
#     4   9  20  39  65  94 130 171 218 278 328 394
#     4  10  22  38  60  98 126 174 224 266 332 396
#     4  10  19  40  67  97 132 171 221 277 332 395
#     4  10  22  38  61  94 128 168 214 271 325 394
#     4  10  21  40  63  91 130 171 215 266 331 392
#     4   9  21  38  59  92 122 167 221 265 321 389
#     4  11  21  37  60  90 129 164 217 268 321 393
#
# _framework density 25.796506000000001
#
# number of rings (size 3 to 8) (size 9 to 14) (size 15 to 20)
#    0.000    2.133    1.333    1.200    0.000    3.200 
#    0.000   18.000    0.000    0.000    0.000    0.000 
#    0.000    0.000    0.000    0.000    0.000    0.000 
#
# Total GULP energy -83635.313289 kJ/mol
# GULP energy per Si atom -5575.687553 kJ/mol
# Density = 2.573779 g / cm^3
# Si number density = 25.796506 Si / 1000 Ang^3
#
#
#
# Elastic Constant Matrix: (Units=GPa)
#
#
# Indices 1 2 3 4 5 6 
#
# 1 117.5733 33.5510 46.9817 2.3196 -2.6359 -18.7028
# 2 33.5510 104.8945 10.5661 17.2286 0.9406 -22.1804
# 3 46.9817 10.5661 134.2012 4.2502 13.0147 -17.9347
# 4 2.3196 17.2286 4.2502 33.1893 -10.3623 -8.7922
# 5 -2.6359 0.9406 13.0147 -10.3623 51.3171 -2.8910
# 6 -18.7028 -22.1804 -17.9347 -8.7922 -2.8910 42.2062
#
#
#
# Elastic Compliance Matrix: (Units=1/GPa)
#
#
# Indices 1 2 3 4 5 6 
#
# 1 0.011268 -0.003172 -0.003666 0.002688 0.002249 0.002482
# 2 -0.003172 0.012275 0.001035 -0.005656 -0.001556 0.004200
# 3 -0.003666 0.001035 0.009287 -0.001725 -0.002781 0.002316
# 4 0.002688 -0.005656 -0.001725 0.037315 0.008543 0.005844
# 5 0.002249 -0.001556 -0.002781 0.008543 0.022190 0.002297
# 6 0.002482 0.004200 0.002316 0.005844 0.002297 0.029360
#
#
# Mechanical properties :
#
#
# Convention : Reuss Voigt Hill
#
# Bulk Modulus (GPa) = 47.11609 59.87405 53.49507
# Shear Modulus (GPa) = 35.61890 43.04720 39.33305
#
# Velocity S-wave (km/s) = 3.71990 4.08943 3.90903
# Velocity P-wave (km/s) = 6.06254 6.74970 6.41533
#
# Compressibility (1/GPa) = 0.02122417
#
# Stress axis : x y z
#
# Youngs Moduli (GPa) = 88.74878 81.46905 107.67311
#
# Poissons Ratio (x) = 0.25838 0.39478
# Poissons Ratio (y) = 0.28147 -0.11146
# Poissons Ratio (z) = 0.32540 -0.08434
#
# Static dielectric constant tensor:
#      x y z
#    x 2.098780 0.270010 0.128880 
#    y 0.270010 2.815290 0.537310 
#    z 0.128880 0.537310 2.442900 
# 
# From -- ./inp_files/611942.got.cif
#   From: 2010.05.17/outbox.cif.g08.bks.cpg/sg2_306_cif.got.tgz:611942.got - 2010.06.03 11:33:40.
