data_PCOD9092059
_publ_section_title
;
Structure prediction by ZEFSAII (Michael W. Deem and Ramdas Pophale) SiO2 
 PCOD9092059
Probable space group: P -1
;
_chemical_formula_sum "Si O2"
_cell_formula_units_Z 16
_cell_length_a 5.545649
_cell_length_b 8.651452
_cell_length_c 15.013465
_cell_angle_alpha 67.187779
_cell_angle_beta 107.742329
_cell_angle_gamma 83.118132
_cell_volume 608.716323
_symmetry_space_group_name_H-M "P -1"
_symmetry_group_IT_number 2
_symmetry_cell_setting 'triclinic'
loop_
_space_group_symop_operation_xyz
x,y,z
-x,-y,-z
loop_
_atom_site_type_symbol
_atom_site_label
_atom_site_fract_x
_atom_site_fract_y
_atom_site_fract_z
Si Si1 0.934777 0.486271 0.308721
Si Si2 0.901115 0.953967 0.404447
Si Si3 0.324433 0.143425 0.853536
Si Si4 0.316003 0.698133 0.815671
Si Si5 0.774861 0.181428 0.020166
Si Si6 0.493079 0.499081 0.392017
Si Si7 0.642407 0.130280 0.658248
Si Si8 0.728315 0.832979 0.863400
O O1 0.857865 0.695949 0.254523
O O2 0.817454 0.432985 0.216740
O O3 0.765541 0.432637 0.382528
O O4 0.250879 0.419479 0.359438
O O5 0.652224 0.873375 0.403030
O O6 0.160812 0.850799 0.402623
O O7 0.786129 0.129566 0.295244
O O8 0.000000 0.000000 0.500000
O O9 0.161351 0.028593 0.911747
O O10 0.500048 0.987996 0.847657
O O11 0.528692 0.212794 0.920926
O O12 0.280130 0.720682 0.912484
O O13 0.630142 0.672649 0.852232
O O14 0.050778 0.220382 0.024715
O O15 0.500000 0.500000 0.500000
O O16 0.400809 0.707339 0.316089
O O17 0.781883 0.944095 0.760657
#
# Coordination Sequence:
#
# PCOD9092059 Si02
#       8
#     2   2   2   2   2   2   2   2
#     4  12  27  46  67  99 139 174 222 273 345 395
#     4  11  24  39  66  94 128 171 220 276 326 395
#     4  10  22  39  68 102 126 179 220 280 324 401
#     4  10  25  39  62  95 134 175 216 275 334 394
#     4  10  20  41  69  96 133 169 233 268 334 387
#     4  12  28  45  71  95 134 178 224 279 332 402
#     4  11  22  41  67  93 126 168 225 270 326 379
#     4  10  19  40  65  94 131 170 224 270 330 383
#
# _framework density 26.28482
#
# number of rings (size 3 to 8) (size 9 to 14) (size 15 to 20)
#    0.000    1.250    2.500    2.625    7.000    0.500 
#    0.000    0.625    0.000    0.000    0.000    0.000 
#    0.000    0.000    0.000    0.000    0.000    0.000 
#
# Total GULP energy -89351.302246 kJ/mol
# GULP energy per Si atom -5584.456390 kJ/mol
# Density = 2.622499 g / cm^3
# Si number density = 26.284820 Si / 1000 Ang^3
#
#
#
# Elastic Constant Matrix: (Units=GPa)
#
#
# Indices 1 2 3 4 5 6 
#
# 1 145.0460 25.9203 33.3599 26.7050 27.9539 28.2481
# 2 25.9203 55.4371 15.0533 22.1436 10.9359 12.8223
# 3 33.3599 15.0533 83.4959 39.8846 12.2536 12.3410
# 4 26.7050 22.1436 39.8846 56.6648 12.0974 11.0823
# 5 27.9539 10.9359 12.2536 12.0974 36.2378 22.2654
# 6 28.2481 12.8223 12.3410 11.0823 22.2654 27.9214
#
#
#
# Elastic Compliance Matrix: (Units=1/GPa)
#
#
# Indices 1 2 3 4 5 6 
#
# 1 0.009329 -0.001778 -0.001850 -0.000804 -0.002288 -0.005660
# 2 -0.001778 0.023117 0.001197 -0.007871 0.000865 -0.006912
# 3 -0.001850 0.001197 0.018707 -0.012379 0.000239 -0.002223
# 4 -0.000804 -0.007871 -0.012379 0.030427 -0.003212 0.000385
# 5 -0.002288 0.000865 0.000239 -0.003212 0.055279 -0.040995
# 6 -0.005660 -0.006912 -0.002223 0.000385 -0.040995 0.078236
#
#
# Mechanical properties :
#
#
# Convention : Reuss Voigt Hill
#
# Bulk Modulus (GPa) = 21.60239 48.07177 34.83708
# Shear Modulus (GPa) = 21.24167 38.14116 29.69141
#
# Velocity S-wave (km/s) = 2.84585 3.81343 3.36460
# Velocity P-wave (km/s) = 4.36290 6.14151 5.32696
#
# Compressibility (1/GPa) = 0.04629117
#
# Stress axis : x y z
#
# Youngs Moduli (GPa) = 107.19317 43.25870 53.45582
#
# Poissons Ratio (x) = 0.07690 0.09891
# Poissons Ratio (y) = 0.19056 -0.06401
# Poissons Ratio (z) = 0.19835 -0.05180
#
# Static dielectric constant tensor:
#      x y z
#    x 2.360070 0.040790 -0.098990 
#    y 0.040790 2.070040 -0.040550 
#    z -0.098990 -0.040550 2.112460 
# 
# From -- ./inp_files/48267.got.cif
#   From: 2010.05.17/outbox.cif.g08.bks.cpg/sg2_25_cif.got.tgz:48267.got - 2010.06.03 11:33:40.
