data_PCOD9092772
_publ_section_title
;
Structure prediction by ZEFSAII (Michael W. Deem and Ramdas Pophale) SiO2 
 PCOD9092772
Probable space group: P -1
;
_chemical_formula_sum "Si O2"
_cell_formula_units_Z 12
_cell_length_a 10.997295
_cell_length_b 18.538034
_cell_length_c 7.738773
_cell_angle_alpha 139.190114
_cell_angle_beta 46.109010
_cell_angle_gamma 152.233070
_cell_volume 478.924872
_symmetry_space_group_name_H-M "P -1"
_symmetry_group_IT_number 2
_symmetry_cell_setting 'triclinic'
loop_
_space_group_symop_operation_xyz
x,y,z
-x,-y,-z
loop_
_atom_site_type_symbol
_atom_site_label
_atom_site_fract_x
_atom_site_fract_y
_atom_site_fract_z
Si Si1 0.803551 0.170867 0.966720
Si Si2 0.183977 0.840386 0.676154
Si Si3 0.448344 0.169507 0.837791
Si Si4 0.743026 0.371208 0.399773
Si Si5 0.301025 0.495266 0.629407
Si Si6 0.194016 0.055603 0.556483
O O1 0.924632 0.222545 0.134175
O O2 0.811034 0.292089 0.087822
O O3 0.500000 0.000000 0.000000
O O4 0.888430 0.113701 0.662247
O O5 0.394346 0.846888 0.453063
O O6 0.973450 0.704527 0.491227
O O7 0.311491 0.024971 0.856912
O O8 0.228660 0.110460 0.818590
O O9 0.636793 0.364267 0.061610
O O10 0.677514 0.438391 0.461479
O O11 0.482918 0.221910 0.495863
O O12 0.000000 0.500000 0.500000
O O13 0.500000 0.500000 0.500000
O O14 0.000000 0.000000 0.500000
#
# Coordination Sequence:
#
# PCOD9092772 Si02
#       6
#     2   2   2   2   2   2
#     4  10  19  42  68  94 126 181 232 267 338 420
#     4  11  23  44  72  97 131 181 230 280 336 414
#     4  11  24  44  69 100 136 176 228 283 339 413
#     4  11  22  45  71  94 133 186 231 272 334 421
#     4  12  28  44  66 103 140 178 227 285 349 401
#     4  11  25  41  68 105 136 174 226 293 348 398
#
# _framework density 25.056121999999998
#
# number of rings (size 3 to 8) (size 9 to 14) (size 15 to 20)
#    0.000    1.000    5.000    2.500    7.000    0.667 
#    0.000    1.667    0.000    0.000    0.000    0.000 
#    0.000    0.000    0.000    0.000    0.000    0.000 
#
# Total GULP energy -66948.785363 kJ/mol
# GULP energy per Si atom -5579.065447 kJ/mol
# Density = 2.499909 g / cm^3
# Si number density = 25.056122 Si / 1000 Ang^3
#
#
#
# Elastic Constant Matrix: (Units=GPa)
#
#
# Indices 1 2 3 4 5 6 
#
# 1 201.1721 58.5979 33.3771 21.7973 13.2000 8.8483
# 2 58.5979 62.6306 19.5372 15.0126 6.4188 0.2752
# 3 33.3771 19.5372 99.3899 35.0037 16.2740 4.5202
# 4 21.7973 15.0126 35.0037 31.0120 -1.7863 6.9384
# 5 13.2000 6.4188 16.2740 -1.7863 46.4834 12.4406
# 6 8.8483 0.2752 4.5202 6.9384 12.4406 46.9775
#
#
#
# Elastic Compliance Matrix: (Units=1/GPa)
#
#
# Indices 1 2 3 4 5 6 
#
# 1 0.007046 -0.006032 -0.000578 -0.001237 -0.000787 -0.000845
# 2 -0.006032 0.023832 0.000970 -0.009263 -0.003101 0.003093
# 3 -0.000578 0.000970 0.019670 -0.023682 -0.008851 0.004052
# 4 -0.001237 -0.009263 -0.023682 0.067823 0.015630 -0.011590
# 5 -0.000787 -0.003101 -0.008851 0.015630 0.028209 -0.008761
# 6 -0.000845 0.003093 0.004052 -0.011590 -0.008761 0.025070
#
#
# Mechanical properties :
#
#
# Convention : Reuss Voigt Hill
#
# Bulk Modulus (GPa) = 25.46428 65.13523 45.29975
# Shear Modulus (GPa) = 25.50782 41.67327 33.59054
#
# Velocity S-wave (km/s) = 3.19412 4.08266 3.66541
# Velocity P-wave (km/s) = 4.87731 6.94811 6.00268
#
# Compressibility (1/GPa) = 0.03927069
#
# Stress axis : x y z
#
# Youngs Moduli (GPa) = 141.91449 41.96070 50.83860
#
# Poissons Ratio (x) = 0.25309 0.02937
# Poissons Ratio (y) = 0.85598 -0.04934
# Poissons Ratio (z) = 0.08198 -0.04072
#
# Static dielectric constant tensor:
#      x y z
#    x 1.898540 -0.083590 -0.007910 
#    y -0.083590 1.966870 0.013500 
#    z -0.007910 0.013500 2.080310 
# 
# From -- ./inp_files/158426.got.cif
#   From: 2010.05.17/outbox.cif.g08.bks.cpg/sg2_80_cif.got.tgz:158426.got - 2010.06.03 11:33:40.
