data_PCOD9092118
_publ_section_title
;
Structure prediction by ZEFSAII (Michael W. Deem and Ramdas Pophale) SiO2 
 PCOD9092118
Probable space group: P -1
;
_chemical_formula_sum "Si O2"
_cell_formula_units_Z 16
_cell_length_a 21.925651
_cell_length_b 14.811708
_cell_length_c 7.668472
_cell_angle_alpha 52.919892
_cell_angle_beta 124.917633
_cell_angle_gamma 161.094924
_cell_volume 643.710565
_symmetry_space_group_name_H-M "P -1"
_symmetry_group_IT_number 2
_symmetry_cell_setting 'triclinic'
loop_
_space_group_symop_operation_xyz
x,y,z
-x,-y,-z
loop_
_atom_site_type_symbol
_atom_site_label
_atom_site_fract_x
_atom_site_fract_y
_atom_site_fract_z
Si Si1 0.138450 0.088182 0.647497
Si Si2 0.774723 0.310333 0.327384
Si Si3 0.292082 0.871127 0.924708
Si Si4 0.447876 0.394283 0.236612
Si Si5 0.806619 0.768289 0.045029
Si Si6 0.798537 0.121216 0.747054
Si Si7 0.590741 0.241591 0.276120
Si Si8 0.916881 0.223382 0.190385
O O1 0.361891 0.387968 0.618234
O O2 0.139393 0.084160 0.865597
O O3 0.053368 0.867717 0.649747
O O4 0.000000 0.000000 0.500000
O O5 0.653621 0.110583 0.190668
O O6 0.732963 0.158622 0.583211
O O7 0.761966 0.417313 0.253261
O O8 0.983105 0.579506 0.287819
O O9 0.197848 0.863725 0.756978
O O10 0.118678 0.560840 0.091877
O O11 0.458167 0.098370 0.069358
O O12 0.310471 0.098840 0.320145
O O13 0.500000 0.500000 0.000000
O O14 0.327878 0.336143 0.168809
O O15 0.681018 0.481554 0.228800
O O16 0.000000 0.000000 0.000000
O O17 0.788108 0.059605 0.996319
O O18 0.500000 0.000000 0.500000
#
# Coordination Sequence:
#
# PCOD9092118 Si02
#       8
#     2   2   2   2   2   2   2   2
#     4  11  25  43  68 100 136 180 229 289 342 414
#     4  10  23  39  63  96 135 170 217 294 336 402
#     4  10  23  40  64  97 132 176 218 286 341 402
#     4  10  20  39  71  91 128 181 223 273 334 412
#     4  11  25  47  71 101 139 187 228 286 349 414
#     4  10  19  40  66  92 124 171 229 265 347 407
#     4  12  26  40  68 100 134 178 234 276 342 420
#     4  10  20  41  67  90 131 173 224 272 347 412
#
# _framework density 24.855889000000001
#
# number of rings (size 3 to 8) (size 9 to 14) (size 15 to 20)
#    0.000    1.500    2.500    2.625    8.750    1.000 
#    4.500    0.625    0.000    0.000    0.000    0.000 
#    0.000    0.000    0.000    0.000    0.000    0.000 
#
# Total GULP energy -89270.425184 kJ/mol
# GULP energy per Si atom -5579.401574 kJ/mol
# Density = 2.479932 g / cm^3
# Si number density = 24.855889 Si / 1000 Ang^3
#
#
#
# Elastic Constant Matrix: (Units=GPa)
#
#
# Indices 1 2 3 4 5 6 
#
# 1 100.6156 12.1706 23.9099 0.3550 44.1001 0.0609
# 2 12.1706 84.8783 26.0014 12.5315 16.9813 0.2535
# 3 23.9099 26.0014 54.0338 9.5724 20.4616 10.0470
# 4 0.3550 12.5315 9.5724 25.5904 8.6694 16.6046
# 5 44.1001 16.9813 20.4616 8.6694 56.1941 8.5752
# 6 0.0609 0.2535 10.0470 16.6046 8.5752 38.3980
#
#
#
# Elastic Compliance Matrix: (Units=1/GPa)
#
#
# Indices 1 2 3 4 5 6 
#
# 1 0.016205 0.000821 -0.003907 0.003618 -0.012438 0.002204
# 2 0.000821 0.015270 -0.006379 -0.007813 -0.002573 0.005520
# 3 -0.003907 -0.006379 0.025881 -0.002076 -0.003335 -0.005081
# 4 0.003618 -0.007813 -0.002076 0.061579 -0.005434 -0.024826
# 5 -0.012438 -0.002573 -0.003335 -0.005434 0.030943 -0.003651
# 6 0.002204 0.005520 -0.005081 -0.024826 -0.003651 0.038884
#
#
# Mechanical properties :
#
#
# Convention : Reuss Voigt Hill
#
# Bulk Modulus (GPa) = 26.02440 40.41016 33.21728
# Shear Modulus (GPa) = 22.67568 35.86622 29.27095
#
# Velocity S-wave (km/s) = 3.02368 3.80276 3.43538
# Velocity P-wave (km/s) = 4.76267 5.96443 5.39710
#
# Compressibility (1/GPa) = 0.03842547
#
# Stress axis : x y z
#
# Youngs Moduli (GPa) = 61.70856 65.48869 38.63899
#
# Poissons Ratio (x) = -0.05374 0.15095
# Poissons Ratio (y) = -0.05064 0.24648
# Poissons Ratio (z) = 0.24107 0.41776
#
# Static dielectric constant tensor:
#      x y z
#    x 2.067470 -0.076430 0.013240 
#    y -0.076430 2.115440 -0.041340 
#    z 0.013240 -0.041340 2.058030 
# 
# From -- ./inp_files/347513.got.cif
#   From: 2010.05.17/outbox.cif.g08.bks.cpg/sg2_174_cif.got.tgz:347513.got - 2010.06.03 11:33:40.
