data_PCOD9092195
_publ_section_title
;
Structure prediction by ZEFSAII (Michael W. Deem and Ramdas Pophale) SiO2 
 PCOD9092195
Probable space group: P -1
;
_chemical_formula_sum "Si O2"
_cell_formula_units_Z 14
_cell_length_a 8.602628
_cell_length_b 12.863649
_cell_length_c 7.311669
_cell_angle_alpha 68.245748
_cell_angle_beta 63.113966
_cell_angle_gamma 105.389928
_cell_volume 571.414891
_symmetry_space_group_name_H-M "P -1"
_symmetry_group_IT_number 2
_symmetry_cell_setting 'triclinic'
loop_
_space_group_symop_operation_xyz
x,y,z
-x,-y,-z
loop_
_atom_site_type_symbol
_atom_site_label
_atom_site_fract_x
_atom_site_fract_y
_atom_site_fract_z
Si Si1 0.813037 0.523714 0.559643
Si Si2 0.911423 0.857943 0.554747
Si Si3 0.294850 0.858960 0.383269
Si Si4 0.067275 0.191556 0.830967
Si Si5 0.450997 0.653793 0.888972
Si Si6 0.652385 0.131548 0.093313
Si Si7 0.511439 0.313509 0.567059
O O1 0.894406 0.668763 0.351875
O O2 0.688462 0.480957 0.842721
O O3 0.649870 0.424800 0.563716
O O4 0.000000 0.500000 0.500000
O O5 0.934616 0.880329 0.307670
O O6 0.058988 0.806847 0.572913
O O7 0.566968 0.000205 0.686257
O O8 0.000000 0.000000 0.500000
O O9 0.318278 0.863300 0.146604
O O10 0.388135 0.773975 0.450162
O O11 0.272280 0.226583 0.805697
O O12 0.841108 0.123078 0.078893
O O13 0.348791 0.742438 0.916045
O O14 0.475538 0.631356 0.678728
O O15 0.677301 0.749680 0.785543
#
# Coordination Sequence:
#
# PCOD9092195 Si02
#       7
#     2   2   2   2   2   2   2
#     4  12  23  46  71  90 131 175 215 271 322 379
#     4  10  20  39  65  94 131 168 213 267 317 381
#     4  10  20  39  68  93 134 173 211 266 325 382
#     4  10  23  41  64  97 134 171 217 268 319 383
#     4  11  23  42  68  98 130 171 218 264 326 380
#     4  10  19  40  67  94 129 177 214 259 328 384
#     4  11  25  42  64 100 131 167 220 267 320 388
#
# _framework density 24.500586999999999
#
# number of rings (size 3 to 8) (size 9 to 14) (size 15 to 20)
#    0.000    1.429    4.286    1.286    0.000    4.000 
#    2.571    0.000    0.000    0.000    0.000    0.000 
#    0.000    0.000    0.000    0.000    0.000    0.000 
#
# Total GULP energy -78407.686442 kJ/mol
# GULP energy per Si atom -5600.549032 kJ/mol
# Density = 2.444482 g / cm^3
# Si number density = 24.500587 Si / 1000 Ang^3
#
#
#
# Elastic Constant Matrix: (Units=GPa)
#
#
# Indices 1 2 3 4 5 6 
#
# 1 141.8159 22.2124 47.8822 1.4406 -34.2480 22.0945
# 2 22.2124 66.9026 -9.5191 7.7200 -9.2793 8.7643
# 3 47.8822 -9.5191 85.9245 -9.3956 -30.7476 7.5730
# 4 1.4406 7.7200 -9.3956 30.1649 3.2886 -7.2564
# 5 -34.2480 -9.2793 -30.7476 3.2886 54.6809 2.9186
# 6 22.0945 8.7643 7.5730 -7.2564 2.9186 39.3145
#
#
#
# Elastic Compliance Matrix: (Units=1/GPa)
#
#
# Indices 1 2 3 4 5 6 
#
# 1 0.010996 -0.002646 -0.004751 -0.003131 0.004252 -0.005568
# 2 -0.002646 0.018424 0.005197 -0.004674 0.004931 -0.004850
# 3 -0.004751 0.005197 0.018293 0.003225 0.008106 -0.002019
# 4 -0.003131 -0.004674 0.003225 0.038197 -0.003745 0.009508
# 5 0.004252 0.004931 0.008106 -0.003745 0.026985 -0.007745
# 6 -0.005568 -0.004850 -0.002019 0.009508 -0.007745 0.032365
#
#
# Mechanical properties :
#
#
# Convention : Reuss Voigt Hill
#
# Bulk Modulus (GPa) = 23.08858 46.19934 34.64396
# Shear Modulus (GPa) = 30.46964 40.43657 35.45310
#
# Velocity S-wave (km/s) = 3.53034 4.06696 3.80811
# Velocity P-wave (km/s) = 5.10508 6.39929 5.78847
#
# Compressibility (1/GPa) = 0.04331145
#
# Stress axis : x y z
#
# Youngs Moduli (GPa) = 90.94111 54.27766 54.66680
#
# Poissons Ratio (x) = 0.14364 0.25971
# Poissons Ratio (y) = 0.24066 -0.28409
# Poissons Ratio (z) = 0.43205 -0.28206
#
# Static dielectric constant tensor:
#      x y z
#    x 1.988920 -0.036830 0.018250 
#    y -0.036830 1.943030 0.004380 
#    z 0.018250 0.004380 1.955180 
# 
# From -- ./inp_files/385233.got.cif
#   From: 2010.05.17/outbox.cif.g08.bks.cpg/sg2_193_cif.got.tgz:385233.got - 2010.06.03 11:33:40.
