data_PCOD9092549
_publ_section_title
;
Structure prediction by ZEFSAII (Michael W. Deem and Ramdas Pophale) SiO2 
 PCOD9092549
Probable space group: P -1
;
_chemical_formula_sum "Si O2"
_cell_formula_units_Z 16
_cell_length_a 11.640323
_cell_length_b 8.662182
_cell_length_c 14.255509
_cell_angle_alpha 124.278123
_cell_angle_beta 31.713397
_cell_angle_gamma 118.928707
_cell_volume 624.322704
_symmetry_space_group_name_H-M "P -1"
_symmetry_group_IT_number 2
_symmetry_cell_setting 'triclinic'
loop_
_space_group_symop_operation_xyz
x,y,z
-x,-y,-z
loop_
_atom_site_type_symbol
_atom_site_label
_atom_site_fract_x
_atom_site_fract_y
_atom_site_fract_z
Si Si1 0.102502 0.634582 0.370257
Si Si2 0.384971 0.516149 0.488228
Si Si3 0.613126 0.729940 0.250547
Si Si4 0.358813 0.396823 0.225345
Si Si5 0.986144 0.059389 0.920671
Si Si6 0.004190 0.306150 0.734864
Si Si7 0.750258 0.042152 0.477950
Si Si8 0.372703 0.797101 0.904680
O O1 0.256235 0.454226 0.216541
O O2 0.118051 0.730345 0.291095
O O3 0.165672 0.790112 0.456577
O O4 0.854258 0.577617 0.550752
O O5 0.500000 0.500000 0.500000
O O6 0.476152 0.689135 0.426125
O O7 0.482589 0.341276 0.303852
O O8 0.131733 0.495294 0.683286
O O9 0.539544 0.558677 0.176158
O O10 0.503756 0.915056 0.347617
O O11 0.864736 0.750596 0.109637
O O12 0.463793 0.199572 0.115159
O O13 0.745402 0.069077 0.043039
O O14 0.122907 0.951908 0.707888
O O15 0.000000 0.000000 0.000000
O O16 0.841943 0.294401 0.929784
O O17 0.180493 0.147515 0.583342
#
# Coordination Sequence:
#
# PCOD9092549 Si02
#       8
#     2   2   2   2   2   2   2   2
#     4  10  19  41  68  92 125 170 221 256 331 376
#     4  11  23  39  66  93 127 176 207 269 322 370
#     4  10  21  41  63  92 124 167 220 256 320 391
#     4   9  20  40  65  93 129 164 212 275 310 387
#     4  11  25  40  62  94 133 171 211 270 327 380
#     4  11  22  40  67  93 128 173 212 260 332 371
#     4  10  23  40  64  95 128 168 221 266 310 401
#     4  10  23  42  59  98 131 158 222 265 311 398
#
# _framework density 25.627773000000001
#
# number of rings (size 3 to 8) (size 9 to 14) (size 15 to 20)
#    0.000    1.750    2.500    2.250    3.500    5.000 
#    0.000    5.000    0.000    0.000    0.000    0.000 
#    0.000    0.000    0.000    0.000    0.000    0.000 
#
# Total GULP energy -89119.219377 kJ/mol
# GULP energy per Si atom -5569.951211 kJ/mol
# Density = 2.556944 g / cm^3
# Si number density = 25.627773 Si / 1000 Ang^3
#
#
#
# Elastic Constant Matrix: (Units=GPa)
#
#
# Indices 1 2 3 4 5 6 
#
# 1 102.9409 24.4791 24.9118 7.3416 4.6642 -45.4511
# 2 24.4791 63.0938 20.9664 1.9750 0.8220 -28.7119
# 3 24.9118 20.9664 73.1008 -7.3416 6.1642 -18.4473
# 4 7.3416 1.9750 -7.3416 43.1604 -21.1489 -4.0543
# 5 4.6642 0.8220 6.1642 -21.1489 51.3401 4.4172
# 6 -45.4511 -28.7119 -18.4473 -4.0543 4.4172 56.9713
#
#
#
# Elastic Compliance Matrix: (Units=1/GPa)
#
#
# Indices 1 2 3 4 5 6 
#
# 1 0.016093 0.000331 -0.002574 -0.003918 -0.003821 0.012190
# 2 0.000331 0.021557 -0.003829 -0.001429 -0.001355 0.009892
# 3 -0.002574 -0.003829 0.016434 0.003345 -0.000439 0.001610
# 4 -0.003918 -0.001429 0.003345 0.030543 0.012694 -0.001573
# 5 -0.003821 -0.001355 -0.000439 0.012694 0.025555 -0.004951
# 6 0.012190 0.009892 0.001610 -0.001573 -0.004951 0.033056
#
#
# Mechanical properties :
#
#
# Convention : Reuss Voigt Hill
#
# Bulk Modulus (GPa) = 23.84308 42.20556 33.02432
# Shear Modulus (GPa) = 29.52250 41.54625 35.53438
#
# Velocity S-wave (km/s) = 3.39775 4.03071 3.72769
# Velocity P-wave (km/s) = 4.97160 6.17791 5.60729
#
# Compressibility (1/GPa) = 0.04194090
#
# Stress axis : x y z
#
# Youngs Moduli (GPa) = 62.13817 46.38837 60.84778
#
# Poissons Ratio (x) = -0.01537 0.15665
# Poissons Ratio (y) = -0.02058 0.23297
# Poissons Ratio (z) = 0.15997 0.17761
#
# Static dielectric constant tensor:
#      x y z
#    x 2.111980 -0.311370 0.281900 
#    y -0.311370 0.989810 1.247250 
#    z 0.281900 1.247250 0.610940 
# 
# From -- ./inp_files/515844.got.cif
#   From: 2010.05.17/outbox.cif.g08.bks.cpg/sg2_258_cif.got.tgz:515844.got - 2010.06.03 11:33:40.
