data_PCOD9092542
_publ_section_title
;
Structure prediction by ZEFSAII (Michael W. Deem and Ramdas Pophale) SiO2 
 PCOD9092542
Probable space group: P -1
;
_chemical_formula_sum "Si O2"
_cell_formula_units_Z 16
_cell_length_a 7.484537
_cell_length_b 16.766109
_cell_length_c 9.636638
_cell_angle_alpha 60.839684
_cell_angle_beta 130.361285
_cell_angle_gamma 132.577707
_cell_volume 675.905241
_symmetry_space_group_name_H-M "P -1"
_symmetry_group_IT_number 2
_symmetry_cell_setting 'triclinic'
loop_
_space_group_symop_operation_xyz
x,y,z
-x,-y,-z
loop_
_atom_site_type_symbol
_atom_site_label
_atom_site_fract_x
_atom_site_fract_y
_atom_site_fract_z
Si Si1 0.591406 0.186502 0.445830
Si Si2 0.390146 0.401099 0.922838
Si Si3 0.235116 0.822658 0.754427
Si Si4 0.956087 0.076835 0.217403
Si Si5 0.100640 0.436360 0.514022
Si Si6 0.057322 0.586542 0.838329
Si Si7 0.825544 0.903991 0.106512
Si Si8 0.873879 0.178944 0.834359
O O1 0.670129 0.144720 0.385027
O O2 0.285648 0.159903 0.289632
O O3 0.837174 0.312219 0.476615
O O4 0.600905 0.142837 0.639167
O O5 0.349102 0.438796 0.718851
O O6 0.076211 0.301833 0.886051
O O7 0.500000 0.500000 0.000000
O O8 0.616058 0.367642 0.070752
O O9 0.039669 0.690717 0.775671
O O10 0.119176 0.889662 0.707311
O O11 0.505755 0.850309 0.954854
O O12 0.809096 0.101958 0.997144
O O13 0.891743 0.958615 0.244623
O O14 0.000000 0.500000 0.500000
O O15 0.136756 0.472869 0.342340
O O16 0.000000 0.500000 0.000000
O O17 0.932196 0.826962 0.183139
O O18 0.000000 0.000000 0.000000
#
# Coordination Sequence:
#
# PCOD9092542 Si02
#       8
#     2   2   2   2   2   2   2   2
#     4  10  22  41  61  93 127 164 209 262 312 367
#     4  11  21  37  67  86 120 172 207 249 315 372
#     4  11  22  43  65  91 133 161 211 262 312 373
#     4  11  23  40  66  91 125 168 205 260 319 374
#     4  10  21  37  61  89 119 166 216 249 301 383
#     4  11  24  39  59  94 130 161 204 262 314 366
#     4  10  19  41  68  89 123 170 207 258 319 368
#     4  10  21  41  65  92 124 166 212 259 310 374
#
# _framework density 23.671959000000001
#
# number of rings (size 3 to 8) (size 9 to 14) (size 15 to 20)
#    0.000    1.500    5.000    1.125    1.750    1.000 
#    2.250    3.125    0.000    0.000    0.000    0.000 
#    0.000    0.000    0.000    0.000    0.000    0.000 
#
# Total GULP energy -89384.706495 kJ/mol
# GULP energy per Si atom -5586.544156 kJ/mol
# Density = 2.361808 g / cm^3
# Si number density = 23.671959 Si / 1000 Ang^3
#
#
#
# Elastic Constant Matrix: (Units=GPa)
#
#
# Indices 1 2 3 4 5 6 
#
# 1 76.3643 24.6113 14.2266 18.4637 -18.8838 -24.6344
# 2 24.6113 80.7264 21.5989 25.8610 -19.1634 -21.0428
# 3 14.2266 21.5989 143.2013 -3.1102 -10.6376 -9.5467
# 4 18.4637 25.8610 -3.1102 27.3440 -4.9875 -16.0938
# 5 -18.8838 -19.1634 -10.6376 -4.9875 23.5061 4.7675
# 6 -24.6344 -21.0428 -9.5467 -16.0938 4.7675 30.8904
#
#
#
# Elastic Compliance Matrix: (Units=1/GPa)
#
#
# Indices 1 2 3 4 5 6 
#
# 1 0.022182 0.002899 -0.000747 -0.007118 0.015635 0.013312
# 2 0.002899 0.022956 -0.002675 -0.018072 0.014902 0.005407
# 3 -0.000747 -0.002675 0.007887 0.005879 0.001456 0.002858
# 4 -0.007118 -0.018072 0.005879 0.070613 -0.007216 0.021733
# 5 0.015635 0.014902 0.001456 -0.007216 0.064481 0.009359
# 6 0.013312 0.005407 0.002858 0.021733 0.009359 0.057434
#
#
# Mechanical properties :
#
#
# Convention : Reuss Voigt Hill
#
# Bulk Modulus (GPa) = 19.23870 46.79621 33.01745
# Shear Modulus (GPa) = 18.94473 32.33845 25.64159
#
# Velocity S-wave (km/s) = 2.83203 3.70010 3.29478
# Velocity P-wave (km/s) = 4.34036 6.16975 5.33407
#
# Compressibility (1/GPa) = 0.05197858
#
# Stress axis : x y z
#
# Youngs Moduli (GPa) = 45.08260 43.56141 126.78628
#
# Poissons Ratio (x) = -0.12628 0.09466
# Poissons Ratio (y) = -0.13069 0.33922
# Poissons Ratio (z) = 0.03366 0.11655
#
# Static dielectric constant tensor:
#      x y z
#    x 1.936980 -0.014320 -0.032000 
#    y -0.014320 1.945850 -0.045530 
#    z -0.032000 -0.045530 1.954380 
# 
# From -- ./inp_files/214949.got.cif
#   From: 2010.05.17/outbox.cif.g08.bks.cpg/sg2_108_cif.got.tgz:214949.got - 2010.06.03 11:33:40.
