data_PCOD9092619
_publ_section_title
;
Structure prediction by ZEFSAII (Michael W. Deem and Ramdas Pophale) SiO2 
 PCOD9092619
Probable space group: P -1
;
_chemical_formula_sum "Si O2"
_cell_formula_units_Z 16
_cell_length_a 9.277676
_cell_length_b 23.317079
_cell_length_c 9.112060
_cell_angle_alpha 152.302362
_cell_angle_beta 51.854233
_cell_angle_gamma 133.727291
_cell_volume 662.004128
_symmetry_space_group_name_H-M "P -1"
_symmetry_group_IT_number 2
_symmetry_cell_setting 'triclinic'
loop_
_space_group_symop_operation_xyz
x,y,z
-x,-y,-z
loop_
_atom_site_type_symbol
_atom_site_label
_atom_site_fract_x
_atom_site_fract_y
_atom_site_fract_z
Si Si1 0.923216 0.701483 0.760115
Si Si2 0.436817 0.713170 0.134006
Si Si3 0.361096 0.848082 0.774752
Si Si4 0.330627 0.433333 0.662197
Si Si5 0.679738 0.954028 0.318069
Si Si6 0.932459 0.785061 0.260500
Si Si7 0.017783 0.572278 0.911805
Si Si8 0.609840 0.783080 0.695874
O O1 0.130933 0.821134 0.857440
O O2 0.973053 0.569075 0.455892
O O3 0.786456 0.661577 0.612257
O O4 0.863357 0.752050 0.062407
O O5 0.399555 0.763567 0.428532
O O6 0.594155 0.835655 0.222906
O O7 0.467419 0.576289 0.834491
O O8 0.228222 0.660711 0.056288
O O9 0.424322 0.804378 0.790192
O O10 0.500000 0.000000 0.000000
O O11 0.445851 0.360914 0.518171
O O12 0.161313 0.450402 0.910737
O O13 0.500000 0.000000 0.500000
O O14 0.873003 0.077668 0.532623
O O15 0.714434 0.892490 0.003161
O O16 0.761756 0.793343 0.492456
O O17 0.983871 0.661733 0.007836
#
# Coordination Sequence:
#
# PCOD9092619 Si02
#       8
#     2   2   2   2   2   2   2   2
#     4  11  21  42  72 103 132 182 239 273 331 416
#     4  11  21  41  70 101 138 180 234 282 336 409
#     4  12  25  42  70 105 138 177 232 286 339 412
#     4  10  22  45  71 102 139 184 225 286 347 398
#     4  12  24  45  71 101 136 183 233 279 346 417
#     4  11  24  42  69 103 140 180 229 288 345 399
#     4  10  19  41  71 101 137 181 234 278 334 409
#     4  11  28  46  66 103 142 181 224 290 351 405
#
# _framework density 24.169032000000001
#
# number of rings (size 3 to 8) (size 9 to 14) (size 15 to 20)
#    0.000    1.000    3.750    3.750    0.000    3.000 
#    0.000    1.875    0.000    0.000    0.000    0.000 
#    0.000    0.000    0.000    0.000    0.000    0.000 
#
# Total GULP energy -89733.317924 kJ/mol
# GULP energy per Si atom -5608.332370 kJ/mol
# Density = 2.411402 g / cm^3
# Si number density = 24.169032 Si / 1000 Ang^3
#
#
#
# Elastic Constant Matrix: (Units=GPa)
#
#
# Indices 1 2 3 4 5 6 
#
# 1 76.1229 44.3408 23.8118 6.4079 11.1153 -18.3550
# 2 44.3408 125.0442 38.1512 10.4863 11.4250 -17.1692
# 3 23.8118 38.1512 103.7578 -18.8131 15.5719 -15.5642
# 4 6.4079 10.4863 -18.8131 46.5880 -5.9922 6.5491
# 5 11.1153 11.4250 15.5719 -5.9922 44.5858 2.8529
# 6 -18.3550 -17.1692 -15.5642 6.5491 2.8529 31.2553
#
#
#
# Elastic Compliance Matrix: (Units=1/GPa)
#
#
# Indices 1 2 3 4 5 6 
#
# 1 0.019456 -0.004367 -0.001536 -0.004218 -0.004372 0.009545
# 2 -0.004367 0.011401 -0.003224 -0.003877 -0.001422 0.003035
# 3 -0.001536 -0.003224 0.013018 0.005423 -0.002796 0.002928
# 4 -0.004218 -0.003877 0.005423 0.026765 0.004254 -0.007903
# 5 -0.004372 -0.001422 -0.002796 0.004254 0.025943 -0.008001
# 6 0.009545 0.003035 0.002928 -0.007903 -0.008001 0.043112
#
#
# Mechanical properties :
#
#
# Convention : Reuss Voigt Hill
#
# Bulk Modulus (GPa) = 39.03089 57.50361 48.26725
# Shear Modulus (GPa) = 30.03195 37.72723 33.87959
#
# Velocity S-wave (km/s) = 3.52885 3.95520 3.74809
# Velocity P-wave (km/s) = 5.72607 6.68596 6.22455
#
# Compressibility (1/GPa) = 0.02562073
#
# Stress axis : x y z
#
# Youngs Moduli (GPa) = 51.39916 87.71046 76.81647
#
# Poissons Ratio (x) = 0.38299 0.11800
# Poissons Ratio (y) = 0.22444 0.24768
# Poissons Ratio (z) = 0.07895 0.28281
#
# Static dielectric constant tensor:
#      x y z
#    x 1.926640 0.021390 -0.055730 
#    y 0.021390 1.898420 -0.019450 
#    z -0.055730 -0.019450 1.906140 
# 
# From -- ./inp_files/226773.got.cif
#   From: 2010.05.17/outbox.cif.g08.bks.cpg/sg2_114_cif.got.tgz:226773.got - 2010.06.03 11:33:40.
