data_PCOD9092879
_publ_section_title
;
Structure prediction by ZEFSAII (Michael W. Deem and Ramdas Pophale) SiO2 
 PCOD9092879
Probable space group: P -1
;
_chemical_formula_sum "Si O2"
_cell_formula_units_Z 16
_cell_length_a 9.067754
_cell_length_b 14.627078
_cell_length_c 11.786438
_cell_angle_alpha 109.933117
_cell_angle_beta 82.064501
_cell_angle_gamma 148.570504
_cell_volume 728.137586
_symmetry_space_group_name_H-M "P -1"
_symmetry_group_IT_number 2
_symmetry_cell_setting 'triclinic'
loop_
_space_group_symop_operation_xyz
x,y,z
-x,-y,-z
loop_
_atom_site_type_symbol
_atom_site_label
_atom_site_fract_x
_atom_site_fract_y
_atom_site_fract_z
Si Si1 0.588661 0.460961 0.635969
Si Si2 0.359718 0.624134 0.182791
Si Si3 0.318048 0.510174 0.713241
Si Si4 0.370694 0.852929 0.351808
Si Si5 0.304929 0.791021 0.930587
Si Si6 0.348918 0.672143 0.570087
Si Si7 0.269630 0.822179 0.692407
Si Si8 0.341729 0.193356 0.008220
O O1 0.588461 0.432834 0.756524
O O2 0.427230 0.469878 0.635138
O O3 0.473881 0.299947 0.517936
O O4 0.927579 0.655933 0.632824
O O5 0.368762 0.732695 0.297462
O O6 0.030772 0.416388 0.075703
O O7 0.592739 0.757456 0.111159
O O8 0.362268 0.622813 0.666532
O O9 0.497967 0.633650 0.860562
O O10 0.971105 0.312167 0.690185
O O11 0.500000 0.000000 0.500000
O O12 0.544588 0.978237 0.270773
O O13 0.241831 0.755540 0.788202
O O14 0.506325 0.820517 0.971981
O O15 0.500000 0.000000 0.000000
O O16 0.460416 0.844694 0.621684
O O17 0.000000 0.500000 0.500000
O O18 0.000000 0.000000 0.000000
#
# Coordination Sequence:
#
# PCOD9092879 Si02
#       8
#     2   2   2   2   2   2   2   2
#     4  10  23  42  68 101 138 186 230 293 360 412
#     4  11  25  48  70 101 146 191 239 291 350 430
#     4  12  25  44  68 106 144 184 234 294 362 413
#     4  12  24  43  71 105 139 185 238 291 351 429
#     4  11  23  43  71 100 131 189 242 284 347 419
#     4  10  19  43  69  95 135 183 235 289 340 420
#     4  10  21  39  68  97 131 181 240 279 344 424
#     4  12  28  46  70 102 150 187 236 300 354 421
#
# _framework density 21.973870000000002
#
# number of rings (size 3 to 8) (size 9 to 14) (size 15 to 20)
#    0.000    1.000    2.500    5.250    7.000    1.500 
#    0.000    1.250    0.000    0.000    0.000    0.000 
#    0.000    0.000    0.000    0.000    0.000    0.000 
#
# Total GULP energy -89115.614847 kJ/mol
# GULP energy per Si atom -5569.725928 kJ/mol
# Density = 2.192386 g / cm^3
# Si number density = 21.973870 Si / 1000 Ang^3
#
#
#
# Elastic Constant Matrix: (Units=GPa)
#
#
# Indices 1 2 3 4 5 6 
#
# 1 98.8627 27.3639 4.7783 -9.5932 -9.0125 -10.1809
# 2 27.3639 114.3285 20.0821 -6.6568 0.1692 3.6203
# 3 4.7783 20.0821 67.7254 -2.6544 -8.6808 12.3225
# 4 -9.5932 -6.6568 -2.6544 29.3993 -3.4389 0.5480
# 5 -9.0125 0.1692 -8.6808 -3.4389 30.4120 -1.9674
# 6 -10.1809 3.6203 12.3225 0.5480 -1.9674 32.6859
#
#
#
# Elastic Compliance Matrix: (Units=1/GPa)
#
#
# Indices 1 2 3 4 5 6 
#
# 1 0.012089 -0.002800 -0.000115 0.003719 0.004265 0.004313
# 2 -0.002800 0.009989 -0.002745 0.000929 -0.001632 -0.001057
# 3 -0.000115 -0.002745 0.017349 0.001572 0.004722 -0.006014
# 4 0.003719 0.000929 0.001572 0.036238 0.005656 0.000196
# 5 0.004265 -0.001632 0.004722 0.005656 0.036260 0.001817
# 6 0.004313 -0.001057 -0.006014 0.000196 0.001817 0.034428
#
#
# Mechanical properties :
#
#
# Convention : Reuss Voigt Hill
#
# Bulk Modulus (GPa) = 35.57739 42.81834 39.19787
# Shear Modulus (GPa) = 29.93263 33.74559 31.83911
#
# Velocity S-wave (km/s) = 3.69479 3.92307 3.81064
# Velocity P-wave (km/s) = 5.86753 6.32843 6.10233
#
# Compressibility (1/GPa) = 0.02810774
#
# Stress axis : x y z
#
# Youngs Moduli (GPa) = 82.71711 100.11077 57.64129
#
# Poissons Ratio (x) = 0.28028 0.00664
# Poissons Ratio (y) = 0.23158 0.15821
# Poissons Ratio (z) = 0.00953 0.27478
#
# Static dielectric constant tensor:
#      x y z
#    x 1.773510 -0.032170 -0.059490 
#    y -0.032170 1.848050 0.007470 
#    z -0.059490 0.007470 2.067600 
# 
# From -- ./inp_files/399289.got.cif
#   From: 2010.05.17/outbox.cif.g08.bks.cpg/sg2_200_cif.got.tgz:399289.got - 2010.06.03 11:33:40.
