data_PCOD9092694
_publ_section_title
;
Structure prediction by ZEFSAII (Michael W. Deem and Ramdas Pophale) SiO2 
 PCOD9092694
Probable space group: P -1
;
_chemical_formula_sum "Si O2"
_cell_formula_units_Z 14
_cell_length_a 10.973769
_cell_length_b 9.123433
_cell_length_c 17.505110
_cell_angle_alpha 38.644237
_cell_angle_beta 147.307641
_cell_angle_gamma 124.536624
_cell_volume 569.533300
_symmetry_space_group_name_H-M "P -1"
_symmetry_group_IT_number 2
_symmetry_cell_setting 'triclinic'
loop_
_space_group_symop_operation_xyz
x,y,z
-x,-y,-z
loop_
_atom_site_type_symbol
_atom_site_label
_atom_site_fract_x
_atom_site_fract_y
_atom_site_fract_z
Si Si1 0.929274 0.137822 0.625670
Si Si2 0.277025 0.622077 0.156350
Si Si3 0.218422 0.992456 0.242720
Si Si4 0.263230 0.452156 0.479632
Si Si5 0.213230 0.407269 0.734439
Si Si6 0.653811 0.546702 0.914623
Si Si7 0.879911 0.718339 0.675044
O O1 0.176914 0.156056 0.784157
O O2 0.807452 0.406132 0.422684
O O3 0.774209 0.071251 0.637620
O O4 0.939952 0.962592 0.632344
O O5 0.518135 0.652130 0.306518
O O6 0.272726 0.575454 0.081620
O O7 0.245858 0.382231 0.280894
O O8 0.050621 0.838154 0.974425
O O9 0.383246 0.164202 0.236955
O O10 0.261730 0.724990 0.337724
O O11 0.257013 0.282158 0.474201
O O12 0.014752 0.496203 0.373143
O O13 0.451877 0.432634 0.885257
O O14 0.867352 0.475744 0.114957
#
# Coordination Sequence:
#
# PCOD9092694 Si02
#       7
#     2   2   2   2   2   2   2
#     4  10  19  42  64  92 124 163 220 259 307 373
#     4  11  21  41  68 101 120 166 219 267 306 384
#     4  10  21  41  70  95 126 165 214 268 317 362
#     4  11  26  44  61  96 139 166 206 261 323 386
#     4  10  24  40  61  99 126 169 215 254 322 382
#     4  11  21  40  70  97 123 160 224 266 303 388
#     4  11  23  41  67  96 127 166 212 265 323 367
#
# _framework density 24.581529
#
# number of rings (size 3 to 8) (size 9 to 14) (size 15 to 20)
#    0.000    1.429    2.857    3.857    2.000    5.143 
#    7.714    0.000    0.000    0.000    0.000    0.000 
#    0.000    0.000    0.000    0.000    0.000    0.000 
#
# Total GULP energy -78240.630547 kJ/mol
# GULP energy per Si atom -5588.616468 kJ/mol
# Density = 2.452558 g / cm^3
# Si number density = 24.581529 Si / 1000 Ang^3
#
#
#
# Elastic Constant Matrix: (Units=GPa)
#
#
# Indices 1 2 3 4 5 6 
#
# 1 61.8656 38.2515 23.4955 20.9880 16.4647 7.3701
# 2 38.2515 139.4077 22.2569 5.3735 4.3488 1.6805
# 3 23.4955 22.2569 65.6083 22.6434 8.0512 3.1107
# 4 20.9880 5.3735 22.6434 40.2916 7.2781 6.5015
# 5 16.4647 4.3488 8.0512 7.2781 30.7158 12.4514
# 6 7.3701 1.6805 3.1107 6.5015 12.4514 33.7193
#
#
#
# Elastic Compliance Matrix: (Units=1/GPa)
#
#
# Indices 1 2 3 4 5 6 
#
# 1 0.027380 -0.006330 -0.002935 -0.009888 -0.010882 0.000526
# 2 -0.006330 0.009064 -0.002051 0.002904 0.002037 -0.000191
# 3 -0.002935 -0.002051 0.020452 -0.009590 -0.001777 0.001362
# 4 -0.009888 0.002904 -0.009590 0.035526 0.000689 -0.004203
# 5 -0.010882 0.002037 -0.001777 0.000689 0.044064 -0.013963
# 6 0.000526 -0.000191 0.001362 -0.004203 -0.013963 0.035392
#
#
# Mechanical properties :
#
#
# Convention : Reuss Voigt Hill
#
# Bulk Modulus (GPa) = 29.18449 48.32106 38.75277
# Shear Modulus (GPa) = 24.27969 33.13718 28.70844
#
# Velocity S-wave (km/s) = 3.14621 3.67557 3.42114
# Velocity P-wave (km/s) = 5.00964 6.14111 5.60400
#
# Compressibility (1/GPa) = 0.03426478
#
# Stress axis : x y z
#
# Youngs Moduli (GPa) = 36.52238 110.32182 48.89421
#
# Poissons Ratio (x) = 0.69834 0.14350
# Poissons Ratio (y) = 0.23119 0.10030
# Poissons Ratio (z) = 0.10719 0.22630
#
# Static dielectric constant tensor:
#      x y z
#    x 1.965630 0.017290 0.073960 
#    y 0.017290 2.007650 0.016040 
#    z 0.073960 0.016040 2.073550 
# 
# From -- ./inp_files/158400.got.cif
#   From: 2010.05.17/outbox.cif.g08.bks.cpg/sg2_80_cif.got.tgz:158400.got - 2010.06.03 11:33:40.
