data_PCOD9092417
_publ_section_title
;
Structure prediction by ZEFSAII (Michael W. Deem and Ramdas Pophale) SiO2 
 PCOD9092417
Probable space group: P -1
;
_chemical_formula_sum "Si O2"
_cell_formula_units_Z 14
_cell_length_a 8.293657
_cell_length_b 18.433340
_cell_length_c 5.671151
_cell_angle_alpha 64.327533
_cell_angle_beta 59.581356
_cell_angle_gamma 49.275237
_cell_volume 559.549555
_symmetry_space_group_name_H-M "P -1"
_symmetry_group_IT_number 2
_symmetry_cell_setting 'triclinic'
loop_
_space_group_symop_operation_xyz
x,y,z
-x,-y,-z
loop_
_atom_site_type_symbol
_atom_site_label
_atom_site_fract_x
_atom_site_fract_y
_atom_site_fract_z
Si Si1 0.909885 0.455247 0.352688
Si Si2 0.360934 0.376827 0.336699
Si Si3 0.523181 0.818243 0.635124
Si Si4 0.991659 0.731401 0.192167
Si Si5 0.743782 0.221153 0.777762
Si Si6 0.080039 0.017209 0.662882
Si Si7 0.252727 0.629917 0.752007
O O1 0.790694 0.558469 0.421284
O O2 0.783795 0.446598 0.235392
O O3 0.177258 0.411214 0.212591
O O4 0.911050 0.377357 0.634458
O O5 0.474491 0.261207 0.429191
O O6 0.552512 0.399263 0.158798
O O7 0.765224 0.794875 0.420535
O O8 0.344358 0.932973 0.578165
O O9 0.450605 0.793140 0.972241
O O10 0.135714 0.775670 0.078886
O O11 0.011702 0.712348 0.925993
O O12 0.677586 0.319526 0.561998
O O13 0.945705 0.132758 0.607398
O O14 0.000000 0.000000 0.500000
O O15 0.000000 0.000000 0.000000
#
# Coordination Sequence:
#
# PCOD9092417 Si02
#       7
#     2   2   2   2   2   2   2
#     4   9  22  40  57  98 129 168 223 274 324 409
#     4  10  19  41  64  86 134 173 215 274 336 393
#     4  10  21  43  65  93 129 175 214 276 339 397
#     4  10  22  42  63  97 131 166 223 273 330 413
#     4  10  22  42  66  92 132 168 219 276 338 400
#     4  10  22  41  68  98 131 176 233 279 344 419
#     4  11  21  41  66  94 128 175 221 271 339 402
#
# _framework density 25.020125
#
# number of rings (size 3 to 8) (size 9 to 14) (size 15 to 20)
#    0.000    2.000    1.429    1.286    2.000    1.143 
#   33.429    4.286    0.000    0.000    0.000    0.000 
#    0.000    0.000    0.000    0.000    0.000    0.000 
#
# Total GULP energy -77950.698842 kJ/mol
# GULP energy per Si atom -5567.907060 kJ/mol
# Density = 2.496318 g / cm^3
# Si number density = 25.020125 Si / 1000 Ang^3
#
#
#
# Elastic Constant Matrix: (Units=GPa)
#
#
# Indices 1 2 3 4 5 6 
#
# 1 127.2364 26.6016 29.7695 13.6043 -14.7394 8.9686
# 2 26.6016 115.4178 10.1852 36.4626 2.8737 -4.5596
# 3 29.7695 10.1852 90.0099 12.0911 -20.6045 -20.7935
# 4 13.6043 36.4626 12.0911 44.9556 5.0258 2.6488
# 5 -14.7394 2.8737 -20.6045 5.0258 26.4983 17.3935
# 6 8.9686 -4.5596 -20.7935 2.6488 17.3935 29.4060
#
#
#
# Elastic Compliance Matrix: (Units=1/GPa)
#
#
# Indices 1 2 3 4 5 6 
#
# 1 0.012285 -0.003217 -0.003851 -0.000782 0.014491 -0.015469
# 2 -0.003217 0.012788 0.001548 -0.009682 -0.005514 0.008192
# 3 -0.003851 0.001548 0.016517 -0.005671 0.004379 0.011014
# 4 -0.000782 -0.009682 -0.005671 0.032926 -0.007571 -0.003761
# 5 0.014491 -0.005514 0.004379 -0.007571 0.085362 -0.051987
# 6 -0.015469 0.008192 0.011014 -0.003761 -0.051987 0.078872
#
#
# Mechanical properties :
#
#
# Convention : Reuss Voigt Hill
#
# Bulk Modulus (GPa) = 32.73214 51.75298 42.24256
# Shear Modulus (GPa) = 19.23265 37.91251 28.57258
#
# Velocity S-wave (km/s) = 2.77553 3.89688 3.38299
# Velocity P-wave (km/s) = 4.83551 6.40133 5.67271
#
# Compressibility (1/GPa) = 0.03055102
#
# Stress axis : x y z
#
# Youngs Moduli (GPa) = 81.39690 78.19539 60.54341
#
# Poissons Ratio (x) = 0.25154 0.23314
# Poissons Ratio (y) = 0.26183 -0.09369
# Poissons Ratio (z) = 0.31344 -0.12101
#
# Static dielectric constant tensor:
#      x y z
#    x 2.077860 -0.087150 0.031770 
#    y -0.087150 2.054300 0.026070 
#    z 0.031770 0.026070 1.995260 
# 
# From -- ./inp_files/46939.got.cif
#   From: 2010.05.17/outbox.cif.g08.bks.cpg/sg2_24_cif.got.tgz:46939.got - 2010.06.03 11:33:40.
