data_PCOD9092052
_publ_section_title
;
Structure prediction by ZEFSAII (Michael W. Deem and Ramdas Pophale) SiO2 
 PCOD9092052
Probable space group: P -1
;
_chemical_formula_sum "Si O2"
_cell_formula_units_Z 14
_cell_length_a 8.280826
_cell_length_b 13.199226
_cell_length_c 11.104876
_cell_angle_alpha 60.433468
_cell_angle_beta 139.868552
_cell_angle_gamma 127.441092
_cell_volume 620.178565
_symmetry_space_group_name_H-M "P -1"
_symmetry_group_IT_number 2
_symmetry_cell_setting 'triclinic'
loop_
_space_group_symop_operation_xyz
x,y,z
-x,-y,-z
loop_
_atom_site_type_symbol
_atom_site_label
_atom_site_fract_x
_atom_site_fract_y
_atom_site_fract_z
Si Si1 0.073370 0.685232 0.636747
Si Si2 0.842890 0.050950 0.038390
Si Si3 0.363229 0.556304 0.993175
Si Si4 0.879669 0.800864 0.112887
Si Si5 0.480412 0.500725 0.632416
Si Si6 0.795714 0.350968 0.504127
Si Si7 0.808441 0.063256 0.294898
O O1 0.293290 0.716398 0.635895
O O2 0.111897 0.800977 0.675354
O O3 0.787504 0.635046 0.430684
O O4 0.086092 0.563595 0.784565
O O5 0.044331 0.163792 0.003288
O O6 0.524667 0.013895 0.837908
O O7 0.863003 0.079363 0.174064
O O8 0.922481 0.931414 0.128218
O O9 0.571882 0.704453 0.024823
O O10 0.340667 0.503180 0.146591
O O11 0.500000 0.500000 0.000000
O O12 0.064124 0.727087 0.301117
O O13 0.500000 0.500000 0.500000
O O14 0.429909 0.626616 0.560536
O O15 0.000000 0.500000 0.500000
O O16 0.000000 0.000000 0.500000
#
# Coordination Sequence:
#
# PCOD9092052 Si02
#       7
#     2   2   2   2   2   2   2
#     4  11  22  40  66  91 127 179 219 271 331 401
#     4  10  25  44  66  97 132 176 225 280 330 391
#     4  12  22  41  72  94 133 176 217 274 335 400
#     4  11  21  44  70  93 132 175 225 278 327 394
#     4  11  25  41  63 100 136 169 221 275 338 394
#     4  10  19  40  65  92 127 173 212 264 333 394
#     4  11  24  43  65  96 133 175 223 274 343 390
#
# _framework density 22.574142999999999
#
# number of rings (size 3 to 8) (size 9 to 14) (size 15 to 20)
#    0.000    1.143    5.714    1.714    0.000    4.000 
#    2.571    2.143    0.000    0.000    0.000    0.000 
#    0.000    0.000    0.000    0.000    0.000    0.000 
#
# Total GULP energy -78046.323310 kJ/mol
# GULP energy per Si atom -5574.737379 kJ/mol
# Density = 2.252276 g / cm^3
# Si number density = 22.574143 Si / 1000 Ang^3
#
#
#
# Elastic Constant Matrix: (Units=GPa)
#
#
# Indices 1 2 3 4 5 6 
#
# 1 111.0827 29.5097 28.9159 -6.9629 -29.2539 -24.3434
# 2 29.5097 59.4614 40.1071 -16.6744 -8.2003 -22.5040
# 3 28.9159 40.1071 139.2653 -17.9850 -4.4272 -17.2915
# 4 -6.9629 -16.6744 -17.9850 36.5873 -5.1960 -1.5706
# 5 -29.2539 -8.2003 -4.4272 -5.1960 36.1758 4.3054
# 6 -24.3434 -22.5040 -17.2915 -1.5706 4.3054 41.2933
#
#
#
# Elastic Compliance Matrix: (Units=1/GPa)
#
#
# Indices 1 2 3 4 5 6 
#
# 1 0.013979 -0.001723 -0.000924 0.003174 0.010550 0.005936
# 2 -0.001723 0.030173 -0.004934 0.012283 0.005023 0.013306
# 3 -0.000924 -0.004934 0.009126 0.002015 -0.000545 0.000721
# 4 0.003174 0.012283 0.002015 0.036314 0.009649 0.009784
# 5 0.010550 0.005023 -0.000545 0.009649 0.038021 0.005131
# 6 0.005936 0.013306 0.000721 0.009784 0.005131 0.035107
#
#
# Mechanical properties :
#
#
# Convention : Reuss Voigt Hill
#
# Bulk Modulus (GPa) = 26.23542 56.31942 41.27742
# Shear Modulus (GPa) = 26.23475 36.89638 31.56556
#
# Velocity S-wave (km/s) = 3.41274 4.04722 3.74345
# Velocity P-wave (km/s) = 5.21308 6.84418 6.08354
#
# Compressibility (1/GPa) = 0.03811640
#
# Stress axis : x y z
#
# Youngs Moduli (GPa) = 71.53833 33.14167 109.57971
#
# Poissons Ratio (x) = 0.05709 0.10125
# Poissons Ratio (y) = 0.12323 0.54067
# Poissons Ratio (z) = 0.06610 0.16352
#
# Static dielectric constant tensor:
#      x y z
#    x 2.037250 0.051980 0.050850 
#    y 0.051980 1.821570 0.035840 
#    z 0.050850 0.035840 1.940840 
# 
# From -- ./inp_files/389619.got.cif
#   From: 2010.05.17/outbox.cif.g08.bks.cpg/sg2_195_cif.got.tgz:389619.got - 2010.06.03 11:33:40.
