data_PCOD9092448
_publ_section_title
;
Structure prediction by ZEFSAII (Michael W. Deem and Ramdas Pophale) SiO2 
 PCOD9092448
Probable space group: P -1
;
_chemical_formula_sum "Si O2"
_cell_formula_units_Z 16
_cell_length_a 8.433389
_cell_length_b 21.133071
_cell_length_c 8.972861
_cell_angle_alpha 46.363014
_cell_angle_beta 130.256913
_cell_angle_gamma 146.251491
_cell_volume 632.456276
_symmetry_space_group_name_H-M "P -1"
_symmetry_group_IT_number 2
_symmetry_cell_setting 'triclinic'
loop_
_space_group_symop_operation_xyz
x,y,z
-x,-y,-z
loop_
_atom_site_type_symbol
_atom_site_label
_atom_site_fract_x
_atom_site_fract_y
_atom_site_fract_z
Si Si1 0.762529 0.015347 0.692549
Si Si2 0.307454 0.923155 0.150066
Si Si3 0.131066 0.643549 0.006360
Si Si4 0.425059 0.438051 0.213130
Si Si5 0.291976 0.107312 0.413478
Si Si6 0.395767 0.278015 0.642144
Si Si7 0.790775 0.655427 0.308771
Si Si8 0.218935 0.632190 0.734175
O O1 0.738959 0.013165 0.861065
O O2 0.079876 0.146744 0.633267
O O3 0.500000 0.000000 0.500000
O O4 0.743176 0.921272 0.737982
O O5 0.481821 0.899208 0.382510
O O6 0.000915 0.788411 0.143357
O O7 0.500000 0.000000 0.000000
O O8 0.380730 0.725058 0.147387
O O9 0.924028 0.503137 0.161992
O O10 0.231677 0.647515 0.896177
O O11 0.924863 0.665957 0.824599
O O12 0.526299 0.372252 0.432665
O O13 0.555198 0.545050 0.236561
O O14 0.500000 0.500000 0.000000
O O15 0.456918 0.246527 0.316906
O O16 0.000000 0.000000 0.500000
O O17 0.352146 0.336658 0.652261
O O18 0.993654 0.636917 0.523346
#
# Coordination Sequence:
#
# PCOD9092448 Si02
#       8
#     2   2   2   2   2   2   2   2
#     4   9  21  41  68  91 128 184 215 266 337 397
#     4   9  20  38  64  91 124 173 221 267 327 398
#     4  11  23  39  68  99 123 174 226 272 336 398
#     4  12  26  40  61  97 135 171 214 279 337 395
#     4  10  22  40  64  96 133 172 217 281 331 390
#     4  11  22  43  69  93 129 172 226 272 324 403
#     4  10  19  41  65  89 129 171 217 272 329 396
#     4  10  20  40  69  95 126 171 228 274 328 403
#
# _framework density 25.298192
#
# number of rings (size 3 to 8) (size 9 to 14) (size 15 to 20)
#    0.000    1.750    2.500    2.625    0.000    6.500 
#    4.500    1.250    0.000    0.000    0.000    0.000 
#    0.000    0.000    0.000    0.000    0.000    0.000 
#
# Total GULP energy -89564.673090 kJ/mol
# GULP energy per Si atom -5597.792068 kJ/mol
# Density = 2.524061 g / cm^3
# Si number density = 25.298192 Si / 1000 Ang^3
#
#
#
# Elastic Constant Matrix: (Units=GPa)
#
#
# Indices 1 2 3 4 5 6 
#
# 1 55.1529 28.6316 9.1325 -4.1646 -14.8616 -3.4887
# 2 28.6316 158.6724 47.2803 1.7057 -7.8389 8.8417
# 3 9.1325 47.2803 102.8175 13.0854 -4.2328 1.4402
# 4 -4.1646 1.7057 13.0854 48.2690 19.0181 -1.9166
# 5 -14.8616 -7.8389 -4.2328 19.0181 36.1292 1.9419
# 6 -3.4887 8.8417 1.4402 -1.9166 1.9419 35.0957
#
#
#
# Elastic Compliance Matrix: (Units=1/GPa)
#
#
# Indices 1 2 3 4 5 6 
#
# 1 0.022593 -0.003841 0.000289 -0.001490 0.009137 0.002615
# 2 -0.003841 0.008122 -0.003414 0.000322 -0.000266 -0.002255
# 3 0.000289 -0.003414 0.011941 -0.004287 0.003034 -0.000003
# 4 -0.001490 0.000322 -0.004287 0.028129 -0.015979 0.002367
# 5 0.009137 -0.000266 0.003034 -0.015979 0.040267 -0.002250
# 6 0.002615 -0.002255 -0.000003 0.002367 -0.002250 0.029576
#
#
# Mechanical properties :
#
#
# Convention : Reuss Voigt Hill
#
# Bulk Modulus (GPa) = 34.81591 54.08130 44.44860
# Shear Modulus (GPa) = 30.46291 39.33867 34.90079
#
# Velocity S-wave (km/s) = 3.47386 3.94763 3.71829
# Velocity P-wave (km/s) = 5.46647 6.49633 6.00352
#
# Compressibility (1/GPa) = 0.02872250
#
# Stress axis : x y z
#
# Youngs Moduli (GPa) = 44.26209 123.12651 83.74666
#
# Poissons Ratio (x) = 0.47293 -0.02418
# Poissons Ratio (y) = 0.17001 0.28591
# Poissons Ratio (z) = -0.01278 0.42035
#
# Static dielectric constant tensor:
#      x y z
#    x 1.964060 -0.057730 0.032320 
#    y -0.057730 1.840560 0.044340 
#    z 0.032320 0.044340 2.001690 
# 
# From -- ./inp_files/226210.got.cif
#   From: 2010.05.17/outbox.cif.g08.bks.cpg/sg2_114_cif.got.tgz:226210.got - 2010.06.03 11:33:40.
