data_PCOD9092935
_publ_section_title
;
Structure prediction by ZEFSAII (Michael W. Deem and Ramdas Pophale) SiO2 
 PCOD9092935
Probable space group: P -1
;
_chemical_formula_sum "Si O2"
_cell_formula_units_Z 14
_cell_length_a 11.382536
_cell_length_b 9.897446
_cell_length_c 13.845806
_cell_angle_alpha 152.752743
_cell_angle_beta 110.331838
_cell_angle_gamma 57.490432
_cell_volume 566.878723
_symmetry_space_group_name_H-M "P -1"
_symmetry_group_IT_number 2
_symmetry_cell_setting 'triclinic'
loop_
_space_group_symop_operation_xyz
x,y,z
-x,-y,-z
loop_
_atom_site_type_symbol
_atom_site_label
_atom_site_fract_x
_atom_site_fract_y
_atom_site_fract_z
Si Si1 0.942418 0.348664 0.765868
Si Si2 0.626784 0.566784 0.820051
Si Si3 0.077145 0.821381 0.638649
Si Si4 0.447069 0.251960 0.861545
Si Si5 0.203299 0.269842 0.681678
Si Si6 0.991477 0.306843 0.254920
Si Si7 0.589344 0.451314 0.396370
O O1 0.050760 0.450891 0.814582
O O2 0.767922 0.602132 0.862484
O O3 0.985437 0.173127 0.773084
O O4 0.000000 0.000000 0.500000
O O5 0.482805 0.690273 0.790324
O O6 0.709825 0.147696 0.562050
O O7 0.581538 0.691826 0.996207
O O8 0.000801 0.812212 0.709504
O O9 0.236281 0.764416 0.669171
O O10 0.092252 0.473670 0.372280
O O11 0.303010 0.369589 0.831299
O O12 0.551251 0.840053 0.607347
O O13 0.500000 0.500000 0.000000
O O14 0.167254 0.379399 0.629498
O O15 0.000000 0.000000 0.000000
O O16 0.500000 0.500000 0.500000
#
# Coordination Sequence:
#
# PCOD9092935 Si02
#       7
#     2   2   2   2   2   2   2
#     4  10  19  44  71  94 125 174 219 276 328 389
#     4  10  23  43  70  96 133 173 223 273 333 391
#     4  11  24  43  70  94 136 174 215 277 341 384
#     4  11  27  41  69  99 133 179 229 267 326 410
#     4  10  23  43  68  96 134 171 225 277 331 391
#     4  11  26  40  65 102 134 170 221 276 333 398
#     4  11  26  46  67  98 139 176 222 274 335 396
#
# _framework density 24.696638
#
# number of rings (size 3 to 8) (size 9 to 14) (size 15 to 20)
#    0.000    1.429    2.857    2.571    8.000    2.286 
#    2.571    0.000    0.000    0.000    0.000    0.000 
#    0.000    0.000    0.000    0.000    0.000    0.000 
#
# Total GULP energy -78191.069164 kJ/mol
# GULP energy per Si atom -5585.076369 kJ/mol
# Density = 2.464043 g / cm^3
# Si number density = 24.696638 Si / 1000 Ang^3
#
#
#
# Elastic Constant Matrix: (Units=GPa)
#
#
# Indices 1 2 3 4 5 6 
#
# 1 94.2328 43.5030 57.4902 3.3081 33.6507 -24.1683
# 2 43.5030 130.1710 25.0468 -9.5532 10.2398 -18.4595
# 3 57.4902 25.0468 104.6789 -9.2306 33.9638 -10.7211
# 4 3.3081 -9.5532 -9.2306 45.8330 3.7462 6.1471
# 5 33.6507 10.2398 33.9638 3.7462 47.0647 -6.9397
# 6 -24.1683 -18.4595 -10.7211 6.1471 -6.9397 50.7662
#
#
#
# Elastic Compliance Matrix: (Units=1/GPa)
#
#
# Indices 1 2 3 4 5 6 
#
# 1 0.022601 -0.004691 -0.008533 -0.004613 -0.007616 0.006770
# 2 -0.004691 0.009430 0.000262 0.002112 0.001114 0.001148
# 3 -0.008533 0.000262 0.016525 0.004796 -0.006551 -0.001953
# 4 -0.004613 0.002112 0.004796 0.024320 -0.003116 -0.003786
# 5 -0.007616 0.001114 -0.006551 -0.003116 0.031436 0.000071
# 6 0.006770 0.001148 -0.001953 -0.003786 0.000071 0.023394
#
#
# Mechanical properties :
#
#
# Convention : Reuss Voigt Hill
#
# Bulk Modulus (GPa) = 44.18323 64.57364 54.37843
# Shear Modulus (GPa) = 31.02273 42.26895 36.64584
#
# Velocity S-wave (km/s) = 3.54807 4.14155 3.85624
# Velocity P-wave (km/s) = 5.89188 7.00524 6.47254
#
# Compressibility (1/GPa) = 0.02263302
#
# Stress axis : x y z
#
# Youngs Moduli (GPa) = 44.24569 106.05015 60.51501
#
# Poissons Ratio (x) = 0.49747 0.51635
# Poissons Ratio (y) = 0.20755 -0.01587
# Poissons Ratio (z) = 0.37753 -0.02782
#
# Static dielectric constant tensor:
#      x y z
#    x 1.961780 0.014700 0.060580 
#    y 0.014700 2.069120 -0.002910 
#    z 0.060580 -0.002910 2.030140 
# 
# From -- ./inp_files/418673.got.cif
#   From: 2010.05.17/outbox.cif.g08.bks.cpg/sg2_210_cif.got.tgz:418673.got - 2010.06.03 11:33:40.
