data_PCOD9092170
_publ_section_title
;
Structure prediction by ZEFSAII (Michael W. Deem and Ramdas Pophale) SiO2 
 PCOD9092170
Probable space group: P -1
;
_chemical_formula_sum "Si O2"
_cell_formula_units_Z 16
_cell_length_a 24.444014
_cell_length_b 30.374066
_cell_length_c 12.111350
_cell_angle_alpha 152.802181
_cell_angle_beta 25.652222
_cell_angle_gamma 170.553832
_cell_volume 638.888280
_symmetry_space_group_name_H-M "P -1"
_symmetry_group_IT_number 2
_symmetry_cell_setting 'triclinic'
loop_
_space_group_symop_operation_xyz
x,y,z
-x,-y,-z
loop_
_atom_site_type_symbol
_atom_site_label
_atom_site_fract_x
_atom_site_fract_y
_atom_site_fract_z
Si Si1 0.071734 0.251730 0.115873
Si Si2 0.179832 0.770247 0.732011
Si Si3 0.659203 0.992317 0.498762
Si Si4 0.351718 0.767209 0.209961
Si Si5 0.247747 0.174511 0.547425
Si Si6 0.010448 0.326366 0.800024
Si Si7 0.879805 0.774547 0.480943
Si Si8 0.466498 0.319439 0.948110
O O1 0.364283 0.516594 0.105021
O O2 0.182797 0.219876 0.844697
O O3 0.962305 0.216908 0.354544
O O4 0.706506 0.988486 0.122800
O O5 0.306637 0.779043 0.604403
O O6 0.171857 0.716410 0.504039
O O7 0.797260 0.544091 0.933556
O O8 0.495492 0.072075 0.818124
O O9 0.659411 0.879826 0.278419
O O10 0.710883 0.094720 0.739330
O O11 0.097466 0.497503 0.052760
O O12 0.636142 0.454225 0.418370
O O13 0.000000 0.000000 0.500000
O O14 0.150665 0.012347 0.432364
O O15 0.990419 0.235499 0.732338
O O16 0.500000 0.500000 0.500000
O O17 0.808951 0.801113 0.768365
#
# Coordination Sequence:
#
# PCOD9092170 Si02
#       8
#     2   2   2   2   2   2   2   2
#     4  10  19  40  67  89 131 173 221 262 316 388
#     4   9  21  42  72  94 122 179 228 270 323 380
#     4  11  25  42  62 102 136 176 218 270 333 390
#     4   9  19  41  69  95 125 170 228 273 314 390
#     4  12  21  41  65  98 128 171 218 264 324 390
#     4  12  26  41  67 101 141 169 211 278 340 384
#     4  12  24  40  69 102 131 169 223 269 327 393
#     4  11  22  42  71  95 133 175 226 269 317 398
#
# _framework density 25.043502
#
# number of rings (size 3 to 8) (size 9 to 14) (size 15 to 20)
#    0.000    1.250    5.000    1.125    3.500    2.500 
#    0.000    0.625    0.000    0.000    0.000    0.000 
#    0.000    0.000    0.000    0.000    0.000    0.000 
#
# Total GULP energy -89671.549762 kJ/mol
# GULP energy per Si atom -5604.471860 kJ/mol
# Density = 2.498650 g / cm^3
# Si number density = 25.043502 Si / 1000 Ang^3
#
#
#
# Elastic Constant Matrix: (Units=GPa)
#
#
# Indices 1 2 3 4 5 6 
#
# 1 107.8777 41.2367 29.2303 30.9424 1.2017 -23.1963
# 2 41.2367 47.3838 10.3762 13.3529 -2.2345 -15.2990
# 3 29.2303 10.3762 124.7963 21.3630 -5.5274 -9.5963
# 4 30.9424 13.3529 21.3630 42.0722 -8.5498 -7.3260
# 5 1.2017 -2.2345 -5.5274 -8.5498 36.9833 2.9701
# 6 -23.1963 -15.2990 -9.5963 -7.3260 2.9701 44.2521
#
#
#
# Elastic Compliance Matrix: (Units=1/GPa)
#
#
# Indices 1 2 3 4 5 6 
#
# 1 0.017253 -0.011293 -0.001541 -0.008441 -0.003718 0.003658
# 2 -0.011293 0.032919 0.000591 -0.001167 0.001750 0.005279
# 3 -0.001541 0.000591 0.008985 -0.003367 0.000590 0.000748
# 4 -0.008441 -0.001167 -0.003367 0.033488 0.007484 -0.000517
# 5 -0.003718 0.001750 0.000590 0.007484 0.029240 -0.001939
# 6 0.003658 0.005279 0.000748 -0.000517 -0.001939 0.026547
#
#
# Mechanical properties :
#
#
# Convention : Reuss Voigt Hill
#
# Bulk Modulus (GPa) = 28.84187 49.08271 38.96229
# Shear Modulus (GPa) = 27.10424 37.94249 32.52337
#
# Velocity S-wave (km/s) = 3.29338 3.89660 3.60762
# Velocity P-wave (km/s) = 5.09936 6.31555 5.73976
#
# Compressibility (1/GPa) = 0.03467181
#
# Stress axis : x y z
#
# Youngs Moduli (GPa) = 57.96055 30.37785 111.30016
#
# Poissons Ratio (x) = 0.34306 0.17147
# Poissons Ratio (y) = 0.65456 -0.06582
# Poissons Ratio (z) = 0.08929 -0.01797
#
# Static dielectric constant tensor:
#      x y z
#    x 1.977260 0.033000 0.023120 
#    y 0.033000 2.008230 0.009410 
#    z 0.023120 0.009410 1.995250 
# 
# From -- ./inp_files/272312.got.cif
#   From: 2010.05.17/outbox.cif.g08.bks.cpg/sg2_137_cif.got.tgz:272312.got - 2010.06.03 11:33:40.
