data_PCOD9092467
_publ_section_title
;
Structure prediction by ZEFSAII (Michael W. Deem and Ramdas Pophale) SiO2 
 PCOD9092467
Probable space group: P -1
;
_chemical_formula_sum "Si O2"
_cell_formula_units_Z 14
_cell_length_a 17.185963
_cell_length_b 25.225442
_cell_length_c 13.925001
_cell_angle_alpha 162.145911
_cell_angle_beta 156.151889
_cell_angle_gamma 15.725130
_cell_volume 501.530211
_symmetry_space_group_name_H-M "P -1"
_symmetry_group_IT_number 2
_symmetry_cell_setting 'triclinic'
loop_
_space_group_symop_operation_xyz
x,y,z
-x,-y,-z
loop_
_atom_site_type_symbol
_atom_site_label
_atom_site_fract_x
_atom_site_fract_y
_atom_site_fract_z
Si Si1 0.319537 0.455159 0.616849
Si Si2 0.276491 0.477886 0.826506
Si Si3 0.275219 0.816957 0.883043
Si Si4 0.082102 0.461306 0.177295
Si Si5 0.700596 0.987357 0.570996
Si Si6 0.904942 0.868361 0.251156
Si Si7 0.634395 0.226670 0.301893
O O1 0.196280 0.519727 0.696270
O O2 0.100937 0.567523 0.477542
O O3 0.574691 0.143920 0.354555
O O4 0.486184 0.524875 0.910079
O O5 0.447560 0.196265 0.572178
O O6 0.031605 0.689081 0.991330
O O7 0.475968 0.516249 0.606193
O O8 0.273980 0.891524 0.903470
O O9 0.962906 0.942115 0.762819
O O10 0.383984 0.882438 0.195776
O O11 0.396268 0.269018 0.154763
O O12 0.846439 0.703759 0.260287
O O13 0.041449 0.295125 0.880147
O O14 0.097560 0.908286 0.560563
#
# Coordination Sequence:
#
# PCOD9092467 Si02
#       7
#     2   2   2   2   2   2   2
#     4  11  24  45  68 101 132 178 226 276 322 408
#     4  11  23  43  74  97 131 179 227 269 342 386
#     4   9  17  34  65  91 130 170 215 263 335 385
#     4  11  25  43  67  98 139 169 223 274 333 396
#     4  10  19  41  66 101 132 170 222 281 323 404
#     4  12  24  44  68  98 137 178 220 275 332 399
#     4  10  20  39  62  95 127 175 216 266 328 392
#
# _framework density 27.914567999999999
#
# number of rings (size 3 to 8) (size 9 to 14) (size 15 to 20)
#    0.000    1.429    2.857    3.429    0.000    2.286 
#    2.571   10.000    0.000    0.000    0.000    0.000 
#    0.000    0.000    0.000    0.000    0.000    0.000 
#
# Total GULP energy -78666.848118 kJ/mol
# GULP energy per Si atom -5619.060580 kJ/mol
# Density = 2.785103 g / cm^3
# Si number density = 27.914568 Si / 1000 Ang^3
#
#
#
# Elastic Constant Matrix: (Units=GPa)
#
#
# Indices 1 2 3 4 5 6 
#
# 1 177.2315 44.2285 44.6991 4.6991 -2.9606 -11.9558
# 2 44.2285 103.4328 34.9175 2.5799 15.6883 9.1885
# 3 44.6991 34.9175 106.0685 16.7297 19.2441 8.2295
# 4 4.6991 2.5799 16.7297 48.1130 14.5228 7.6625
# 5 -2.9606 15.6883 19.2441 14.5228 52.0716 -2.3291
# 6 -11.9558 9.1885 8.2295 7.6625 -2.3291 47.3642
#
#
#
# Elastic Compliance Matrix: (Units=1/GPa)
#
#
# Indices 1 2 3 4 5 6 
#
# 1 0.007333 -0.002881 -0.002730 -0.000930 0.002695 0.003167
# 2 -0.002881 0.012486 -0.002278 0.002076 -0.003809 -0.003277
# 3 -0.002730 -0.002278 0.012535 -0.002572 -0.003481 -0.002180
# 4 -0.000930 0.002076 -0.002572 0.024403 -0.006734 -0.004470
# 5 0.002695 -0.003809 -0.003481 -0.006734 0.023862 0.004287
# 6 0.003167 -0.003277 -0.002180 -0.004470 0.004287 0.023861
#
#
# Mechanical properties :
#
#
# Convention : Reuss Voigt Hill
#
# Bulk Modulus (GPa) = 60.32953 70.49142 65.41047
# Shear Modulus (GPa) = 39.75098 47.03561 43.39330
#
# Velocity S-wave (km/s) = 3.77772 4.10931 3.94700
# Velocity P-wave (km/s) = 6.37866 6.91539 6.65244
#
# Compressibility (1/GPa) = 0.01657563
#
# Stress axis : x y z
#
# Youngs Moduli (GPa) = 136.36702 80.08763 79.77849
#
# Poissons Ratio (x) = 0.23074 0.21778
# Poissons Ratio (y) = 0.39288 0.18177
# Poissons Ratio (z) = 0.37226 0.18247
#
# Static dielectric constant tensor:
#      x y z
#    x 2.143890 -0.030170 -0.011210 
#    y -0.030170 2.102370 -0.007980 
#    z -0.011210 -0.007980 2.159780 
# 
# From -- ./inp_files/535454.got.cif
#   From: 2010.05.17/outbox.cif.g08.bks.cpg/sg2_268_cif.got.tgz:535454.got - 2010.06.03 11:33:40.
