data_PCOD9092758
_publ_section_title
;
Structure prediction by ZEFSAII (Michael W. Deem and Ramdas Pophale) SiO2 
 PCOD9092758
Probable space group: P -1
;
_chemical_formula_sum "Si O2"
_cell_formula_units_Z 16
_cell_length_a 12.035343
_cell_length_b 9.342382
_cell_length_c 14.307082
_cell_angle_alpha 150.091628
_cell_angle_beta 76.473403
_cell_angle_gamma 114.731506
_cell_volume 698.473294
_symmetry_space_group_name_H-M "P -1"
_symmetry_group_IT_number 2
_symmetry_cell_setting 'triclinic'
loop_
_space_group_symop_operation_xyz
x,y,z
-x,-y,-z
loop_
_atom_site_type_symbol
_atom_site_label
_atom_site_fract_x
_atom_site_fract_y
_atom_site_fract_z
Si Si1 0.631602 0.526473 0.032010
Si Si2 0.125899 0.217056 0.348219
Si Si3 0.103715 0.909648 0.377408
Si Si4 0.934179 0.813187 0.999088
Si Si5 0.638728 0.419582 0.635210
Si Si6 0.538884 0.868322 0.007311
Si Si7 0.648497 0.057622 0.612028
Si Si8 0.758493 0.106896 0.237381
O O1 0.591668 0.362326 0.045998
O O2 0.673450 0.304736 0.833883
O O3 0.500000 0.500000 0.000000
O O4 0.713748 0.911501 0.233333
O O5 0.254375 0.385738 0.353496
O O6 0.130404 0.539628 0.574739
O O7 0.114403 0.992975 0.312160
O O8 0.011865 0.010039 0.185057
O O9 0.251140 0.090681 0.485170
O O10 0.070987 0.537444 0.193136
O O11 0.000000 0.000000 0.500000
O O12 0.808329 0.867931 0.048816
O O13 0.000000 0.000000 0.000000
O O14 0.669981 0.226136 0.601546
O O15 0.500972 0.181737 0.484898
O O16 0.607061 0.667331 0.839558
O O17 0.640479 0.098218 0.194857
O O18 0.500000 0.000000 0.000000
#
# Coordination Sequence:
#
# PCOD9092758 Si02
#       8
#     2   2   2   2   2   2   2   2
#     4  10  19  42  67  97 142 191 239 294 366 445
#     4  12  28  45  74 113 149 191 252 315 377 437
#     4  12  28  51  73 108 155 198 249 315 382 435
#     4  12  25  51  78 101 143 197 259 305 363 456
#     4  11  24  43  71 111 145 192 254 303 378 446
#     4  11  24  39  66 109 149 188 239 309 376 438
#     4  11  23  45  73 105 150 198 246 310 368 457
#     4  11  23  45  70 103 143 196 247 294 367 447
#
# _framework density 22.907105000000001
#
# number of rings (size 3 to 8) (size 9 to 14) (size 15 to 20)
#    0.000    0.750    3.750    4.500    5.250    1.500 
#    0.000    0.000    0.000    0.000    0.000    0.000 
#    0.000    0.000    0.000    0.000    0.000    0.000 
#
# Total GULP energy -89228.708070 kJ/mol
# GULP energy per Si atom -5576.794254 kJ/mol
# Density = 2.285497 g / cm^3
# Si number density = 22.907105 Si / 1000 Ang^3
#
#
#
# Elastic Constant Matrix: (Units=GPa)
#
#
# Indices 1 2 3 4 5 6 
#
# 1 115.2458 45.4893 24.6042 -7.5945 -10.3177 -15.0935
# 2 45.4893 175.0810 20.7523 5.6034 -6.6810 -17.7010
# 3 24.6042 20.7523 89.0636 11.1138 -4.0423 -16.1349
# 4 -7.5945 5.6034 11.1138 32.6128 6.8195 -0.9973
# 5 -10.3177 -6.6810 -4.0423 6.8195 30.4158 -12.4246
# 6 -15.0935 -17.7010 -16.1349 -0.9973 -12.4246 34.3779
#
#
#
# Elastic Compliance Matrix: (Units=1/GPa)
#
#
# Indices 1 2 3 4 5 6 
#
# 1 0.011080 -0.002129 -0.001918 0.002853 0.004226 0.004478
# 2 -0.002129 0.006782 0.000021 -0.002119 0.002662 0.003468
# 3 -0.001918 0.000021 0.014204 -0.006270 0.005816 0.007756
# 4 0.002853 -0.002119 -0.006270 0.035886 -0.010662 -0.005593
# 5 0.004226 0.002662 0.005816 -0.010662 0.047357 0.022762
# 6 0.004478 0.003468 0.007756 -0.005593 0.022762 0.044545
#
#
# Mechanical properties :
#
#
# Convention : Reuss Voigt Hill
#
# Bulk Modulus (GPa) = 41.63915 62.34245 51.99080
# Shear Modulus (GPa) = 28.42376 38.71761 33.57069
#
# Velocity S-wave (km/s) = 3.52636 4.11567 3.83236
# Velocity P-wave (km/s) = 5.89891 7.06112 6.50602
#
# Compressibility (1/GPa) = 0.02401586
#
# Stress axis : x y z
#
# Youngs Moduli (GPa) = 90.25631 147.44398 70.40255
#
# Poissons Ratio (x) = 0.31386 0.13501
# Poissons Ratio (y) = 0.19212 -0.00150
# Poissons Ratio (z) = 0.17308 -0.00314
#
# Static dielectric constant tensor:
#      x y z
#    x 1.887010 0.051080 0.020880 
#    y 0.051080 1.871490 0.020190 
#    z 0.020880 0.020190 1.901800 
# 
# From -- ./inp_files/516463.got.cif
#   From: 2010.05.17/outbox.cif.g08.bks.cpg/sg2_259_cif.got.tgz:516463.got - 2010.06.03 11:33:40.
