data_PCOD9092896
_publ_section_title
;
Structure prediction by ZEFSAII (Michael W. Deem and Ramdas Pophale) SiO2 
 PCOD9092896
Probable space group: P -1
;
_chemical_formula_sum "Si O2"
_cell_formula_units_Z 16
_cell_length_a 11.601969
_cell_length_b 18.414033
_cell_length_c 7.449514
_cell_angle_alpha 58.120693
_cell_angle_beta 126.800693
_cell_angle_gamma 150.953466
_cell_volume 618.685698
_symmetry_space_group_name_H-M "P -1"
_symmetry_group_IT_number 2
_symmetry_cell_setting 'triclinic'
loop_
_space_group_symop_operation_xyz
x,y,z
-x,-y,-z
loop_
_atom_site_type_symbol
_atom_site_label
_atom_site_fract_x
_atom_site_fract_y
_atom_site_fract_z
Si Si1 0.872119 0.097999 0.376105
Si Si2 0.029630 0.078947 0.200935
Si Si3 0.286631 0.351460 0.876469
Si Si4 0.997148 0.617753 0.557064
Si Si5 0.430891 0.712603 0.410850
Si Si6 0.308484 0.800487 0.941634
Si Si7 0.536650 0.917192 0.639201
Si Si8 0.330939 0.253225 0.746737
O O1 0.893403 0.040703 0.308934
O O2 0.750593 0.128810 0.170498
O O3 0.167095 0.246865 0.503710
O O4 0.742573 0.006051 0.562377
O O5 0.316631 0.188018 0.373936
O O6 0.633541 0.222501 0.794608
O O7 0.082477 0.191357 0.993946
O O8 0.864975 0.920948 0.170749
O O9 0.130241 0.352535 0.639350
O O10 0.423572 0.348228 0.881531
O O11 0.500000 0.500000 0.000000
O O12 0.810885 0.455211 0.526677
O O13 0.073621 0.652307 0.795331
O O14 0.273353 0.746526 0.557270
O O15 0.474542 0.688746 0.287222
O O16 0.532710 0.897022 0.876398
O O17 0.500000 0.000000 0.500000
#
# Coordination Sequence:
#
# PCOD9092896 Si02
#       8
#     2   2   2   2   2   2   2   2
#     4  10  19  43  73 104 142 191 245 291 350 437
#     4  11  26  44  73 109 150 185 246 299 363 424
#     4  12  24  47  75 107 141 191 245 302 360 438
#     4  10  21  41  71 104 147 186 244 299 360 427
#     4  11  22  42  71 113 147 186 241 301 362 431
#     4   9  20  38  73 106 144 194 234 296 362 426
#     4   8  17  35  63 103 139 185 238 289 354 418
#     4  11  25  46  72 103 148 191 238 304 362 425
#
# _framework density 25.861270999999999
#
# number of rings (size 3 to 8) (size 9 to 14) (size 15 to 20)
#    0.750    1.000    2.500    2.250    0.000    5.500 
#    0.000    7.500    0.000    4.500    0.000    0.000 
#    0.000    0.000    0.000    0.000    0.000    0.000 
#
# Total GULP energy -89371.846101 kJ/mol
# GULP energy per Si atom -5585.740381 kJ/mol
# Density = 2.580241 g / cm^3
# Si number density = 25.861271 Si / 1000 Ang^3
#
#
#
# Elastic Constant Matrix: (Units=GPa)
#
#
# Indices 1 2 3 4 5 6 
#
# 1 117.5006 17.4127 17.6922 -3.8945 12.3363 -20.4830
# 2 17.4127 114.4949 16.2368 10.3080 10.7342 -18.5048
# 3 17.6922 16.2368 95.2446 -2.2768 24.6342 -15.4458
# 4 -3.8945 10.3080 -2.2768 42.0799 -9.7085 -3.2865
# 5 12.3363 10.7342 24.6342 -9.7085 50.5704 4.2747
# 6 -20.4830 -18.5048 -15.4458 -3.2865 4.2747 40.9242
#
#
#
# Elastic Compliance Matrix: (Units=1/GPa)
#
#
# Indices 1 2 3 4 5 6 
#
# 1 0.009755 -0.000510 -0.000305 0.000843 -0.002371 0.004852
# 2 -0.000510 0.010053 -0.000280 -0.002834 -0.002776 0.004247
# 3 -0.000305 -0.000280 0.013242 -0.000402 -0.006850 0.005402
# 4 0.000843 -0.002834 -0.000402 0.025824 0.005508 0.000487
# 5 -0.002371 -0.002776 -0.006850 0.005508 0.025953 -0.007296
# 6 0.004852 0.004247 0.005402 0.000487 -0.007296 0.031625
#
#
# Mechanical properties :
#
#
# Convention : Reuss Voigt Hill
#
# Bulk Modulus (GPa) = 32.40354 47.76929 40.08641
# Shear Modulus (GPa) = 38.78158 45.10813 41.94486
#
# Velocity S-wave (km/s) = 3.87667 4.18093 4.03167
# Velocity P-wave (km/s) = 5.70921 6.46672 6.09973
#
# Compressibility (1/GPa) = 0.03086083
#
# Stress axis : x y z
#
# Youngs Moduli (GPa) = 102.51391 99.47177 75.51815
#
# Poissons Ratio (x) = 0.05070 0.02301
# Poissons Ratio (y) = 0.05225 0.02115
# Poissons Ratio (z) = 0.03124 0.02785
#
# Static dielectric constant tensor:
#      x y z
#    x 2.020030 -0.015060 -0.013250 
#    y -0.015060 2.155270 0.005350 
#    z -0.013250 0.005350 2.137340 
# 
# From -- ./inp_files/277829.got.cif
#   From: 2010.05.17/outbox.cif.g08.bks.cpg/sg2_139_cif.got.tgz:277829.got - 2010.06.03 11:33:40.
