data_PCOD9092168
_publ_section_title
;
Structure prediction by ZEFSAII (Michael W. Deem and Ramdas Pophale) SiO2 
 PCOD9092168
Probable space group: P -1
;
_chemical_formula_sum "Si O2"
_cell_formula_units_Z 16
_cell_length_a 10.900798
_cell_length_b 11.577328
_cell_length_c 12.006320
_cell_angle_alpha 119.997011
_cell_angle_beta 52.682532
_cell_angle_gamma 144.778973
_cell_volume 694.948586
_symmetry_space_group_name_H-M "P -1"
_symmetry_group_IT_number 2
_symmetry_cell_setting 'triclinic'
loop_
_space_group_symop_operation_xyz
x,y,z
-x,-y,-z
loop_
_atom_site_type_symbol
_atom_site_label
_atom_site_fract_x
_atom_site_fract_y
_atom_site_fract_z
Si Si1 0.382463 0.015170 0.233762
Si Si2 0.610583 0.987394 0.260023
Si Si3 0.861874 0.651307 0.298213
Si Si4 0.581302 0.353948 0.119708
Si Si5 0.417341 0.271777 0.507378
Si Si6 0.859476 0.271806 0.469707
Si Si7 0.297845 0.446249 0.326639
Si Si8 0.558129 0.382376 0.896678
O O1 0.578397 0.042868 0.187195
O O2 0.126673 0.791994 0.247494
O O3 0.469308 0.153573 0.144534
O O4 0.354431 0.102468 0.392073
O O5 0.362592 0.846576 0.388834
O O6 0.637371 0.847955 0.149238
O O7 0.779047 0.163367 0.341695
O O8 0.798970 0.541345 0.162988
O O9 0.650521 0.470605 0.408662
O O10 0.800655 0.769322 0.386126
O O11 0.404354 0.367051 0.234111
O O12 0.637843 0.378982 0.970343
O O13 0.524297 0.340770 0.605024
O O14 0.000000 0.500000 0.500000
O O15 0.037510 0.282993 0.434536
O O16 0.272710 0.489877 0.238335
O O17 0.500000 0.500000 0.000000
#
# Coordination Sequence:
#
# PCOD9092168 Si02
#       8
#     2   2   2   2   2   2   2   2
#     4  11  21  36  59  92 128 160 206 258 316 384
#     4  11  25  39  65  98 127 169 208 262 322 383
#     4   9  18  35  57  88 123 167 205 245 313 378
#     4   9  22  42  60  89 127 167 212 259 305 365
#     4   9  18  32  58  91 127 157 198 259 318 368
#     4  11  22  41  64 100 134 160 207 262 334 378
#     4  10  19  40  67  89 125 168 204 267 317 371
#     4  10  22  46  66  85 128 173 219 266 301 365
#
# _framework density 23.023285000000001
#
# number of rings (size 3 to 8) (size 9 to 14) (size 15 to 20)
#    0.000    2.000    1.250    2.625    1.750    2.500 
#    6.750    1.875    0.000    0.000    0.000    0.000 
#    0.000    0.000    0.000    0.000    0.000    0.000 
#
# Total GULP energy -89221.881446 kJ/mol
# GULP energy per Si atom -5576.367590 kJ/mol
# Density = 2.297088 g / cm^3
# Si number density = 23.023285 Si / 1000 Ang^3
#
#
#
# Elastic Constant Matrix: (Units=GPa)
#
#
# Indices 1 2 3 4 5 6 
#
# 1 81.0146 36.6789 22.9339 6.3618 15.3739 -0.9907
# 2 36.6789 85.4972 18.8029 20.0518 11.5110 -1.3374
# 3 22.9339 18.8029 73.2829 20.2779 23.8616 -12.2922
# 4 6.3618 20.0518 20.2779 31.7130 -7.0104 6.4379
# 5 15.3739 11.5110 23.8616 -7.0104 29.0405 -5.6671
# 6 -0.9907 -1.3374 -12.2922 6.4379 -5.6671 36.1704
#
#
#
# Elastic Compliance Matrix: (Units=1/GPa)
#
#
# Indices 1 2 3 4 5 6 
#
# 1 0.016723 -0.006777 -0.003942 0.003320 -0.002540 -0.002121
# 2 -0.006777 0.019870 0.008925 -0.021407 -0.015830 0.004912
# 3 -0.003942 0.008925 0.041294 -0.043870 -0.042980 0.015330
# 4 0.003320 -0.021407 -0.043870 0.090283 0.060228 -0.022242
# 5 -0.002540 -0.015830 -0.042980 0.060228 0.089577 -0.011946
# 6 -0.002121 0.004912 0.015330 -0.022242 -0.011946 0.035067
#
#
# Mechanical properties :
#
#
# Convention : Reuss Voigt Hill
#
# Bulk Modulus (GPa) = 13.45921 44.06956 28.76439
# Shear Modulus (GPa) = 15.56812 30.14337 22.85574
#
# Velocity S-wave (km/s) = 2.60319 3.62229 3.15417
# Velocity P-wave (km/s) = 3.85928 6.05619 5.07797
#
# Compressibility (1/GPa) = 0.07429856
#
# Stress axis : x y z
#
# Youngs Moduli (GPa) = 59.79743 50.32758 24.21630
#
# Poissons Ratio (x) = 0.34108 0.09546
# Poissons Ratio (y) = 0.40526 -0.21612
# Poissons Ratio (z) = 0.23571 -0.44916
#
# Static dielectric constant tensor:
#      x y z
#    x 1.695980 -0.001960 0.076820 
#    y -0.001960 1.849970 -0.011710 
#    z 0.076820 -0.011710 1.929920 
# 
# From -- ./inp_files/370543.got.cif
#   From: 2010.05.17/outbox.cif.g08.bks.cpg/sg2_186_cif.got.tgz:370543.got - 2010.06.03 11:33:40.
