data_PCOD9092946
_publ_section_title
;
Structure prediction by ZEFSAII (Michael W. Deem and Ramdas Pophale) SiO2 
 PCOD9092946
Probable space group: P -1
;
_chemical_formula_sum "Si O2"
_cell_formula_units_Z 14
_cell_length_a 7.358455
_cell_length_b 14.246553
_cell_length_c 13.469240
_cell_angle_alpha 57.880831
_cell_angle_beta 32.780634
_cell_angle_gamma 55.891514
_cell_volume 627.250398
_symmetry_space_group_name_H-M "P -1"
_symmetry_group_IT_number 2
_symmetry_cell_setting 'triclinic'
loop_
_space_group_symop_operation_xyz
x,y,z
-x,-y,-z
loop_
_atom_site_type_symbol
_atom_site_label
_atom_site_fract_x
_atom_site_fract_y
_atom_site_fract_z
Si Si1 0.181967 0.097698 0.629347
Si Si2 0.358758 0.561044 0.429427
Si Si3 0.389801 0.286992 0.326217
Si Si4 0.150645 0.603205 0.837962
Si Si5 0.831202 0.798533 0.725385
Si Si6 0.660502 0.004398 0.033697
Si Si7 0.584287 0.194809 0.691820
O O1 0.319411 0.212604 0.495400
O O2 0.887077 0.126963 0.663944
O O3 0.500000 0.000000 0.500000
O O4 0.998684 0.053354 0.831806
O O5 0.500000 0.500000 0.500000
O O6 0.496982 0.466003 0.337716
O O7 0.502962 0.676245 0.297702
O O8 0.947214 0.608117 0.589491
O O9 0.737520 0.324271 0.166622
O O10 0.381127 0.219984 0.264959
O O11 0.907920 0.688793 0.824436
O O12 0.000000 0.500000 0.000000
O O13 0.618983 0.907553 0.821126
O O14 0.207713 0.806840 0.506100
O O15 0.700507 0.877984 0.132278
O O16 0.500000 0.000000 0.000000
#
# Coordination Sequence:
#
# PCOD9092946 Si02
#       7
#     2   2   2   2   2   2   2
#     4   9  20  38  64  92 135 168 216 274 334 390
#     4  10  19  45  64  98 132 179 222 262 341 392
#     4  10  24  44  66  95 139 177 219 279 332 404
#     4  12  26  39  74  96 130 180 227 277 338 397
#     4  10  22  44  65  99 139 174 223 275 343 388
#     4  10  21  37  69  98 128 177 224 272 329 405
#     4   9  20  38  69  92 137 178 215 273 327 399
#
# _framework density 22.319634000000001
#
# number of rings (size 3 to 8) (size 9 to 14) (size 15 to 20)
#    0.000    2.286    2.857    0.857   10.000    0.571 
#    0.000    2.857    0.000    0.000    0.000    0.000 
#    0.000    0.000    0.000    0.000    0.000    0.000 
#
# Total GULP energy -78107.799505 kJ/mol
# GULP energy per Si atom -5579.128536 kJ/mol
# Density = 2.226883 g / cm^3
# Si number density = 22.319634 Si / 1000 Ang^3
#
#
#
# Elastic Constant Matrix: (Units=GPa)
#
#
# Indices 1 2 3 4 5 6 
#
# 1 84.4523 29.6306 35.3661 -21.7955 3.8592 20.7136
# 2 29.6306 101.3139 24.7047 -13.1466 1.8872 -0.8402
# 3 35.3661 24.7047 78.3720 -40.0137 -4.6373 9.3176
# 4 -21.7955 -13.1466 -40.0137 53.5737 5.0637 13.2001
# 5 3.8592 1.8872 -4.6373 5.0637 17.2293 2.8694
# 6 20.7136 -0.8402 9.3176 13.2001 2.8694 35.6759
#
#
#
# Elastic Compliance Matrix: (Units=1/GPa)
#
#
# Indices 1 2 3 4 5 6 
#
# 1 0.020605 -0.004461 -0.000656 0.011114 -0.004970 -0.015609
# 2 -0.004461 0.011810 -0.003907 -0.002964 -0.001323 0.005092
# 3 -0.000656 -0.003907 0.028598 0.023772 0.004000 -0.016298
# 4 0.011114 -0.002964 0.023772 0.048102 -0.004885 -0.030136
# 5 -0.004970 -0.001323 0.004000 -0.004885 0.062040 -0.001373
# 6 -0.015609 0.005092 -0.016298 -0.030136 -0.001373 0.052730
#
#
# Mechanical properties :
#
#
# Convention : Reuss Voigt Hill
#
# Bulk Modulus (GPa) = 23.27416 49.28233 36.27825
# Shear Modulus (GPa) = 19.51190 32.92490 26.21840
#
# Velocity S-wave (km/s) = 2.95990 3.84494 3.43108
# Velocity P-wave (km/s) = 4.70443 6.46835 5.65558
#
# Compressibility (1/GPa) = 0.04296611
#
# Stress axis : x y z
#
# Youngs Moduli (GPa) = 48.53263 84.67527 34.96694
#
# Poissons Ratio (x) = 0.37773 0.02293
# Poissons Ratio (y) = 0.21650 0.13661
# Poissons Ratio (z) = 0.03183 0.33080
#
# Static dielectric constant tensor:
#      x y z
#    x 1.862700 0.043270 0.002930 
#    y 0.043270 1.843670 -0.022640 
#    z 0.002930 -0.022640 1.932720 
# 
# From -- ./inp_files/505341.got.cif
#   From: 2010.05.17/outbox.cif.g08.bks.cpg/sg2_253_cif.got.tgz:505341.got - 2010.06.03 11:33:40.
