data_PCOD9092261
_publ_section_title
;
Structure prediction by ZEFSAII (Michael W. Deem and Ramdas Pophale) SiO2 
 PCOD9092261
Probable space group: P -1
;
_chemical_formula_sum "Si O2"
_cell_formula_units_Z 12
_cell_length_a 12.556418
_cell_length_b 7.788650
_cell_length_c 13.419108
_cell_angle_alpha 47.485976
_cell_angle_beta 31.814627
_cell_angle_gamma 67.314031
_cell_volume 445.898116
_symmetry_space_group_name_H-M "P -1"
_symmetry_group_IT_number 2
_symmetry_cell_setting 'triclinic'
loop_
_space_group_symop_operation_xyz
x,y,z
-x,-y,-z
loop_
_atom_site_type_symbol
_atom_site_label
_atom_site_fract_x
_atom_site_fract_y
_atom_site_fract_z
Si Si1 0.134223 0.360064 0.350883
Si Si2 0.547041 0.402320 0.632638
Si Si3 0.705295 0.980236 0.290061
Si Si4 0.965533 0.909745 0.828784
Si Si5 0.641258 0.307134 0.795941
Si Si6 0.027528 0.438191 0.202831
O O1 0.355333 0.612185 0.124240
O O2 0.908689 0.400985 0.522265
O O3 0.127893 0.317932 0.254369
O O4 0.082244 0.125493 0.562677
O O5 0.755124 0.344654 0.463681
O O6 0.395704 0.309062 0.567191
O O7 0.294429 0.157163 0.915471
O O8 0.560906 0.448616 0.723862
O O9 0.889032 0.016235 0.215796
O O10 0.500000 0.000000 0.500000
O O11 0.836344 0.243955 0.015692
O O12 0.934833 0.642032 0.905438
O O13 0.500000 0.000000 0.000000
#
# Coordination Sequence:
#
# PCOD9092261 Si02
#       6
#     2   2   2   2   2   2
#     4  10  22  41  69 106 141 176 235 290 341 420
#     4  11  24  45  73 101 139 187 235 288 350 411
#     4  12  26  50  69  98 147 189 235 291 349 413
#     4  12  24  48  73 100 146 185 230 293 354 413
#     4  10  19  40  69 105 137 182 226 284 354 405
#     4  11  26  45  71 110 139 184 240 283 349 425
#
# _framework density 26.911978999999999
#
# number of rings (size 3 to 8) (size 9 to 14) (size 15 to 20)
#    0.000    1.000    5.000    1.500    0.000    0.667 
#    9.000    1.667    0.000    0.000    0.000    0.000 
#    0.000    0.000    0.000    0.000    0.000    0.000 
#
# Total GULP energy -67211.152378 kJ/mol
# GULP energy per Si atom -5600.929365 kJ/mol
# Density = 2.685073 g / cm^3
# Si number density = 26.911979 Si / 1000 Ang^3
#
#
#
# Elastic Constant Matrix: (Units=GPa)
#
#
# Indices 1 2 3 4 5 6 
#
# 1 101.3936 -3.9345 36.4697 -13.7775 4.3804 1.0100
# 2 -3.9345 71.8185 16.7603 -16.8787 -1.8480 11.0696
# 3 36.4697 16.7603 123.4047 -17.5414 -11.4884 1.4075
# 4 -13.7775 -16.8787 -17.5414 56.5355 -8.4051 -1.2408
# 5 4.3804 -1.8480 -11.4884 -8.4051 53.6496 -4.2635
# 6 1.0100 11.0696 1.4075 -1.2408 -4.2635 35.4623
#
#
#
# Elastic Compliance Matrix: (Units=1/GPa)
#
#
# Indices 1 2 3 4 5 6 
#
# 1 0.011562 0.002058 -0.003512 0.002119 -0.001366 -0.000922
# 2 0.002058 0.016385 -0.002085 0.004683 0.000295 -0.004891
# 3 -0.003512 -0.002085 0.009959 0.002034 0.002726 0.000754
# 4 0.002119 0.004683 0.002034 0.020765 0.003642 -0.000438
# 5 -0.001366 0.000295 0.002726 0.003642 0.020105 0.002383
# 6 -0.000922 -0.004891 0.000754 -0.000438 0.002383 0.029993
#
#
# Mechanical properties :
#
#
# Convention : Reuss Voigt Hill
#
# Bulk Modulus (GPa) = 32.43740 43.91198 38.17469
# Shear Modulus (GPa) = 39.64405 45.61759 42.63082
#
# Velocity S-wave (km/s) = 3.84226 4.12158 3.98437
# Velocity P-wave (km/s) = 5.63589 6.24518 5.94834
#
# Compressibility (1/GPa) = 0.03082861
#
# Stress axis : x y z
#
# Youngs Moduli (GPa) = 86.49248 61.03025 100.41557
#
# Poissons Ratio (x) = -0.12560 0.35264
# Poissons Ratio (y) = -0.17800 0.20933
# Poissons Ratio (z) = 0.30375 0.12723
#
# Static dielectric constant tensor:
#      x y z
#    x 2.128600 0.038340 0.076120 
#    y 0.038340 2.168850 -0.001510 
#    z 0.076120 -0.001510 2.132930 
# 
# From -- ./inp_files/26425.got.cif
#   From: 2010.05.17/outbox.cif.g08.bks.cpg/sg2_14_cif.got.tgz:26425.got - 2010.06.03 11:33:40.
