data_PCOD9092386
_publ_section_title
;
Structure prediction by ZEFSAII (Michael W. Deem and Ramdas Pophale) SiO2 
 PCOD9092386
Probable space group: P -1
;
_chemical_formula_sum "Si O2"
_cell_formula_units_Z 16
_cell_length_a 11.543440
_cell_length_b 9.637275
_cell_length_c 21.517894
_cell_angle_alpha 42.245454
_cell_angle_beta 31.181254
_cell_angle_gamma 35.347730
_cell_volume 709.794466
_symmetry_space_group_name_H-M "P -1"
_symmetry_group_IT_number 2
_symmetry_cell_setting 'triclinic'
loop_
_space_group_symop_operation_xyz
x,y,z
-x,-y,-z
loop_
_atom_site_type_symbol
_atom_site_label
_atom_site_fract_x
_atom_site_fract_y
_atom_site_fract_z
Si Si1 0.065978 0.963727 0.785778
Si Si2 0.159811 0.370520 0.627060
Si Si3 0.384943 0.879374 0.409343
Si Si4 0.666563 0.598563 0.165888
Si Si5 0.446223 0.292571 0.189146
Si Si6 0.516709 0.707112 0.067673
Si Si7 0.816065 0.233459 0.587600
Si Si8 0.711471 0.014304 0.036623
O O1 0.209531 0.687277 0.791099
O O2 0.207868 0.114509 0.665992
O O3 0.784831 0.116151 0.830627
O O4 0.035000 0.011033 0.104557
O O5 0.375593 0.326948 0.593398
O O6 0.166869 0.533787 0.514843
O O7 0.866291 0.522418 0.740195
O O8 0.319448 0.809961 0.395873
O O9 0.456986 0.083311 0.295336
O O10 0.111575 0.005098 0.531029
O O11 0.694141 0.661560 0.060824
O O12 0.367679 0.715892 0.286648
O O13 0.765286 0.746567 0.110762
O O14 0.542392 0.455699 0.122041
O O15 0.610974 0.171150 0.092041
O O16 0.516571 0.838936 0.960457
#
# Coordination Sequence:
#
# PCOD9092386 Si02
#       8
#     2   2   2   2   2   2   2   2
#     4   9  23  39  60  87 127 156 201 249 291 366
#     4  10  21  40  62  91 120 157 200 255 301 355
#     4  10  20  41  60  93 120 155 202 256 301 357
#     4  12  21  42  60  91 122 167 195 245 311 358
#     4  10  19  41  62  91 123 155 205 252 296 351
#     4   9  22  37  61  87 124 160 196 247 296 359
#     4  10  23  37  64  87 126 155 201 254 299 360
#     4  10  21  41  63  87 127 160 201 254 293 352
#
# _framework density 22.541737000000001
#
# number of rings (size 3 to 8) (size 9 to 14) (size 15 to 20)
#    0.750    1.250    1.250    2.250    0.000    1.500 
#    4.500   10.000    0.000    0.000    0.000    0.000 
#    0.000    0.000    0.000    0.000    0.000    0.000 
#
# Total GULP energy -89314.857150 kJ/mol
# GULP energy per Si atom -5582.178572 kJ/mol
# Density = 2.249043 g / cm^3
# Si number density = 22.541737 Si / 1000 Ang^3
#
#
#
# Elastic Constant Matrix: (Units=GPa)
#
#
# Indices 1 2 3 4 5 6 
#
# 1 42.1395 17.9745 -9.8231 3.4571 -3.9679 -11.0675
# 2 17.9745 90.4645 27.6073 -3.9156 5.4787 14.2633
# 3 -9.8231 27.6073 67.9289 6.7058 -7.6670 14.1864
# 4 3.4571 -3.9156 6.7058 30.2801 8.0297 -7.3413
# 5 -3.9679 5.4787 -7.6670 8.0297 22.4634 -5.3456
# 6 -11.0675 14.2633 14.1864 -7.3413 -5.3456 27.4855
#
#
#
# Elastic Compliance Matrix: (Units=1/GPa)
#
#
# Indices 1 2 3 4 5 6 
#
# 1 0.044110 -0.018508 0.013396 -0.011991 0.026495 0.022402
# 2 -0.018508 0.022150 -0.011840 0.009322 -0.019405 -0.014120
# 3 0.013396 -0.011840 0.025277 -0.013957 0.018479 -0.001642
# 4 -0.011991 0.009322 -0.013957 0.046449 -0.024527 0.005174
# 5 0.026495 -0.019405 0.018479 -0.024527 0.073513 0.018947
# 6 0.022402 -0.014120 -0.001642 0.005174 0.018947 0.058645
#
#
# Mechanical properties :
#
#
# Convention : Reuss Voigt Hill
#
# Bulk Modulus (GPa) = 17.35111 30.22783 23.78947
# Shear Modulus (GPa) = 15.46747 27.03074 21.24911
#
# Velocity S-wave (km/s) = 2.62233 3.46662 3.07360
# Velocity P-wave (km/s) = 4.10887 5.42790 4.81378
#
# Compressibility (1/GPa) = 0.05763320
#
# Stress axis : x y z
#
# Youngs Moduli (GPa) = 22.67037 45.14740 39.56198
#
# Poissons Ratio (x) = 0.83560 -0.52999
# Poissons Ratio (y) = 0.41959 0.46841
# Poissons Ratio (z) = -0.30370 0.53454
#
# Static dielectric constant tensor:
#      x y z
#    x 1.842500 -0.036450 -0.007860 
#    y -0.036450 1.840040 -0.020180 
#    z -0.007860 -0.020180 1.825280 
# 
# From -- ./inp_files/593951.got.cif
#   From: 2010.05.17/outbox.cif.g08.bks.cpg/sg2_297_cif.got.tgz:593951.got - 2010.06.03 11:33:40.
