data_PCOD9092510
_publ_section_title
;
Structure prediction by ZEFSAII (Michael W. Deem and Ramdas Pophale) SiO2 
 PCOD9092510
Probable space group: P -1
;
_chemical_formula_sum "Si O2"
_cell_formula_units_Z 16
_cell_length_a 22.210284
_cell_length_b 5.164989
_cell_length_c 9.054610
_cell_angle_alpha 122.281307
_cell_angle_beta 125.750993
_cell_angle_gamma 51.188520
_cell_volume 633.288292
_symmetry_space_group_name_H-M "P -1"
_symmetry_group_IT_number 2
_symmetry_cell_setting 'triclinic'
loop_
_space_group_symop_operation_xyz
x,y,z
-x,-y,-z
loop_
_atom_site_type_symbol
_atom_site_label
_atom_site_fract_x
_atom_site_fract_y
_atom_site_fract_z
Si Si1 0.290592 0.307040 0.733241
Si Si2 0.184292 0.408086 0.125492
Si Si3 0.550417 0.336530 0.169132
Si Si4 0.738124 0.351022 0.921551
Si Si5 0.106790 0.497762 0.579338
Si Si6 0.428829 0.557141 0.302450
Si Si7 0.337313 0.332615 0.469116
Si Si8 0.946873 0.693837 0.249410
O O1 0.202634 0.303220 0.610713
O O2 0.322172 0.288293 0.607863
O O3 0.364481 0.005222 0.836556
O O4 0.273586 0.629879 0.911332
O O5 0.216114 0.443335 0.016894
O O6 0.242111 0.554106 0.338033
O O7 0.212170 0.056454 0.151550
O O8 0.089261 0.487410 0.973099
O O9 0.480000 0.325087 0.169388
O O10 0.590340 0.550081 0.379267
O O11 0.500000 0.500000 0.000000
O O12 0.645968 0.511531 0.770502
O O13 0.087594 0.326405 0.642200
O O14 0.046023 0.513430 0.363038
O O15 0.082903 0.900796 0.703839
O O16 0.500000 0.500000 0.500000
O O17 0.378567 0.967836 0.332033
#
# Coordination Sequence:
#
# PCOD9092510 Si02
#       8
#     2   2   2   2   2   2   2   2
#     4  12  25  43  62 102 134 173 222 287 338 395
#     4  11  22  44  68  99 134 175 227 264 342 396
#     4  12  28  43  68  93 131 182 232 286 334 396
#     4  11  25  39  70  95 128 176 221 286 321 399
#     4  10  22  37  71  99 142 161 230 269 338 389
#     4  11  23  45  60  89 127 174 229 274 335 398
#     4  11  27  41  66  92 134 183 219 285 338 404
#     4  10  19  41  67 107 126 182 212 280 322 410
#
# _framework density 25.264953999999999
#
# number of rings (size 3 to 8) (size 9 to 14) (size 15 to 20)
#    0.000    1.000    3.750    1.875   10.500    1.000 
#    0.000    0.625    0.000    0.750    0.000    0.000 
#    0.000    0.000    0.000    0.000    0.000    0.000 
#
# Total GULP energy -89238.271979 kJ/mol
# GULP energy per Si atom -5577.391999 kJ/mol
# Density = 2.520745 g / cm^3
# Si number density = 25.264954 Si / 1000 Ang^3
#
#
#
# Elastic Constant Matrix: (Units=GPa)
#
#
# Indices 1 2 3 4 5 6 
#
# 1 84.6539 20.0034 17.2372 -14.8768 26.9795 7.3222
# 2 20.0034 36.9789 22.6432 -6.8773 3.1930 20.5340
# 3 17.2372 22.6432 137.4386 -33.9543 44.5734 -13.8672
# 4 -14.8768 -6.8773 -33.9543 41.1558 -5.7120 6.6949
# 5 26.9795 3.1930 44.5734 -5.7120 58.3339 -11.3886
# 6 7.3222 20.5340 -13.8672 6.6949 -11.3886 24.2960
#
#
#
# Elastic Compliance Matrix: (Units=1/GPa)
#
#
# Indices 1 2 3 4 5 6 
#
# 1 0.018010 -0.007757 0.004117 0.007700 -0.011043 -0.003820
# 2 -0.007757 0.108056 -0.022978 0.013213 -0.004535 -0.107869
# 3 0.004117 -0.022978 0.017467 0.007242 -0.009002 0.021934
# 4 0.007700 0.013213 0.007242 0.037793 -0.010982 -0.024916
# 5 -0.011043 -0.004535 -0.009002 -0.010982 0.032237 0.020160
# 6 -0.003820 -0.107869 0.021934 -0.024916 0.020160 0.162311
#
#
# Mechanical properties :
#
#
# Convention : Reuss Voigt Hill
#
# Bulk Modulus (GPa) = 11.07444 42.09320 26.58382
# Shear Modulus (GPa) = 10.88828 38.03631 24.46230
#
# Velocity S-wave (km/s) = 2.07822 3.88428 3.11502
# Velocity P-wave (km/s) = 3.18614 6.06743 4.84589
#
# Compressibility (1/GPa) = 0.09029802
#
# Stress axis : x y z
#
# Youngs Moduli (GPa) = 55.52326 9.25446 57.25149
#
# Poissons Ratio (x) = 0.07179 -0.23573
# Poissons Ratio (y) = 0.43069 1.31553
# Poissons Ratio (z) = -0.22861 0.21265
#
# Static dielectric constant tensor:
#      x y z
#    x 1.831460 0.071900 0.046350 
#    y 0.071900 2.057370 0.021010 
#    z 0.046350 0.021010 2.087760 
# 
# From -- ./inp_files/351086.got.cif
#   From: 2010.05.17/outbox.cif.g08.bks.cpg/sg2_176_cif.got.tgz:351086.got - 2010.06.03 11:33:40.
