data_PCOD9092866
_publ_section_title
;
Structure prediction by ZEFSAII (Michael W. Deem and Ramdas Pophale) SiO2 
 PCOD9092866
Probable space group: P -1
;
_chemical_formula_sum "Si O2"
_cell_formula_units_Z 16
_cell_length_a 11.302736
_cell_length_b 19.624837
_cell_length_c 13.811472
_cell_angle_alpha 36.775812
_cell_angle_beta 29.939177
_cell_angle_gamma 28.674291
_cell_volume 722.973228
_symmetry_space_group_name_H-M "P -1"
_symmetry_group_IT_number 2
_symmetry_cell_setting 'triclinic'
loop_
_space_group_symop_operation_xyz
x,y,z
-x,-y,-z
loop_
_atom_site_type_symbol
_atom_site_label
_atom_site_fract_x
_atom_site_fract_y
_atom_site_fract_z
Si Si1 0.125459 0.100376 0.250159
Si Si2 0.314470 0.686305 0.384918
Si Si3 0.541652 0.416814 0.814767
Si Si4 0.299624 0.073534 0.382942
Si Si5 0.198569 0.256906 0.545665
Si Si6 0.833293 0.663565 0.746602
Si Si7 0.620991 0.778716 0.190278
Si Si8 0.561410 0.679451 0.529096
O O1 0.212922 0.089010 0.313758
O O2 0.778098 0.172600 0.401302
O O3 0.339878 0.944577 0.225179
O O4 0.172779 0.205187 0.041400
O O5 0.448042 0.633853 0.243981
O O6 0.516163 0.696849 0.302805
O O7 0.000698 0.851783 0.423471
O O8 0.164930 0.608247 0.609425
O O9 0.524009 0.558601 0.667289
O O10 0.875911 0.299428 0.753589
O O11 0.280724 0.427189 0.043786
O O12 0.381977 0.180926 0.224337
O O13 0.549705 0.911906 0.421976
O O14 0.177495 0.305080 0.395172
O O15 0.287592 0.337402 0.457370
O O16 0.741101 0.697067 0.300030
#
# Coordination Sequence:
#
# PCOD9092866 Si02
#       8
#     2   2   2   2   2   2   2   2
#     4  11  23  40  67  99 121 157 207 260 317 369
#     4   9  21  40  64  89 127 158 204 259 305 364
#     4  11  25  42  61  91 127 173 210 242 305 380
#     4  10  19  43  67  91 123 156 204 272 306 351
#     4  11  23  41  64  91 123 166 210 259 310 355
#     4   9  22  40  61  92 121 166 208 256 302 358
#     4  11  22  41  67  97 121 159 208 259 317 365
#     4  12  24  42  64  90 134 164 201 257 308 373
#
# _framework density 22.130832999999999
#
# number of rings (size 3 to 8) (size 9 to 14) (size 15 to 20)
#    0.750    0.750    2.500    2.625    0.000    4.500 
#    2.250    3.125    0.000    0.000    0.000    0.000 
#    0.000    0.000    0.000    0.000    0.000    0.000 
#
# Total GULP energy -89352.879633 kJ/mol
# GULP energy per Si atom -5584.554977 kJ/mol
# Density = 2.208046 g / cm^3
# Si number density = 22.130833 Si / 1000 Ang^3
#
#
#
# Elastic Constant Matrix: (Units=GPa)
#
#
# Indices 1 2 3 4 5 6 
#
# 1 134.5004 18.1374 42.1100 -5.6411 1.8539 18.1766
# 2 18.1374 69.2938 12.0670 -12.6179 1.2899 18.4024
# 3 42.1100 12.0670 137.6998 -19.3836 1.6551 2.2351
# 4 -5.6411 -12.6179 -19.3836 29.8074 2.2031 -7.9365
# 5 1.8539 1.2899 1.6551 2.2031 20.9518 -2.1030
# 6 18.1766 18.4024 2.2351 -7.9365 -2.1030 29.9630
#
#
#
# Elastic Compliance Matrix: (Units=1/GPa)
#
#
# Indices 1 2 3 4 5 6 
#
# 1 0.009102 -0.000771 -0.002878 -0.001844 -0.000877 -0.005383
# 2 -0.000771 0.018188 -0.000487 0.004878 -0.002484 -0.009549
# 3 -0.002878 -0.000487 0.008979 0.005914 -0.000757 0.002888
# 4 -0.001844 0.004878 0.005914 0.041660 -0.004139 0.008425
# 5 -0.000877 -0.002484 -0.000757 -0.004139 0.048901 0.004450
# 6 -0.005383 -0.009549 0.002888 0.008425 0.004450 0.044834
#
#
# Mechanical properties :
#
#
# Convention : Reuss Voigt Hill
#
# Bulk Modulus (GPa) = 35.71481 54.01363 44.86422
# Shear Modulus (GPa) = 26.41763 34.08973 30.25368
#
# Velocity S-wave (km/s) = 3.45875 3.92902 3.70136
# Velocity P-wave (km/s) = 5.66777 6.71136 6.21152
#
# Compressibility (1/GPa) = 0.02799959
#
# Stress axis : x y z
#
# Youngs Moduli (GPa) = 109.86483 54.98031 111.36537
#
# Poissons Ratio (x) = 0.04239 0.32046
# Poissons Ratio (y) = 0.08471 0.05419
# Poissons Ratio (z) = 0.31614 0.02675
#
# Static dielectric constant tensor:
#      x y z
#    x 1.778200 0.009880 -0.001590 
#    y 0.009880 1.895550 -0.004190 
#    z -0.001590 -0.004190 1.817220 
# 
# From -- ./inp_files/523919.got.cif
#   From: 2010.05.17/outbox.cif.g08.bks.cpg/sg2_262_cif.got.tgz:523919.got - 2010.06.03 11:33:40.
