data_PCOD9092143
_publ_section_title
;
Structure prediction by ZEFSAII (Michael W. Deem and Ramdas Pophale) SiO2 
 PCOD9092143
Probable space group: P -1
;
_chemical_formula_sum "Si O2"
_cell_formula_units_Z 12
_cell_length_a 22.738972
_cell_length_b 8.500914
_cell_length_c 14.299521
_cell_angle_alpha 149.255129
_cell_angle_beta 158.970607
_cell_angle_gamma 33.653353
_cell_volume 500.157872
_symmetry_space_group_name_H-M "P -1"
_symmetry_group_IT_number 2
_symmetry_cell_setting 'triclinic'
loop_
_space_group_symop_operation_xyz
x,y,z
-x,-y,-z
loop_
_atom_site_type_symbol
_atom_site_label
_atom_site_fract_x
_atom_site_fract_y
_atom_site_fract_z
Si Si1 0.089637 0.236776 0.424017
Si Si2 0.670622 0.303506 0.397501
Si Si3 0.415251 0.596792 0.324416
Si Si4 0.232867 0.061870 0.803805
Si Si5 0.849494 0.168345 0.246043
Si Si6 0.203560 0.095765 0.166764
O O1 0.154153 0.460946 0.558764
O O2 0.000000 0.500000 0.500000
O O3 0.238130 0.007074 0.574954
O O4 0.965372 0.998462 0.091498
O O5 0.532479 0.467288 0.346016
O O6 0.787895 0.554242 0.671510
O O7 0.628823 0.167056 0.165780
O O8 0.500000 0.500000 0.500000
O O9 0.346613 0.953132 0.378477
O O10 0.259482 0.410703 0.000066
O O11 0.046369 0.025701 0.476000
O O12 0.242667 0.982188 0.886017
O O13 0.778169 0.088404 0.999571
#
# Coordination Sequence:
#
# PCOD9092143 Si02
#       6
#     2   2   2   2   2   2
#     4  10  19  40  66  98 131 170 217 268 324 383
#     4  12  24  41  70 103 133 173 220 271 336 398
#     4  12  27  47  65  95 138 180 221 271 333 395
#     4  11  22  41  67 100 129 175 217 272 323 396
#     4  10  21  41  70  97 132 169 221 270 330 381
#     4  11  22  44  68  97 135 175 219 276 328 386
#
# _framework density 23.992425999999998
#
# number of rings (size 3 to 8) (size 9 to 14) (size 15 to 20)
#    0.000    1.000    5.000    3.500    0.000    1.333 
#    0.000    4.167    0.000    0.000    0.000    0.000 
#    0.000    0.000    0.000    0.000    0.000    0.000 
#
# Total GULP energy -67020.171195 kJ/mol
# GULP energy per Si atom -5585.014266 kJ/mol
# Density = 2.393782 g / cm^3
# Si number density = 23.992426 Si / 1000 Ang^3
#
#
#
# Elastic Constant Matrix: (Units=GPa)
#
#
# Indices 1 2 3 4 5 6 
#
# 1 72.1143 24.8251 9.9742 1.0601 0.4063 19.3525
# 2 24.8251 90.7303 15.0350 15.8028 11.7538 24.3945
# 3 9.9742 15.0350 55.0764 4.4584 1.7978 12.7464
# 4 1.0601 15.8028 4.4584 36.0882 20.9419 9.4576
# 5 0.4063 11.7538 1.7978 20.9419 33.8159 2.4828
# 6 19.3525 24.3945 12.7464 9.4576 2.4828 32.1285
#
#
#
# Elastic Compliance Matrix: (Units=1/GPa)
#
#
# Indices 1 2 3 4 5 6 
#
# 1 0.017276 -0.002705 -0.000541 0.003601 -0.000798 -0.009136
# 2 -0.002705 0.015032 -0.001403 -0.002406 -0.003020 -0.008286
# 3 -0.000541 -0.001403 0.020169 -0.000131 -0.000015 -0.006571
# 4 0.003601 -0.002406 -0.000131 0.048254 -0.028179 -0.012317
# 5 -0.000798 -0.003020 -0.000015 -0.028179 0.047539 0.007400
# 6 -0.009136 -0.008286 -0.006571 -0.012317 0.007400 0.048581
#
#
# Mechanical properties :
#
#
# Convention : Reuss Voigt Hill
#
# Bulk Modulus (GPa) = 23.15870 35.28773 29.22321
# Shear Modulus (GPa) = 22.67131 31.61230 27.14180
#
# Velocity S-wave (km/s) = 3.07732 3.63381 3.36708
# Velocity P-wave (km/s) = 4.72228 5.68734 5.22713
#
# Compressibility (1/GPa) = 0.04318033
#
# Stress axis : x y z
#
# Youngs Moduli (GPa) = 57.88309 66.52309 49.58019
#
# Poissons Ratio (x) = 0.17993 0.02684
# Poissons Ratio (y) = 0.15656 0.06955
# Poissons Ratio (z) = 0.03134 0.09331
#
# Static dielectric constant tensor:
#      x y z
#    x 1.967230 -0.000980 0.015710 
#    y -0.000980 1.916700 -0.019900 
#    z 0.015710 -0.019900 1.994150 
# 
# From -- ./inp_files/153369.got.cif
#   From: 2010.05.17/outbox.cif.g08.bks.cpg/sg2_77_cif.got.tgz:153369.got - 2010.06.03 11:33:40.
