data_PCOD9092707
_publ_section_title
;
Structure prediction by ZEFSAII (Michael W. Deem and Ramdas Pophale) SiO2 
 PCOD9092707
Probable space group: P -1
;
_chemical_formula_sum "Si O2"
_cell_formula_units_Z 16
_cell_length_a 7.874059
_cell_length_b 12.229697
_cell_length_c 18.299781
_cell_angle_alpha 40.170763
_cell_angle_beta 126.055955
_cell_angle_gamma 96.817446
_cell_volume 710.102517
_symmetry_space_group_name_H-M "P -1"
_symmetry_group_IT_number 2
_symmetry_cell_setting 'triclinic'
loop_
_space_group_symop_operation_xyz
x,y,z
-x,-y,-z
loop_
_atom_site_type_symbol
_atom_site_label
_atom_site_fract_x
_atom_site_fract_y
_atom_site_fract_z
Si Si1 0.141491 0.752261 0.832422
Si Si2 0.185641 0.434439 0.509030
Si Si3 0.987565 0.206113 0.515254
Si Si4 0.882084 0.782978 0.037200
Si Si5 0.199795 0.088567 0.896148
Si Si6 0.242099 0.537641 0.823079
Si Si7 0.848075 0.991587 0.777749
Si Si8 0.488619 0.545672 0.610932
O O1 0.090695 0.655121 0.801046
O O2 0.942573 0.846937 0.802765
O O3 0.446275 0.566563 0.033408
O O4 0.111197 0.958221 0.687167
O O5 0.440692 0.409912 0.614833
O O6 0.000000 0.500000 0.500000
O O7 0.196078 0.245793 0.572258
O O8 0.013026 0.650213 0.304731
O O9 0.892667 0.295691 0.363685
O O10 0.724740 0.356797 0.425614
O O11 0.207428 0.599381 0.210969
O O12 0.809821 0.942980 0.004398
O O13 0.760712 0.662035 0.087398
O O14 0.790222 0.898780 0.877162
O O15 0.093592 0.990428 0.868549
O O16 0.500000 0.000000 0.000000
O O17 0.603571 0.241814 0.566298
#
# Coordination Sequence:
#
# PCOD9092707 Si02
#       8
#     2   2   2   2   2   2   2   2
#     4  10  23  43  66  88 123 162 218 265 302 365
#     4   9  19  36  60  90 120 163 200 248 304 366
#     4  10  19  42  65  90 122 167 211 259 308 362
#     4  12  24  40  62  94 129 165 199 258 317 375
#     4  11  23  40  60  91 124 162 208 249 305 377
#     4  11  23  40  64  96 119 163 216 262 311 364
#     4  10  23  42  59  91 128 168 201 251 316 369
#     4   9  22  40  60  92 130 164 202 253 310 377
#
# _framework density 22.531956999999998
#
# number of rings (size 3 to 8) (size 9 to 14) (size 15 to 20)
#    0.000    1.750    1.250    3.000    3.500    3.500 
#    4.500    2.500    0.000    0.000    0.000    0.000 
#    0.000    0.000    0.000    0.000    0.000    0.000 
#
# Total GULP energy -89577.981194 kJ/mol
# GULP energy per Si atom -5598.623825 kJ/mol
# Density = 2.248067 g / cm^3
# Si number density = 22.531957 Si / 1000 Ang^3
#
#
#
# Elastic Constant Matrix: (Units=GPa)
#
#
# Indices 1 2 3 4 5 6 
#
# 1 49.8120 6.9733 22.4077 7.0727 -13.3745 -24.7392
# 2 6.9733 70.6463 25.2855 16.9227 -3.1722 -22.8274
# 3 22.4077 25.2855 102.7947 12.8171 -19.9209 -27.7705
# 4 7.0727 16.9227 12.8171 22.2981 -9.8647 -4.9968
# 5 -13.3745 -3.1722 -19.9209 -9.8647 41.3021 8.3600
# 6 -24.7392 -22.8274 -27.7705 -4.9968 8.3600 26.9896
#
#
#
# Elastic Compliance Matrix: (Units=1/GPa)
#
#
# Indices 1 2 3 4 5 6 
#
# 1 0.047786 0.016431 0.003638 -0.015416 0.003148 0.057614
# 2 0.016431 0.029695 0.001488 -0.021980 -0.004853 0.039142
# 3 0.003638 0.001488 0.014666 -0.005190 0.003560 0.017621
# 4 -0.015416 -0.021980 -0.005190 0.068630 0.013166 -0.029433
# 5 0.003148 -0.004853 0.003560 0.013166 0.030654 -0.004614
# 6 0.057614 0.039142 0.017621 -0.029433 -0.004614 0.137078
#
#
# Mechanical properties :
#
#
# Convention : Reuss Voigt Hill
#
# Bulk Modulus (GPa) = 7.39296 36.95399 22.17348
# Shear Modulus (GPa) = 15.12940 29.35705 22.24323
#
# Velocity S-wave (km/s) = 2.59407 3.61350 3.14536
# Velocity P-wave (km/s) = 3.50150 5.81774 4.80139
#
# Compressibility (1/GPa) = 0.13526376
#
# Stress axis : x y z
#
# Youngs Moduli (GPa) = 20.92647 33.67532 68.18321
#
# Poissons Ratio (x) = -0.55333 -0.24807
# Poissons Ratio (y) = -0.34385 -0.10148
# Poissons Ratio (z) = -0.07614 -0.05012
#
# Static dielectric constant tensor:
#      x y z
#    x 1.890280 -0.043900 -0.157670 
#    y -0.043900 1.840790 0.063310 
#    z -0.157670 0.063310 2.236190 
# 
# From -- ./inp_files/452523.got.cif
#   From: 2010.05.17/outbox.cif.g08.bks.cpg/sg2_227_cif.got.tgz:452523.got - 2010.06.03 11:33:40.
