data_PCOD9092488
_publ_section_title
;
Structure prediction by ZEFSAII (Michael W. Deem and Ramdas Pophale) SiO2 
 PCOD9092488
Probable space group: P -1
;
_chemical_formula_sum "Si O2"
_cell_formula_units_Z 16
_cell_length_a 11.207190
_cell_length_b 14.771600
_cell_length_c 7.770730
_cell_angle_alpha 40.167715
_cell_angle_beta 57.536261
_cell_angle_gamma 74.941770
_cell_volume 672.857564
_symmetry_space_group_name_H-M "P -1"
_symmetry_group_IT_number 2
_symmetry_cell_setting 'triclinic'
loop_
_space_group_symop_operation_xyz
x,y,z
-x,-y,-z
loop_
_atom_site_type_symbol
_atom_site_label
_atom_site_fract_x
_atom_site_fract_y
_atom_site_fract_z
Si Si1 0.766050 0.816668 0.728817
Si Si2 0.351512 0.516171 0.667471
Si Si3 0.443046 0.633200 0.787803
Si Si4 0.587373 0.979547 0.785911
Si Si5 0.930958 0.456045 0.309525
Si Si6 0.177957 0.716405 0.847023
Si Si7 0.087705 0.831014 0.398759
Si Si8 0.656214 0.937098 0.301179
O O1 0.667285 0.850518 0.911858
O O2 0.713104 0.896863 0.496103
O O3 0.941327 0.862384 0.542234
O O4 0.729631 0.645177 0.967158
O O5 0.500000 0.500000 0.500000
O O6 0.397744 0.622339 0.638204
O O7 0.240676 0.554350 0.562575
O O8 0.283041 0.631839 0.983554
O O9 0.561781 0.783335 0.519805
O O10 0.500000 0.500000 0.000000
O O11 0.723665 0.118336 0.421547
O O12 0.455458 0.961670 0.775843
O O13 0.500000 0.000000 0.000000
O O14 0.945850 0.290822 0.552369
O O15 0.000000 0.500000 0.000000
O O16 0.019554 0.591435 0.162899
O O17 0.163211 0.761951 0.591761
O O18 0.200162 0.978838 0.036231
#
# Coordination Sequence:
#
# PCOD9092488 Si02
#       8
#     2   2   2   2   2   2   2   2
#     4  12  25  43  66 102 132 174 229 274 331 404
#     4  12  25  39  68 104 127 172 229 272 321 405
#     4  11  22  42  67  98 136 168 215 275 339 389
#     4  11  25  43  66  94 134 175 223 281 329 391
#     4  10  19  41  66  91 132 168 218 275 328 378
#     4  10  20  40  66  92 125 181 215 269 338 380
#     4  11  21  41  70  97 131 178 223 271 330 407
#     4  11  25  42  68  95 139 181 210 278 344 388
#
# _framework density 23.779177000000001
#
# number of rings (size 3 to 8) (size 9 to 14) (size 15 to 20)
#    0.000    1.000    7.500    0.750    5.250    0.500 
#    2.250    0.000    0.000    1.500    0.000    0.000 
#    0.000    0.000    0.000    0.000    0.000    0.000 
#
# Total GULP energy -89075.096098 kJ/mol
# GULP energy per Si atom -5567.193506 kJ/mol
# Density = 2.372505 g / cm^3
# Si number density = 23.779177 Si / 1000 Ang^3
#
#
#
# Elastic Constant Matrix: (Units=GPa)
#
#
# Indices 1 2 3 4 5 6 
#
# 1 120.2122 54.6196 48.7615 0.1865 -17.8065 -18.9348
# 2 54.6196 73.1541 27.5885 -8.1279 -16.1827 -19.4090
# 3 48.7615 27.5885 84.8915 -4.9943 -28.6567 -3.0800
# 4 0.1865 -8.1279 -4.9943 25.7781 3.0037 -4.3180
# 5 -17.8065 -16.1827 -28.6567 3.0037 44.4853 -2.8068
# 6 -18.9348 -19.4090 -3.0800 -4.3180 -2.8068 38.3030
#
#
#
# Elastic Compliance Matrix: (Units=1/GPa)
#
#
# Indices 1 2 3 4 5 6 
#
# 1 0.015121 -0.009058 -0.006180 -0.003745 -0.000851 0.001903
# 2 -0.009058 0.025332 -0.000329 0.008993 0.005384 0.009740
# 3 -0.006180 -0.000329 0.018658 0.002351 0.009218 -0.000781
# 4 -0.003745 0.008993 0.002351 0.043325 0.000856 0.007842
# 5 -0.000851 0.005384 0.009218 0.000856 0.030316 0.005367
# 6 0.001903 0.009740 -0.000781 0.007842 0.005367 0.033199
#
#
# Mechanical properties :
#
#
# Convention : Reuss Voigt Hill
#
# Bulk Modulus (GPa) = 35.74568 60.02189 47.88379
# Shear Modulus (GPa) = 24.22362 31.53248 27.87805
#
# Velocity S-wave (km/s) = 3.19516 3.64545 3.42771
# Velocity P-wave (km/s) = 5.35509 6.55860 5.98716
#
# Compressibility (1/GPa) = 0.02797541
#
# Stress axis : x y z
#
# Youngs Moduli (GPa) = 66.13443 39.47608 53.59614
#
# Poissons Ratio (x) = 0.35759 0.33122
# Poissons Ratio (y) = 0.59907 0.01765
# Poissons Ratio (z) = 0.40871 0.01300
#
# Static dielectric constant tensor:
#      x y z
#    x 1.910530 0.079730 0.019760 
#    y 0.079730 1.803910 -0.219650 
#    z 0.019760 -0.219650 1.798510 
# 
# From -- ./inp_files/271466.got.cif
#   From: 2010.05.17/outbox.cif.g08.bks.cpg/sg2_136_cif.got.tgz:271466.got - 2010.06.03 11:33:40.
