data_PCOD9092773
_publ_section_title
;
Structure prediction by ZEFSAII (Michael W. Deem and Ramdas Pophale) SiO2 
 PCOD9092773
Probable space group: P -1
;
_chemical_formula_sum "Si O2"
_cell_formula_units_Z 14
_cell_length_a 11.174542
_cell_length_b 7.477463
_cell_length_c 19.423367
_cell_angle_alpha 119.132581
_cell_angle_beta 21.286538
_cell_angle_gamma 115.157680
_cell_volume 512.569042
_symmetry_space_group_name_H-M "P -1"
_symmetry_group_IT_number 2
_symmetry_cell_setting 'triclinic'
loop_
_space_group_symop_operation_xyz
x,y,z
-x,-y,-z
loop_
_atom_site_type_symbol
_atom_site_label
_atom_site_fract_x
_atom_site_fract_y
_atom_site_fract_z
Si Si1 0.816857 0.738107 0.515577
Si Si2 0.919422 0.874065 0.349686
Si Si3 0.186837 0.197262 0.166669
Si Si4 0.434730 0.397975 0.616238
Si Si5 0.603449 0.529496 0.787483
Si Si6 0.675890 0.796514 0.216690
Si Si7 0.376274 0.924012 0.888533
O O1 0.045096 0.780523 0.336932
O O2 0.508933 0.632983 0.626322
O O3 0.652284 0.928064 0.682635
O O4 0.019073 0.576558 0.428046
O O5 0.793266 0.698050 0.335642
O O6 0.614672 0.032167 0.571342
O O7 0.143787 0.014204 0.210886
O O8 0.416564 0.360934 0.106531
O O9 0.701065 0.892917 0.982859
O O10 0.804833 0.291201 0.383840
O O11 0.300826 0.341965 0.752281
O O12 0.407359 0.345891 0.829349
O O13 0.508428 0.720897 0.823738
O O14 0.023854 0.885794 0.038388
#
# Coordination Sequence:
#
# PCOD9092773 Si02
#       7
#     2   2   2   2   2   2   2
#     4  11  26  39  69  99 141 168 214 277 343 380
#     4  11  22  42  68 100 134 176 215 271 337 399
#     4  10  22  42  73  93 130 174 231 265 319 395
#     4  10  19  42  68  95 130 176 223 259 328 400
#     4  11  25  44  65 101 132 180 217 270 328 404
#     4  11  22  41  74  96 127 173 234 265 318 393
#     4  12  22  43  71 100 124 177 229 275 309 397
#
# _framework density 27.313392
#
# number of rings (size 3 to 8) (size 9 to 14) (size 15 to 20)
#    0.000    1.143    4.286    2.571    4.000    1.143 
#    0.000    0.714    3.143    0.000    0.000    0.000 
#    0.000    0.000    0.000    0.000    0.000    0.000 
#
# Total GULP energy -78432.532897 kJ/mol
# GULP energy per Si atom -5602.323778 kJ/mol
# Density = 2.725123 g / cm^3
# Si number density = 27.313392 Si / 1000 Ang^3
#
#
#
# Elastic Constant Matrix: (Units=GPa)
#
#
# Indices 1 2 3 4 5 6 
#
# 1 181.8408 87.5590 64.8167 -14.3254 11.6418 66.1117
# 2 87.5590 85.2006 36.8551 8.9910 11.0439 34.4940
# 3 64.8167 36.8551 151.2204 -1.2395 9.3136 27.0352
# 4 -14.3254 8.9910 -1.2395 39.7764 8.4653 3.2117
# 5 11.6418 11.0439 9.3136 8.4653 36.7441 -9.7408
# 6 66.1117 34.4940 27.0352 3.2117 -9.7408 70.0326
#
#
#
# Elastic Compliance Matrix: (Units=1/GPa)
#
#
# Indices 1 2 3 4 5 6 
#
# 1 0.018333 -0.013807 -0.001953 0.012046 -0.006926 -0.011268
# 2 -0.013807 0.027537 -0.000840 -0.010997 -0.001117 0.000145
# 3 -0.001953 -0.000840 0.007924 0.000119 -0.001431 -0.001006
# 4 0.012046 -0.010997 0.000119 0.035057 -0.011043 -0.009145
# 5 -0.006926 -0.001117 -0.001431 -0.011043 0.036145 0.013174
# 6 -0.011268 0.000145 -0.001006 -0.009145 0.013174 0.027485
#
#
# Mechanical properties :
#
#
# Convention : Reuss Voigt Hill
#
# Bulk Modulus (GPa) = 48.56240 88.52484 68.54362
# Shear Modulus (GPa) = 25.96807 44.57937 35.27372
#
# Velocity S-wave (km/s) = 3.08676 4.04436 3.59757
# Velocity P-wave (km/s) = 5.52471 7.36819 6.51202
#
# Compressibility (1/GPa) = 0.02059206
#
# Stress axis : x y z
#
# Youngs Moduli (GPa) = 54.54719 36.31543 126.20301
#
# Poissons Ratio (x) = 0.50141 0.24649
# Poissons Ratio (y) = 0.75314 0.10604
# Poissons Ratio (z) = 0.10654 0.03051
#
# Static dielectric constant tensor:
#      x y z
#    x 2.101820 -0.044390 -0.036660 
#    y -0.044390 2.172050 0.016220 
#    z -0.036660 0.016220 2.129190 
# 
# From -- ./inp_files/593645.got.cif
#   From: 2010.05.17/outbox.cif.g08.bks.cpg/sg2_297_cif.got.tgz:593645.got - 2010.06.03 11:33:40.
