data_PCOD9092663
_publ_section_title
;
Structure prediction by ZEFSAII (Michael W. Deem and Ramdas Pophale) SiO2 
 PCOD9092663
Probable space group: P -1
;
_chemical_formula_sum "Si O2"
_cell_formula_units_Z 16
_cell_length_a 8.008555
_cell_length_b 7.568300
_cell_length_c 12.150662
_cell_angle_alpha 111.718778
_cell_angle_beta 94.941265
_cell_angle_gamma 116.384497
_cell_volume 584.471918
_symmetry_space_group_name_H-M "P -1"
_symmetry_group_IT_number 2
_symmetry_cell_setting 'triclinic'
loop_
_space_group_symop_operation_xyz
x,y,z
-x,-y,-z
loop_
_atom_site_type_symbol
_atom_site_label
_atom_site_fract_x
_atom_site_fract_y
_atom_site_fract_z
Si Si1 0.792114 0.138091 0.943749
Si Si2 0.124545 0.825623 0.374609
Si Si3 0.227819 0.489411 0.269455
Si Si4 0.151364 0.384693 0.903870
Si Si5 0.480323 0.269300 0.292069
Si Si6 0.237881 0.838993 0.818803
Si Si7 0.757975 0.713991 0.459344
Si Si8 0.582848 0.740428 0.219636
O O1 0.014649 0.209391 0.948733
O O2 0.659570 0.990868 0.802277
O O3 0.805240 0.371882 0.013026
O O4 0.710257 0.028521 0.032304
O O5 0.252146 0.712813 0.377830
O O6 0.991715 0.707835 0.232956
O O7 0.976954 0.775587 0.456816
O O8 0.236387 0.091002 0.423736
O O9 0.330373 0.355352 0.282272
O O10 0.350293 0.597852 0.189189
O O11 0.995959 0.319585 0.226501
O O12 0.338485 0.374049 0.882863
O O13 0.652818 0.299167 0.222749
O O14 0.629355 0.458121 0.430244
O O15 0.314229 0.009846 0.761453
O O16 0.667717 0.739451 0.345124
#
# Coordination Sequence:
#
# PCOD9092663 Si02
#       8
#     2   2   2   2   2   2   2   2
#     4  11  23  42  71  94 142 184 221 285 340 393
#     4  10  19  41  75  94 130 183 225 273 343 398
#     4  11  23  43  70  98 135 183 223 274 342 406
#     4  10  22  44  68 101 134 182 235 275 334 413
#     4  11  24  41  65 101 136 174 228 277 336 400
#     4  12  24  45  67 101 144 176 224 288 333 400
#     4   9  20  44  71  96 134 178 223 281 336 405
#     4  10  24  41  68 104 136 176 234 273 338 415
#
# _framework density 27.375136000000001
#
# number of rings (size 3 to 8) (size 9 to 14) (size 15 to 20)
#    0.000    1.500    2.500    2.625    1.750    4.000 
#    0.000    5.000    2.750    0.000    0.000    0.000 
#    0.000    0.000    0.000    0.000    0.000    0.000 
#
# Total GULP energy -89367.619085 kJ/mol
# GULP energy per Si atom -5585.476193 kJ/mol
# Density = 2.731283 g / cm^3
# Si number density = 27.375136 Si / 1000 Ang^3
#
#
#
# Elastic Constant Matrix: (Units=GPa)
#
#
# Indices 1 2 3 4 5 6 
#
# 1 186.6680 42.2064 44.4250 11.8579 -32.2257 21.4422
# 2 42.2064 113.7421 40.7762 27.7224 6.3908 12.6026
# 3 44.4250 40.7762 152.2833 34.5009 -21.4834 3.0296
# 4 11.8579 27.7224 34.5009 59.4793 2.6112 6.6738
# 5 -32.2257 6.3908 -21.4834 2.6112 41.8725 8.2985
# 6 21.4422 12.6026 3.0296 6.6738 8.2985 52.9802
#
#
#
# Elastic Compliance Matrix: (Units=1/GPa)
#
#
# Indices 1 2 3 4 5 6 
#
# 1 0.007634 -0.002663 -0.000528 0.000123 0.006694 -0.003490
# 2 -0.002663 0.011720 -0.002252 -0.003372 -0.004700 -0.000420
# 3 -0.000528 -0.002252 0.008965 -0.004258 0.004798 0.000022
# 4 0.000123 -0.003372 -0.004258 0.021085 -0.002643 -0.001246
# 5 0.006694 -0.004700 0.004798 -0.002643 0.033729 -0.006816
# 6 -0.003490 -0.000420 0.000022 -0.001246 -0.006816 0.021611
#
#
# Mechanical properties :
#
#
# Convention : Reuss Voigt Hill
#
# Bulk Modulus (GPa) = 57.36411 78.61207 67.98809
# Shear Modulus (GPa) = 41.17254 52.55213 46.86233
#
# Velocity S-wave (km/s) = 3.88237 4.38619 4.14195
# Velocity P-wave (km/s) = 6.41072 7.37771 6.91115
#
# Compressibility (1/GPa) = 0.01743250
#
# Stress axis : x y z
#
# Youngs Moduli (GPa) = 131.00007 85.32625 111.54471
#
# Poissons Ratio (x) = 0.22721 0.05889
# Poissons Ratio (y) = 0.34883 0.25121
# Poissons Ratio (z) = 0.06916 0.19217
#
# Static dielectric constant tensor:
#      x y z
#    x 2.116570 0.028750 0.033400 
#    y 0.028750 2.215450 -0.016940 
#    z 0.033400 -0.016940 2.180650 
# 
# From -- ./inp_files/555605.got.cif
#   From: 2010.05.17/outbox.cif.g08.bks.cpg/sg2_278_cif.got.tgz:555605.got - 2010.06.03 11:33:40.
