data_PCOD9092418
_publ_section_title
;
Structure prediction by ZEFSAII (Michael W. Deem and Ramdas Pophale) SiO2 
 PCOD9092418
Probable space group: P -1
;
_chemical_formula_sum "Si O2"
_cell_formula_units_Z 16
_cell_length_a 13.326916
_cell_length_b 8.991706
_cell_length_c 25.075545
_cell_angle_alpha 37.164036
_cell_angle_beta 156.173608
_cell_angle_gamma 128.996992
_cell_volume 669.285247
_symmetry_space_group_name_H-M "P -1"
_symmetry_group_IT_number 2
_symmetry_cell_setting 'triclinic'
loop_
_space_group_symop_operation_xyz
x,y,z
-x,-y,-z
loop_
_atom_site_type_symbol
_atom_site_label
_atom_site_fract_x
_atom_site_fract_y
_atom_site_fract_z
Si Si1 0.153796 0.276475 0.898796
Si Si2 0.382986 0.603152 0.329017
Si Si3 0.792109 0.275057 0.388236
Si Si4 0.045096 0.832615 0.714699
Si Si5 0.263679 0.142720 0.802093
Si Si6 0.076801 0.895424 0.258662
Si Si7 0.400475 0.972853 0.723446
Si Si8 0.221898 0.265758 0.281552
O O1 0.139070 0.576687 0.794233
O O2 0.878086 0.303785 0.787182
O O3 0.141249 0.118898 0.884800
O O4 0.396429 0.145591 0.095300
O O5 0.625162 0.329795 0.546152
O O6 0.501820 0.824730 0.317753
O O7 0.291819 0.523074 0.250101
O O8 0.734285 0.573505 0.293559
O O9 0.097730 0.138253 0.551572
O O10 0.602900 0.253299 0.254863
O O11 0.802613 0.079144 0.498045
O O12 0.954608 0.727722 0.753869
O O13 0.252989 0.954598 0.802223
O O14 0.995353 0.193425 0.693205
O O15 0.500000 0.000000 0.000000
O O16 0.081630 0.187831 0.185840
O O17 0.500000 0.000000 0.500000
#
# Coordination Sequence:
#
# PCOD9092418 Si02
#       8
#     2   2   2   2   2   2   2   2
#     4  11  23  38  66  97 124 160 213 260 308 371
#     4  10  19  41  64  87 127 165 208 253 316 368
#     4  11  24  42  62  88 128 170 210 253 309 374
#     4  10  22  39  63  91 119 164 210 250 310 367
#     4  11  23  41  62  89 125 164 206 257 306 372
#     4  10  20  38  62  93 123 160 206 252 318 368
#     4  11  24  39  61  93 129 166 207 260 309 362
#     4   8  18  36  61  89 118 159 205 254 303 367
#
# _framework density 23.906098
#
# number of rings (size 3 to 8) (size 9 to 14) (size 15 to 20)
#    0.000    1.750    1.250    2.625    3.500    2.500 
#    0.000    0.625    0.000    0.000    0.000    0.000 
#    0.000    0.000    0.000    0.000    0.000    0.000 
#
# Total GULP energy -89454.690734 kJ/mol
# GULP energy per Si atom -5590.918171 kJ/mol
# Density = 2.385169 g / cm^3
# Si number density = 23.906098 Si / 1000 Ang^3
#
#
#
# Elastic Constant Matrix: (Units=GPa)
#
#
# Indices 1 2 3 4 5 6 
#
# 1 44.0688 10.1047 17.4744 13.5233 9.9557 -7.5382
# 2 10.1047 135.5235 19.9459 31.0495 -5.3871 -16.5770
# 3 17.4744 19.9459 68.7856 23.5700 -10.3003 -4.1039
# 4 13.5233 31.0495 23.5700 37.8265 -6.5299 -13.0870
# 5 9.9557 -5.3871 -10.3003 -6.5299 30.3073 9.1363
# 6 -7.5382 -16.5770 -4.1039 -13.0870 9.1363 30.9052
#
#
#
# Elastic Compliance Matrix: (Units=1/GPa)
#
#
# Indices 1 2 3 4 5 6 
#
# 1 0.034026 0.000882 -0.008586 -0.007266 -0.018528 0.010033
# 2 0.000882 0.009231 -0.000561 -0.006862 -0.001073 0.002503
# 3 -0.008586 -0.000561 0.021582 -0.010617 0.009860 -0.006940
# 4 -0.007266 -0.006862 -0.010617 0.045918 0.004017 0.011394
# 5 -0.018528 -0.001073 0.009860 0.004017 0.048015 -0.016279
# 6 0.010033 0.002503 -0.006940 0.011394 -0.016279 0.044863
#
#
# Mechanical properties :
#
#
# Convention : Reuss Voigt Hill
#
# Bulk Modulus (GPa) = 20.69955 38.15867 29.42911
# Shear Modulus (GPa) = 21.16245 33.19800 27.18022
#
# Velocity S-wave (km/s) = 2.97851 3.73055 3.37554
# Velocity P-wave (km/s) = 4.52838 5.87814 5.24684
#
# Compressibility (1/GPa) = 0.04831024
#
# Stress axis : x y z
#
# Youngs Moduli (GPa) = 29.38948 108.32634 46.33444
#
# Poissons Ratio (x) = -0.09555 0.39782
# Poissons Ratio (y) = -0.02592 0.02598
# Poissons Ratio (z) = 0.25234 0.06074
#
# Static dielectric constant tensor:
#      x y z
#    x 1.956650 -0.014300 0.027320 
#    y -0.014300 1.959330 0.027820 
#    z 0.027320 0.027820 1.919110 
# 
# From -- ./inp_files/355246.got.cif
#   From: 2010.05.17/outbox.cif.g08.bks.cpg/sg2_178_cif.got.tgz:355246.got - 2010.06.03 11:33:40.
