data_PCOD9092235
_publ_section_title
;
Structure prediction by ZEFSAII (Michael W. Deem and Ramdas Pophale) SiO2 
 PCOD9092235
Probable space group: P -1
;
_chemical_formula_sum "Si O2"
_cell_formula_units_Z 12
_cell_length_a 11.817343
_cell_length_b 15.445214
_cell_length_c 14.624571
_cell_angle_alpha 26.793293
_cell_angle_beta 149.801008
_cell_angle_gamma 156.362430
_cell_volume 466.174731
_symmetry_space_group_name_H-M "P -1"
_symmetry_group_IT_number 2
_symmetry_cell_setting 'triclinic'
loop_
_space_group_symop_operation_xyz
x,y,z
-x,-y,-z
loop_
_atom_site_type_symbol
_atom_site_label
_atom_site_fract_x
_atom_site_fract_y
_atom_site_fract_z
Si Si1 0.587194 0.932253 0.216001
Si Si2 0.229267 0.987326 0.053033
Si Si3 0.813970 0.427690 0.144851
Si Si4 0.188930 0.540650 0.679850
Si Si5 0.165036 0.105050 0.274179
Si Si6 0.919175 0.744514 0.609582
O O1 0.371888 0.892225 0.182314
O O2 0.638626 0.729709 0.435944
O O3 0.907258 0.168135 0.256318
O O4 0.500000 0.000000 0.000000
O O5 0.936183 0.744139 0.124059
O O6 0.489970 0.197336 0.100830
O O7 0.108035 0.079177 0.810977
O O8 0.843992 0.386342 0.311223
O O9 0.057423 0.454588 0.228416
O O10 0.840263 0.669566 0.925142
O O11 0.522091 0.755673 0.683124
O O12 0.000000 0.500000 0.500000
O O13 0.116938 0.965130 0.464948
#
# Coordination Sequence:
#
# PCOD9092235 Si02
#       6
#     2   2   2   2   2   2
#     4  10  19  40  68  92 133 174 211 274 328 371
#     4  10  21  40  66  92 131 170 214 273 321 380
#     4  10  23  42  66  98 129 173 224 256 333 397
#     4  11  24  41  63  97 134 171 217 271 327 390
#     4  11  23  42  66  95 134 169 217 278 319 386
#     4  10  22  40  68  96 131 174 216 268 326 388
#
# _framework density 25.741420000000002
#
# number of rings (size 3 to 8) (size 9 to 14) (size 15 to 20)
#    0.000    1.667    1.667    4.000    0.000    6.667 
#    0.000   10.833    0.000    0.000    0.000    0.000 
#    0.000    0.000    0.000    0.000    0.000    0.000 
#
# Total GULP energy -67126.329159 kJ/mol
# GULP energy per Si atom -5593.860763 kJ/mol
# Density = 2.568283 g / cm^3
# Si number density = 25.741420 Si / 1000 Ang^3
#
#
#
# Elastic Constant Matrix: (Units=GPa)
#
#
# Indices 1 2 3 4 5 6 
#
# 1 87.9337 40.3178 40.2907 20.9931 -11.5208 -13.3749
# 2 40.3178 126.8122 37.8967 43.8498 -9.8676 -9.9464
# 3 40.2907 37.8967 139.6707 33.1318 -17.5717 -20.2684
# 4 20.9931 43.8498 33.1318 61.9144 -3.6241 -3.2850
# 5 -11.5208 -9.8676 -17.5717 -3.6241 46.6493 7.4275
# 6 -13.3749 -9.9464 -20.2684 -3.2850 7.4275 48.4186
#
#
#
# Elastic Compliance Matrix: (Units=1/GPa)
#
#
# Indices 1 2 3 4 5 6 
#
# 1 0.014861 -0.003271 -0.002647 -0.001107 0.001575 0.002008
# 2 -0.003271 0.011489 -0.000363 -0.006746 0.000847 0.000717
# 3 -0.002647 -0.000363 0.009548 -0.003690 0.002164 0.002609
# 4 -0.001107 -0.006746 -0.003690 0.023137 -0.001053 -0.001505
# 5 0.001575 0.000847 0.002164 -0.001053 0.023072 -0.002096
# 6 0.002008 0.000717 0.002609 -0.001505 -0.002096 0.022667
#
#
# Mechanical properties :
#
#
# Convention : Reuss Voigt Hill
#
# Bulk Modulus (GPa) = 42.85249 65.71411 54.28330
# Shear Modulus (GPa) = 39.96363 47.12390 43.54377
#
# Velocity S-wave (km/s) = 3.94446 4.28327 4.11735
# Velocity P-wave (km/s) = 6.11788 7.07431 6.61340
#
# Compressibility (1/GPa) = 0.02333587
#
# Stress axis : x y z
#
# Youngs Moduli (GPa) = 67.29032 87.04113 104.73589
#
# Poissons Ratio (x) = 0.28469 0.27726
# Poissons Ratio (y) = 0.22009 0.03800
# Poissons Ratio (z) = 0.17813 0.03158
#
# Static dielectric constant tensor:
#      x y z
#    x 2.064320 -0.056500 0.022150 
#    y -0.056500 2.106550 -0.012120 
#    z 0.022150 -0.012120 2.036750 
# 
# From -- ./inp_files/521384.got.cif
#   From: 2010.05.17/outbox.cif.g08.bks.cpg/sg2_261_cif.got.tgz:521384.got - 2010.06.03 11:33:40.
