data_PCOD9092175
_publ_section_title
;
Structure prediction by ZEFSAII (Michael W. Deem and Ramdas Pophale) SiO2 
 PCOD9092175
Probable space group: P -1
;
_chemical_formula_sum "Si O2"
_cell_formula_units_Z 14
_cell_length_a 14.012465
_cell_length_b 11.905405
_cell_length_c 6.505792
_cell_angle_alpha 63.027388
_cell_angle_beta 127.497430
_cell_angle_gamma 136.237713
_cell_volume 595.385299
_symmetry_space_group_name_H-M "P -1"
_symmetry_group_IT_number 2
_symmetry_cell_setting 'triclinic'
loop_
_space_group_symop_operation_xyz
x,y,z
-x,-y,-z
loop_
_atom_site_type_symbol
_atom_site_label
_atom_site_fract_x
_atom_site_fract_y
_atom_site_fract_z
Si Si1 0.395694 0.455172 0.163010
Si Si2 0.936313 0.005274 0.135746
Si Si3 0.968187 0.302967 0.805744
Si Si4 0.750840 0.457257 0.790416
Si Si5 0.367006 0.809411 0.441615
Si Si6 0.894729 0.702089 0.398954
Si Si7 0.581092 0.746043 0.895002
O O1 0.346332 0.494875 0.268004
O O2 0.422480 0.324768 0.273610
O O3 0.250401 0.375471 0.882555
O O4 0.546519 0.621589 0.128759
O O5 0.951741 0.881782 0.384213
O O6 0.752557 0.911928 0.995546
O O7 0.998410 0.189785 0.061146
O O8 0.000000 0.000000 0.000000
O O9 0.801185 0.248967 0.678048
O O10 0.979774 0.279370 0.599497
O O11 0.109700 0.483158 0.918752
O O12 0.654751 0.272001 0.742438
O O13 0.833547 0.570854 0.603854
O O14 0.436746 0.743153 0.725857
O O15 0.500000 0.000000 0.500000
#
# Coordination Sequence:
#
# PCOD9092175 Si02
#       7
#     2   2   2   2   2   2   2
#     4   9  20  40  66  97 124 160 213 275 317 367
#     4   9  18  37  65  93 124 163 209 260 319 371
#     4  10  22  41  64  93 132 169 211 260 308 384
#     4  11  23  42  67  97 125 167 220 263 311 379
#     4  12  24  42  64  92 131 178 210 254 325 379
#     4   9  19  39  67  95 124 169 210 262 321 369
#     4  10  19  40  67  90 131 166 206 265 325 373
#
# _framework density 23.514185999999999
#
# number of rings (size 3 to 8) (size 9 to 14) (size 15 to 20)
#    0.000    2.000    2.857    1.286    0.000    1.714 
#    2.571    2.143    0.000    0.000    0.000    0.000 
#    0.000    0.000    0.000    0.000    0.000    0.000 
#
# Total GULP energy -78018.417546 kJ/mol
# GULP energy per Si atom -5572.744110 kJ/mol
# Density = 2.346067 g / cm^3
# Si number density = 23.514186 Si / 1000 Ang^3
#
#
#
# Elastic Constant Matrix: (Units=GPa)
#
#
# Indices 1 2 3 4 5 6 
#
# 1 139.8988 25.9213 24.2959 -3.9611 -4.5754 -13.4402
# 2 25.9213 129.7767 9.0094 20.0413 -12.3823 -10.4942
# 3 24.2959 9.0094 21.9250 7.2842 4.1747 -10.7764
# 4 -3.9611 20.0413 7.2842 29.2174 -4.4477 -1.0705
# 5 -4.5754 -12.3823 4.1747 -4.4477 27.1088 -1.4907
# 6 -13.4402 -10.4942 -10.7764 -1.0705 -1.4907 37.6505
#
#
#
# Elastic Compliance Matrix: (Units=1/GPa)
#
#
# Indices 1 2 3 4 5 6 
#
# 1 0.010123 -0.001734 -0.013682 0.006578 0.004079 -0.000437
# 2 -0.001734 0.009446 0.000619 -0.006333 0.003005 0.002130
# 3 -0.013682 0.000619 0.080204 -0.024312 -0.017439 0.016863
# 4 0.006578 -0.006333 -0.024312 0.046780 0.009380 -0.004674
# 5 0.004079 0.003005 -0.017439 0.009380 0.043134 -0.000724
# 6 -0.000437 0.002130 0.016863 -0.004674 -0.000724 0.031663
#
#
# Mechanical properties :
#
#
# Convention : Reuss Voigt Hill
#
# Bulk Modulus (GPa) = 14.24945 45.56151 29.90548
# Shear Modulus (GPa) = 18.22580 34.28695 26.25637
#
# Velocity S-wave (km/s) = 2.78708 3.82270 3.34521
# Velocity P-wave (km/s) = 4.05341 6.23717 5.25987
#
# Compressibility (1/GPa) = 0.07017814
#
# Stress axis : x y z
#
# Youngs Moduli (GPa) = 98.78369 105.86627 12.46826
#
# Poissons Ratio (x) = 0.18359 0.17059
# Poissons Ratio (y) = 0.17131 -0.00772
# Poissons Ratio (z) = 1.35158 -0.06554
#
# Static dielectric constant tensor:
#      x y z
#    x 1.938450 -0.074560 0.006650 
#    y -0.074560 1.986410 -0.004060 
#    z 0.006650 -0.004060 1.977610 
# 
# From -- ./inp_files/93448.got.cif
#   From: 2010.05.17/outbox.cif.g08.bks.cpg/sg2_47_cif.got.tgz:93448.got - 2010.06.03 11:33:40.
