data_PCOD9092395
_publ_section_title
;
Structure prediction by ZEFSAII (Michael W. Deem and Ramdas Pophale) SiO2 
 PCOD9092395
Probable space group: P -1
;
_chemical_formula_sum "Si O2"
_cell_formula_units_Z 12
_cell_length_a 9.340725
_cell_length_b 7.614790
_cell_length_c 9.534720
_cell_angle_alpha 100.322630
_cell_angle_beta 116.933368
_cell_angle_gamma 50.771424
_cell_volume 462.674431
_symmetry_space_group_name_H-M "P -1"
_symmetry_group_IT_number 2
_symmetry_cell_setting 'triclinic'
loop_
_space_group_symop_operation_xyz
x,y,z
-x,-y,-z
loop_
_atom_site_type_symbol
_atom_site_label
_atom_site_fract_x
_atom_site_fract_y
_atom_site_fract_z
Si Si1 0.308416 0.848161 0.236265
Si Si2 0.441484 0.859448 0.859386
Si Si3 0.866799 0.557114 0.088742
Si Si4 0.902054 0.913185 0.104392
Si Si5 0.216500 0.522657 0.654657
Si Si6 0.217879 0.112654 0.517559
O O1 0.302711 0.972127 0.390701
O O2 0.536611 0.614281 0.268184
O O3 0.207561 0.031429 0.088256
O O4 0.126823 0.831668 0.178652
O O5 0.272614 0.852133 0.858757
O O6 0.373704 0.946286 0.685453
O O7 0.663578 0.619174 0.935723
O O8 0.500000 0.000000 0.000000
O O9 0.886449 0.750778 0.173034
O O10 0.866716 0.451944 0.219151
O O11 0.000000 0.500000 0.000000
O O12 0.215884 0.328837 0.549867
O O13 0.023587 0.770775 0.544195
#
# Coordination Sequence:
#
# PCOD9092395 Si02
#       6
#     2   2   2   2   2   2
#     4  11  23  41  65  94 131 168 206 258 323 367
#     4  10  19  41  63  86 126 163 206 257 307 366
#     4  11  21  40  68  94 120 166 217 257 311 375
#     4  10  21  42  63  91 129 167 209 258 310 379
#     4  11  22  41  65  95 128 158 216 267 300 375
#     4  11  23  39  67  94 126 168 211 255 320 367
#
# _framework density 25.936164999999999
#
# number of rings (size 3 to 8) (size 9 to 14) (size 15 to 20)
#    0.000    1.333    5.000    2.500    0.000    3.333 
#    3.000    3.333    0.000    0.000    0.000    0.000 
#    0.000    0.000    0.000    0.000    0.000    0.000 
#
# Total GULP energy -66830.787783 kJ/mol
# GULP energy per Si atom -5569.232315 kJ/mol
# Density = 2.587713 g / cm^3
# Si number density = 25.936165 Si / 1000 Ang^3
#
#
#
# Elastic Constant Matrix: (Units=GPa)
#
#
# Indices 1 2 3 4 5 6 
#
# 1 120.6928 38.2874 42.4144 -8.5796 10.8001 -35.1034
# 2 38.2874 75.3042 28.1969 10.4724 6.3970 -33.9940
# 3 42.4144 28.1969 143.3975 -7.4108 13.6051 -13.9272
# 4 -8.5796 10.4724 -7.4108 38.3452 -10.7655 -3.1935
# 5 10.8001 6.3970 13.6051 -10.7655 28.2540 -10.0711
# 6 -35.1034 -33.9940 -13.9272 -3.1935 -10.0711 51.9355
#
#
#
# Elastic Compliance Matrix: (Units=1/GPa)
#
#
# Indices 1 2 3 4 5 6 
#
# 1 0.011975 -0.003261 -0.002215 0.003826 0.000732 0.005743
# 2 -0.003261 0.021723 -0.002496 -0.006577 -0.001156 0.010716
# 3 -0.002215 -0.002496 0.008291 0.000908 -0.002727 -0.001380
# 4 0.003826 -0.006577 0.000908 0.032879 0.013226 0.003111
# 5 0.000732 -0.001156 -0.002727 0.013226 0.044757 0.008499
# 6 0.005743 0.010716 -0.001380 0.003111 0.008499 0.031620
#
#
# Mechanical properties :
#
#
# Convention : Reuss Voigt Hill
#
# Bulk Modulus (GPa) = 38.39579 61.91020 50.15299
# Shear Modulus (GPa) = 28.43007 39.07334 33.75171
#
# Velocity S-wave (km/s) = 3.31442 3.88560 3.61132
# Velocity P-wave (km/s) = 5.42985 6.63721 6.06365
#
# Compressibility (1/GPa) = 0.02604452
#
# Stress axis : x y z
#
# Youngs Moduli (GPa) = 83.50693 46.03506 120.61099
#
# Poissons Ratio (x) = 0.15012 0.26712
# Poissons Ratio (y) = 0.27232 0.30108
# Poissons Ratio (z) = 0.18495 0.11492
#
# Static dielectric constant tensor:
#      x y z
#    x 2.051040 0.677680 0.239590 
#    y 0.677680 -12.835160 -3.753460 
#    z 0.239590 -3.753460 1.260230 
# 
# From -- ./inp_files/170780.got.cif
#   From: 2010.05.17/outbox.cif.g08.bks.cpg/sg2_86_cif.got.tgz:170780.got - 2010.06.03 11:33:40.
