data_PCOD9092194
_publ_section_title
;
Structure prediction by ZEFSAII (Michael W. Deem and Ramdas Pophale) SiO2 
 PCOD9092194
Probable space group: P -1
;
_chemical_formula_sum "Si O2"
_cell_formula_units_Z 14
_cell_length_a 20.987403
_cell_length_b 9.457282
_cell_length_c 12.021870
_cell_angle_alpha 38.054994
_cell_angle_beta 157.466318
_cell_angle_gamma 138.495315
_cell_volume 561.312539
_symmetry_space_group_name_H-M "P -1"
_symmetry_group_IT_number 2
_symmetry_cell_setting 'triclinic'
loop_
_space_group_symop_operation_xyz
x,y,z
-x,-y,-z
loop_
_atom_site_type_symbol
_atom_site_label
_atom_site_fract_x
_atom_site_fract_y
_atom_site_fract_z
Si Si1 0.426750 0.338106 0.168554
Si Si2 0.366629 0.596415 0.308468
Si Si3 0.017293 0.292263 0.937893
Si Si4 0.766783 0.491490 0.559943
Si Si5 0.876639 0.980638 0.516132
Si Si6 0.851591 0.337750 0.418765
Si Si7 0.801431 0.081528 0.035752
O O1 0.522304 0.360678 0.426949
O O2 0.577678 0.398233 0.288892
O O3 0.333727 0.094591 0.134603
O O4 0.290303 0.517812 0.850453
O O5 0.500000 0.500000 0.500000
O O6 0.273156 0.837410 0.016442
O O7 0.206142 0.407732 0.158737
O O8 0.895093 0.473043 0.678986
O O9 0.932960 0.224068 0.727082
O O10 0.021755 0.102295 0.158769
O O11 0.769937 0.750441 0.447687
O O12 0.825864 0.323117 0.856615
O O13 0.783917 0.176564 0.306779
O O14 0.025747 0.031786 0.636038
O O15 0.000000 0.500000 0.500000
#
# Coordination Sequence:
#
# PCOD9092194 Si02
#       7
#     2   2   2   2   2   2   2
#     4  11  23  42  64  96 134 171 209 265 328 377
#     4  11  21  38  66  96 128 161 221 266 309 386
#     4  11  22  43  68  96 123 173 224 260 316 389
#     4  10  20  41  71  93 124 170 223 268 312 378
#     4  11  20  43  72  91 127 175 219 261 315 386
#     4  12  26  42  62  96 141 171 205 267 332 381
#     4  10  19  40  67  94 124 172 213 258 318 384
#
# _framework density 24.941541999999998
#
# number of rings (size 3 to 8) (size 9 to 14) (size 15 to 20)
#    0.000    1.143    5.714    3.857    0.000    1.143 
#    2.571    4.286    0.000    0.000    0.000    0.000 
#    0.000    0.000    0.000    0.000    0.000    0.000 
#
# Total GULP energy -78139.142215 kJ/mol
# GULP energy per Si atom -5581.367301 kJ/mol
# Density = 2.488477 g / cm^3
# Si number density = 24.941542 Si / 1000 Ang^3
#
#
#
# Elastic Constant Matrix: (Units=GPa)
#
#
# Indices 1 2 3 4 5 6 
#
# 1 109.7827 35.0075 30.7752 3.3514 33.1224 -27.1396
# 2 35.0075 114.0223 17.4000 7.2721 26.9735 -27.8868
# 3 30.7752 17.4000 117.6839 5.8291 45.3660 -0.4898
# 4 3.3514 7.2721 5.8291 42.8167 -4.2319 5.5871
# 5 33.1224 26.9735 45.3660 -4.2319 54.0848 -2.9862
# 6 -27.1396 -27.8868 -0.4898 5.5871 -2.9862 39.1921
#
#
#
# Elastic Compliance Matrix: (Units=1/GPa)
#
#
# Indices 1 2 3 4 5 6 
#
# 1 0.014110 0.000248 -0.000387 -0.003175 -0.008149 0.009774
# 2 0.000248 0.012811 0.001099 -0.004285 -0.007281 0.009357
# 3 -0.000387 0.001099 0.013002 -0.003090 -0.011445 0.000245
# 4 -0.003175 -0.004285 -0.003090 0.026676 0.008293 -0.008457
# 5 -0.008149 -0.007281 -0.011445 0.008293 0.036845 -0.009342
# 6 0.009774 0.009357 0.000245 -0.008457 -0.009342 0.039438
#
#
# Mechanical properties :
#
#
# Convention : Reuss Voigt Hill
#
# Bulk Modulus (GPa) = 23.89946 56.42826 40.16386
# Shear Modulus (GPa) = 32.27677 44.43913 38.35795
#
# Velocity S-wave (km/s) = 3.60126 4.22564 3.92588
# Velocity P-wave (km/s) = 5.18605 6.81772 6.05708
#
# Compressibility (1/GPa) = 0.04184195
#
# Stress axis : x y z
#
# Youngs Moduli (GPa) = 70.87056 78.05997 76.90962
#
# Poissons Ratio (x) = -0.01932 0.02980
# Poissons Ratio (y) = -0.01754 -0.08454
# Poissons Ratio (z) = 0.02746 -0.08581
#
# Static dielectric constant tensor:
#      x y z
#    x 2.121070 -0.004740 -0.073430 
#    y -0.004740 1.973440 -0.090610 
#    z -0.073430 -0.090610 2.088090 
# 
# From -- ./inp_files/298822.got.cif
#   From: 2010.05.17/outbox.cif.g08.bks.cpg/sg2_150_cif.got.tgz:298822.got - 2010.06.03 11:33:40.
