data_PCOD9092420
_publ_section_title
;
Structure prediction by ZEFSAII (Michael W. Deem and Ramdas Pophale) SiO2 
 PCOD9092420
Probable space group: P -1
;
_chemical_formula_sum "Si O2"
_cell_formula_units_Z 12
_cell_length_a 23.265227
_cell_length_b 11.057773
_cell_length_c 11.977330
_cell_angle_alpha 141.657305
_cell_angle_beta 18.072207
_cell_angle_gamma 149.551619
_cell_volume 472.069090
_symmetry_space_group_name_H-M "P -1"
_symmetry_group_IT_number 2
_symmetry_cell_setting 'triclinic'
loop_
_space_group_symop_operation_xyz
x,y,z
-x,-y,-z
loop_
_atom_site_type_symbol
_atom_site_label
_atom_site_fract_x
_atom_site_fract_y
_atom_site_fract_z
Si Si1 0.443635 0.739200 0.390869
Si Si2 0.793285 0.460222 0.104708
Si Si3 0.827410 0.037311 0.279416
Si Si4 0.842706 0.831729 0.873469
Si Si5 0.509236 0.340842 0.211348
Si Si6 0.355308 0.068512 0.064316
O O1 0.218990 0.549728 0.743780
O O2 0.500000 0.000000 0.500000
O O3 0.652517 0.751991 0.072401
O O4 0.462586 0.733792 0.219671
O O5 0.630373 0.541413 0.432833
O O6 0.690510 0.190210 0.058428
O O7 0.045494 0.674030 0.745982
O O8 0.582865 0.850800 0.657133
O O9 0.825048 0.975776 0.110148
O O10 0.000000 0.000000 0.000000
O O11 0.098131 0.993281 0.468525
O O12 0.770956 0.584702 0.890274
O O13 0.430286 0.182779 0.130640
#
# Coordination Sequence:
#
# PCOD9092420 Si02
#       6
#     2   2   2   2   2   2
#     4   9  21  41  63  90 125 161 203 254 304 366
#     4   9  20  39  63  86 125 164 194 254 304 352
#     4  10  19  41  64  88 126 164 201 251 307 359
#     4  11  21  39  66  92 121 165 206 246 312 362
#     4  10  22  41  63  89 127 165 198 255 303 363
#     4  11  21  41  62  94 125 157 208 252 303 364
#
# _framework density 25.420006999999998
#
# number of rings (size 3 to 8) (size 9 to 14) (size 15 to 20)
#    0.000    2.000    3.333    1.000    0.000    3.333 
#   12.000    2.500    0.000    0.000    0.000    0.000 
#    0.000    0.000    0.000    0.000    0.000    0.000 
#
# Total GULP energy -67098.303640 kJ/mol
# GULP energy per Si atom -5591.525303 kJ/mol
# Density = 2.536215 g / cm^3
# Si number density = 25.420007 Si / 1000 Ang^3
#
#
#
# Elastic Constant Matrix: (Units=GPa)
#
#
# Indices 1 2 3 4 5 6 
#
# 1 90.3203 29.5274 17.7733 10.6257 28.3308 1.8049
# 2 29.5274 117.9781 12.1114 -1.4510 13.7769 2.4738
# 3 17.7733 12.1114 41.0140 8.5095 13.3350 -10.6691
# 4 10.6257 -1.4510 8.5095 43.0143 -7.5433 21.0760
# 5 28.3308 13.7769 13.3350 -7.5433 30.6304 -0.0298
# 6 1.8049 2.4738 -10.6691 21.0760 -0.0298 34.6360
#
#
#
# Elastic Compliance Matrix: (Units=1/GPa)
#
#
# Indices 1 2 3 4 5 6 
#
# 1 0.019830 -0.003247 0.005621 -0.015112 -0.023040 0.010106
# 2 -0.003247 0.009670 -0.003915 0.004268 0.001406 -0.004323
# 3 0.005621 -0.003915 0.052215 -0.036882 -0.035215 0.038483
# 4 -0.015112 0.004268 -0.036882 0.067796 0.044760 -0.052093
# 5 -0.023040 0.001406 -0.035215 0.044760 0.079643 -0.036916
# 6 0.010106 -0.004323 0.038483 -0.052093 -0.036916 0.072175
#
#
# Mechanical properties :
#
#
# Convention : Reuss Voigt Hill
#
# Bulk Modulus (GPa) = 12.71759 40.90406 26.81082
# Shear Modulus (GPa) = 15.12300 34.31616 24.71958
#
# Velocity S-wave (km/s) = 2.44175 3.67818 3.12179
# Velocity P-wave (km/s) = 3.60047 5.84507 4.85429
#
# Compressibility (1/GPa) = 0.07863127
#
# Stress axis : x y z
#
# Youngs Moduli (GPa) = 50.42858 103.41448 19.15169
#
# Poissons Ratio (x) = 0.33583 -0.10765
# Poissons Ratio (y) = 0.16376 0.07498
# Poissons Ratio (z) = -0.28346 0.40490
#
# Static dielectric constant tensor:
#      x y z
#    x 1.984530 -0.047410 0.001350 
#    y -0.047410 2.015190 -0.016160 
#    z 0.001350 -0.016160 2.054280 
# 
# From -- ./inp_files/166502.got.cif
#   From: 2010.05.17/outbox.cif.g08.bks.cpg/sg2_84_cif.got.tgz:166502.got - 2010.06.03 11:33:40.
