data_PCOD9092582
_publ_section_title
;
Structure prediction by ZEFSAII (Michael W. Deem and Ramdas Pophale) SiO2 
 PCOD9092582
Probable space group: P -1
;
_chemical_formula_sum "Si O2"
_cell_formula_units_Z 16
_cell_length_a 13.402059
_cell_length_b 10.113394
_cell_length_c 19.025571
_cell_angle_alpha 135.923517
_cell_angle_beta 27.549324
_cell_angle_gamma 131.811663
_cell_volume 826.109700
_symmetry_space_group_name_H-M "P -1"
_symmetry_group_IT_number 2
_symmetry_cell_setting 'triclinic'
loop_
_space_group_symop_operation_xyz
x,y,z
-x,-y,-z
loop_
_atom_site_type_symbol
_atom_site_label
_atom_site_fract_x
_atom_site_fract_y
_atom_site_fract_z
Si Si1 0.938428 0.569320 0.235186
Si Si2 0.708453 0.883543 0.832513
Si Si3 0.408177 0.519299 0.874264
Si Si4 0.896896 0.026467 0.281479
Si Si5 0.272956 0.752291 0.652949
Si Si6 0.059891 0.006818 0.546155
Si Si7 0.572383 0.113763 0.644522
Si Si8 0.310197 0.392845 0.736753
O O1 0.847082 0.401987 0.279930
O O2 0.827937 0.538623 0.215852
O O3 0.888323 0.776454 0.374689
O O4 0.195813 0.572875 0.067572
O O5 0.614892 0.665717 0.816677
O O6 0.867622 0.954258 0.823378
O O7 0.857293 0.915339 0.682932
O O8 0.500000 0.000000 0.000000
O O9 0.462485 0.307745 0.779217
O O10 0.352504 0.525666 0.828365
O O11 0.878041 0.156427 0.274952
O O12 0.726652 0.090777 0.471055
O O13 0.814919 0.806456 0.234517
O O14 0.460445 0.655065 0.456637
O O15 0.396803 0.931443 0.684644
O O16 0.000000 0.000000 0.500000
O O17 0.267506 0.896201 0.393539
#
# Coordination Sequence:
#
# PCOD9092582 Si02
#       8
#     2   2   2   2   2   2   2   2
#     4  12  25  40  63 101 136 162 214 277 318 378
#     4  11  23  44  65  91 132 173 216 267 319 381
#     4  12  24  40  68  97 128 169 219 263 324 380
#     4  10  19  41  69  90 129 173 219 259 312 389
#     4  11  21  39  68  95 131 167 215 266 327 370
#     4  11  25  43  65  93 131 173 218 264 321 386
#     4  10  21  42  66  93 128 168 219 266 308 395
#     4  11  20  42  69  94 124 175 218 258 315 392
#
# _framework density 19.367889000000002
#
# number of rings (size 3 to 8) (size 9 to 14) (size 15 to 20)
#    0.000    1.000    7.500    1.500    1.750    3.500 
#    2.250    1.250    0.000    0.000    0.000    0.000 
#    0.000    0.000    0.000    0.000    0.000    0.000 
#
# Total GULP energy -89446.602355 kJ/mol
# GULP energy per Si atom -5590.412647 kJ/mol
# Density = 1.932381 g / cm^3
# Si number density = 19.367889 Si / 1000 Ang^3
#
#
#
# Elastic Constant Matrix: (Units=GPa)
#
#
# Indices 1 2 3 4 5 6 
#
# 1 99.7399 16.7557 29.8100 -12.9870 -18.4940 -15.1327
# 2 16.7557 98.1945 22.9002 -24.7235 1.2391 -14.7844
# 3 29.8100 22.9002 43.4362 -10.1708 -17.6860 -4.7234
# 4 -12.9870 -24.7235 -10.1708 25.4629 1.9817 0.4519
# 5 -18.4940 1.2391 -17.6860 1.9817 22.0006 2.3264
# 6 -15.1327 -14.7844 -4.7234 0.4519 2.3264 33.5746
#
#
#
# Elastic Compliance Matrix: (Units=1/GPa)
#
#
# Indices 1 2 3 4 5 6 
#
# 1 0.014326 0.001096 -0.006101 0.005368 0.006001 0.005593
# 2 0.001096 0.016896 -0.009654 0.013744 -0.009776 0.007069
# 3 -0.006101 -0.009654 0.045965 0.003407 0.032357 -0.002822
# 4 0.005368 0.013744 0.003407 0.056531 0.000522 0.008154
# 5 0.006001 -0.009776 0.032357 0.000522 0.077268 -0.002409
# 6 0.005593 0.007069 -0.002822 0.008154 -0.002409 0.035078
#
#
# Mechanical properties :
#
#
# Convention : Reuss Voigt Hill
#
# Bulk Modulus (GPa) = 20.89024 42.25581 31.57302
# Shear Modulus (GPa) = 17.16224 27.66792 22.41508
#
# Velocity S-wave (km/s) = 2.98000 3.78371 3.40565
# Velocity P-wave (km/s) = 4.75920 6.39949 5.63930
#
# Compressibility (1/GPa) = 0.04786926
#
# Stress axis : x y z
#
# Youngs Moduli (GPa) = 69.80498 59.18439 21.75584
#
# Poissons Ratio (x) = -0.06488 0.13273
# Poissons Ratio (y) = -0.07652 0.21003
# Poissons Ratio (z) = 0.42587 0.57137
#
# Static dielectric constant tensor:
#      x y z
#    x 1.670030 0.003910 -0.003290 
#    y 0.003910 1.663780 0.016040 
#    z -0.003290 0.016040 1.665960 
# 
# From -- ./inp_files/222889.got.cif
#   From: 2010.05.17/outbox.cif.g08.bks.cpg/sg2_112_cif.got.tgz:222889.got - 2010.06.03 11:33:40.
