data_PCOD9092635
_publ_section_title
;
Structure prediction by ZEFSAII (Michael W. Deem and Ramdas Pophale) SiO2 
 PCOD9092635
Probable space group: P -1
;
_chemical_formula_sum "Si O2"
_cell_formula_units_Z 15
_cell_length_a 13.619677
_cell_length_b 8.074611
_cell_length_c 25.009543
_cell_angle_alpha 137.894125
_cell_angle_beta 22.437838
_cell_angle_gamma 130.400458
_cell_volume 696.229982
_symmetry_space_group_name_H-M "P -1"
_symmetry_group_IT_number 2
_symmetry_cell_setting 'triclinic'
loop_
_space_group_symop_operation_xyz
x,y,z
-x,-y,-z
loop_
_atom_site_type_symbol
_atom_site_label
_atom_site_fract_x
_atom_site_fract_y
_atom_site_fract_z
Si Si1 0.880790 0.015190 0.004296
Si Si2 0.374789 0.776498 0.221545
Si Si3 0.406787 0.540751 0.802992
Si Si4 0.173388 0.594429 0.521044
Si Si5 0.646193 0.033004 0.315233
Si Si6 0.500000 0.000000 0.500000
Si Si7 0.428950 0.266191 0.126368
Si Si8 0.804499 0.836319 0.504345
O O1 0.101527 0.892915 0.823324
O O2 0.787118 0.301125 0.102992
O O3 0.620927 0.888246 0.102759
O O4 0.000000 0.000000 0.000000
O O5 0.449512 0.485313 0.125978
O O6 0.106999 0.828983 0.335744
O O7 0.293691 0.912535 0.351980
O O8 0.692606 0.523845 0.628643
O O9 0.345141 0.261681 0.772986
O O10 0.397928 0.684361 0.897858
O O11 0.334871 0.816912 0.505792
O O12 0.211754 0.385671 0.498381
O O13 0.870209 0.692906 0.694457
O O14 0.641437 0.070002 0.389364
O O15 0.386608 0.171572 0.450747
O O16 0.500000 0.000000 0.000000
#
# Coordination Sequence:
#
# PCOD9092635 Si02
#       8
#     2   2   2   2   2   1   2   2
#     4  12  22  39  67 106 132 174 228 291 341 402
#     4  10  21  40  68  99 134 174 231 279 346 409
#     4  11  22  40  69  97 132 184 230 280 339 415
#     4  10  22  43  68  97 136 179 235 274 344 412
#     4  11  23  42  69 101 138 179 234 279 349 403
#     4  10  26  42  62  98 138 182 226 276 340 418
#     4  11  24  42  67 100 141 176 226 289 344 408
#     4  10  19  41  71  97 129 180 231 285 325 422
#
# _framework density 21.544602999999999
#
# number of rings (size 3 to 8) (size 9 to 14) (size 15 to 20)
#    0.000    1.333    4.000    0.800    1.867    2.667 
#    4.800    0.667    0.000    0.000    0.000    0.000 
#    0.000    0.000    0.000    0.000    0.000    0.000 
#
# Total GULP energy -83631.936283 kJ/mol
# GULP energy per Si atom -5575.462419 kJ/mol
# Density = 2.149557 g / cm^3
# Si number density = 21.544603 Si / 1000 Ang^3
#
#
#
# Elastic Constant Matrix: (Units=GPa)
#
#
# Indices 1 2 3 4 5 6 
#
# 1 76.9473 10.4963 56.4009 -1.2910 10.6341 -3.2907
# 2 10.4963 77.8517 26.2650 -17.0583 -13.2514 -1.6041
# 3 56.4009 26.2650 100.8773 -28.6315 -5.4547 -15.1567
# 4 -1.2910 -17.0583 -28.6315 46.9578 -2.4901 0.5672
# 5 10.6341 -13.2514 -5.4547 -2.4901 33.0449 1.4722
# 6 -3.2907 -1.6041 -15.1567 0.5672 1.4722 19.2378
#
#
#
# Elastic Compliance Matrix: (Units=1/GPa)
#
#
# Indices 1 2 3 4 5 6 
#
# 1 0.033588 -0.002593 -0.025581 -0.016348 -0.016730 -0.012863
# 2 -0.002593 0.015971 -0.000757 0.005675 0.007562 -0.000454
# 3 -0.025581 -0.000757 0.034045 0.020280 0.014154 0.020702
# 4 -0.016348 0.005675 0.020280 0.035826 0.013067 0.011598
# 5 -0.016730 0.007562 0.014154 0.013067 0.041761 0.005339
# 6 -0.012863 -0.000454 0.020702 0.011598 0.005339 0.065303
#
#
# Mechanical properties :
#
#
# Convention : Reuss Voigt Hill
#
# Bulk Modulus (GPa) = 38.84843 49.11117 43.97980
# Shear Modulus (GPa) = 17.06849 30.68237 23.87543
#
# Velocity S-wave (km/s) = 2.81773 3.77786 3.33255
# Velocity P-wave (km/s) = 5.35321 6.47103 5.93848
#
# Compressibility (1/GPa) = 0.02574106
#
# Stress axis : x y z
#
# Youngs Moduli (GPa) = 29.77263 62.61215 29.37320
#
# Poissons Ratio (x) = 0.16234 0.75140
# Poissons Ratio (y) = 0.07719 0.02225
# Poissons Ratio (z) = 0.76162 0.04742
#
# Static dielectric constant tensor:
#      x y z
#    x 1.753540 -0.017790 -0.020890 
#    y -0.017790 1.796950 -0.015530 
#    z -0.020890 -0.015530 1.795950 
# 
# From -- ./inp_files/619286.got.cif
#   From: 2010.05.17/outbox.cif.g08.bks.cpg/sg2_310_cif.got.tgz:619286.got - 2010.06.03 11:33:40.
