data_PCOD9092995
_publ_section_title
;
Structure prediction by ZEFSAII (Michael W. Deem and Ramdas Pophale) SiO2 
 PCOD9092995
Probable space group: P -1
;
_chemical_formula_sum "Si O2"
_cell_formula_units_Z 16
_cell_length_a 28.189227
_cell_length_b 26.005128
_cell_length_c 14.227933
_cell_angle_alpha 150.507404
_cell_angle_beta 30.301379
_cell_angle_gamma 170.543920
_cell_volume 842.122643
_symmetry_space_group_name_H-M "P -1"
_symmetry_group_IT_number 2
_symmetry_cell_setting 'triclinic'
loop_
_space_group_symop_operation_xyz
x,y,z
-x,-y,-z
loop_
_atom_site_type_symbol
_atom_site_label
_atom_site_fract_x
_atom_site_fract_y
_atom_site_fract_z
Si Si1 0.796432 0.927062 0.162921
Si Si2 0.751149 0.445321 0.304427
Si Si3 0.299876 0.429621 0.739753
Si Si4 0.632428 0.600584 0.084236
Si Si5 0.256094 0.574407 0.917253
Si Si6 0.115268 0.667990 0.932502
Si Si7 0.088080 0.776035 0.428585
Si Si8 0.347651 0.316076 0.317787
O O1 0.651301 0.720224 0.173640
O O2 0.913516 0.158480 0.370146
O O3 0.567211 0.690264 0.094855
O O4 0.053024 0.119838 0.999475
O O5 0.942850 0.685862 0.446117
O O6 0.419306 0.096948 0.347356
O O7 0.778731 0.526045 0.282265
O O8 0.888588 0.475901 0.092219
O O9 0.407142 0.474984 0.538752
O O10 0.522491 0.646687 0.788548
O O11 0.254578 0.497485 0.885785
O O12 0.994529 0.059489 0.703813
O O13 0.497078 0.485012 0.231291
O O14 0.002006 0.392617 0.054836
O O15 0.565029 0.957288 0.993233
O O16 0.085529 0.514138 0.726934
#
# Coordination Sequence:
#
# PCOD9092995 Si02
#       8
#     2   2   2   2   2   2   2   2
#     4  10  23  37  55  80 108 139 191 216 252 328
#     4  10  20  30  48  75 110 148 173 211 264 318
#     4  10  21  37  53  91 105 135 182 215 268 336
#     4  10  21  41  55  78 107 144 177 224 272 302
#     4  10  20  33  49  76 115 140 170 213 261 336
#     4  10  20  31  49  75 109 152 171 214 264 326
#     4  12  20  33  50  78 107 144 185 220 254 312
#     4  10  21  36  61  77 112 137 174 229 268 314
#
# _framework density 18.999607999999998
#
# number of rings (size 3 to 8) (size 9 to 14) (size 15 to 20)
#    0.750    1.000    1.250    3.750    1.750    0.000 
#    4.500    0.000    0.000    0.000    0.000   17.500 
#    0.000    0.000    0.000    0.000    0.000    0.000 
#
# Total GULP energy -89254.513611 kJ/mol
# GULP energy per Si atom -5578.407101 kJ/mol
# Density = 1.895636 g / cm^3
# Si number density = 18.999608 Si / 1000 Ang^3
#
#
#
# Elastic Constant Matrix: (Units=GPa)
#
#
# Indices 1 2 3 4 5 6 
#
# 1 60.9101 12.2596 9.5528 -7.9873 8.4683 8.3135
# 2 12.2596 62.0032 17.2869 -3.7333 19.3530 12.9278
# 3 9.5528 17.2869 46.4644 -3.9425 13.5447 -12.6157
# 4 -7.9873 -3.7333 -3.9425 23.5272 -4.5827 9.9313
# 5 8.4683 19.3530 13.5447 -4.5827 18.7785 -0.8213
# 6 8.3135 12.9278 -12.6157 9.9313 -0.8213 28.8545
#
#
#
# Elastic Compliance Matrix: (Units=1/GPa)
#
#
# Indices 1 2 3 4 5 6 
#
# 1 0.021199 0.003357 -0.006955 0.011702 -0.005796 -0.014845
# 2 0.003357 0.032051 -0.010973 0.009655 -0.025332 -0.024169
# 3 -0.006955 -0.010973 0.037563 -0.012044 -0.014403 0.027079
# 4 0.011702 0.009655 -0.012044 0.061714 0.007034 -0.034004
# 5 -0.005796 -0.025332 -0.014403 0.007034 0.094384 0.006988
# 6 -0.014845 -0.024169 0.027079 -0.034004 0.006988 0.073504
#
#
# Mechanical properties :
#
#
# Convention : Reuss Voigt Hill
#
# Bulk Modulus (GPa) = 16.21536 27.50846 21.86191
# Shear Modulus (GPa) = 13.50923 22.91727 18.21325
#
# Velocity S-wave (km/s) = 2.66940 3.47680 3.09950
# Velocity P-wave (km/s) = 4.24900 5.53420 4.93363
#
# Compressibility (1/GPa) = 0.06166994
#
# Stress axis : x y z
#
# Youngs Moduli (GPa) = 47.17114 31.20002 26.62163
#
# Poissons Ratio (x) = -0.10472 0.18517
# Poissons Ratio (y) = -0.15833 0.29212
# Poissons Ratio (z) = 0.32810 0.34236
#
# Static dielectric constant tensor:
#      x y z
#    x 1.720810 0.009610 -0.013730 
#    y 0.009610 1.659670 0.020040 
#    z -0.013730 0.020040 1.669520 
# 
# From -- ./inp_files/477810.got.cif
#   From: 2010.05.17/outbox.cif.g08.bks.cpg/sg2_239_cif.got.tgz:477810.got - 2010.06.03 11:33:40.
