data_PCOD9092989
_publ_section_title
;
Structure prediction by ZEFSAII (Michael W. Deem and Ramdas Pophale) SiO2 
 PCOD9092989
Probable space group: P -1
;
_chemical_formula_sum "Si O2"
_cell_formula_units_Z 16
_cell_length_a 23.151453
_cell_length_b 14.794487
_cell_length_c 14.787777
_cell_angle_alpha 19.443788
_cell_angle_beta 145.093830
_cell_angle_gamma 149.713272
_cell_volume 849.811041
_symmetry_space_group_name_H-M "P -1"
_symmetry_group_IT_number 2
_symmetry_cell_setting 'triclinic'
loop_
_space_group_symop_operation_xyz
x,y,z
-x,-y,-z
loop_
_atom_site_type_symbol
_atom_site_label
_atom_site_fract_x
_atom_site_fract_y
_atom_site_fract_z
Si Si1 0.142978 0.838924 0.449716
Si Si2 0.883069 0.303422 0.654302
Si Si3 0.210004 0.493425 0.995338
Si Si4 0.758142 0.624071 0.560087
Si Si5 0.416594 0.646218 0.245867
Si Si6 0.852743 0.803261 0.231584
Si Si7 0.041133 0.246284 0.170328
Si Si8 0.201270 0.870812 0.999858
O O1 0.165607 0.812097 0.398778
O O2 0.013278 0.574620 0.552553
O O3 0.157089 0.171952 0.176915
O O4 0.221983 0.759593 0.691935
O O5 0.819380 0.464846 0.473884
O O6 0.882902 0.029759 0.970828
O O7 0.324424 0.533818 0.152494
O O8 0.124123 0.469402 0.989036
O O9 0.658798 0.444708 0.673853
O O10 0.877982 0.750268 0.649297
O O11 0.756054 0.912987 0.237519
O O12 0.756414 0.381508 0.712500
O O13 0.500000 0.500000 0.500000
O O14 0.500000 0.000000 0.000000
O O15 0.772326 0.896791 0.101026
O O16 0.965617 0.918867 0.331599
O O17 0.938065 0.309798 0.008555
#
# Coordination Sequence:
#
# PCOD9092989 Si02
#       8
#     2   2   2   2   2   2   2   2
#     4  11  19  31  50  75 105 143 188 211 243 316
#     4  11  19  31  46  73 113 149 176 210 249 295
#     4  11  21  35  54  77 104 147 183 208 268 315
#     4  11  21  34  52  76  98 141 175 216 255 314
#     4  11  24  42  58  77 106 136 176 235 271 301
#     4  10  20  30  46  69 112 148 172 202 250 295
#     4   9  20  30  49  71 113 139 176 203 251 307
#     4  10  20  31  50  74 108 135 182 200 249 311
#
# _framework density 18.827714
#
# number of rings (size 3 to 8) (size 9 to 14) (size 15 to 20)
#    0.750    0.750    2.500    3.750    0.000    7.000 
#    0.000    0.000    0.000    0.000    0.000    0.000 
#    0.000   70.000    0.000    0.000    0.000    0.000 
#
# Total GULP energy -89253.278153 kJ/mol
# GULP energy per Si atom -5578.329885 kJ/mol
# Density = 1.878486 g / cm^3
# Si number density = 18.827714 Si / 1000 Ang^3
#
#
#
# Elastic Constant Matrix: (Units=GPa)
#
#
# Indices 1 2 3 4 5 6 
#
# 1 69.7425 27.0966 19.8086 1.3782 1.5133 -5.6755
# 2 27.0966 36.8916 10.8941 -4.3464 -0.9801 0.9491
# 3 19.8086 10.8941 94.3685 -10.1373 -0.3440 0.7149
# 4 1.3782 -4.3464 -10.1373 16.9867 -1.4612 -0.0645
# 5 1.5133 -0.9801 -0.3440 -1.4612 28.6014 0.9890
# 6 -5.6755 0.9491 0.7149 -0.0645 0.9890 25.6860
#
#
#
# Elastic Compliance Matrix: (Units=1/GPa)
#
#
# Indices 1 2 3 4 5 6 
#
# 1 0.022596 -0.016700 -0.003787 -0.008555 -0.002451 0.005788
# 2 -0.016700 0.040985 0.000132 0.012167 0.003094 -0.005297
# 3 -0.003787 0.000132 0.012215 0.007694 0.000786 -0.001193
# 4 -0.008555 0.012167 0.007694 0.067646 0.004506 -0.002558
# 5 -0.002451 0.003094 0.000786 0.004506 0.035509 -0.002034
# 6 0.005788 -0.005297 -0.001193 -0.002558 -0.002034 0.040511
#
#
# Mechanical properties :
#
#
# Convention : Reuss Voigt Hill
#
# Bulk Modulus (GPa) = 28.50080 35.17792 31.83936
# Shear Modulus (GPa) = 18.39136 23.80171 21.09653
#
# Velocity S-wave (km/s) = 3.12881 3.55939 3.35102
# Velocity P-wave (km/s) = 5.31255 5.96800 5.64979
#
# Compressibility (1/GPa) = 0.03508673
#
# Stress axis : x y z
#
# Youngs Moduli (GPa) = 44.25633 24.39901 81.86827
#
# Poissons Ratio (x) = 0.40746 0.31003
# Poissons Ratio (y) = 0.73908 -0.01084
# Poissons Ratio (z) = 0.16759 -0.00323
#
# Static dielectric constant tensor:
#      x y z
#    x 1.697520 -0.020470 0.007120 
#    y -0.020470 1.645250 -0.003160 
#    z 0.007120 -0.003160 1.647150 
# 
# From -- ./inp_files/542987.got.cif
#   From: 2010.05.17/outbox.cif.g08.bks.cpg/sg2_272_cif.got.tgz:542987.got - 2010.06.03 11:33:40.
