data_PCOD9092654
_publ_section_title
;
Structure prediction by ZEFSAII (Michael W. Deem and Ramdas Pophale) SiO2 
 PCOD9092654
Probable space group: P -1
;
_chemical_formula_sum "Si O2"
_cell_formula_units_Z 16
_cell_length_a 11.717432
_cell_length_b 16.753154
_cell_length_c 8.570849
_cell_angle_alpha 31.314905
_cell_angle_beta 66.661575
_cell_angle_gamma 54.592536
_cell_volume 693.065774
_symmetry_space_group_name_H-M "P -1"
_symmetry_group_IT_number 2
_symmetry_cell_setting 'triclinic'
loop_
_space_group_symop_operation_xyz
x,y,z
-x,-y,-z
loop_
_atom_site_type_symbol
_atom_site_label
_atom_site_fract_x
_atom_site_fract_y
_atom_site_fract_z
Si Si1 0.871203 0.175719 0.847058
Si Si2 0.161368 0.428601 0.093220
Si Si3 0.257233 0.429627 0.716782
Si Si4 0.668460 0.923037 0.847684
Si Si5 0.349112 0.147897 0.693275
Si Si6 0.776602 0.159332 0.267750
Si Si7 0.430472 0.420912 0.361075
Si Si8 0.237331 0.724158 0.602368
O O1 0.865969 0.363309 0.568889
O O2 0.772680 0.229845 0.653822
O O3 0.845022 0.121216 0.122943
O O4 0.000000 0.000000 0.000000
O O5 0.220683 0.261639 0.455142
O O6 0.272973 0.372501 0.982282
O O7 0.174009 0.592325 0.879792
O O8 0.000000 0.500000 0.000000
O O9 0.393694 0.410925 0.580219
O O10 0.228134 0.285115 0.893236
O O11 0.498603 0.993025 0.800539
O O12 0.699933 0.044489 0.518070
O O13 0.686034 0.939971 0.995355
O O14 0.388483 0.291404 0.506949
O O15 0.842319 0.133671 0.451489
O O16 0.673779 0.372326 0.963523
O O17 0.590911 0.366530 0.321286
#
# Coordination Sequence:
#
# PCOD9092654 Si02
#       8
#     2   2   2   2   2   2   2   2
#     4  10  25  46  66  95 141 186 240 288 335 425
#     4  11  24  43  66  96 144 198 236 279 344 425
#     4   9  23  43  64  98 138 178 232 287 362 414
#     4  10  21  38  65 110 134 172 229 293 372 416
#     4  10  20  40  67  99 146 178 227 288 354 425
#     4  11  21  40  73 106 134 180 232 288 364 410
#     4  10  19  41  74 104 134 172 231 301 358 408
#     4  11  22  42  74 107 136 175 237 300 346 419
#
# _framework density 23.085833000000001
#
# number of rings (size 3 to 8) (size 9 to 14) (size 15 to 20)
#    0.000    1.750    2.500    1.125    0.000    8.500 
#    6.750    2.500    0.000    0.000    0.000    0.000 
#    0.000    0.000    0.000    0.000    0.000    0.000 
#
# Total GULP energy -89104.015796 kJ/mol
# GULP energy per Si atom -5569.000987 kJ/mol
# Density = 2.303329 g / cm^3
# Si number density = 23.085833 Si / 1000 Ang^3
#
#
#
# Elastic Constant Matrix: (Units=GPa)
#
#
# Indices 1 2 3 4 5 6 
#
# 1 55.1120 25.8093 40.0913 6.2553 14.8608 1.4458
# 2 25.8093 146.6788 67.5885 15.9090 -3.8347 13.7880
# 3 40.0913 67.5885 121.2288 13.6329 5.5913 -10.2757
# 4 6.2553 15.9090 13.6329 45.5267 9.2752 1.6909
# 5 14.8608 -3.8347 5.5913 9.2752 37.6947 -2.3607
# 6 1.4458 13.7880 -10.2757 1.6909 -2.3607 14.9247
#
#
#
# Elastic Compliance Matrix: (Units=1/GPa)
#
#
# Indices 1 2 3 4 5 6 
#
# 1 0.028585 0.000476 -0.010454 0.001707 -0.010862 -0.012318
# 2 0.000476 0.012403 -0.008397 -0.001597 0.001658 -0.016842
# 3 -0.010454 -0.008397 0.018427 -0.002485 0.002532 0.022139
# 4 0.001707 -0.001597 -0.002485 0.024572 -0.006780 -0.004257
# 5 -0.010862 0.001658 0.002532 -0.006780 0.032724 0.007208
# 6 -0.012318 -0.016842 0.022139 -0.004257 0.007208 0.100621
#
#
# Mechanical properties :
#
#
# Convention : Reuss Voigt Hill
#
# Bulk Modulus (GPa) = 44.12013 65.55530 54.83771
# Shear Modulus (GPa) = 19.11063 32.26460 25.68761
#
# Velocity S-wave (km/s) = 2.88029 3.74250 3.33934
# Velocity P-wave (km/s) = 5.49675 6.86535 6.21881
#
# Compressibility (1/GPa) = 0.02266539
#
# Stress axis : x y z
#
# Youngs Moduli (GPa) = 34.98383 80.62699 54.26926
#
# Poissons Ratio (x) = -0.03838 0.56731
# Poissons Ratio (y) = -0.01665 0.45569
# Poissons Ratio (z) = 0.36571 0.67701
#
# Static dielectric constant tensor:
#      x y z
#    x 1.944470 0.071070 0.049880 
#    y 0.071070 1.938790 -0.014720 
#    z 0.049880 -0.014720 2.018430 
# 
# From -- ./inp_files/278667.got.cif
#   From: 2010.05.17/outbox.cif.g08.bks.cpg/sg2_140_cif.got.tgz:278667.got - 2010.06.03 11:33:40.
