data_PCOD9092185
_publ_section_title
;
Structure prediction by ZEFSAII (Michael W. Deem and Ramdas Pophale) SiO2 
 PCOD9092185
Probable space group: P -1
;
_chemical_formula_sum "Si O2"
_cell_formula_units_Z 16
_cell_length_a 22.085404
_cell_length_b 13.574738
_cell_length_c 16.727152
_cell_angle_alpha 31.389893
_cell_angle_beta 21.193039
_cell_angle_gamma 21.891335
_cell_volume 673.483465
_symmetry_space_group_name_H-M "P -1"
_symmetry_group_IT_number 2
_symmetry_cell_setting 'triclinic'
loop_
_space_group_symop_operation_xyz
x,y,z
-x,-y,-z
loop_
_atom_site_type_symbol
_atom_site_label
_atom_site_fract_x
_atom_site_fract_y
_atom_site_fract_z
Si Si1 0.852034 0.730900 0.433356
Si Si2 0.779268 0.851316 0.659935
Si Si3 0.535905 0.459349 0.648045
Si Si4 0.755907 0.311778 0.008271
Si Si5 0.278664 0.086237 0.138020
Si Si6 0.827294 0.105228 0.310473
Si Si7 0.978439 0.729328 0.837128
Si Si8 0.486384 0.710148 0.917951
O O1 0.633798 0.765666 0.657321
O O2 0.046635 0.410318 0.427396
O O3 0.746896 0.971458 0.457204
O O4 0.045714 0.725579 0.160697
O O5 0.839723 0.751225 0.746602
O O6 0.828337 0.028476 0.452003
O O7 0.502688 0.028415 0.872853
O O8 0.405797 0.655539 0.749558
O O9 0.353715 0.598417 0.702688
O O10 0.764752 0.389044 0.391272
O O11 0.608023 0.199935 0.773589
O O12 0.608146 0.564325 0.955344
O O13 0.914018 0.062387 0.926448
O O14 0.099560 0.205077 0.204920
O O15 0.000000 0.500000 0.000000
O O16 0.774898 0.007562 0.940129
O O17 0.500000 0.500000 0.000000
#
# Coordination Sequence:
#
# PCOD9092185 Si02
#       8
#     2   2   2   2   2   2   2   2
#     4  10  19  40  67  92 129 180 225 271 340 403
#     4  11  20  38  66  96 130 173 229 282 330 405
#     4  12  23  40  66 101 133 175 229 284 331 415
#     4  10  21  39  69 100 130 182 229 284 341 406
#     4  11  24  39  65  99 130 181 227 275 343 407
#     4  10  21  39  69  99 132 176 230 280 347 396
#     4  12  27  48  68  91 145 192 222 269 363 433
#     4  12  24  40  70 105 133 178 237 284 338 412
#
# _framework density 23.757079999999998
#
# number of rings (size 3 to 8) (size 9 to 14) (size 15 to 20)
#    0.750    0.250    3.750    4.500    1.750    0.500 
#    0.000    3.750    0.000    3.000    0.000    0.000 
#    0.000    0.000    0.000    0.000    0.000    0.000 
#
# Total GULP energy -89174.385059 kJ/mol
# GULP energy per Si atom -5573.399066 kJ/mol
# Density = 2.370301 g / cm^3
# Si number density = 23.757080 Si / 1000 Ang^3
#
#
#
# Elastic Constant Matrix: (Units=GPa)
#
#
# Indices 1 2 3 4 5 6 
#
# 1 67.5913 25.5732 23.5540 0.8240 11.6266 20.2144
# 2 25.5732 116.1572 40.1041 14.3605 10.8387 -3.1724
# 3 23.5540 40.1041 146.3031 24.5010 9.9392 14.8293
# 4 0.8240 14.3605 24.5010 34.6694 0.1978 1.4997
# 5 11.6266 10.8387 9.9392 0.1978 31.5361 -5.6931
# 6 20.2144 -3.1724 14.8293 1.4997 -5.6931 34.6721
#
#
#
# Elastic Compliance Matrix: (Units=1/GPa)
#
#
# Indices 1 2 3 4 5 6 
#
# 1 0.022906 -0.004669 -0.000665 0.002569 -0.009381 -0.015149
# 2 -0.004669 0.010943 -0.002176 -0.003085 -0.000485 0.004708
# 3 -0.000665 -0.002176 0.008975 -0.005246 -0.002495 -0.003833
# 4 0.002569 -0.003085 -0.005246 0.033793 0.001417 -0.000765
# 5 -0.009381 -0.000485 -0.002495 0.001417 0.038412 0.012738
# 6 -0.015149 0.004708 -0.003833 -0.000765 0.012738 0.041868
#
#
# Mechanical properties :
#
#
# Convention : Reuss Voigt Hill
#
# Bulk Modulus (GPa) = 35.96537 56.50159 46.23348
# Shear Modulus (GPa) = 27.59591 36.23021 31.91306
#
# Velocity S-wave (km/s) = 3.41190 3.90940 3.66909
# Velocity P-wave (km/s) = 5.54014 6.64925 6.11987
#
# Compressibility (1/GPa) = 0.02780452
#
# Stress axis : x y z
#
# Youngs Moduli (GPa) = 43.65624 91.37912 111.42030
#
# Poissons Ratio (x) = 0.42668 0.07411
# Poissons Ratio (y) = 0.20384 0.24241
# Poissons Ratio (z) = 0.02904 0.19881
#
# Static dielectric constant tensor:
#      x y z
#    x 2.044090 0.041650 0.030000 
#    y 0.041650 1.956960 0.003860 
#    z 0.030000 0.003860 1.897680 
# 
# From -- ./inp_files/579308.got.cif
#   From: 2010.05.17/outbox.cif.g08.bks.cpg/sg2_290_cif.got.tgz:579308.got - 2010.06.03 11:33:40.
