data_PCOD9092575
_publ_section_title
;
Structure prediction by ZEFSAII (Michael W. Deem and Ramdas Pophale) SiO2 
 PCOD9092575
Probable space group: P -1
;
_chemical_formula_sum "Si O2"
_cell_formula_units_Z 16
_cell_length_a 12.754811
_cell_length_b 8.602818
_cell_length_c 9.087892
_cell_angle_alpha 121.058631
_cell_angle_beta 51.018640
_cell_angle_gamma 115.004000
_cell_volume 656.787812
_symmetry_space_group_name_H-M "P -1"
_symmetry_group_IT_number 2
_symmetry_cell_setting 'triclinic'
loop_
_space_group_symop_operation_xyz
x,y,z
-x,-y,-z
loop_
_atom_site_type_symbol
_atom_site_label
_atom_site_fract_x
_atom_site_fract_y
_atom_site_fract_z
Si Si1 0.389523 0.636016 0.165216
Si Si2 0.961913 0.109509 0.440833
Si Si3 0.973687 0.770213 0.070475
Si Si4 0.556640 0.302840 0.521343
Si Si5 0.697648 0.664853 0.408565
Si Si6 0.676227 0.048112 0.772043
Si Si7 0.159796 0.306485 0.157727
Si Si8 0.723616 0.063221 0.081793
O O1 0.392315 0.706922 0.363711
O O2 0.426686 0.813693 0.115895
O O3 0.255742 0.497802 0.171365
O O4 0.500000 0.500000 0.000000
O O5 0.814649 0.153181 0.627743
O O6 0.074484 0.273481 0.369603
O O7 0.950860 0.974572 0.243200
O O8 0.000000 0.000000 0.500000
O O9 0.855191 0.659221 0.223501
O O10 0.935195 0.711807 0.910902
O O11 0.136175 0.790021 0.957294
O O12 0.635150 0.485967 0.465089
O O13 0.397010 0.317310 0.643179
O O14 0.603276 0.133595 0.310897
O O15 0.673970 0.843809 0.611718
O O16 0.691610 0.050371 0.932358
O O17 0.243419 0.133572 0.991387
#
# Coordination Sequence:
#
# PCOD9092575 Si02
#       8
#     2   2   2   2   2   2   2   2
#     4  12  30  47  67 100 143 183 238 282 346 411
#     4  10  19  41  69 103 135 178 227 277 346 416
#     4  10  22  41  73 100 143 180 229 278 352 406
#     4  11  27  45  71 103 134 178 240 285 343 410
#     4  10  25  47  72  96 141 183 230 285 345 418
#     4  11  25  44  71  99 139 184 227 283 350 413
#     4  11  24  44  71  99 146 183 224 288 342 413
#     4  11  24  43  73 106 134 181 232 284 346 414
#
# _framework density 24.360989
#
# number of rings (size 3 to 8) (size 9 to 14) (size 15 to 20)
#    0.000    1.250    2.500    3.000   14.000    2.000 
#    0.000    0.000    0.000    0.000    0.000    0.000 
#    0.000    0.000    0.000    0.000    0.000    0.000 
#
# Total GULP energy -89512.926466 kJ/mol
# GULP energy per Si atom -5594.557904 kJ/mol
# Density = 2.430554 g / cm^3
# Si number density = 24.360989 Si / 1000 Ang^3
#
#
#
# Elastic Constant Matrix: (Units=GPa)
#
#
# Indices 1 2 3 4 5 6 
#
# 1 95.4002 34.2703 12.2630 -1.2276 34.3608 8.8222
# 2 34.2703 84.9183 15.4077 17.5431 11.7426 12.3838
# 3 12.2630 15.4077 69.9742 0.1768 15.4479 7.0798
# 4 -1.2276 17.5431 0.1768 30.3127 -2.0522 -8.2036
# 5 34.3608 11.7426 15.4479 -2.0522 52.8956 -3.3173
# 6 8.8222 12.3838 7.0798 -8.2036 -3.3173 29.3499
#
#
#
# Elastic Compliance Matrix: (Units=1/GPa)
#
#
# Indices 1 2 3 4 5 6 
#
# 1 0.016069 -0.005263 0.000795 0.002151 -0.009625 -0.003288
# 2 -0.005263 0.018714 -0.001868 -0.013796 -0.001345 -0.009872
# 3 0.000795 -0.001868 0.016090 -0.000412 -0.005069 -0.004020
# 4 0.002151 -0.013796 -0.000412 0.046475 0.004768 0.018803
# 5 -0.009625 -0.001345 -0.005069 0.004768 0.027695 0.009146
# 6 -0.003288 -0.009872 -0.004020 0.018803 0.009146 0.046484
#
#
# Mechanical properties :
#
#
# Convention : Reuss Voigt Hill
#
# Bulk Modulus (GPa) = 26.17733 41.57497 33.87615
# Shear Modulus (GPa) = 25.38940 35.06842 30.22891
#
# Velocity S-wave (km/s) = 3.23184 3.79823 3.52643
# Velocity P-wave (km/s) = 4.96944 6.02816 5.52422
#
# Compressibility (1/GPa) = 0.03820100
#
# Stress axis : x y z
#
# Youngs Moduli (GPa) = 62.23173 53.43459 62.15139
#
# Poissons Ratio (x) = 0.28123 -0.04940
# Poissons Ratio (y) = 0.32752 0.11610
# Poissons Ratio (z) = -0.04946 0.09981
#
# Static dielectric constant tensor:
#      x y z
#    x 2.110180 0.028850 -0.008950 
#    y 0.028850 1.928200 -0.020580 
#    z -0.008950 -0.020580 1.981800 
# 
# From -- ./inp_files/245373.got.cif
#   From: 2010.05.17/outbox.cif.g08.bks.cpg/sg2_123_cif.got.tgz:245373.got - 2010.06.03 11:33:40.
