data_PCOD9092502
_publ_section_title
;
Structure prediction by ZEFSAII (Michael W. Deem and Ramdas Pophale) SiO2 
 PCOD9092502
Probable space group: P -1
;
_chemical_formula_sum "Si O2"
_cell_formula_units_Z 16
_cell_length_a 18.596502
_cell_length_b 11.378528
_cell_length_c 11.571320
_cell_angle_alpha 131.555386
_cell_angle_beta 153.091221
_cell_angle_gamma 34.970758
_cell_volume 613.328461
_symmetry_space_group_name_H-M "P -1"
_symmetry_group_IT_number 2
_symmetry_cell_setting 'triclinic'
loop_
_space_group_symop_operation_xyz
x,y,z
-x,-y,-z
loop_
_atom_site_type_symbol
_atom_site_label
_atom_site_fract_x
_atom_site_fract_y
_atom_site_fract_z
Si Si1 0.443248 0.853459 0.810628
Si Si2 0.927018 0.522328 0.278687
Si Si3 0.519380 0.318584 0.468200
Si Si4 0.124753 0.887585 0.985181
Si Si5 0.321401 0.179134 0.205040
Si Si6 0.185395 0.180117 0.238564
Si Si7 0.175867 0.644819 0.682033
Si Si8 0.651722 0.181840 0.100352
O O1 0.347651 0.872479 0.561589
O O2 0.331528 0.852441 0.760055
O O3 0.684660 0.626935 0.002715
O O4 0.500000 0.000000 0.000000
O O5 0.000000 0.500000 0.500000
O O6 0.061085 0.311451 0.259845
O O7 0.986700 0.648318 0.385662
O O8 0.500000 0.500000 0.500000
O O9 0.632710 0.278530 0.725585
O O10 0.322342 0.332150 0.224984
O O11 0.098618 0.070091 0.001374
O O12 0.112345 0.761384 0.790597
O O13 0.000000 0.000000 0.000000
O O14 0.186806 0.290363 0.201611
O O15 0.569666 0.001369 0.487015
O O16 0.290159 0.027809 0.005516
O O17 0.216574 0.760553 0.727319
O O18 0.400247 0.396049 0.851595
#
# Coordination Sequence:
#
# PCOD9092502 Si02
#       8
#     2   2   2   2   2   2   2   2
#     4  12  26  45  70  95 143 189 221 273 355 414
#     4  12  24  42  69 104 134 177 238 286 329 401
#     4  11  26  43  65  98 134 181 221 268 343 420
#     4  11  24  40  68  99 134 168 227 291 334 397
#     4  10  19  41  66  96 133 177 219 277 351 398
#     4  10  21  37  67  97 130 174 223 282 339 394
#     4  11  23  39  73 103 131 170 238 289 328 398
#     4  11  21  41  67 103 132 179 224 285 342 402
#
# _framework density 26.087163
#
# number of rings (size 3 to 8) (size 9 to 14) (size 15 to 20)
#    0.000    1.000    5.000    1.500    5.250    1.000 
#    0.000    1.250    5.500    0.000    0.000    0.000 
#    0.000    0.000    0.000    0.000    0.000    0.000 
#
# Total GULP energy -89506.905790 kJ/mol
# GULP energy per Si atom -5594.181612 kJ/mol
# Density = 2.602779 g / cm^3
# Si number density = 26.087163 Si / 1000 Ang^3
#
#
#
# Elastic Constant Matrix: (Units=GPa)
#
#
# Indices 1 2 3 4 5 6 
#
# 1 173.5964 52.7301 16.2246 11.8579 14.9226 11.2293
# 2 52.7301 93.1050 30.1085 28.6223 4.2477 4.2138
# 3 16.2246 30.1085 75.4414 25.7456 8.4284 -0.3480
# 4 11.8579 28.6223 25.7456 52.5389 2.2120 10.4080
# 5 14.9226 4.2477 8.4284 2.2120 38.6603 10.0079
# 6 11.2293 4.2138 -0.3480 10.4080 10.0079 55.7146
#
#
#
# Elastic Compliance Matrix: (Units=1/GPa)
#
#
# Indices 1 2 3 4 5 6 
#
# 1 0.007230 -0.004262 0.000064 0.000932 -0.002151 -0.000922
# 2 -0.004262 0.016145 -0.003466 -0.006297 0.000820 0.000645
# 3 0.000064 -0.003466 0.017420 -0.006968 -0.003642 0.002314
# 4 0.000932 -0.006297 -0.006968 0.026593 0.001628 -0.005015
# 5 -0.002151 0.000820 -0.003642 0.001628 0.028627 -0.005098
# 6 -0.000922 0.000645 0.002314 -0.005015 -0.005098 0.019953
#
#
# Mechanical properties :
#
#
# Convention : Reuss Voigt Hill
#
# Bulk Modulus (GPa) = 39.26759 60.02991 49.64875
# Shear Modulus (GPa) = 35.76922 45.58806 40.67864
#
# Velocity S-wave (km/s) = 3.70691 4.18488 3.95313
# Velocity P-wave (km/s) = 5.77986 6.81265 6.31739
#
# Compressibility (1/GPa) = 0.02546629
#
# Stress axis : x y z
#
# Youngs Moduli (GPa) = 138.31250 61.94033 57.40429
#
# Poissons Ratio (x) = 0.26399 -0.00368
# Poissons Ratio (y) = 0.58950 0.19898
# Poissons Ratio (z) = -0.00887 0.21470
#
# Static dielectric constant tensor:
#      x y z
#    x 2.108310 0.042410 0.020990 
#    y 0.042410 2.148570 -0.081660 
#    z 0.020990 -0.081660 2.107260 
# 
# From -- ./inp_files/402540.got.cif
#   From: 2010.05.17/outbox.cif.g08.bks.cpg/sg2_202_cif.got.tgz:402540.got - 2010.06.03 11:33:40.
