data_PCOD9092859
_publ_section_title
;
Structure prediction by ZEFSAII (Michael W. Deem and Ramdas Pophale) SiO2 
 PCOD9092859
Probable space group: P -1
;
_chemical_formula_sum "Si O2"
_cell_formula_units_Z 14
_cell_length_a 17.315288
_cell_length_b 9.075197
_cell_length_c 9.477433
_cell_angle_alpha 115.725767
_cell_angle_beta 104.155039
_cell_angle_gamma 32.366235
_cell_volume 694.839099
_symmetry_space_group_name_H-M "P -1"
_symmetry_group_IT_number 2
_symmetry_cell_setting 'triclinic'
loop_
_space_group_symop_operation_xyz
x,y,z
-x,-y,-z
loop_
_atom_site_type_symbol
_atom_site_label
_atom_site_fract_x
_atom_site_fract_y
_atom_site_fract_z
Si Si1 0.778132 0.753092 0.849246
Si Si2 0.282725 0.792373 0.907279
Si Si3 0.946297 0.623243 0.369024
Si Si4 0.649445 0.327321 0.440714
Si Si5 0.934022 0.363117 0.036438
Si Si6 0.589511 0.755343 0.752244
Si Si7 0.680372 0.572365 0.035335
O O1 0.677048 0.773519 0.777863
O O2 0.919618 0.519691 0.713154
O O3 0.841080 0.616570 0.978308
O O4 0.697171 0.068519 0.948545
O O5 0.339779 0.700841 0.735290
O O6 0.345404 0.535769 0.920974
O O7 0.104282 0.067783 0.939304
O O8 0.926903 0.483289 0.223753
O O9 0.000000 0.500000 0.500000
O O10 0.794563 0.988704 0.432910
O O11 0.500000 0.500000 0.500000
O O12 0.638058 0.534052 0.573061
O O13 0.851394 0.334011 0.005856
O O14 0.416222 0.105815 0.819197
O O15 0.626429 0.631964 0.876653
#
# Coordination Sequence:
#
# PCOD9092859 Si02
#       7
#     2   2   2   2   2   2   2
#     4  10  21  43  67  90 128 171 205 262 317 386
#     4  11  22  40  68  92 122 170 219 251 322 380
#     4  11  23  39  66 100 131 163 216 268 318 369
#     4  12  26  43  65  95 130 174 209 267 322 379
#     4  10  19  43  66  92 127 169 207 258 320 385
#     4  10  25  42  63  93 133 161 213 263 323 370
#     4  10  23  41  66  94 125 168 212 264 311 390
#
# _framework density 20.14855
#
# number of rings (size 3 to 8) (size 9 to 14) (size 15 to 20)
#    0.000    1.429    2.857    2.143    8.000    4.000 
#    0.000    0.000    0.000    0.000    0.000    0.000 
#    0.000    0.000    0.000    0.000    0.000    0.000 
#
# Total GULP energy -78269.396920 kJ/mol
# GULP energy per Si atom -5590.671209 kJ/mol
# Density = 2.010269 g / cm^3
# Si number density = 20.148550 Si / 1000 Ang^3
#
#
#
# Elastic Constant Matrix: (Units=GPa)
#
#
# Indices 1 2 3 4 5 6 
#
# 1 125.4447 63.2217 66.8484 -7.5435 -13.4139 4.6451
# 2 63.2217 72.9956 41.2449 11.7298 -11.2624 6.5083
# 3 66.8484 41.2449 112.3332 17.3083 -9.3921 0.4291
# 4 -7.5435 11.7298 17.3083 25.0599 0.9887 -3.6445
# 5 -13.4139 -11.2624 -9.3921 0.9887 23.8085 -0.4213
# 6 4.6451 6.5083 0.4291 -3.6445 -0.4213 30.7933
#
#
#
# Elastic Compliance Matrix: (Units=1/GPa)
#
#
# Indices 1 2 3 4 5 6 
#
# 1 0.026157 -0.020453 -0.012210 0.026445 -0.000788 0.003666
# 2 -0.020453 0.035327 0.004017 -0.026865 0.007755 -0.007511
# 3 -0.012210 0.004017 0.017716 -0.018097 0.002737 -0.001358
# 4 0.026445 -0.026865 -0.018097 0.074803 -0.007865 0.010687
# 5 -0.000788 0.007755 0.002737 -0.007865 0.046600 -0.001852
# 6 0.003666 -0.007511 -0.001358 0.010687 -0.001852 0.034767
#
#
# Mechanical properties :
#
#
# Convention : Reuss Voigt Hill
#
# Bulk Modulus (GPa) = 45.64792 72.60039 59.12415
# Shear Modulus (GPa) = 16.66858 25.22957 20.94907
#
# Velocity S-wave (km/s) = 2.87938 3.54245 3.22798
# Velocity P-wave (km/s) = 5.81027 7.26930 6.58035
#
# Compressibility (1/GPa) = 0.02190680
#
# Stress axis : x y z
#
# Youngs Moduli (GPa) = 38.23136 28.30664 56.44618
#
# Poissons Ratio (x) = 0.57895 0.68923
# Poissons Ratio (y) = 0.78194 -0.22673
# Poissons Ratio (z) = 0.46682 -0.11370
#
# Static dielectric constant tensor:
#      x y z
#    x 1.734780 -0.002320 0.003850 
#    y -0.002320 1.732910 0.016090 
#    z 0.003850 0.016090 1.671150 
# 
# From -- ./inp_files/179858.got.cif
#   From: 2010.05.17/outbox.cif.g08.bks.cpg/sg2_90_cif.got.tgz:179858.got - 2010.06.03 11:33:40.
