data_PCOD9092895
_publ_section_title
;
Structure prediction by ZEFSAII (Michael W. Deem and Ramdas Pophale) SiO2 
 PCOD9092895
Probable space group: P -1
;
_chemical_formula_sum "Si O2"
_cell_formula_units_Z 16
_cell_length_a 12.195248
_cell_length_b 25.682671
_cell_length_c 15.953741
_cell_angle_alpha 22.943493
_cell_angle_beta 24.796580
_cell_angle_gamma 22.721522
_cell_volume 693.516474
_symmetry_space_group_name_H-M "P -1"
_symmetry_group_IT_number 2
_symmetry_cell_setting 'triclinic'
loop_
_space_group_symop_operation_xyz
x,y,z
-x,-y,-z
loop_
_atom_site_type_symbol
_atom_site_label
_atom_site_fract_x
_atom_site_fract_y
_atom_site_fract_z
Si Si1 0.148731 0.058437 0.094669
Si Si2 0.740997 0.721884 0.570969
Si Si3 0.221705 0.620090 0.689071
Si Si4 0.208665 0.326265 0.577432
Si Si5 0.880782 0.521438 0.189813
Si Si6 0.327579 0.283337 0.802231
Si Si7 0.775095 0.259200 0.189207
Si Si8 0.685526 0.976347 0.490550
O O1 0.012964 0.085654 0.243217
O O2 0.463326 0.898619 0.095409
O O3 0.181180 0.203914 0.834652
O O4 0.904934 0.046023 0.224716
O O5 0.894500 0.687879 0.424017
O O6 0.961465 0.620593 0.642801
O O7 0.561576 0.906888 0.442351
O O8 0.479618 0.676934 0.803081
O O9 0.509426 0.639773 0.473538
O O10 0.270891 0.519034 0.720763
O O11 0.916805 0.794879 0.625231
O O12 0.140378 0.543065 0.934464
O O13 0.564872 0.274490 0.390879
O O14 0.000000 0.500000 0.500000
O O15 0.662296 0.674948 0.169426
O O16 0.976775 0.335853 0.950265
O O17 0.500000 0.000000 0.500000
#
# Coordination Sequence:
#
# PCOD9092895 Si02
#       8
#     2   2   2   2   2   2   2   2
#     4  10  23  41  68  99 141 181 229 277 346 422
#     4   9  22  43  67  98 137 173 231 287 340 403
#     4  10  24  44  69  97 139 187 233 281 351 410
#     4  10  24  44  69 101 140 178 232 287 351 414
#     4  11  23  43  67  99 135 187 233 291 340 405
#     4  11  24  41  67 100 140 184 227 284 343 416
#     4   9  23  43  65  96 140 170 228 285 340 407
#     4  10  19  43  72  99 137 180 228 289 341 402
#
# _framework density 23.070830000000001
#
# number of rings (size 3 to 8) (size 9 to 14) (size 15 to 20)
#    0.750    1.250    1.250    0.750    3.500    4.500 
#    4.500    2.500    0.000    0.000    0.000    0.000 
#    0.000    0.000    0.000    0.000    0.000    0.000 
#
# Total GULP energy -89323.902444 kJ/mol
# GULP energy per Si atom -5582.743903 kJ/mol
# Density = 2.301832 g / cm^3
# Si number density = 23.070830 Si / 1000 Ang^3
#
#
#
# Elastic Constant Matrix: (Units=GPa)
#
#
# Indices 1 2 3 4 5 6 
#
# 1 62.3102 30.5704 19.6351 5.2767 -2.3488 17.0022
# 2 30.5704 179.6629 18.6744 -9.0312 7.3236 34.7785
# 3 19.6351 18.6744 90.8574 4.8968 -13.1958 12.1415
# 4 5.2767 -9.0312 4.8968 31.2135 0.5555 0.2584
# 5 -2.3488 7.3236 -13.1958 0.5555 37.3041 5.9070
# 6 17.0022 34.7785 12.1415 0.2584 5.9070 33.8699
#
#
#
# Elastic Compliance Matrix: (Units=1/GPa)
#
#
# Indices 1 2 3 4 5 6 
#
# 1 0.020246 -0.001987 -0.002465 -0.003585 0.002045 -0.007568
# 2 -0.001987 0.007324 -0.000499 0.002599 -0.000792 -0.006226
# 3 -0.002465 -0.000499 0.012998 -0.001827 0.005169 -0.003797
# 4 -0.003585 0.002599 -0.001827 0.033716 -0.001861 -0.000147
# 5 0.002045 -0.000792 0.005169 -0.001861 0.030103 -0.007302
# 6 -0.007568 -0.006226 -0.003797 -0.000147 -0.007302 0.042352
#
#
# Mechanical properties :
#
#
# Convention : Reuss Voigt Hill
#
# Bulk Modulus (GPa) = 32.61038 52.28783 42.44910
# Shear Modulus (GPa) = 29.96414 38.07420 34.01917
#
# Velocity S-wave (km/s) = 3.60778 4.06682 3.84416
# Velocity P-wave (km/s) = 5.61430 6.69068 6.17599
#
# Compressibility (1/GPa) = 0.03066509
#
# Stress axis : x y z
#
# Youngs Moduli (GPa) = 49.39161 136.53565 76.93324
#
# Poissons Ratio (x) = 0.27133 0.18968
# Poissons Ratio (y) = 0.09815 0.03840
# Poissons Ratio (z) = 0.12177 0.06815
#
# Static dielectric constant tensor:
#      x y z
#    x 1.884590 0.001350 -0.043640 
#    y 0.001350 1.924970 0.020720 
#    z -0.043640 0.020720 1.845540 
# 
# From -- ./inp_files/574501.got.cif
#   From: 2010.05.17/outbox.cif.g08.bks.cpg/sg2_288_cif.got.tgz:574501.got - 2010.06.03 11:33:40.
