data_PCOD9092287
_publ_section_title
;
Structure prediction by ZEFSAII (Michael W. Deem and Ramdas Pophale) SiO2 
 PCOD9092287
Probable space group: P -1
;
_chemical_formula_sum "Si O2"
_cell_formula_units_Z 14
_cell_length_a 10.421607
_cell_length_b 20.469534
_cell_length_c 5.223110
_cell_angle_alpha 85.066624
_cell_angle_beta 86.191237
_cell_angle_gamma 46.200274
_cell_volume 801.188766
_symmetry_space_group_name_H-M "P -1"
_symmetry_group_IT_number 2
_symmetry_cell_setting 'triclinic'
loop_
_space_group_symop_operation_xyz
x,y,z
-x,-y,-z
loop_
_atom_site_type_symbol
_atom_site_label
_atom_site_fract_x
_atom_site_fract_y
_atom_site_fract_z
Si Si1 0.266949 0.782615 0.982530
Si Si2 0.026326 0.446289 0.264114
Si Si3 0.732420 0.439386 0.231562
Si Si4 0.421872 0.250845 0.264178
Si Si5 0.678548 0.379093 0.755215
Si Si6 0.590278 0.145364 0.786561
Si Si7 0.043789 0.027673 0.234593
O O1 0.441135 0.736189 0.800409
O O2 0.300978 0.824802 0.186803
O O3 0.090755 0.864286 0.819787
O O4 0.264735 0.712504 0.129606
O O5 0.223046 0.346440 0.266873
O O6 0.000000 0.500000 0.500000
O O7 0.880943 0.440218 0.273532
O O8 0.000000 0.500000 0.000000
O O9 0.739638 0.379938 0.465789
O O10 0.536316 0.540487 0.243711
O O11 0.746232 0.405621 0.955362
O O12 0.466360 0.188047 0.038609
O O13 0.477494 0.194279 0.532068
O O14 0.743731 0.036910 0.778133
O O15 0.000000 0.000000 0.500000
O O16 0.000000 0.000000 0.000000
#
# Coordination Sequence:
#
# PCOD9092287 Si02
#       7
#     2   2   2   2   2   2   2
#     4   9  20  29  56  78 109 137 175 208 272 320
#     4  12  24  38  57  77 104 138 183 228 264 312
#     4  10  23  38  51  77 104 139 178 222 265 304
#     4  10  20  31  51  76 104 140 168 212 272 308
#     4  10  21  36  55  73 107 140 175 217 263 320
#     4   9  18  31  47  81 112 132 169 212 272 319
#     4  10  16  29  47  78 116 133 163 219 264 323
#
# _framework density 17.474032999999999
#
# number of rings (size 3 to 8) (size 9 to 14) (size 15 to 20)
#    0.857    1.143    1.429    2.571    4.000    1.143 
#    0.000    0.000    0.000    0.000    0.000    6.000 
#    0.000    0.000    0.000    0.000    0.000    0.000 
#
# Total GULP energy -77979.372142 kJ/mol
# GULP energy per Si atom -5569.955153 kJ/mol
# Density = 1.743426 g / cm^3
# Si number density = 17.474033 Si / 1000 Ang^3
#
#
#
# Elastic Constant Matrix: (Units=GPa)
#
#
# Indices 1 2 3 4 5 6 
#
# 1 67.5239 45.8674 19.1425 -8.3301 10.0272 -16.0090
# 2 45.8674 87.5171 42.9853 -18.5930 6.4030 -20.3109
# 3 19.1425 42.9853 136.3371 -11.9863 7.5420 -17.3573
# 4 -8.3301 -18.5930 -11.9863 35.7016 -1.7502 -3.5919
# 5 10.0272 6.4030 7.5420 -1.7502 15.0122 -7.8041
# 6 -16.0090 -20.3109 -17.3573 -3.5919 -7.8041 22.9092
#
#
#
# Elastic Compliance Matrix: (Units=1/GPa)
#
#
# Indices 1 2 3 4 5 6 
#
# 1 0.025202 -0.012117 0.001413 0.000009 -0.010021 0.004527
# 2 -0.012117 0.024833 -0.003694 0.010836 0.008619 0.015386
# 3 0.001413 -0.003694 0.009103 0.001835 -0.001436 0.004408
# 4 0.000009 0.010836 0.001835 0.036711 0.009044 0.019841
# 5 -0.010021 0.008619 -0.001436 0.009044 0.087384 0.030736
# 6 0.004527 0.015386 0.004408 0.019841 0.030736 0.077376
#
#
# Mechanical properties :
#
#
# Convention : Reuss Voigt Hill
#
# Bulk Modulus (GPa) = 32.95561 56.37428 44.66495
# Shear Modulus (GPa) = 16.69347 26.95012 21.82179
#
# Velocity S-wave (km/s) = 3.09419 3.93147 3.53769
# Velocity P-wave (km/s) = 5.62726 7.27601 6.50409
#
# Compressibility (1/GPa) = 0.03034385
#
# Stress axis : x y z
#
# Youngs Moduli (GPa) = 39.67931 40.26875 109.85476
#
# Poissons Ratio (x) = 0.48793 -0.15525
# Poissons Ratio (y) = 0.48078 0.40576
# Poissons Ratio (z) = -0.05608 0.14874
#
# Static dielectric constant tensor:
#      x y z
#    x 1.573780 -0.017370 0.001010 
#    y -0.017370 1.636080 0.020270 
#    z 0.001010 0.020270 1.599210 
# 
# From -- ./inp_files/44200.got.cif
#   From: 2010.05.17/outbox.cif.g08.bks.cpg/sg2_23_cif.got.tgz:44200.got - 2010.06.03 11:33:40.
