data_PCOD9092294
_publ_section_title
;
Structure prediction by ZEFSAII (Michael W. Deem and Ramdas Pophale) SiO2 
 PCOD9092294
Probable space group: P -1
;
_chemical_formula_sum "Si O2"
_cell_formula_units_Z 10
_cell_length_a 6.923635
_cell_length_b 11.788229
_cell_length_c 5.104331
_cell_angle_alpha 96.007341
_cell_angle_beta 77.835910
_cell_angle_gamma 71.735135
_cell_volume 380.136386
_symmetry_space_group_name_H-M "P -1"
_symmetry_group_IT_number 2
_symmetry_cell_setting 'triclinic'
loop_
_space_group_symop_operation_xyz
x,y,z
-x,-y,-z
loop_
_atom_site_type_symbol
_atom_site_label
_atom_site_fract_x
_atom_site_fract_y
_atom_site_fract_z
Si Si1 0.602769 0.569967 0.694882
Si Si2 0.315287 0.995269 0.234618
Si Si3 0.525358 0.817992 0.540408
Si Si4 0.193019 0.664395 0.195068
Si Si5 0.899837 0.176152 0.212148
O O1 0.500000 0.500000 0.500000
O O2 0.642379 0.678334 0.548338
O O3 0.799810 0.470385 0.756004
O O4 0.425959 0.627991 0.983341
O O5 0.326299 0.102179 0.458467
O O6 0.082440 0.052847 0.206754
O O7 0.402833 0.865982 0.317269
O O8 0.500000 0.000000 0.000000
O O9 0.314730 0.850564 0.789606
O O10 0.150374 0.735980 0.498659
O O11 0.052553 0.749090 0.026450
#
# Coordination Sequence:
#
# PCOD9092294 Si02
#       5
#     2   2   2   2   2
#     4  10  19  40  70 102 132 172 226 270 336 397
#     4  11  27  44  66  99 136 179 227 278 329 400
#     4  10  24  44  67  98 134 180 219 277 336 393
#     4  10  21  38  70 103 130 174 220 275 330 403
#     4  11  24  44  71  98 137 174 227 272 337 396
#
# _framework density 26.306346999999999
#
# number of rings (size 3 to 8) (size 9 to 14) (size 15 to 20)
#    0.000    1.600    4.000    0.600   11.200    0.800 
#    0.000    2.000    0.000    0.000    0.000    0.000 
#    0.000    0.000    0.000    0.000    0.000    0.000 
#
# Total GULP energy -55804.747776 kJ/mol
# GULP energy per Si atom -5580.474778 kJ/mol
# Density = 2.624647 g / cm^3
# Si number density = 26.306347 Si / 1000 Ang^3
#
#
#
# Elastic Constant Matrix: (Units=GPa)
#
#
# Indices 1 2 3 4 5 6 
#
# 1 72.0449 23.8918 2.7063 -3.1364 15.4672 -15.2482
# 2 23.8918 165.4872 59.2860 -51.0661 3.4712 -0.2219
# 3 2.7063 59.2860 144.0086 -5.3933 14.1871 -11.5394
# 4 -3.1364 -51.0661 -5.3933 64.6776 -6.8818 4.5165
# 5 15.4672 3.4712 14.1871 -6.8818 27.1238 1.0431
# 6 -15.2482 -0.2219 -11.5394 4.5165 1.0431 29.2960
#
#
#
# Elastic Compliance Matrix: (Units=1/GPa)
#
#
# Indices 1 2 3 4 5 6 
#
# 1 0.022452 -0.006691 0.004959 -0.006631 -0.016808 0.015209
# 2 -0.006691 0.012043 -0.005867 0.010094 0.008194 -0.007550
# 3 0.004959 -0.005867 0.010611 -0.005032 -0.009205 0.007820
# 4 -0.006631 0.010094 -0.005032 0.024607 0.011733 -0.009568
# 5 -0.016808 0.008194 -0.009205 0.011733 0.053812 -0.016036
# 6 0.015209 -0.007550 0.007820 -0.009568 -0.016036 0.047119
#
#
# Mechanical properties :
#
#
# Convention : Reuss Voigt Hill
#
# Bulk Modulus (GPa) = 33.43561 61.47878 47.45719
# Shear Modulus (GPa) = 25.53482 43.92991 34.73237
#
# Velocity S-wave (km/s) = 3.11894 4.09092 3.63754
# Velocity P-wave (km/s) = 5.07031 6.76278 5.97676
#
# Compressibility (1/GPa) = 0.02990823
#
# Stress axis : x y z
#
# Youngs Moduli (GPa) = 44.54012 83.03312 94.24251
#
# Poissons Ratio (x) = 0.55560 -0.46734
# Poissons Ratio (y) = 0.29803 0.55288
# Poissons Ratio (z) = -0.22087 0.48712
#
# Static dielectric constant tensor:
#      x y z
#    x 2.212880 0.120030 0.126960 
#    y 0.120030 2.253610 0.014160 
#    z 0.126960 0.014160 2.227020 
# 
# From -- ./inp_files/21896.got.cif
#   From: 2010.05.17/outbox.cif.g08.bks.cpg/sg2_11_cif.got.tgz:21896.got - 2010.06.03 11:33:40.
