data_PCOD9092979
_publ_section_title
;
Structure prediction by ZEFSAII (Michael W. Deem and Ramdas Pophale) SiO2 
 PCOD9092979
Probable space group: P -1
;
_chemical_formula_sum "Si O2"
_cell_formula_units_Z 16
_cell_length_a 5.528352
_cell_length_b 13.002671
_cell_length_c 14.995064
_cell_angle_alpha 136.524964
_cell_angle_beta 98.394179
_cell_angle_gamma 97.762055
_cell_volume 686.162918
_symmetry_space_group_name_H-M "P -1"
_symmetry_group_IT_number 2
_symmetry_cell_setting 'triclinic'
loop_
_space_group_symop_operation_xyz
x,y,z
-x,-y,-z
loop_
_atom_site_type_symbol
_atom_site_label
_atom_site_fract_x
_atom_site_fract_y
_atom_site_fract_z
Si Si1 0.218778 0.982405 0.432573
Si Si2 0.401840 0.192506 0.398941
Si Si3 0.177031 0.579897 0.695687
Si Si4 0.339407 0.491002 0.291613
Si Si5 0.911299 0.244782 0.373325
Si Si6 0.580728 0.443511 0.857449
Si Si7 0.998886 0.765159 0.129046
Si Si8 0.526303 0.266581 0.919824
O O1 0.085870 0.817044 0.267042
O O2 0.500000 0.000000 0.500000
O O3 0.287529 0.106445 0.431722
O O4 0.000000 0.000000 0.500000
O O5 0.555181 0.381547 0.543285
O O6 0.637608 0.142971 0.341800
O O7 0.139869 0.175604 0.319973
O O8 0.967236 0.598800 0.766448
O O9 0.059236 0.392806 0.541699
O O10 0.472090 0.612060 0.763138
O O11 0.167272 0.681987 0.673044
O O12 0.388735 0.588909 0.263518
O O13 0.500285 0.302392 0.834915
O O14 0.400034 0.554187 0.923428
O O15 0.850548 0.576527 0.989024
O O16 0.253895 0.808704 0.109852
O O17 0.769315 0.827605 0.126402
#
# Coordination Sequence:
#
# PCOD9092979 Si02
#       8
#     2   2   2   2   2   2   2   2
#     4  12  26  39  55  78 112 143 188 228 253 296
#     4  10  21  35  51  80 101 148 174 213 261 315
#     4   9  18  31  50  82 105 139 157 221 276 318
#     4  10  20  29  52  83 112 127 173 217 273 317
#     4   9  17  35  54  70 111 135 178 204 264 341
#     4   9  21  32  55  74 109 135 179 219 262 327
#     4  10  21  37  52  72 100 147 178 214 264 303
#     4   9  20  34  53  74  98 144 181 214 261 315
#
# _framework density 23.318079000000001
#
# number of rings (size 3 to 8) (size 9 to 14) (size 15 to 20)
#    0.750    1.500    0.000    2.625    5.250    3.000 
#    0.000    0.000    0.000    0.000    0.000    5.250 
#    0.000    0.000    0.000    0.000    0.000    0.000 
#
# Total GULP energy -89125.697208 kJ/mol
# GULP energy per Si atom -5570.356076 kJ/mol
# Density = 2.326501 g / cm^3
# Si number density = 23.318079 Si / 1000 Ang^3
#
#
#
# Elastic Constant Matrix: (Units=GPa)
#
#
# Indices 1 2 3 4 5 6 
#
# 1 198.7706 17.1244 18.7048 2.4504 -8.4651 1.6020
# 2 17.1244 32.8426 -3.2097 -3.8232 3.1100 3.7369
# 3 18.7048 -3.2097 42.3886 5.4296 9.4717 -1.4997
# 4 2.4504 -3.8232 5.4296 20.2832 8.7320 1.4196
# 5 -8.4651 3.1100 9.4717 8.7320 25.8646 -5.7434
# 6 1.6020 3.7369 -1.4997 1.4196 -5.7434 31.5782
#
#
#
# Elastic Compliance Matrix: (Units=1/GPa)
#
#
# Indices 1 2 3 4 5 6 
#
# 1 0.006002 -0.004421 -0.003712 -0.002813 0.005046 0.001087
# 2 -0.004421 0.036858 0.005998 0.012281 -0.013755 -0.006906
# 3 -0.003712 0.005998 0.028498 -0.000572 -0.012493 -0.001415
# 4 -0.002813 0.012281 -0.000572 0.063794 -0.025696 -0.008879
# 5 0.005046 -0.013755 -0.012493 -0.025696 0.057990 0.012481
# 6 0.001087 -0.006906 -0.001415 -0.008879 0.012481 0.035032
#
#
# Mechanical properties :
#
#
# Convention : Reuss Voigt Hill
#
# Bulk Modulus (GPa) = 14.90601 37.69344 26.29972
# Shear Modulus (GPa) = 19.62274 31.63735 25.63004
#
# Velocity S-wave (km/s) = 2.90405 3.68744 3.31894
# Velocity P-wave (km/s) = 4.20131 5.85914 5.09807
#
# Compressibility (1/GPa) = 0.06708703
#
# Stress axis : x y z
#
# Youngs Moduli (GPa) = 166.61156 27.13146 35.08981
#
# Poissons Ratio (x) = 0.11996 0.13026
# Poissons Ratio (y) = 0.73664 -0.21047
# Poissons Ratio (z) = 0.61848 -0.16273
#
# Static dielectric constant tensor:
#      x y z
#    x 2.007100 -0.010420 -0.028350 
#    y -0.010420 1.842300 0.028440 
#    z -0.028350 0.028440 1.910730 
# 
# From -- ./inp_files/482952.got.cif
#   From: 2010.05.17/outbox.cif.g08.bks.cpg/sg2_242_cif.got.tgz:482952.got - 2010.06.03 11:33:40.
