data_PCOD9092956
_publ_section_title
;
Structure prediction by ZEFSAII (Michael W. Deem and Ramdas Pophale) SiO2 
 PCOD9092956
Probable space group: P -1
;
_chemical_formula_sum "Si O2"
_cell_formula_units_Z 12
_cell_length_a 7.447421
_cell_length_b 13.196483
_cell_length_c 11.929915
_cell_angle_alpha 140.600282
_cell_angle_beta 121.820074
_cell_angle_gamma 84.724368
_cell_volume 512.881406
_symmetry_space_group_name_H-M "P -1"
_symmetry_group_IT_number 2
_symmetry_cell_setting 'triclinic'
loop_
_space_group_symop_operation_xyz
x,y,z
-x,-y,-z
loop_
_atom_site_type_symbol
_atom_site_label
_atom_site_fract_x
_atom_site_fract_y
_atom_site_fract_z
Si Si1 0.445496 0.330222 0.254729
Si Si2 0.622813 0.926943 0.783953
Si Si3 0.942543 0.969113 0.725158
Si Si4 0.732503 0.339799 0.147960
Si Si5 0.054413 0.698455 0.414280
Si Si6 0.259364 0.193119 0.699275
O O1 0.500000 0.500000 0.500000
O O2 0.414804 0.164808 0.185200
O O3 0.661047 0.401529 0.291040
O O4 0.159589 0.203580 0.993901
O O5 0.806927 0.905566 0.746081
O O6 0.328123 0.798843 0.529675
O O7 0.737022 0.154990 0.017249
O O8 0.081143 0.865258 0.646516
O O9 0.722831 0.881455 0.481064
O O10 0.492595 0.265813 0.921072
O O11 0.975100 0.516617 0.310618
O O12 0.819890 0.656850 0.221881
O O13 0.000000 0.000000 0.500000
#
# Coordination Sequence:
#
# PCOD9092956 Si02
#       6
#     2   2   2   2   2   2
#     4  12  26  45  70  98 141 182 223 279 339 399
#     4  12  25  44  69 103 136 179 227 274 334 405
#     4  10  24  46  68  96 142 174 222 283 336 391
#     4  12  23  44  74 101 134 181 225 277 336 401
#     4  10  24  44  70 102 135 178 220 277 341 397
#     4  10  19  46  72  95 141 174 218 282 342 388
#
# _framework density 23.397220999999998
#
# number of rings (size 3 to 8) (size 9 to 14) (size 15 to 20)
#    1.000    0.000    5.000    2.500    2.333    1.333 
#    0.000    0.833    0.000    0.000    0.000    0.000 
#    0.000    0.000    0.000    0.000    0.000    0.000 
#
# Total GULP energy -67059.142527 kJ/mol
# GULP energy per Si atom -5588.261877 kJ/mol
# Density = 2.334397 g / cm^3
# Si number density = 23.397221 Si / 1000 Ang^3
#
#
#
# Elastic Constant Matrix: (Units=GPa)
#
#
# Indices 1 2 3 4 5 6 
#
# 1 59.2816 2.6964 1.4335 8.8053 9.3594 10.3147
# 2 2.6964 102.8357 21.1709 14.7128 -15.7897 -0.6034
# 3 1.4335 21.1709 73.8611 5.3736 -4.3357 -10.0736
# 4 8.8053 14.7128 5.3736 51.0038 3.0343 8.4472
# 5 9.3594 -15.7897 -4.3357 3.0343 21.0671 3.9088
# 6 10.3147 -0.6034 -10.0736 8.4472 3.9088 34.2503
#
#
#
# Elastic Compliance Matrix: (Units=1/GPa)
#
#
# Indices 1 2 3 4 5 6 
#
# 1 0.019411 -0.001468 -0.001019 -0.001501 -0.008828 -0.004793
# 2 -0.001468 0.012355 -0.002726 -0.003548 0.009937 -0.000401
# 3 -0.001019 -0.002726 0.015181 -0.001515 0.000824 0.005003
# 4 -0.001501 -0.003548 -0.001515 0.022148 -0.004567 -0.004997
# 5 -0.008828 0.009937 0.000824 -0.004567 0.060158 -0.002663
# 6 -0.004793 -0.000401 0.005003 -0.004997 -0.002663 0.033641
#
#
# Mechanical properties :
#
#
# Convention : Reuss Voigt Hill
#
# Bulk Modulus (GPa) = 27.38140 31.84220 29.61180
# Shear Modulus (GPa) = 26.95512 35.30942 31.13227
#
# Velocity S-wave (km/s) = 3.39789 3.88897 3.65169
# Velocity P-wave (km/s) = 5.20792 5.81415 5.51937
#
# Compressibility (1/GPa) = 0.03652114
#
# Stress axis : x y z
#
# Youngs Moduli (GPa) = 51.51766 80.93947 65.87174
#
# Poissons Ratio (x) = 0.11882 0.06710
# Poissons Ratio (y) = 0.07563 0.17957
# Poissons Ratio (z) = 0.05248 0.22065
#
# Static dielectric constant tensor:
#      x y z
#    x 1.861520 -0.056330 0.066610 
#    y -0.056330 1.938300 -0.055850 
#    z 0.066610 -0.055850 1.951070 
# 
# From -- ./inp_files/213714.got.cif
#   From: 2010.05.17/outbox.cif.g08.bks.cpg/sg2_107_cif.got.tgz:213714.got - 2010.06.03 11:33:40.
