data_PCOD9092435
_publ_section_title
;
Structure prediction by ZEFSAII (Michael W. Deem and Ramdas Pophale) SiO2 
 PCOD9092435
Probable space group: P -1
;
_chemical_formula_sum "Si O2"
_cell_formula_units_Z 14
_cell_length_a 9.464048
_cell_length_b 12.280264
_cell_length_c 11.680449
_cell_angle_alpha 136.978554
_cell_angle_beta 83.842553
_cell_angle_gamma 71.204748
_cell_volume 743.112957
_symmetry_space_group_name_H-M "P -1"
_symmetry_group_IT_number 2
_symmetry_cell_setting 'triclinic'
loop_
_space_group_symop_operation_xyz
x,y,z
-x,-y,-z
loop_
_atom_site_type_symbol
_atom_site_label
_atom_site_fract_x
_atom_site_fract_y
_atom_site_fract_z
Si Si1 0.739655 0.267493 0.220848
Si Si2 0.726698 0.890162 0.621167
Si Si3 0.970197 0.962990 0.782038
Si Si4 0.527458 0.730358 0.610318
Si Si5 0.247786 0.941798 0.596043
Si Si6 0.810352 0.677592 0.205053
Si Si7 0.528677 0.296194 0.813661
O O1 0.659945 0.496027 0.402345
O O2 0.588570 0.239112 0.245388
O O3 0.886344 0.167171 0.231412
O O4 0.824135 0.163583 0.013825
O O5 0.885094 0.864136 0.657573
O O6 0.624115 0.834351 0.668668
O O7 0.797159 0.746783 0.392082
O O8 0.600937 0.120033 0.765918
O O9 0.063582 0.000117 0.702490
O O10 0.389684 0.816725 0.585232
O O11 0.318059 0.810324 0.376310
O O12 0.242520 0.131304 0.715329
O O13 0.655211 0.652389 0.179535
O O14 0.000000 0.500000 0.000000
O O15 0.500000 0.500000 0.000000
#
# Coordination Sequence:
#
# PCOD9092435 Si02
#       7
#     2   2   2   2   2   2   2
#     4   9  22  41  63  85 119 158 214 248 308 344
#     4  11  23  39  63  90 128 155 203 243 305 359
#     4  10  23  39  60  95 118 161 201 261 291 356
#     4  10  19  41  65  82 116 170 196 256 299 361
#     4  10  21  40  62  85 130 156 199 242 306 358
#     4  11  24  40  60  94 121 160 196 249 300 370
#     4  11  24  40  61  93 122 159 199 242 300 382
#
# _framework density 18.839666999999999
#
# number of rings (size 3 to 8) (size 9 to 14) (size 15 to 20)
#    0.000    1.714    2.857    0.857    8.000    2.286 
#    0.000    0.000    0.000    0.000    0.000    0.000 
#    0.000    0.000    0.000    0.000    0.000    0.000 
#
# Total GULP energy -78093.071526 kJ/mol
# GULP energy per Si atom -5578.076538 kJ/mol
# Density = 1.879679 g / cm^3
# Si number density = 18.839667 Si / 1000 Ang^3
#
#
#
# Elastic Constant Matrix: (Units=GPa)
#
#
# Indices 1 2 3 4 5 6 
#
# 1 130.7812 40.0736 68.6303 -17.2753 10.6513 34.2855
# 2 40.0736 54.6535 47.8235 -2.4669 -4.7729 28.1814
# 3 68.6303 47.8235 136.8454 7.0317 -10.5758 16.7538
# 4 -17.2753 -2.4669 7.0317 18.2978 2.2039 -2.1364
# 5 10.6513 -4.7729 -10.5758 2.2039 30.5321 -0.5878
# 6 34.2855 28.1814 16.7538 -2.1364 -0.5878 33.0147
#
#
#
# Elastic Compliance Matrix: (Units=1/GPa)
#
#
# Indices 1 2 3 4 5 6 
#
# 1 0.023104 0.005107 -0.013406 0.027027 -0.014242 -0.020054
# 2 0.005107 0.047935 -0.015487 0.013010 -0.001314 -0.037544
# 3 -0.013406 -0.015487 0.019426 -0.021640 0.010856 0.016077
# 4 0.027027 0.013010 -0.021640 0.090214 -0.021840 -0.022742
# 5 -0.014242 -0.001314 0.010856 -0.021840 0.043040 0.009756
# 6 -0.020054 -0.037544 0.016077 -0.022742 0.009756 0.073706
#
#
# Mechanical properties :
#
#
# Convention : Reuss Voigt Hill
#
# Bulk Modulus (GPa) = 23.31373 70.59275 46.95324
# Shear Modulus (GPa) = 13.91613 27.41911 20.66762
#
# Velocity S-wave (km/s) = 2.72078 3.81910 3.31573
# Velocity P-wave (km/s) = 4.71931 7.54977 6.29567
#
# Compressibility (1/GPa) = 0.04289319
#
# Stress axis : x y z
#
# Youngs Moduli (GPa) = 43.28257 20.86138 51.47786
#
# Poissons Ratio (x) = -0.10654 0.69011
# Poissons Ratio (y) = -0.22104 0.79724
# Poissons Ratio (z) = 0.58025 0.32308
#
# Static dielectric constant tensor:
#      x y z
#    x 1.659040 0.003600 -0.029400 
#    y 0.003600 1.673080 -0.003420 
#    z -0.029400 -0.003420 1.658010 
# 
# From -- ./inp_files/167310.got.cif
#   From: 2010.05.17/outbox.cif.g08.bks.cpg/sg2_84_cif.got.tgz:167310.got - 2010.06.03 11:33:40.
