data_PCOD9092763
_publ_section_title
;
Structure prediction by ZEFSAII (Michael W. Deem and Ramdas Pophale) SiO2 
 PCOD9092763
Probable space group: P -1
;
_chemical_formula_sum "Si O2"
_cell_formula_units_Z 15
_cell_length_a 8.752907
_cell_length_b 8.508266
_cell_length_c 8.019572
_cell_angle_alpha 88.138142
_cell_angle_beta 104.114746
_cell_angle_gamma 90.851494
_cell_volume 578.882523
_symmetry_space_group_name_H-M "P -1"
_symmetry_group_IT_number 2
_symmetry_cell_setting 'triclinic'
loop_
_space_group_symop_operation_xyz
x,y,z
-x,-y,-z
loop_
_atom_site_type_symbol
_atom_site_label
_atom_site_fract_x
_atom_site_fract_y
_atom_site_fract_z
Si Si1 0.887513 0.647228 0.999496
Si Si2 0.071837 0.870822 0.843799
Si Si3 0.298635 0.318242 0.710042
Si Si4 0.634879 0.015460 0.200411
Si Si5 0.609661 0.792441 0.721604
Si Si6 0.974772 0.317953 0.478112
Si Si7 0.500000 0.500000 0.500000
Si Si8 0.201586 0.933747 0.402788
O O1 0.750269 0.680684 0.826035
O O2 0.996402 0.802288 0.993553
O O3 0.796666 0.636085 0.149850
O O4 0.000000 0.500000 0.000000
O O5 0.239372 0.951909 0.912569
O O6 0.082774 0.725569 0.720715
O O7 0.957597 0.984205 0.706116
O O8 0.397132 0.455249 0.643597
O O9 0.154603 0.260114 0.553613
O O10 0.404466 0.167673 0.787691
O O11 0.504328 0.148420 0.164975
O O12 0.735177 0.047743 0.393626
O O13 0.524317 0.685648 0.564233
O O14 0.670581 0.962504 0.666134
O O15 0.857477 0.248250 0.590909
O O16 0.000000 0.500000 0.500000
#
# Coordination Sequence:
#
# PCOD9092763 Si02
#       8
#     2   2   2   2   2   2   1   2
#     4  11  27  50  70 105 153 201 246 310 372 444
#     4  10  20  43  68  99 145 195 244 300 364 426
#     4  12  25  44  73 108 147 194 252 299 375 450
#     4  11  21  42  73 107 146 191 241 312 371 439
#     4  11  26  47  74 108 152 196 252 303 384 442
#     4  11  21  36  71 107 138 187 254 305 350 426
#     4  12  28  46  74 114 144 196 248 308 378 448
#     4  10  19  42  68 103 148 189 240 313 360 422
#
# _framework density 25.911997
#
# number of rings (size 3 to 8) (size 9 to 14) (size 15 to 20)
#    0.000    1.067    4.000    2.800    5.600    1.600 
#    0.000    0.000    0.000    0.000    0.000    0.000 
#    0.000    0.000    0.000    0.000    0.000    0.000 
#
# Total GULP energy -83567.792844 kJ/mol
# GULP energy per Si atom -5571.186190 kJ/mol
# Density = 2.585302 g / cm^3
# Si number density = 25.911997 Si / 1000 Ang^3
#
#
#
# Elastic Constant Matrix: (Units=GPa)
#
#
# Indices 1 2 3 4 5 6 
#
# 1 108.7889 58.5205 37.3564 -15.7351 -25.7672 5.1579
# 2 58.5205 167.4469 40.4439 -14.8410 -9.1753 10.8218
# 3 37.3564 40.4439 108.2919 -10.1575 -22.0843 8.5599
# 4 -15.7351 -14.8410 -10.1575 27.1084 4.8542 -7.1416
# 5 -25.7672 -9.1753 -22.0843 4.8542 42.7393 -15.4689
# 6 5.1579 10.8218 8.5599 -7.1416 -15.4689 61.6196
#
#
#
# Elastic Compliance Matrix: (Units=1/GPa)
#
#
# Indices 1 2 3 4 5 6 
#
# 1 0.014087 -0.003838 -0.001721 0.004716 0.006980 0.002033
# 2 -0.003838 0.007839 -0.001814 0.001461 -0.002160 -0.001176
# 3 -0.001721 -0.001814 0.011542 0.001582 0.004412 0.000150
# 4 0.004716 0.001461 0.001582 0.041991 0.000717 0.004175
# 5 0.006980 -0.002160 0.004412 0.000717 0.031980 0.007294
# 6 0.002033 -0.001176 0.000150 0.004175 0.007294 0.018559
#
#
# Mechanical properties :
#
#
# Convention : Reuss Voigt Hill
#
# Bulk Modulus (GPa) = 53.41685 73.01882 63.21784
# Shear Modulus (GPa) = 34.01749 42.84060 38.42904
#
# Velocity S-wave (km/s) = 3.62720 4.07050 3.85523
# Velocity P-wave (km/s) = 6.18074 7.09456 6.65336
#
# Compressibility (1/GPa) = 0.01872068
#
# Stress axis : x y z
#
# Youngs Moduli (GPa) = 70.98889 127.57089 86.64315
#
# Poissons Ratio (x) = 0.48967 0.14909
# Poissons Ratio (y) = 0.27249 0.15717
# Poissons Ratio (z) = 0.12215 0.23142
#
# Static dielectric constant tensor:
#      x y z
#    x 2.198340 -0.026410 -0.014270 
#    y -0.026410 2.085310 0.038920 
#    z -0.014270 0.038920 2.095850 
# 
# From -- ./inp_files/154957.got.cif
#   From: 2010.05.17/outbox.cif.g08.bks.cpg/sg2_78_cif.got.tgz:154957.got - 2010.06.03 11:33:40.
