data_PCOD9092523
_publ_section_title
;
Structure prediction by ZEFSAII (Michael W. Deem and Ramdas Pophale) SiO2 
 PCOD9092523
Probable space group: P -1
;
_chemical_formula_sum "Si O2"
_cell_formula_units_Z 14
_cell_length_a 11.747983
_cell_length_b 12.188198
_cell_length_c 8.925918
_cell_angle_alpha 42.163152
_cell_angle_beta 122.950143
_cell_angle_gamma 138.000344
_cell_volume 573.974087
_symmetry_space_group_name_H-M "P -1"
_symmetry_group_IT_number 2
_symmetry_cell_setting 'triclinic'
loop_
_space_group_symop_operation_xyz
x,y,z
-x,-y,-z
loop_
_atom_site_type_symbol
_atom_site_label
_atom_site_fract_x
_atom_site_fract_y
_atom_site_fract_z
Si Si1 0.572582 0.298654 0.159419
Si Si2 0.015925 0.691565 0.890878
Si Si3 0.390479 0.523769 0.515724
Si Si4 0.902308 0.416948 0.361747
Si Si5 0.673796 0.750000 0.748191
Si Si6 0.966646 0.823705 0.440080
Si Si7 0.354637 0.806217 0.006645
O O1 0.700612 0.287955 0.364293
O O2 0.391820 0.191312 0.216137
O O3 0.644465 0.535857 0.967528
O O4 0.594131 0.234306 0.075422
O O5 0.926493 0.756835 0.654867
O O6 0.216499 0.851282 0.853233
O O7 0.000000 0.500000 0.000000
O O8 0.961445 0.609779 0.101499
O O9 0.500000 0.500000 0.500000
O O10 0.526807 0.671854 0.592585
O O11 0.216384 0.291655 0.658325
O O12 0.314141 0.627322 0.272018
O O13 0.000000 0.500000 0.500000
O O14 0.950057 0.280809 0.458992
O O15 0.875429 0.935568 0.691807
O O16 0.500000 0.000000 0.000000
#
# Coordination Sequence:
#
# PCOD9092523 Si02
#       7
#     2   2   2   2   2   2   2
#     4  11  24  48  67 101 149 184 229 302 352 416
#     4  10  19  41  67  93 137 167 229 295 338 400
#     4  12  24  44  69 104 143 177 241 290 343 433
#     4  11  22  41  72  99 137 184 236 292 348 407
#     4  11  27  46  70 101 149 190 230 286 364 428
#     4  11  23  46  70 101 138 188 236 289 354 417
#     4  12  23  43  71 101 135 182 235 292 353 414
#
# _framework density 24.391345000000001
#
# number of rings (size 3 to 8) (size 9 to 14) (size 15 to 20)
#    0.000    0.857    7.143    1.714    0.000    2.286 
#    2.571    6.429    0.000    0.000    0.000    0.000 
#    0.000    0.000    0.000    0.000    0.000    0.000 
#
# Total GULP energy -78098.761226 kJ/mol
# GULP energy per Si atom -5578.482945 kJ/mol
# Density = 2.433583 g / cm^3
# Si number density = 24.391345 Si / 1000 Ang^3
#
#
#
# Elastic Constant Matrix: (Units=GPa)
#
#
# Indices 1 2 3 4 5 6 
#
# 1 81.9650 14.9415 -5.2889 -6.9386 -0.7057 2.2366
# 2 14.9415 138.2614 15.5867 -8.3653 -7.6711 24.9084
# 3 -5.2889 15.5867 45.6752 2.7884 -3.5195 -5.7130
# 4 -6.9386 -8.3653 2.7884 36.9672 5.3327 -2.5494
# 5 -0.7057 -7.6711 -3.5195 5.3327 31.5099 1.7336
# 6 2.2366 24.9084 -5.7130 -2.5494 1.7336 42.4947
#
#
#
# Elastic Compliance Matrix: (Units=1/GPa)
#
#
# Indices 1 2 3 4 5 6 
#
# 1 0.012769 -0.001619 0.001975 0.001965 -0.000257 0.000671
# 2 -0.001619 0.009074 -0.003949 0.001389 0.001813 -0.005755
# 3 0.001975 -0.003949 0.024416 -0.002275 0.001905 0.005279
# 4 0.001965 0.001389 -0.002275 0.028639 -0.004757 0.000689
# 5 -0.000257 0.001813 0.001905 -0.004757 0.033324 -0.002438
# 6 0.000671 -0.005755 0.005279 0.000689 -0.002438 0.027721
#
#
# Mechanical properties :
#
#
# Convention : Reuss Voigt Hill
#
# Bulk Modulus (GPa) = 25.59269 35.15334 30.37302
# Shear Modulus (GPa) = 32.01994 38.23853 35.12923
#
# Velocity S-wave (km/s) = 3.62713 3.96373 3.79916
# Velocity P-wave (km/s) = 5.29686 5.94909 5.63242
#
# Compressibility (1/GPa) = 0.03907366
#
# Stress axis : x y z
#
# Youngs Moduli (GPa) = 78.31677 110.20170 40.95678
#
# Poissons Ratio (x) = 0.17839 -0.08089
# Poissons Ratio (y) = 0.12677 0.16174
# Poissons Ratio (z) = -0.15468 0.43518
#
# Static dielectric constant tensor:
#      x y z
#    x 1.999190 -0.008080 -0.031690 
#    y -0.008080 1.939350 -0.033940 
#    z -0.031690 -0.033940 2.031200 
# 
# From -- ./inp_files/261786.got.cif
#   From: 2010.05.17/outbox.cif.g08.bks.cpg/sg2_131_cif.got.tgz:261786.got - 2010.06.03 11:33:40.
