data_PCOD9092665
_publ_section_title
;
Structure prediction by ZEFSAII (Michael W. Deem and Ramdas Pophale) SiO2 
 PCOD9092665
Probable space group: P -1
;
_chemical_formula_sum "Si O2"
_cell_formula_units_Z 16
_cell_length_a 11.230046
_cell_length_b 8.977011
_cell_length_c 14.114899
_cell_angle_alpha 147.538771
_cell_angle_beta 110.955374
_cell_angle_gamma 85.569930
_cell_volume 637.671019
_symmetry_space_group_name_H-M "P -1"
_symmetry_group_IT_number 2
_symmetry_cell_setting 'triclinic'
loop_
_space_group_symop_operation_xyz
x,y,z
-x,-y,-z
loop_
_atom_site_type_symbol
_atom_site_label
_atom_site_fract_x
_atom_site_fract_y
_atom_site_fract_z
Si Si1 0.681296 0.678363 0.149803
Si Si2 0.066771 0.700862 0.719536
Si Si3 0.398746 0.809878 0.280502
Si Si4 0.606291 0.612499 0.499618
Si Si5 0.222173 0.609130 0.446419
Si Si6 0.279538 0.459143 0.694015
Si Si7 0.859522 0.596560 0.882990
Si Si8 0.000799 0.850285 0.318248
O O1 0.425803 0.577108 0.091491
O O2 0.682024 0.565039 0.198120
O O3 0.839394 0.756116 0.194059
O O4 0.690128 0.021382 0.330848
O O5 0.215728 0.704351 0.792068
O O6 0.000000 0.500000 0.500000
O O7 0.946897 0.508318 0.658432
O O8 0.076419 0.038355 0.891457
O O9 0.253360 0.601658 0.178913
O O10 0.500000 0.000000 0.500000
O O11 0.377845 0.049144 0.334050
O O12 0.500000 0.500000 0.500000
O O13 0.734798 0.553018 0.544948
O O14 0.598303 0.485002 0.319805
O O15 0.236778 0.481893 0.281443
O O16 0.140125 0.124216 0.455121
O O17 0.970824 0.450894 0.834016
O O18 0.000000 0.000000 0.500000
#
# Coordination Sequence:
#
# PCOD9092665 Si02
#       8
#     2   2   2   2   2   2   2   2
#     4  11  24  46  83 116 154 206 250 320 402 474
#     4  12  25  41  74 126 163 198 241 320 407 473
#     4  12  29  53  75 104 151 207 273 319 382 466
#     4  12  28  49  75 104 149 202 266 327 379 452
#     4  12  23  46  75 117 158 195 251 318 397 471
#     4  11  22  47  76 114 165 194 255 318 396 484
#     4  12  25  44  78 112 163 201 249 317 396 480
#     4  10  19  41  77 117 156 191 245 310 400 483
#
# _framework density 25.091308999999999
#
# number of rings (size 3 to 8) (size 9 to 14) (size 15 to 20)
#    0.000    0.500    6.250    2.625    3.500    0.500 
#    0.000    6.875    0.000    0.000    0.000    0.000 
#    0.000    0.000    0.000    0.000    0.000    0.000 
#
# Total GULP energy -89400.543620 kJ/mol
# GULP energy per Si atom -5587.533976 kJ/mol
# Density = 2.503420 g / cm^3
# Si number density = 25.091309 Si / 1000 Ang^3
#
#
#
# Elastic Constant Matrix: (Units=GPa)
#
#
# Indices 1 2 3 4 5 6 
#
# 1 95.8073 35.9615 39.9143 5.0380 -5.0924 15.1279
# 2 35.9615 143.7723 68.7204 3.5437 -4.6054 13.5825
# 3 39.9143 68.7204 183.3753 10.9740 -15.9922 -6.8619
# 4 5.0380 3.5437 10.9740 50.6292 -4.0773 -5.7987
# 5 -5.0924 -4.6054 -15.9922 -4.0773 35.2849 3.7728
# 6 15.1279 13.5825 -6.8619 -5.7987 3.7728 59.7765
#
#
#
# Elastic Compliance Matrix: (Units=1/GPa)
#
#
# Indices 1 2 3 4 5 6 
#
# 1 0.012564 -0.001820 -0.002036 -0.000972 0.000877 -0.003149
# 2 -0.001820 0.009066 -0.003097 -0.000027 -0.000279 -0.001940
# 3 -0.002036 -0.003097 0.007378 -0.000779 0.002359 0.001841
# 4 -0.000972 -0.000027 -0.000779 0.020384 0.001641 0.002036
# 5 0.000877 -0.000279 0.002359 0.001641 0.029862 -0.001614
# 6 -0.003149 -0.001940 0.001841 0.002036 -0.001614 0.018478
#
#
# Mechanical properties :
#
#
# Convention : Reuss Voigt Hill
#
# Bulk Modulus (GPa) = 66.21143 79.12747 72.66945
# Shear Modulus (GPa) = 42.85552 47.69535 45.27544
#
# Velocity S-wave (km/s) = 4.13726 4.36463 4.25246
# Velocity P-wave (km/s) = 7.01912 7.55012 7.28945
#
# Compressibility (1/GPa) = 0.01510313
#
# Stress axis : x y z
#
# Youngs Moduli (GPa) = 79.59303 110.30534 135.53549
#
# Poissons Ratio (x) = 0.20074 0.27594
# Poissons Ratio (y) = 0.14485 0.41969
# Poissons Ratio (z) = 0.16204 0.34157
#
# Static dielectric constant tensor:
#      x y z
#    x 3.836790 1.429040 -1.126030 
#    y 1.429040 3.254870 -1.046820 
#    z -1.126030 -1.046820 2.791540 
# 
# From -- ./inp_files/516481.got.cif
#   From: 2010.05.17/outbox.cif.g08.bks.cpg/sg2_259_cif.got.tgz:516481.got - 2010.06.03 11:33:40.
