data_PCOD9092085
_publ_section_title
;
Structure prediction by ZEFSAII (Michael W. Deem and Ramdas Pophale) SiO2 
 PCOD9092085
Probable space group: P -1
;
_chemical_formula_sum "Si O2"
_cell_formula_units_Z 16
_cell_length_a 7.841351
_cell_length_b 14.101607
_cell_length_c 14.782046
_cell_angle_alpha 33.508170
_cell_angle_beta 67.917663
_cell_angle_gamma 88.812529
_cell_volume 685.722821
_symmetry_space_group_name_H-M "P -1"
_symmetry_group_IT_number 2
_symmetry_cell_setting 'triclinic'
loop_
_space_group_symop_operation_xyz
x,y,z
-x,-y,-z
loop_
_atom_site_type_symbol
_atom_site_label
_atom_site_fract_x
_atom_site_fract_y
_atom_site_fract_z
Si Si1 0.535136 0.966662 0.825880
Si Si2 0.524783 0.660250 0.711794
Si Si3 0.032458 0.859138 0.506476
Si Si4 0.055031 0.137960 0.740913
Si Si5 0.583162 0.442283 0.720878
Si Si6 0.647084 0.835436 0.174450
Si Si7 0.235015 0.920767 0.757699
Si Si8 0.922217 0.705805 0.834939
O O1 0.790448 0.105279 0.631231
O O2 0.497535 0.104430 0.790957
O O3 0.370796 0.896766 0.827254
O O4 0.462133 0.753552 0.059108
O O5 0.472069 0.535705 0.726783
O O6 0.584710 0.886587 0.495447
O O7 0.766137 0.715444 0.652689
O O8 0.320261 0.511304 0.937046
O O9 0.052337 0.755665 0.675188
O O10 0.101335 0.097449 0.315161
O O11 0.160140 0.363164 0.497263
O O12 0.203536 0.173005 0.771720
O O13 0.094403 0.998706 0.775080
O O14 0.808380 0.017505 0.925320
O O15 0.482873 0.365837 0.702480
O O16 0.067581 0.735477 0.870579
#
# Coordination Sequence:
#
# PCOD9092085 Si02
#       8
#     2   2   2   2   2   2   2   2
#     4  11  23  41  54  92 128 154 185 260 300 335
#     4  10  20  39  63  87 111 159 205 241 283 363
#     4  10  22  38  62  89 122 148 200 251 297 347
#     4   9  20  38  62  87 113 160 200 239 280 358
#     4  11  21  36  61  83 118 156 199 234 292 351
#     4  10  21  39  59  84 123 154 197 241 295 344
#     4   9  21  39  61  87 124 151 198 245 295 350
#     4  10  19  40  66  86 110 164 201 238 294 363
#
# _framework density 23.333044000000001
#
# number of rings (size 3 to 8) (size 9 to 14) (size 15 to 20)
#    0.000    2.000    1.250    1.875    3.500    1.000 
#    4.500    0.625    0.000    0.000    0.000    0.000 
#    0.000    0.000    0.000    0.000    0.000    0.000 
#
# Total GULP energy -89461.965544 kJ/mol
# GULP energy per Si atom -5591.372846 kJ/mol
# Density = 2.327994 g / cm^3
# Si number density = 23.333044 Si / 1000 Ang^3
#
#
#
# Elastic Constant Matrix: (Units=GPa)
#
#
# Indices 1 2 3 4 5 6 
#
# 1 73.6005 28.7478 30.3306 7.4760 -12.8644 19.0418
# 2 28.7478 56.9955 46.2871 12.3549 -4.4401 10.4946
# 3 30.3306 46.2871 129.5847 29.8738 -21.2640 -0.7150
# 4 7.4760 12.3549 29.8738 25.7573 2.4481 -1.6582
# 5 -12.8644 -4.4401 -21.2640 2.4481 23.3599 8.2160
# 6 19.0418 10.4946 -0.7150 -1.6582 8.2160 34.7810
#
#
#
# Elastic Compliance Matrix: (Units=1/GPa)
#
#
# Indices 1 2 3 4 5 6 
#
# 1 0.024437 -0.007704 0.002591 -0.009470 0.021128 -0.016443
# 2 -0.007704 0.029536 -0.009727 -0.000277 -0.006247 -0.003432
# 3 0.002591 -0.009727 0.018197 -0.019272 0.019435 -0.003619
# 4 -0.009470 -0.000277 -0.019272 0.068532 -0.035832 0.016603
# 5 0.021128 -0.006247 0.019435 -0.035832 0.085688 -0.031232
# 6 -0.016443 -0.003432 -0.003619 0.016603 -0.031232 0.046884
#
#
# Mechanical properties :
#
#
# Convention : Reuss Voigt Hill
#
# Bulk Modulus (GPa) = 23.53457 52.32351 37.92904
# Shear Modulus (GPa) = 15.76713 27.10066 21.43390
#
# Velocity S-wave (km/s) = 2.60233 3.41173 3.03414
# Velocity P-wave (km/s) = 4.37467 6.16386 5.34467
#
# Compressibility (1/GPa) = 0.04249069
#
# Stress axis : x y z
#
# Youngs Moduli (GPa) = 40.92165 33.85731 54.95437
#
# Poissons Ratio (x) = 0.26083 -0.14241
# Poissons Ratio (y) = 0.31525 0.53454
# Poissons Ratio (z) = -0.10604 0.32933
#
# Static dielectric constant tensor:
#      x y z
#    x 1.901650 0.032510 0.004130 
#    y 0.032510 1.927170 0.001290 
#    z 0.004130 0.001290 1.865440 
# 
# From -- ./inp_files/299638.got.cif
#   From: 2010.05.17/outbox.cif.g08.bks.cpg/sg2_150_cif.got.tgz:299638.got - 2010.06.03 11:33:40.
