data_PCOD9092415
_publ_section_title
;
Structure prediction by ZEFSAII (Michael W. Deem and Ramdas Pophale) SiO2 
 PCOD9092415
Probable space group: P -1
;
_chemical_formula_sum "Si O2"
_cell_formula_units_Z 12
_cell_length_a 10.241957
_cell_length_b 9.054713
_cell_length_c 14.753495
_cell_angle_alpha 36.809736
_cell_angle_beta 125.666862
_cell_angle_gamma 137.160215
_cell_volume 557.380273
_symmetry_space_group_name_H-M "P -1"
_symmetry_group_IT_number 2
_symmetry_cell_setting 'triclinic'
loop_
_space_group_symop_operation_xyz
x,y,z
-x,-y,-z
loop_
_atom_site_type_symbol
_atom_site_label
_atom_site_fract_x
_atom_site_fract_y
_atom_site_fract_z
Si Si1 0.276714 0.383716 0.440312
Si Si2 0.426118 0.191330 0.455379
Si Si3 0.786417 0.881994 0.761369
Si Si4 0.182519 0.166654 0.698798
Si Si5 0.644486 0.214528 0.031206
Si Si6 0.411093 0.003948 0.224878
O O1 0.500000 0.500000 0.500000
O O2 0.269619 0.244825 0.410802
O O3 0.269033 0.669753 0.296340
O O4 0.151139 0.188252 0.568612
O O5 0.330685 0.045175 0.393319
O O6 0.537003 0.983321 0.366798
O O7 0.622384 0.512626 0.359814
O O8 0.710615 0.888881 0.826990
O O9 0.010529 0.107034 0.722399
O O10 0.736288 0.555640 0.880737
O O11 0.215384 0.901970 0.848779
O O12 0.538058 0.163524 0.109982
O O13 0.500000 0.000000 0.000000
#
# Coordination Sequence:
#
# PCOD9092415 Si02
#       6
#     2   2   2   2   2   2
#     4   8  15  35  63  75 117 151 189 229 282 335
#     4  10  19  41  64  83 120 158 189 237 293 351
#     4  12  24  33  64  93 117 149 194 245 297 335
#     4  10  20  39  61  87 116 150 205 237 278 351
#     4  12  21  42  64  78 119 167 193 230 296 353
#     4  10  20  39  60  89 119 152 192 245 291 341
#
# _framework density 21.529285999999999
#
# number of rings (size 3 to 8) (size 9 to 14) (size 15 to 20)
#    0.000    2.000    6.667    1.500    0.000    3.333 
#    0.000    0.833    3.667    0.000    0.000    0.000 
#    0.000    0.000    0.000    0.000    0.000    0.000 
#
# Total GULP energy -66888.956102 kJ/mol
# GULP energy per Si atom -5574.079675 kJ/mol
# Density = 2.148028 g / cm^3
# Si number density = 21.529286 Si / 1000 Ang^3
#
#
#
# Elastic Constant Matrix: (Units=GPa)
#
#
# Indices 1 2 3 4 5 6 
#
# 1 116.8973 39.1761 9.8915 2.4287 -19.0481 0.2445
# 2 39.1761 41.6495 4.0480 -5.6485 -15.8573 6.9881
# 3 9.8915 4.0480 67.3861 2.6042 -0.7915 14.8892
# 4 2.4287 -5.6485 2.6042 18.3274 -16.1837 -9.4645
# 5 -19.0481 -15.8573 -0.7915 -16.1837 15.0839 -3.3069
# 6 0.2445 6.9881 14.8892 -9.4645 -3.3069 33.7910
#
#
#
# Elastic Compliance Matrix: (Units=1/GPa)
#
#
# Indices 1 2 3 4 5 6 
#
# 1 0.013149 -0.012253 -0.001694 -0.002208 0.001869 0.002750
# 2 -0.012253 0.020099 0.005888 -0.034561 -0.035459 -0.019813
# 3 -0.001694 0.005888 0.015781 0.006476 0.010665 -0.005301
# 4 -0.002208 -0.034561 0.006476 -0.041490 -0.086762 -0.015802
# 5 0.001869 -0.035459 0.010665 -0.086762 -0.067348 -0.028272
# 6 0.002750 -0.019813 -0.005301 -0.015802 -0.028272 0.028814
#
#
# Mechanical properties :
#
#
# Convention : Reuss Voigt Hill
#
# Bulk Modulus (GPa) = 30.38455 36.90712 33.64583
# Shear Modulus (GPa) = -1279.86930 24.96160 -627.45385
#
# Velocity S-wave (km/s) = -24.40838 3.40873 -17.09019
# Velocity P-wave (km/s) = 27.93232 5.71599 19.33316
#
# Compressibility (1/GPa) = 0.03291146
#
# Stress axis : x y z
#
# Youngs Moduli (GPa) = 76.05311 49.75314 63.36657
#
# Poissons Ratio (x) = 0.60960 0.10736
# Poissons Ratio (y) = 0.93184 -0.37310
# Poissons Ratio (z) = 0.12886 -0.29295
#
# Static dielectric constant tensor:
#      x y z
#    x 1.838740 -0.016530 0.029820 
#    y -0.016530 1.836140 0.025060 
#    z 0.029820 0.025060 1.825250 
# 
# From -- ./inp_files/491873.got.cif
#   From: 2010.05.17/outbox.cif.g08.bks.cpg/sg2_246_cif.got.tgz:491873.got - 2010.06.03 11:33:40.
