data_PCOD9092028
_publ_section_title
;
Structure prediction by ZEFSAII (Michael W. Deem and Ramdas Pophale) SiO2 
 PCOD9092028
Probable space group: P -1
;
_chemical_formula_sum "Si O2"
_cell_formula_units_Z 14
_cell_length_a 21.345517
_cell_length_b 12.814107
_cell_length_c 18.738371
_cell_angle_alpha 153.076777
_cell_angle_beta 162.419076
_cell_angle_gamma 23.977733
_cell_volume 620.221371
_symmetry_space_group_name_H-M "P -1"
_symmetry_group_IT_number 2
_symmetry_cell_setting 'triclinic'
loop_
_space_group_symop_operation_xyz
x,y,z
-x,-y,-z
loop_
_atom_site_type_symbol
_atom_site_label
_atom_site_fract_x
_atom_site_fract_y
_atom_site_fract_z
Si Si1 0.732016 0.062096 0.245110
Si Si2 0.828624 0.454104 0.231175
Si Si3 0.049906 0.912034 0.081924
Si Si4 0.361917 0.943536 0.023398
Si Si5 0.232977 0.398222 0.907597
Si Si6 0.115307 0.692666 0.233668
Si Si7 0.447391 0.696509 0.474816
O O1 0.504144 0.347294 0.175555
O O2 0.683323 0.986324 0.066643
O O3 0.266216 0.124490 0.803788
O O4 0.000000 0.000000 0.500000
O O5 0.556217 0.648823 0.068836
O O6 0.858527 0.536144 0.232403
O O7 0.000000 0.500000 0.500000
O O8 0.311838 0.846533 0.349551
O O9 0.067780 0.625511 0.921236
O O10 0.885819 0.152481 0.100501
O O11 0.000000 0.000000 0.000000
O O12 0.470854 0.117839 0.281757
O O13 0.103824 0.025730 0.823705
O O14 0.251672 0.669977 0.294587
O O15 0.324958 0.583727 0.452555
O O16 0.000000 0.500000 0.000000
#
# Coordination Sequence:
#
# PCOD9092028 Si02
#       7
#     2   2   2   2   2   2   2
#     4  10  22  39  63  93 126 156 202 266 321 374
#     4  10  19  40  65  88 123 173 213 251 301 371
#     4  10  21  38  66  90 122 174 212 247 305 377
#     4  10  21  37  63  91 124 159 212 254 316 366
#     4   9  22  39  65  92 123 164 208 248 324 372
#     4   9  21  35  57  95 122 152 202 258 318 362
#     4  10  20  37  63  90 128 162 200 260 315 371
#
# _framework density 22.572586000000001
#
# number of rings (size 3 to 8) (size 9 to 14) (size 15 to 20)
#    0.000    2.286    1.429    0.000    8.000    2.286 
#    0.000    0.714    6.286   12.000    0.000    0.000 
#    0.000    0.000    0.000    0.000    0.000    0.000 
#
# Total GULP energy -77977.946318 kJ/mol
# GULP energy per Si atom -5569.853308 kJ/mol
# Density = 2.252121 g / cm^3
# Si number density = 22.572586 Si / 1000 Ang^3
#
#
#
# Elastic Constant Matrix: (Units=GPa)
#
#
# Indices 1 2 3 4 5 6 
#
# 1 62.7226 30.6975 63.0583 -15.9150 -10.2760 -9.4397
# 2 30.6975 119.4189 48.5307 -34.5797 2.0767 -33.8192
# 3 63.0583 48.5307 141.4754 -39.8315 -22.0204 -9.8875
# 4 -15.9150 -34.5797 -39.8315 41.2557 -2.9160 2.9144
# 5 -10.2760 2.0767 -22.0204 -2.9160 53.4412 -12.1275
# 6 -9.4397 -33.8192 -9.8875 2.9144 -12.1275 36.1798
#
#
#
# Elastic Compliance Matrix: (Units=1/GPa)
#
#
# Indices 1 2 3 4 5 6 
#
# 1 0.030142 -0.002821 -0.013208 -0.003588 0.000758 0.002161
# 2 -0.002821 0.016763 0.000657 0.012753 0.003214 0.015163
# 3 -0.013208 0.000657 0.017351 0.012421 0.005918 0.002893
# 4 -0.003588 0.012753 0.012421 0.045228 0.009564 0.013942
# 5 0.000758 0.003214 0.005918 0.009564 0.024474 0.012253
# 6 0.002161 0.015163 0.002893 0.013942 0.012253 0.046152
#
#
# Mechanical properties :
#
#
# Convention : Reuss Voigt Hill
#
# Bulk Modulus (GPa) = 29.84006 67.57665 48.70836
# Shear Modulus (GPa) = 22.52027 38.26404 30.39215
#
# Velocity S-wave (km/s) = 3.16204 4.12169 3.67334
# Velocity P-wave (km/s) = 5.15554 7.25628 6.29417
#
# Compressibility (1/GPa) = 0.03351199
#
# Stress axis : x y z
#
# Youngs Moduli (GPa) = 33.17666 59.65607 57.63486
#
# Poissons Ratio (x) = 0.16826 0.76127
# Poissons Ratio (y) = 0.09358 -0.03789
# Poissons Ratio (z) = 0.43821 -0.03922
#
# Static dielectric constant tensor:
#      x y z
#    x 1.940470 -0.050840 0.015780 
#    y -0.050840 1.977860 -0.023500 
#    z 0.015780 -0.023500 1.899570 
# 
# From -- ./inp_files/577996.got.cif
#   From: 2010.05.17/outbox.cif.g08.bks.cpg/sg2_289_cif.got.tgz:577996.got - 2010.06.03 11:33:40.
