data_PCOD9092428
_publ_section_title
;
Structure prediction by ZEFSAII (Michael W. Deem and Ramdas Pophale) SiO2 
 PCOD9092428
Probable space group: P -1
;
_chemical_formula_sum "Si O2"
_cell_formula_units_Z 16
_cell_length_a 11.011961
_cell_length_b 21.401682
_cell_length_c 7.994700
_cell_angle_alpha 138.970691
_cell_angle_beta 41.001921
_cell_angle_gamma 138.705681
_cell_volume 735.443523
_symmetry_space_group_name_H-M "P -1"
_symmetry_group_IT_number 2
_symmetry_cell_setting 'triclinic'
loop_
_space_group_symop_operation_xyz
x,y,z
-x,-y,-z
loop_
_atom_site_type_symbol
_atom_site_label
_atom_site_fract_x
_atom_site_fract_y
_atom_site_fract_z
Si Si1 0.090181 0.751615 0.734475
Si Si2 0.077809 0.143332 0.380505
Si Si3 0.608125 0.781371 0.492230
Si Si4 0.031729 0.067094 0.773332
Si Si5 0.050438 0.438193 0.970748
Si Si6 0.790806 0.233308 0.990815
Si Si7 0.646132 0.366748 0.798079
Si Si8 0.742729 0.676255 0.683674
O O1 0.079240 0.729943 0.899208
O O2 0.270188 0.721342 0.426432
O O3 0.889148 0.683201 0.701312
O O4 0.109489 0.870114 0.940165
O O5 0.235928 0.203450 0.488634
O O6 0.179510 0.206241 0.235123
O O7 0.022326 0.021038 0.208255
O O8 0.872742 0.159331 0.659969
O O9 0.739386 0.845707 0.325995
O O10 0.442837 0.819156 0.814318
O O11 0.470684 0.667392 0.326581
O O12 0.000000 0.000000 0.500000
O O13 0.204050 0.390311 0.645741
O O14 0.161678 0.521540 0.168573
O O15 0.000000 0.500000 0.000000
O O16 0.848601 0.338184 0.035142
O O17 0.486655 0.366355 0.102203
#
# Coordination Sequence:
#
# PCOD9092428 Si02
#       8
#     2   2   2   2   2   2   2   2
#     4  11  21  41  64  90 131 157 207 266 301 366
#     4  10  22  40  63  93 129 163 209 253 311 367
#     4  10  21  38  65  90 123 162 211 254 301 372
#     4  10  19  41  64  93 126 165 205 256 309 366
#     4  11  24  43  64  92 127 166 205 260 312 372
#     4  10  22  40  64  90 123 167 204 255 314 360
#     4  11  23  42  63  90 126 168 206 258 311 365
#     4  11  23  42  65  89 130 167 204 257 315 367
#
# _framework density 21.755579999999998
#
# number of rings (size 3 to 8) (size 9 to 14) (size 15 to 20)
#    0.000    1.500    5.000    0.375    1.750    3.000 
#    2.250    3.750    0.000    0.000    0.000    0.000 
#    0.000    0.000    0.000    0.000    0.000    0.000 
#
# Total GULP energy -89270.268579 kJ/mol
# GULP energy per Si atom -5579.391786 kJ/mol
# Density = 2.170606 g / cm^3
# Si number density = 21.755580 Si / 1000 Ang^3
#
#
#
# Elastic Constant Matrix: (Units=GPa)
#
#
# Indices 1 2 3 4 5 6 
#
# 1 59.4631 21.0615 5.5159 -0.6813 -8.2563 -5.5825
# 2 21.0615 46.9696 17.9256 6.1014 -16.2512 -20.3787
# 3 5.5159 17.9256 92.0047 -3.8598 -18.3491 2.5918
# 4 -0.6813 6.1014 -3.8598 36.2643 6.0924 -0.1370
# 5 -8.2563 -16.2512 -18.3491 6.0924 27.5930 3.2332
# 6 -5.5825 -20.3787 2.5918 -0.1370 3.2332 35.7970
#
#
#
# Elastic Compliance Matrix: (Units=1/GPa)
#
#
# Indices 1 2 3 4 5 6 
#
# 1 0.020458 -0.011378 0.001203 0.002400 0.000086 -0.003373
# 2 -0.011378 0.047702 -0.005640 -0.012252 0.020849 0.023860
# 3 0.001203 -0.005640 0.013300 0.001342 0.006117 -0.004533
# 4 0.002400 -0.012252 0.001342 0.031818 -0.011987 -0.005494
# 5 0.000086 0.020849 0.006117 -0.011987 0.054503 0.006471
# 6 -0.003373 0.023860 -0.004533 -0.005494 0.006471 0.040715
#
#
# Mechanical properties :
#
#
# Convention : Reuss Voigt Hill
#
# Bulk Modulus (GPa) = 20.06808 31.93816 26.00312
# Shear Modulus (GPa) = 19.47526 30.19316 24.83421
#
# Velocity S-wave (km/s) = 2.99521 3.72941 3.38229
# Velocity P-wave (km/s) = 4.60500 5.76688 5.21838
#
# Compressibility (1/GPa) = 0.04983038
#
# Stress axis : x y z
#
# Youngs Moduli (GPa) = 48.87980 20.96338 75.18920
#
# Poissons Ratio (x) = 0.23852 -0.09046
# Poissons Ratio (y) = 0.55616 0.42406
# Poissons Ratio (z) = -0.05880 0.11823
#
# Static dielectric constant tensor:
#      x y z
#    x 1.818490 0.006950 0.029160 
#    y 0.006950 1.814400 0.021320 
#    z 0.029160 0.021320 1.835440 
# 
# From -- ./inp_files/283320.got.cif
#   From: 2010.05.17/outbox.cif.g08.bks.cpg/sg2_142_cif.got.tgz:283320.got - 2010.06.03 11:33:40.
