data_PCOD9092135
_publ_section_title
;
Structure prediction by ZEFSAII (Michael W. Deem and Ramdas Pophale) SiO2 
 PCOD9092135
Probable space group: P -1
;
_chemical_formula_sum "Si O2"
_cell_formula_units_Z 15
_cell_length_a 11.991356
_cell_length_b 11.718636
_cell_length_c 5.895508
_cell_angle_alpha 88.470098
_cell_angle_beta 50.812668
_cell_angle_gamma 79.294687
_cell_volume 626.455531
_symmetry_space_group_name_H-M "P -1"
_symmetry_group_IT_number 2
_symmetry_cell_setting 'triclinic'
loop_
_space_group_symop_operation_xyz
x,y,z
-x,-y,-z
loop_
_atom_site_type_symbol
_atom_site_label
_atom_site_fract_x
_atom_site_fract_y
_atom_site_fract_z
Si Si1 0.419771 0.232067 0.259608
Si Si2 0.000000 0.000000 0.500000
Si Si3 0.344602 0.031696 0.564476
Si Si4 0.108291 0.211843 0.155697
Si Si5 0.750356 0.596766 0.161524
Si Si6 0.515724 0.399095 0.798355
Si Si7 0.736013 0.159589 0.084749
Si Si8 0.159295 0.653179 0.812574
O O1 0.370548 0.108232 0.309993
O O2 0.300990 0.327759 0.548079
O O3 0.570047 0.206678 0.214864
O O4 0.468500 0.285826 0.968522
O O5 0.945481 0.873059 0.593678
O O6 0.163801 0.929458 0.209442
O O7 0.500000 0.000000 0.500000
O O8 0.276172 0.916587 0.664534
O O9 0.229496 0.125476 0.852761
O O10 0.970143 0.271878 0.174002
O O11 0.181529 0.322242 0.104450
O O12 0.603016 0.565658 0.249653
O O13 0.858824 0.473745 0.080531
O O14 0.685224 0.368740 0.516052
O O15 0.500000 0.500000 0.000000
O O16 0.812531 0.266281 0.021714
#
# Coordination Sequence:
#
# PCOD9092135 Si02
#       8
#     2   1   2   2   2   2   2   2
#     4  10  19  40  66  95 130 171 221 272 325 393
#     4  10  22  44  62  94 132 170 224 278 326 394
#     4   8  18  37  65  88 127 173 215 273 326 381
#     4  10  23  42  66  94 135 175 219 276 338 387
#     4  11  23  44  65  98 139 174 218 277 329 394
#     4  12  23  39  67 100 130 176 224 263 329 397
#     4  10  20  39  66  92 132 176 217 274 330 386
#     4  12  23  41  66  99 134 178 219 270 336 396
#
# _framework density 23.944236
#
# number of rings (size 3 to 8) (size 9 to 14) (size 15 to 20)
#    0.000    1.600    2.667    2.400    0.000    2.133 
#    7.200    2.000    0.000    0.000    0.000    0.000 
#    0.000    0.000    0.000    0.000    0.000    0.000 
#
# Total GULP energy -83511.150396 kJ/mol
# GULP energy per Si atom -5567.410026 kJ/mol
# Density = 2.388974 g / cm^3
# Si number density = 23.944236 Si / 1000 Ang^3
#
#
#
# Elastic Constant Matrix: (Units=GPa)
#
#
# Indices 1 2 3 4 5 6 
#
# 1 77.5824 29.3380 5.7180 7.3138 -26.2125 0.3513
# 2 29.3380 160.2099 38.1414 -16.2143 -19.6314 -5.6141
# 3 5.7180 38.1414 52.4456 0.4138 -17.9073 -2.3805
# 4 7.3138 -16.2143 0.4138 61.9720 2.1846 -15.9890
# 5 -26.2125 -19.6314 -17.9073 2.1846 22.9035 -2.5101
# 6 0.3513 -5.6141 -2.3805 -15.9890 -2.5101 22.1349
#
#
#
# Elastic Compliance Matrix: (Units=1/GPa)
#
#
# Indices 1 2 3 4 5 6 
#
# 1 0.026736 -0.003868 0.012908 -0.005513 0.037934 0.000303
# 2 -0.003868 0.008813 -0.006449 0.003970 -0.001827 0.004263
# 3 0.012908 -0.006449 0.035398 -0.003891 0.037668 0.003428
# 4 -0.005513 0.003970 -0.003891 0.022201 -0.006313 0.015997
# 5 0.037934 -0.001827 0.037668 -0.006313 0.116843 0.011675
# 6 0.000303 0.004263 0.003428 0.015997 0.011675 0.059502
#
#
# Mechanical properties :
#
#
# Convention : Reuss Voigt Hill
#
# Bulk Modulus (GPa) = 13.13573 48.51474 30.82523
# Shear Modulus (GPa) = 17.26001 35.87146 26.56574
#
# Velocity S-wave (km/s) = 2.68776 3.87476 3.33450
# Velocity P-wave (km/s) = 3.88973 6.35011 5.26564
#
# Compressibility (1/GPa) = 0.07612826
#
# Stress axis : x y z
#
# Youngs Moduli (GPa) = 37.40288 113.47212 28.25034
#
# Poissons Ratio (x) = 0.43890 -0.36465
# Poissons Ratio (y) = 0.14467 0.18218
# Poissons Ratio (z) = -0.48279 0.73177
#
# Static dielectric constant tensor:
#      x y z
#    x 1.906490 0.032670 0.072820 
#    y 0.032670 1.936720 -0.057110 
#    z 0.072820 -0.057110 1.916820 
# 
# From -- ./inp_files/70237.got.cif
#   From: 2010.05.17/outbox.cif.g08.bks.cpg/sg2_36_cif.got.tgz:70237.got - 2010.06.03 11:33:40.
