data_PCOD9092819
_publ_section_title
;
Structure prediction by ZEFSAII (Michael W. Deem and Ramdas Pophale) SiO2 
 PCOD9092819
Probable space group: P -1
;
_chemical_formula_sum "Si O2"
_cell_formula_units_Z 16
_cell_length_a 12.501814
_cell_length_b 13.996812
_cell_length_c 9.896649
_cell_angle_alpha 35.996677
_cell_angle_beta 73.388841
_cell_angle_gamma 54.204675
_cell_volume 759.159524
_symmetry_space_group_name_H-M "P -1"
_symmetry_group_IT_number 2
_symmetry_cell_setting 'triclinic'
loop_
_space_group_symop_operation_xyz
x,y,z
-x,-y,-z
loop_
_atom_site_type_symbol
_atom_site_label
_atom_site_fract_x
_atom_site_fract_y
_atom_site_fract_z
Si Si1 0.351435 0.340267 0.305002
Si Si2 0.658020 0.269813 0.088080
Si Si3 0.329750 0.929825 0.413875
Si Si4 0.142195 0.468691 0.449134
Si Si5 0.633703 0.808857 0.079945
Si Si6 0.077131 0.902152 0.947309
Si Si7 0.627667 0.618340 0.035363
Si Si8 0.883329 0.151423 0.484424
O O1 0.497836 0.210654 0.486036
O O2 0.236320 0.340364 0.428610
O O3 0.318419 0.567177 0.050657
O O4 0.373641 0.261666 0.232889
O O5 0.692485 0.107282 0.378832
O O6 0.768925 0.155248 0.057793
O O7 0.497835 0.392525 0.951066
O O8 0.240484 0.871712 0.438341
O O9 0.289838 0.126545 0.118612
O O10 0.095962 0.692501 0.172571
O O11 0.000000 0.500000 0.500000
O O12 0.250834 0.364047 0.656657
O O13 0.589812 0.720467 0.080083
O O14 0.500000 0.000000 0.000000
O O15 0.000000 0.000000 0.000000
O O16 0.977849 0.063377 0.683133
O O17 0.788688 0.400277 0.224717
O O18 0.000000 0.000000 0.500000
#
# Coordination Sequence:
#
# PCOD9092819 Si02
#       8
#     2   2   2   2   2   2   2   2
#     4  10  19  42  71  98 130 169 229 278 341 393
#     4  10  20  41  71 100 131 173 226 288 343 385
#     4  11  20  41  69  95 131 172 223 280 326 403
#     4  11  24  47  64  90 139 182 213 278 344 399
#     4  12  27  45  63 102 140 180 231 271 335 412
#     4  11  24  42  63  99 134 170 224 279 338 401
#     4  11  23  41  71 102 134 176 227 284 334 405
#     4  12  21  41  73 102 127 172 230 283 335 397
#
# _framework density 21.075939000000002
#
# number of rings (size 3 to 8) (size 9 to 14) (size 15 to 20)
#    0.000    1.000    5.000    3.000    0.000    4.000 
#    2.250    3.750    0.000    0.000    0.000    0.000 
#    0.000    0.000    0.000    0.000    0.000    0.000 
#
# Total GULP energy -89105.404363 kJ/mol
# GULP energy per Si atom -5569.087773 kJ/mol
# Density = 2.102797 g / cm^3
# Si number density = 21.075939 Si / 1000 Ang^3
#
#
#
# Elastic Constant Matrix: (Units=GPa)
#
#
# Indices 1 2 3 4 5 6 
#
# 1 64.3394 36.5908 14.4737 11.7699 7.2521 -24.7158
# 2 36.5908 132.5789 20.2590 27.6611 18.2254 -21.4332
# 3 14.4737 20.2590 67.7622 12.5965 13.9505 -6.5511
# 4 11.7699 27.6611 12.5965 35.8458 -2.9000 -0.5910
# 5 7.2521 18.2254 13.9505 -2.9000 34.8281 6.2211
# 6 -24.7158 -21.4332 -6.5511 -0.5910 6.2211 39.3014
#
#
#
# Elastic Compliance Matrix: (Units=1/GPa)
#
#
# Indices 1 2 3 4 5 6 
#
# 1 0.024744 -0.001774 -0.000429 -0.006948 -0.007416 0.015591
# 2 -0.001774 0.012185 0.000941 -0.009719 -0.008421 0.006873
# 3 -0.000429 0.000941 0.018348 -0.007702 -0.009223 0.004646
# 4 -0.006948 -0.009719 -0.007702 0.041416 0.015345 -0.012760
# 5 -0.007416 -0.008421 -0.009223 0.015345 0.042730 -0.017326
# 6 0.015591 0.006873 0.004646 -0.012760 -0.017326 0.042323
#
#
# Mechanical properties :
#
#
# Convention : Reuss Voigt Hill
#
# Bulk Modulus (GPa) = 18.95684 45.25862 32.10773
# Shear Modulus (GPa) = 24.77028 34.88555 29.82791
#
# Velocity S-wave (km/s) = 3.43197 4.07287 3.76607
# Velocity P-wave (km/s) = 4.97178 6.60593 5.84624
#
# Compressibility (1/GPa) = 0.05275141
#
# Stress axis : x y z
#
# Youngs Moduli (GPa) = 40.41332 82.06837 54.50292
#
# Poissons Ratio (x) = 0.14560 0.02340
# Poissons Ratio (y) = 0.07170 -0.05127
# Poissons Ratio (z) = 0.01735 -0.07720
#
# Static dielectric constant tensor:
#      x y z
#    x 1.760800 0.107280 -0.054780 
#    y 0.107280 2.306820 -0.209640 
#    z -0.054780 -0.209640 1.853350 
# 
# From -- ./inp_files/271510.got.cif
#   From: 2010.05.17/outbox.cif.g08.bks.cpg/sg2_136_cif.got.tgz:271510.got - 2010.06.03 11:33:40.
