data_PCOD9092592
_publ_section_title
;
Structure prediction by ZEFSAII (Michael W. Deem and Ramdas Pophale) SiO2 
 PCOD9092592
Probable space group: P -1
;
_chemical_formula_sum "Si O2"
_cell_formula_units_Z 16
_cell_length_a 7.787079
_cell_length_b 8.230363
_cell_length_c 21.173208
_cell_angle_alpha 124.015047
_cell_angle_beta 36.507974
_cell_angle_gamma 113.800673
_cell_volume 666.257478
_symmetry_space_group_name_H-M "P -1"
_symmetry_group_IT_number 2
_symmetry_cell_setting 'triclinic'
loop_
_space_group_symop_operation_xyz
x,y,z
-x,-y,-z
loop_
_atom_site_type_symbol
_atom_site_label
_atom_site_fract_x
_atom_site_fract_y
_atom_site_fract_z
Si Si1 0.809495 0.395156 0.716248
Si Si2 0.653692 0.488557 0.021333
Si Si3 0.551838 0.593950 0.437582
Si Si4 0.695935 0.337316 0.596202
Si Si5 0.718158 0.932581 0.647549
Si Si6 0.641538 0.031382 0.358975
Si Si7 0.729471 0.059470 0.892063
Si Si8 0.706327 0.924614 0.093012
O O1 0.567386 0.511506 0.855233
O O2 0.768171 0.438793 0.663379
O O3 0.790090 0.160575 0.676188
O O4 0.104819 0.429755 0.671243
O O5 0.786170 0.694597 0.036143
O O6 0.500000 0.500000 0.000000
O O7 0.826911 0.276363 0.925902
O O8 0.500000 0.500000 0.500000
O O9 0.408758 0.522639 0.400593
O O10 0.423119 0.821714 0.531958
O O11 0.440675 0.190474 0.651228
O O12 0.987116 0.204181 0.460943
O O13 0.449804 0.943157 0.777181
O O14 0.595289 0.893275 0.606634
O O15 0.960898 0.055384 0.241732
O O16 0.536779 0.069159 0.888056
O O17 0.500000 0.000000 0.000000
O O18 0.000000 0.000000 0.000000
#
# Coordination Sequence:
#
# PCOD9092592 Si02
#       8
#     2   2   2   2   2   2   2   2
#     4  10  21  43  67  98 136 172 230 284 341 418
#     4   9  22  42  70  93 139 186 232 284 346 414
#     4  12  26  39  66 101 138 173 222 290 358 408
#     4  11  22  42  71  99 127 183 228 280 352 422
#     4  10  19  41  69  96 130 171 228 287 340 415
#     4  11  22  42  68  97 130 177 231 282 342 422
#     4  11  24  41  65  99 133 182 237 283 344 414
#     4  10  21  41  66  96 133 184 231 286 351 412
#
# _framework density 24.014738999999999
#
# number of rings (size 3 to 8) (size 9 to 14) (size 15 to 20)
#    0.000    1.500    2.500    2.625    7.000    0.500 
#    0.000   10.000    0.000    0.000    0.000    0.000 
#    0.000    0.000    0.000    0.000    0.000    0.000 
#
# Total GULP energy -89437.596723 kJ/mol
# GULP energy per Si atom -5589.849795 kJ/mol
# Density = 2.396008 g / cm^3
# Si number density = 24.014739 Si / 1000 Ang^3
#
#
#
# Elastic Constant Matrix: (Units=GPa)
#
#
# Indices 1 2 3 4 5 6 
#
# 1 127.3389 7.7007 31.4761 0.8303 2.7533 -17.5052
# 2 7.7007 50.7385 30.8678 -3.1596 -6.5038 -1.6077
# 3 31.4761 30.8678 104.0050 -18.8031 5.0652 7.8176
# 4 0.8303 -3.1596 -18.8031 30.7128 10.8173 6.0372
# 5 2.7533 -6.5038 5.0652 10.8173 41.9926 -7.0800
# 6 -17.5052 -1.6077 7.8176 6.0372 -7.0800 28.3148
#
#
#
# Elastic Compliance Matrix: (Units=1/GPa)
#
#
# Indices 1 2 3 4 5 6 
#
# 1 0.010867 0.002853 -0.006659 -0.007939 0.004524 0.011543
# 2 0.002853 0.027902 -0.012485 -0.010813 0.010398 0.011701
# 3 -0.006659 -0.012485 0.020722 0.019250 -0.011929 -0.017634
# 4 -0.007939 -0.010813 0.019250 0.057239 -0.023079 -0.028812
# 5 0.004524 0.010398 -0.011929 -0.023079 0.035985 0.020599
# 6 0.011543 0.011701 -0.017634 -0.028812 0.020599 0.059280
#
#
# Mechanical properties :
#
#
# Convention : Reuss Voigt Hill
#
# Bulk Modulus (GPa) = 37.16226 46.90796 42.03511
# Shear Modulus (GPa) = 19.72018 34.33992 27.03005
#
# Velocity S-wave (km/s) = 2.86871 3.78557 3.35858
# Velocity P-wave (km/s) = 5.14598 6.21955 5.70806
#
# Compressibility (1/GPa) = 0.02690902
#
# Stress axis : x y z
#
# Youngs Moduli (GPa) = 92.01954 35.83997 48.25728
#
# Poissons Ratio (x) = -0.10225 0.32134
# Poissons Ratio (y) = -0.26253 0.60250
# Poissons Ratio (z) = 0.61275 0.44747
#
# Static dielectric constant tensor:
#      x y z
#    x 1.926810 0.060340 -0.030730 
#    y 0.060340 2.078680 0.004010 
#    z -0.030730 0.004010 1.835670 
# 
# From -- ./inp_files/606428.got.cif
#   From: 2010.05.17/outbox.cif.g08.bks.cpg/sg2_304_cif.got.tgz:606428.got - 2010.06.03 11:33:40.
