data_PCOD9092267
_publ_section_title
;
Structure prediction by ZEFSAII (Michael W. Deem and Ramdas Pophale) SiO2 
 PCOD9092267
Probable space group: P -1
;
_chemical_formula_sum "Si O2"
_cell_formula_units_Z 14
_cell_length_a 11.592989
_cell_length_b 9.366076
_cell_length_c 12.271021
_cell_angle_alpha 134.447622
_cell_angle_beta 44.579013
_cell_angle_gamma 107.675129
_cell_volume 614.909010
_symmetry_space_group_name_H-M "P -1"
_symmetry_group_IT_number 2
_symmetry_cell_setting 'triclinic'
loop_
_space_group_symop_operation_xyz
x,y,z
-x,-y,-z
loop_
_atom_site_type_symbol
_atom_site_label
_atom_site_fract_x
_atom_site_fract_y
_atom_site_fract_z
Si Si1 0.480155 0.138580 0.980913
Si Si2 0.301445 0.835764 0.338495
Si Si3 0.830589 0.997598 0.261106
Si Si4 0.892686 0.523289 0.973358
Si Si5 0.986577 0.359952 0.597391
Si Si6 0.877295 0.826891 0.818123
Si Si7 0.502965 0.413919 0.739611
O O1 0.653914 0.081932 0.759531
O O2 0.331662 0.102056 0.986447
O O3 0.434749 0.386640 0.182420
O O4 0.500000 0.000000 0.000000
O O5 0.193525 0.008263 0.594152
O O6 0.194090 0.683230 0.311921
O O7 0.479601 0.691508 0.207853
O O8 0.654248 0.213485 0.465588
O O9 0.012089 0.035383 0.141870
O O10 0.840599 0.768050 0.092063
O O11 0.702038 0.505921 0.114893
O O12 0.009476 0.366882 0.715300
O O13 0.000000 0.500000 0.000000
O O14 0.968766 0.589580 0.682385
O O15 0.105874 0.194096 0.336938
#
# Coordination Sequence:
#
# PCOD9092267 Si02
#       7
#     2   2   2   2   2   2   2
#     4  12  22  33  65 102 128 153 208 289 326 350
#     4   9  19  40  69  91 113 176 226 261 306 378
#     4   9  23  40  67  91 124 171 216 252 316 391
#     4  12  25  38  63  95 136 171 207 259 322 390
#     4  10  19  40  69  90 122 166 221 264 310 379
#     4  10  20  39  65  99 120 158 222 277 310 364
#     4  10  20  42  66  88 124 170 222 252 307 392
#
# _framework density 22.767596000000001
#
# number of rings (size 3 to 8) (size 9 to 14) (size 15 to 20)
#    0.857    0.857    2.857    2.571    2.000    1.714 
#    0.000    2.857    0.000    2.571    0.000    0.000 
#    0.000    0.000    0.000    0.000    0.000    0.000 
#
# Total GULP energy -78051.790234 kJ/mol
# GULP energy per Si atom -5575.127874 kJ/mol
# Density = 2.271578 g / cm^3
# Si number density = 22.767596 Si / 1000 Ang^3
#
#
#
# Elastic Constant Matrix: (Units=GPa)
#
#
# Indices 1 2 3 4 5 6 
#
# 1 96.5939 24.0583 20.3119 -15.6179 3.0354 -1.5876
# 2 24.0583 90.2090 13.5958 -15.9480 -14.3519 10.7311
# 3 20.3119 13.5958 60.8119 6.9659 3.0432 8.5572
# 4 -15.6179 -15.9480 6.9659 23.4777 0.5867 -1.1493
# 5 3.0354 -14.3519 3.0432 0.5867 26.8625 -11.1273
# 6 -1.5876 10.7311 8.5572 -1.1493 -11.1273 34.7431
#
#
#
# Elastic Compliance Matrix: (Units=1/GPa)
#
#
# Indices 1 2 3 4 5 6 
#
# 1 0.013564 -0.001459 -0.005644 0.009851 -0.000846 0.002516
# 2 -0.001459 0.015452 -0.004509 0.010620 0.008417 -0.000682
# 3 -0.005644 -0.004509 0.022222 -0.013581 -0.006889 -0.006994
# 4 0.009851 0.010620 -0.013581 0.060450 0.006711 0.004664
# 5 -0.000846 0.008417 -0.006889 0.006711 0.048603 0.014847
# 6 0.002516 -0.000682 -0.006994 0.004664 0.014847 0.035740
#
#
# Mechanical properties :
#
#
# Convention : Reuss Voigt Hill
#
# Bulk Modulus (GPa) = 35.69774 40.39409 38.04591
# Shear Modulus (GPa) = 21.87295 29.65991 25.76643
#
# Velocity S-wave (km/s) = 3.10289 3.61324 3.36775
# Velocity P-wave (km/s) = 5.34326 5.93193 5.64527
#
# Compressibility (1/GPa) = 0.02801298
#
# Stress axis : x y z
#
# Youngs Moduli (GPa) = 73.72719 64.71803 45.00015
#
# Poissons Ratio (x) = 0.09442 0.25399
# Poissons Ratio (y) = 0.10757 0.20290
# Poissons Ratio (z) = 0.41613 0.29181
#
# Static dielectric constant tensor:
#      x y z
#    x 1.844550 -0.021280 -0.013970 
#    y -0.021280 1.818380 0.019690 
#    z -0.013970 0.019690 1.946310 
# 
# From -- ./inp_files/419892.got.cif
#   From: 2010.05.17/outbox.cif.g08.bks.cpg/sg2_210_cif.got.tgz:419892.got - 2010.06.03 11:33:40.
