data_PCOD9092326
_publ_section_title
;
Structure prediction by ZEFSAII (Michael W. Deem and Ramdas Pophale) SiO2 
 PCOD9092326
Probable space group: P -1
;
_chemical_formula_sum "Si O2"
_cell_formula_units_Z 16
_cell_length_a 16.080658
_cell_length_b 25.342000
_cell_length_c 9.739668
_cell_angle_alpha 152.643650
_cell_angle_beta 47.275382
_cell_angle_gamma 151.326382
_cell_volume 778.383862
_symmetry_space_group_name_H-M "P -1"
_symmetry_group_IT_number 2
_symmetry_cell_setting 'triclinic'
loop_
_space_group_symop_operation_xyz
x,y,z
-x,-y,-z
loop_
_atom_site_type_symbol
_atom_site_label
_atom_site_fract_x
_atom_site_fract_y
_atom_site_fract_z
Si Si1 0.444487 0.730130 0.261550
Si Si2 0.440535 0.795423 0.718027
Si Si3 0.056461 0.497957 0.079278
Si Si4 0.405653 0.398058 0.223104
Si Si5 0.452016 0.352136 0.612638
Si Si6 0.893752 0.233578 0.178112
Si Si7 0.990217 0.070138 0.809646
Si Si8 0.799281 0.187427 0.872743
O O1 0.373748 0.722742 0.469067
O O2 0.263913 0.606517 0.080926
O O3 0.635983 0.954227 0.514472
O O4 0.503604 0.648559 0.031617
O O5 0.444503 0.677006 0.515289
O O6 0.315923 0.788966 0.916881
O O7 0.663191 0.021339 0.971735
O O8 0.058723 0.610888 0.437174
O O9 0.000000 0.500000 0.000000
O O10 0.916865 0.295060 0.848881
O O11 0.500000 0.500000 0.500000
O O12 0.474244 0.551779 0.396499
O O13 0.171778 0.197095 0.000599
O O14 0.500000 0.500000 0.000000
O O15 0.221699 0.134157 0.364237
O O16 0.923120 0.268088 0.060414
O O17 0.995354 0.205950 0.065271
O O18 0.000000 0.000000 0.500000
#
# Coordination Sequence:
#
# PCOD9092326 Si02
#       8
#     2   2   2   2   2   2   2   2
#     4  11  23  46  64  96 136 161 219 280 319 388
#     4  10  19  40  72  97 127 161 222 279 319 382
#     4  12  27  40  62  98 134 173 209 261 335 400
#     4  12  28  45  66  99 139 181 221 271 335 401
#     4  11  22  41  69 100 129 178 223 275 328 388
#     4  10  21  41  66  98 127 160 224 274 316 387
#     4  11  23  42  71  98 131 173 232 278 323 393
#     4  11  22  41  70  97 121 173 214 269 334 377
#
# _framework density 20.555409999999998
#
# number of rings (size 3 to 8) (size 9 to 14) (size 15 to 20)
#    0.000    1.000    5.000    2.625    3.500    3.000 
#    4.500    0.000    0.000    0.000    0.000    0.000 
#    0.000    0.000    0.000    0.000    0.000    0.000 
#
# Total GULP energy -89455.443960 kJ/mol
# GULP energy per Si atom -5590.965247 kJ/mol
# Density = 2.050863 g / cm^3
# Si number density = 20.555410 Si / 1000 Ang^3
#
#
#
# Elastic Constant Matrix: (Units=GPa)
#
#
# Indices 1 2 3 4 5 6 
#
# 1 131.6001 29.9578 29.6698 18.4751 11.8953 -7.0348
# 2 29.9578 52.6701 24.2141 18.2773 11.1556 -18.0089
# 3 29.6698 24.2141 36.5797 17.5378 -1.6033 -7.8105
# 4 18.4751 18.2773 17.5378 21.5126 1.2371 -6.3677
# 5 11.8953 11.1556 -1.6033 1.2371 43.7833 1.1312
# 6 -7.0348 -18.0089 -7.8105 -6.3677 1.1312 45.5789
#
#
#
# Elastic Compliance Matrix: (Units=1/GPa)
#
#
# Indices 1 2 3 4 5 6 
#
# 1 0.009837 -0.001764 -0.006042 -0.002017 -0.002376 -0.000437
# 2 -0.001764 0.037159 -0.014283 -0.014880 -0.009352 0.010115
# 3 -0.006042 -0.014283 0.055617 -0.028866 0.008166 -0.001281
# 4 -0.002017 -0.014880 -0.028866 0.084533 0.000877 0.000651
# 5 -0.002376 -0.009352 0.008166 0.000877 0.026225 -0.003191
# 6 -0.000437 0.010115 -0.001281 0.000651 -0.003191 0.025820
#
#
# Mechanical properties :
#
#
# Convention : Reuss Voigt Hill
#
# Bulk Modulus (GPa) = 17.11295 43.17036 30.14165
# Shear Modulus (GPa) = 16.51007 31.30883 23.90945
#
# Velocity S-wave (km/s) = 2.83715 3.90698 3.41423
# Velocity P-wave (km/s) = 4.36760 6.43430 5.49891
#
# Compressibility (1/GPa) = 0.05843526
#
# Stress axis : x y z
#
# Youngs Moduli (GPa) = 101.65731 26.91169 17.98025
#
# Poissons Ratio (x) = 0.04746 0.10863
# Poissons Ratio (y) = 0.17929 0.25681
# Poissons Ratio (z) = 0.61419 0.38438
#
# Static dielectric constant tensor:
#      x y z
#    x 1.658430 0.040410 0.057450 
#    y 0.040410 1.735780 0.021450 
#    z 0.057450 0.021450 1.751320 
# 
# From -- ./inp_files/320354.got.cif
#   From: 2010.05.17/outbox.cif.g08.bks.cpg/sg2_161_cif.got.tgz:320354.got - 2010.06.03 11:33:40.
