data_PCOD9092909
_publ_section_title
;
Structure prediction by ZEFSAII (Michael W. Deem and Ramdas Pophale) SiO2 
 PCOD9092909
Probable space group: P -1
;
_chemical_formula_sum "Si O2"
_cell_formula_units_Z 15
_cell_length_a 8.822030
_cell_length_b 12.281189
_cell_length_c 9.846428
_cell_angle_alpha 120.765676
_cell_angle_beta 115.527866
_cell_angle_gamma 48.783891
_cell_volume 682.234712
_symmetry_space_group_name_H-M "P -1"
_symmetry_group_IT_number 2
_symmetry_cell_setting 'triclinic'
loop_
_space_group_symop_operation_xyz
x,y,z
-x,-y,-z
loop_
_atom_site_type_symbol
_atom_site_label
_atom_site_fract_x
_atom_site_fract_y
_atom_site_fract_z
Si Si1 0.545888 0.324163 0.066967
Si Si2 0.977969 0.345739 0.523646
Si Si3 0.449909 0.443967 0.583673
Si Si4 0.000000 0.000000 0.000000
Si Si5 0.177723 0.855269 0.551937
Si Si6 0.888806 0.518874 0.115320
Si Si7 0.144023 0.225229 0.218032
Si Si8 0.524390 0.126730 0.153109
O O1 0.561996 0.452713 0.231076
O O2 0.465907 0.259659 0.109570
O O3 0.351787 0.409396 0.946363
O O4 0.769556 0.177439 0.017966
O O5 0.082310 0.372294 0.705488
O O6 0.096441 0.275219 0.386650
O O7 0.775641 0.507933 0.503077
O O8 0.907524 0.235937 0.472239
O O9 0.500000 0.500000 0.500000
O O10 0.634835 0.267038 0.549774
O O11 0.118743 0.085240 0.099123
O O12 0.260118 0.916816 0.736654
O O13 0.000000 0.000000 0.500000
O O14 0.002045 0.357508 0.137043
O O15 0.000000 0.500000 0.000000
O O16 0.368715 0.181073 0.249688
O O17 0.500000 0.000000 0.000000
#
# Coordination Sequence:
#
# PCOD9092909 Si02
#       8
#     2   2   2   1   2   2   2   2
#     4  12  24  48  74 111 146 200 257 309 375 453
#     4  11  24  49  73 108 153 196 246 312 389 447
#     4  10  19  43  75  97 145 194 241 295 373 458
#     4  12  26  50  72 108 158 208 242 312 388 446
#     4  11  25  43  72 111 147 194 253 307 373 457
#     4  12  26  45  79 119 146 191 263 319 367 454
#     4  12  26  47  77 105 154 200 251 312 389 447
#     4  12  24  43  76 105 148 202 247 305 388 450
#
# _framework density 21.986567000000001
#
# number of rings (size 3 to 8) (size 9 to 14) (size 15 to 20)
#    0.000    0.533    6.667    2.800    1.867    1.600 
#    0.000    4.000    0.000    0.000    0.000    0.000 
#    0.000    0.000    0.000    0.000    0.000    0.000 
#
# Total GULP energy -83554.053826 kJ/mol
# GULP energy per Si atom -5570.270255 kJ/mol
# Density = 2.193652 g / cm^3
# Si number density = 21.986567 Si / 1000 Ang^3
#
#
#
# Elastic Constant Matrix: (Units=GPa)
#
#
# Indices 1 2 3 4 5 6 
#
# 1 57.7603 20.6766 32.1329 3.2363 4.7015 1.9898
# 2 20.6766 119.7989 65.0728 4.0059 8.0409 -10.8684
# 3 32.1329 65.0728 154.4415 3.6478 22.0655 -2.6134
# 4 3.2363 4.0059 3.6478 34.4170 -5.1591 7.7142
# 5 4.7015 8.0409 22.0655 -5.1591 45.4796 3.4263
# 6 1.9898 -10.8684 -2.6134 7.7142 3.4263 44.5910
#
#
#
# Elastic Compliance Matrix: (Units=1/GPa)
#
#
# Indices 1 2 3 4 5 6 
#
# 1 0.019925 -0.001651 -0.003430 -0.001045 -0.000124 -0.001302
# 2 -0.001651 0.011284 -0.004318 -0.001344 -0.000094 0.002811
# 3 -0.003430 -0.004318 0.009541 -0.000740 -0.003600 0.000064
# 4 -0.001045 -0.001344 -0.000740 0.031473 0.004737 -0.006133
# 5 -0.000124 -0.000094 -0.003600 0.004737 0.024522 -0.002932
# 6 -0.001302 0.002811 0.000064 -0.006133 -0.002932 0.024459
#
#
# Mechanical properties :
#
#
# Convention : Reuss Voigt Hill
#
# Bulk Modulus (GPa) = 45.55264 63.08505 54.31885
# Shear Modulus (GPa) = 33.93961 39.17208 36.55584
#
# Velocity S-wave (km/s) = 3.93320 4.22552 4.08198
# Velocity P-wave (km/s) = 6.43351 7.24994 6.85389
#
# Compressibility (1/GPa) = 0.02195262
#
# Stress axis : x y z
#
# Youngs Moduli (GPa) = 50.18718 88.62003 104.81227
#
# Poissons Ratio (x) = 0.14631 0.35947
# Poissons Ratio (y) = 0.08286 0.45261
# Poissons Ratio (z) = 0.17212 0.38269
#
# Static dielectric constant tensor:
#      x y z
#    x 1.836620 -0.038130 -0.056610 
#    y -0.038130 1.894180 0.110130 
#    z -0.056610 0.110130 2.101110 
# 
# From -- ./inp_files/190336.got.cif
#   From: 2010.05.17/outbox.cif.g08.bks.cpg/sg2_96_cif.got.tgz:190336.got - 2010.06.03 11:33:40.
