data_PCOD9092077
_publ_section_title
;
Structure prediction by ZEFSAII (Michael W. Deem and Ramdas Pophale) SiO2 
 PCOD9092077
Probable space group: P -1
;
_chemical_formula_sum "Si O2"
_cell_formula_units_Z 16
_cell_length_a 8.771351
_cell_length_b 7.854233
_cell_length_c 15.406669
_cell_angle_alpha 103.736345
_cell_angle_beta 121.145829
_cell_angle_gamma 115.428664
_cell_volume 659.655321
_symmetry_space_group_name_H-M "P -1"
_symmetry_group_IT_number 2
_symmetry_cell_setting 'triclinic'
loop_
_space_group_symop_operation_xyz
x,y,z
-x,-y,-z
loop_
_atom_site_type_symbol
_atom_site_label
_atom_site_fract_x
_atom_site_fract_y
_atom_site_fract_z
Si Si1 0.565346 0.476043 0.762952
Si Si2 0.334622 0.862881 0.080524
Si Si3 0.105153 0.651221 0.160013
Si Si4 0.805951 0.876770 0.005662
Si Si5 0.726631 0.031231 0.592746
Si Si6 0.933555 0.705954 0.428793
Si Si7 0.830658 0.794788 0.713766
Si Si8 0.124655 0.742107 0.678670
O O1 0.708936 0.389509 0.791229
O O2 0.629111 0.610898 0.889503
O O3 0.285882 0.307175 0.648889
O O4 0.666257 0.645702 0.729295
O O5 0.209430 0.831836 0.132144
O O6 0.312956 0.010324 0.025884
O O7 0.611734 0.010083 0.195481
O O8 0.158752 0.594313 0.964706
O O9 0.122829 0.758149 0.268637
O O10 0.000000 0.000000 0.000000
O O11 0.938597 0.956459 0.145975
O O12 0.865114 0.100056 0.553500
O O13 0.500000 0.000000 0.500000
O O14 0.694514 0.825898 0.607760
O O15 0.859542 0.458642 0.347922
O O16 0.029218 0.748182 0.559120
O O17 0.938326 0.691242 0.688731
#
# Coordination Sequence:
#
# PCOD9092077 Si02
#       8
#     2   2   2   2   2   2   2   2
#     4  11  23  44  72 103 140 180 233 282 343 418
#     4  11  22  41  70 103 142 182 225 288 337 411
#     4  11  24  41  74 103 140 185 232 277 355 402
#     4  10  19  40  66 100 139 179 224 281 342 403
#     4  12  29  48  68 103 142 181 232 289 343 411
#     4  11  27  45  73 101 138 182 237 282 347 411
#     4  11  26  44  70 100 141 184 229 284 350 409
#     4  11  26  46  70 101 140 184 234 285 345 407
#
# _framework density 24.255091
#
# number of rings (size 3 to 8) (size 9 to 14) (size 15 to 20)
#    0.000    1.000    3.750    3.000    8.750    2.500 
#    0.000    1.250    0.000    0.000    0.000    0.000 
#    0.000    0.000    0.000    0.000    0.000    0.000 
#
# Total GULP energy -89619.089013 kJ/mol
# GULP energy per Si atom -5601.193063 kJ/mol
# Density = 2.419989 g / cm^3
# Si number density = 24.255091 Si / 1000 Ang^3
#
#
#
# Elastic Constant Matrix: (Units=GPa)
#
#
# Indices 1 2 3 4 5 6 
#
# 1 79.3443 26.0364 51.8655 16.0661 6.5150 -1.3019
# 2 26.0364 68.8609 16.2662 -16.8740 13.9154 -14.6451
# 3 51.8655 16.2662 110.0377 -6.5275 17.3975 -4.4529
# 4 16.0661 -16.8740 -6.5275 30.5860 0.5600 4.9218
# 5 6.5150 13.9154 17.3975 0.5600 49.4938 -5.2386
# 6 -1.3019 -14.6451 -4.4529 4.9218 -5.2386 31.4718
#
#
#
# Elastic Compliance Matrix: (Units=1/GPa)
#
#
# Indices 1 2 3 4 5 6 
#
# 1 0.037321 -0.020576 -0.017869 -0.034253 0.007116 -0.004018
# 2 -0.020576 0.030808 0.008501 0.028344 -0.008323 0.008870
# 3 -0.017869 0.008501 0.018418 0.017811 -0.006507 0.001954
# 4 -0.034253 0.028344 0.017811 0.070054 -0.010343 0.001615
# 5 0.007116 -0.008323 -0.006507 -0.010343 0.024132 0.001135
# 6 -0.004018 0.008870 0.001954 0.001615 0.001135 0.035948
#
#
# Mechanical properties :
#
#
# Convention : Reuss Voigt Hill
#
# Bulk Modulus (GPa) = 37.51266 49.61989 43.56627
# Shear Modulus (GPa) = 17.51574 33.24865 25.38219
#
# Velocity S-wave (km/s) = 2.69019 3.70644 3.23843
# Velocity P-wave (km/s) = 5.01488 6.23047 5.65543
#
# Compressibility (1/GPa) = 0.02665767
#
# Stress axis : x y z
#
# Youngs Moduli (GPa) = 26.79427 32.45938 54.29463
#
# Poissons Ratio (x) = 0.66789 0.97019
# Poissons Ratio (y) = 0.55133 -0.46154
# Poissons Ratio (z) = 0.47879 -0.27592
#
# Static dielectric constant tensor:
#      x y z
#    x 1.908740 -0.071970 -0.011110 
#    y -0.071970 1.976420 0.041390 
#    z -0.011110 0.041390 1.957300 
# 
# From -- ./inp_files/495287.got.cif
#   From: 2010.05.17/outbox.cif.g08.bks.cpg/sg2_248_cif.got.tgz:495287.got - 2010.06.03 11:33:40.
