data_PCOD9092673
_publ_section_title
;
Structure prediction by ZEFSAII (Michael W. Deem and Ramdas Pophale) SiO2 
 PCOD9092673
Probable space group: P -1
;
_chemical_formula_sum "Si O2"
_cell_formula_units_Z 16
_cell_length_a 12.358620
_cell_length_b 7.916819
_cell_length_c 12.202873
_cell_angle_alpha 38.757480
_cell_angle_beta 115.604384
_cell_angle_gamma 116.884238
_cell_volume 659.857528
_symmetry_space_group_name_H-M "P -1"
_symmetry_group_IT_number 2
_symmetry_cell_setting 'triclinic'
loop_
_space_group_symop_operation_xyz
x,y,z
-x,-y,-z
loop_
_atom_site_type_symbol
_atom_site_label
_atom_site_fract_x
_atom_site_fract_y
_atom_site_fract_z
Si Si1 0.716272 0.375073 0.227044
Si Si2 0.081148 0.296584 0.510455
Si Si3 0.852571 0.134415 0.073128
Si Si4 0.395907 0.159833 0.998737
Si Si5 0.131370 0.334900 0.039902
Si Si6 0.301198 0.251997 0.511810
Si Si7 0.834343 0.188235 0.568683
Si Si8 0.503781 0.350948 0.716192
O O1 0.619424 0.572999 0.075486
O O2 0.736256 0.317176 0.393492
O O3 0.697462 0.070490 0.323413
O O4 0.829257 0.555486 0.118690
O O5 0.162766 0.301193 0.435202
O O6 0.105783 0.598093 0.420638
O O7 0.936692 0.180806 0.521653
O O8 0.138790 0.096866 0.715857
O O9 0.986199 0.209920 0.038733
O O10 0.740150 0.005362 0.012045
O O11 0.838364 0.406141 0.995465
O O12 0.469520 0.274518 0.863693
O O13 0.458829 0.915551 0.190819
O O14 0.196808 0.101789 0.237218
O O15 0.383362 0.395838 0.576817
O O16 0.380992 0.398513 0.371895
#
# Coordination Sequence:
#
# PCOD9092673 Si02
#       8
#     2   2   2   2   2   2   2   2
#     4  12  24  41  64  98 126 159 210 256 302 382
#     4  10  19  42  62  87 134 165 194 255 310 366
#     4  10  19  42  62  87 134 165 194 255 310 366
#     4  11  23  42  65  89 122 163 209 262 310 363
#     4  10  23  38  63  96 129 166 201 243 309 379
#     4  11  23  42  65  89 122 163 209 262 310 363
#     4  10  23  38  63  96 129 166 201 243 309 379
#     4  10  24  43  64  86 116 165 214 262 316 358
#
# _framework density 24.247658999999999
#
# number of rings (size 3 to 8) (size 9 to 14) (size 15 to 20)
#    0.000    1.500    3.750    0.000    3.500    3.000 
#    0.000    0.000    0.000    0.000    0.000    0.000 
#    0.000    0.000    0.000    0.000    0.000    0.000 
#
# Total GULP energy -89409.653579 kJ/mol
# GULP energy per Si atom -5588.103349 kJ/mol
# Density = 2.419247 g / cm^3
# Si number density = 24.247659 Si / 1000 Ang^3
#
#
#
# Elastic Constant Matrix: (Units=GPa)
#
#
# Indices 1 2 3 4 5 6 
#
# 1 86.8030 18.1558 26.3203 -20.8836 -11.7120 -7.3433
# 2 18.1558 40.2183 15.9632 -12.1129 1.7133 1.4036
# 3 26.3203 15.9632 123.6467 -22.0272 -16.0541 0.7094
# 4 -20.8836 -12.1129 -22.0272 36.9566 -0.4992 11.1982
# 5 -11.7120 1.7133 -16.0541 -0.4992 36.0044 -1.7978
# 6 -7.3433 1.4036 0.7094 11.1982 -1.7978 22.8544
#
#
#
# Elastic Compliance Matrix: (Units=1/GPa)
#
#
# Indices 1 2 3 4 5 6 
#
# 1 0.015110 -0.005103 -0.000954 0.005486 0.004954 0.002900
# 2 -0.005103 0.030937 -0.001905 0.008478 -0.004262 -0.007970
# 3 -0.000954 -0.001905 0.010149 0.005866 0.004235 -0.003045
# 4 0.005486 0.008478 0.005866 0.042365 0.003614 -0.019414
# 5 0.004954 -0.004262 0.004235 0.003614 0.031649 0.002440
# 6 0.002900 -0.007970 -0.003045 -0.019414 0.002440 0.054975
#
#
# Mechanical properties :
#
#
# Convention : Reuss Voigt Hill
#
# Bulk Modulus (GPa) = 24.83058 41.28296 33.05677
# Shear Modulus (GPa) = 23.30639 31.84498 27.57568
#
# Velocity S-wave (km/s) = 3.10366 3.62791 3.37597
# Velocity P-wave (km/s) = 4.80689 5.88315 5.37204
#
# Compressibility (1/GPa) = 0.04027292
#
# Stress axis : x y z
#
# Youngs Moduli (GPa) = 66.17964 32.32357 98.53359
#
# Poissons Ratio (x) = 0.16494 0.09399
# Poissons Ratio (y) = 0.33769 0.18772
# Poissons Ratio (z) = 0.06313 0.06158
#
# Static dielectric constant tensor:
#      x y z
#    x 1.997670 0.018590 0.035230 
#    y 0.018590 1.941330 0.026490 
#    z 0.035230 0.026490 1.903390 
# 
# From -- ./inp_files/216816.got.cif
#   From: 2010.05.17/outbox.cif.g08.bks.cpg/sg2_109_cif.got.tgz:216816.got - 2010.06.03 11:33:40.
