data_PCOD9092919
_publ_section_title
;
Structure prediction by ZEFSAII (Michael W. Deem and Ramdas Pophale) SiO2 
 PCOD9092919
Probable space group: P -1
;
_chemical_formula_sum "Si O2"
_cell_formula_units_Z 16
_cell_length_a 15.041062
_cell_length_b 23.734922
_cell_length_c 14.699121
_cell_angle_alpha 161.161357
_cell_angle_beta 28.826425
_cell_angle_gamma 152.625742
_cell_volume 756.344016
_symmetry_space_group_name_H-M "P -1"
_symmetry_group_IT_number 2
_symmetry_cell_setting 'triclinic'
loop_
_space_group_symop_operation_xyz
x,y,z
-x,-y,-z
loop_
_atom_site_type_symbol
_atom_site_label
_atom_site_fract_x
_atom_site_fract_y
_atom_site_fract_z
Si Si1 0.982834 0.306068 0.760315
Si Si2 0.385471 0.279015 0.285674
Si Si3 0.889346 0.042156 0.076923
Si Si4 0.597813 0.192977 0.649154
Si Si5 0.393347 0.097849 0.177355
Si Si6 0.771749 0.914402 0.304042
Si Si7 0.213875 0.394278 0.856274
Si Si8 0.960304 0.860645 0.233485
O O1 0.180274 0.270851 0.502421
O O2 0.012701 0.322603 0.866340
O O3 0.803913 0.135244 0.616440
O O4 0.000000 0.500000 0.000000
O O5 0.500000 0.500000 0.500000
O O6 0.481533 0.185449 0.133261
O O7 0.301080 0.141402 0.065542
O O8 0.794157 0.188282 0.417497
O O9 0.000000 0.000000 0.000000
O O10 0.053979 0.103248 0.942975
O O11 0.437249 0.196462 0.723976
O O12 0.500000 0.000000 0.500000
O O13 0.664957 0.388403 0.942121
O O14 0.350248 0.271573 0.528305
O O15 0.176551 0.932570 0.103771
O O16 0.500000 0.000000 0.000000
O O17 0.811021 0.876167 0.314377
O O18 0.133981 0.346565 0.957021
O O19 0.000000 0.000000 0.500000
#
# Coordination Sequence:
#
# PCOD9092919 Si02
#       8
#     2   2   2   2   2   2   2   2
#     4  10  20  36  64  93 126 166 226 280 341 391
#     4  10  23  39  62 100 132 167 229 288 335 404
#     4  11  24  43  63  95 141 178 222 276 345 407
#     4  12  26  42  68  97 142 184 218 279 349 407
#     4  10  21  41  69 100 134 173 227 292 342 395
#     4  11  22  44  66  93 134 178 222 282 333 399
#     4  10  23  42  64  99 129 175 235 268 339 417
#     4  10  19  44  66  89 131 170 224 286 327 399
#
# _framework density 21.154395999999998
#
# number of rings (size 3 to 8) (size 9 to 14) (size 15 to 20)
#    0.000    1.500    6.250    0.750    7.000    3.500 
#    2.250    0.625    0.000    0.000    0.000    0.000 
#    0.000    0.000    0.000    0.000    0.000    0.000 
#
# Total GULP energy -89175.943456 kJ/mol
# GULP energy per Si atom -5573.496466 kJ/mol
# Density = 2.110625 g / cm^3
# Si number density = 21.154396 Si / 1000 Ang^3
#
#
#
# Elastic Constant Matrix: (Units=GPa)
#
#
# Indices 1 2 3 4 5 6 
#
# 1 129.3419 20.1052 28.6214 -1.1552 -14.3501 -5.0089
# 2 20.1052 58.6009 16.1059 8.9735 -4.6298 -6.8380
# 3 28.6214 16.1059 86.7142 7.7888 -12.1823 -1.3296
# 4 -1.1552 8.9735 7.7888 29.1370 -0.5284 -5.7385
# 5 -14.3501 -4.6298 -12.1823 -0.5284 28.6405 3.1560
# 6 -5.0089 -6.8380 -1.3296 -5.7385 3.1560 38.5942
#
#
#
# Elastic Compliance Matrix: (Units=1/GPa)
#
#
# Indices 1 2 3 4 5 6 
#
# 1 0.008995 -0.002435 -0.002238 0.001896 0.003121 0.000686
# 2 -0.002435 0.019614 -0.002258 -0.005074 0.000646 0.002274
# 3 -0.002238 -0.002258 0.013567 -0.003147 0.004342 -0.001046
# 4 0.001896 -0.005074 -0.003147 0.037753 -0.001056 0.004939
# 5 0.003121 0.000646 0.004342 -0.001056 0.038703 -0.002653
# 6 0.000686 0.002274 -0.001046 0.004939 -0.002653 0.027318
#
#
# Mechanical properties :
#
#
# Convention : Reuss Voigt Hill
#
# Bulk Modulus (GPa) = 35.31824 44.92466 40.12145
# Shear Modulus (GPa) = 29.54222 33.26264 31.40243
#
# Velocity S-wave (km/s) = 3.74104 3.96962 3.85702
# Velocity P-wave (km/s) = 5.94913 6.50332 6.23239
#
# Compressibility (1/GPa) = 0.02831399
#
# Stress axis : x y z
#
# Youngs Moduli (GPa) = 111.17424 50.98430 73.70928
#
# Poissons Ratio (x) = 0.12413 0.16497
# Poissons Ratio (y) = 0.27068 0.16643
# Poissons Ratio (z) = 0.24882 0.11512
#
# Static dielectric constant tensor:
#      x y z
#    x 1.828960 -0.047170 0.020320 
#    y -0.047170 1.837720 -0.028110 
#    z 0.020320 -0.028110 1.802130 
# 
# From -- ./inp_files/535431.got.cif
#   From: 2010.05.17/outbox.cif.g08.bks.cpg/sg2_268_cif.got.tgz:535431.got - 2010.06.03 11:33:40.
