data_PCOD9092377
_publ_section_title
;
Structure prediction by ZEFSAII (Michael W. Deem and Ramdas Pophale) SiO2 
 PCOD9092377
Probable space group: P -1
;
_chemical_formula_sum "Si O2"
_cell_formula_units_Z 16
_cell_length_a 9.135706
_cell_length_b 18.101262
_cell_length_c 20.768157
_cell_angle_alpha 152.896757
_cell_angle_beta 30.520442
_cell_angle_gamma 138.475513
_cell_volume 792.164800
_symmetry_space_group_name_H-M "P -1"
_symmetry_group_IT_number 2
_symmetry_cell_setting 'triclinic'
loop_
_space_group_symop_operation_xyz
x,y,z
-x,-y,-z
loop_
_atom_site_type_symbol
_atom_site_label
_atom_site_fract_x
_atom_site_fract_y
_atom_site_fract_z
Si Si1 0.426358 0.739787 0.151334
Si Si2 0.158682 0.383131 0.296040
Si Si3 0.234093 0.445132 0.518481
Si Si4 0.247732 0.590741 0.227591
Si Si5 0.359064 0.962453 0.631081
Si Si6 0.244622 0.624221 0.992967
Si Si7 0.267857 0.147043 0.180673
Si Si8 0.739465 0.785165 0.251027
O O1 0.212912 0.685240 0.246533
O O2 0.310512 0.714290 0.104201
O O3 0.517875 0.918551 0.270368
O O4 0.696239 0.603216 0.952836
O O5 0.249637 0.212294 0.164212
O O6 0.000000 0.500000 0.500000
O O7 0.935623 0.402745 0.336373
O O8 0.453959 0.446833 0.206101
O O9 0.500000 0.500000 0.500000
O O10 0.328687 0.304307 0.322551
O O11 0.008996 0.373755 0.598034
O O12 0.542830 0.647808 0.191586
O O13 0.604937 0.833968 0.409646
O O14 0.060966 0.894090 0.711642
O O15 0.294614 0.074110 0.679380
O O16 0.077604 0.741974 0.096578
O O17 0.000000 0.500000 0.000000
O O18 0.500000 0.000000 0.000000
#
# Coordination Sequence:
#
# PCOD9092377 Si02
#       8
#     2   2   2   2   2   2   2   2
#     4  10  22  35  64  92 122 159 207 267 313 376
#     4  10  24  44  64  95 134 171 219 270 319 394
#     4  11  23  42  67  91 126 172 220 267 321 388
#     4  10  19  41  61  93 124 161 212 266 317 375
#     4  10  22  40  61  89 130 167 206 262 323 385
#     4  12  22  38  67  97 123 163 216 269 319 374
#     4  11  24  42  66  93 129 177 217 261 332 393
#     4  10  20  39  67  90 126 168 206 260 327 386
#
# _framework density 20.197818000000002
#
# number of rings (size 3 to 8) (size 9 to 14) (size 15 to 20)
#    0.000    1.500    3.750    0.750    3.500    2.500 
#    0.000    3.750    0.000    0.000    0.000    0.000 
#    0.000    0.000    0.000    0.000    0.000    0.000 
#
# Total GULP energy -89231.622658 kJ/mol
# GULP energy per Si atom -5576.976416 kJ/mol
# Density = 2.015185 g / cm^3
# Si number density = 20.197818 Si / 1000 Ang^3
#
#
#
# Elastic Constant Matrix: (Units=GPa)
#
#
# Indices 1 2 3 4 5 6 
#
# 1 108.9188 45.4347 39.0363 -13.5267 -5.6146 9.6712
# 2 45.4347 69.3656 21.2398 -8.4969 0.0567 5.6174
# 3 39.0363 21.2398 70.8045 -4.0291 -9.1788 5.1836
# 4 -13.5267 -8.4969 -4.0291 32.1902 2.8874 1.5741
# 5 -5.6146 0.0567 -9.1788 2.8874 36.0013 4.2279
# 6 9.6712 5.6174 5.1836 1.5741 4.2279 32.7103
#
#
#
# Elastic Compliance Matrix: (Units=1/GPa)
#
#
# Indices 1 2 3 4 5 6 
#
# 1 0.015016 -0.007489 -0.005509 0.003684 0.000957 -0.002581
# 2 -0.007489 0.020265 -0.001999 0.002152 -0.001786 -0.000822
# 3 -0.005509 -0.001999 0.018342 -0.000841 0.004054 -0.001418
# 4 0.003684 0.002152 -0.000841 0.033387 -0.002007 -0.002673
# 5 0.000957 -0.001786 0.004054 -0.002007 0.029635 -0.004352
# 6 -0.002581 -0.000822 -0.001418 -0.002673 -0.004352 0.032392
#
#
# Mechanical properties :
#
#
# Convention : Reuss Voigt Hill
#
# Bulk Modulus (GPa) = 42.32212 51.16784 46.74498
# Shear Modulus (GPa) = 26.75122 29.73890 28.24506
#
# Velocity S-wave (km/s) = 3.64326 3.84133 3.74360
# Velocity P-wave (km/s) = 6.22070 6.71288 6.47147
#
# Compressibility (1/GPa) = 0.02362831
#
# Stress axis : x y z
#
# Youngs Moduli (GPa) = 66.59727 49.34520 54.51930
#
# Poissons Ratio (x) = 0.36954 0.30037
# Poissons Ratio (y) = 0.49873 0.10900
# Poissons Ratio (z) = 0.36691 0.09865
#
# Static dielectric constant tensor:
#      x y z
#    x 1.738090 -0.057620 -0.015730 
#    y -0.057620 1.746390 0.048150 
#    z -0.015730 0.048150 1.795460 
# 
# From -- ./inp_files/298029.got.cif
#   From: 2010.05.17/outbox.cif.g08.bks.cpg/sg2_150_cif.got.tgz:298029.got - 2010.06.03 11:33:40.
