data_PCOD9092121
_publ_section_title
;
Structure prediction by ZEFSAII (Michael W. Deem and Ramdas Pophale) SiO2 
 PCOD9092121
Probable space group: P -1
;
_chemical_formula_sum "Si O2"
_cell_formula_units_Z 16
_cell_length_a 9.550205
_cell_length_b 19.050851
_cell_length_c 13.185397
_cell_angle_alpha 149.733254
_cell_angle_beta 45.488878
_cell_angle_gamma 121.082277
_cell_volume 835.263424
_symmetry_space_group_name_H-M "P -1"
_symmetry_group_IT_number 2
_symmetry_cell_setting 'triclinic'
loop_
_space_group_symop_operation_xyz
x,y,z
-x,-y,-z
loop_
_atom_site_type_symbol
_atom_site_label
_atom_site_fract_x
_atom_site_fract_y
_atom_site_fract_z
Si Si1 0.156390 0.822168 0.426835
Si Si2 0.680724 0.814059 0.351581
Si Si3 0.475141 0.582236 0.721588
Si Si4 0.170148 0.590591 0.529667
Si Si5 0.655726 0.354039 0.704541
Si Si6 0.504691 0.136834 0.848595
Si Si7 0.868313 0.863263 0.102559
Si Si8 0.020624 0.642889 0.111532
O O1 0.197783 0.709555 0.356730
O O2 0.364673 0.817313 0.252730
O O3 0.013766 0.770711 0.354980
O O4 0.088468 0.982975 0.704597
O O5 0.476764 0.760649 0.390150
O O6 0.761763 0.819959 0.203325
O O7 0.848607 0.703713 0.192785
O O8 0.629193 0.978726 0.621415
O O9 0.500000 0.500000 0.500000
O O10 0.633313 0.492311 0.610771
O O11 0.517067 0.741204 0.903128
O O12 0.243051 0.605504 0.902507
O O13 0.232877 0.617164 0.417050
O O14 0.000000 0.500000 0.500000
O O15 0.066155 0.740940 0.823174
O O16 0.500000 0.500000 0.000000
O O17 0.292963 0.126447 0.893932
O O18 0.000000 0.500000 0.000000
#
# Coordination Sequence:
#
# PCOD9092121 Si02
#       8
#     2   2   2   2   2   2   2   2
#     4  10  21  38  64  92 123 161 204 260 306 362
#     4  11  21  39  69  90 120 170 203 252 318 362
#     4  11  24  42  61  89 126 163 203 257 312 366
#     4  12  25  39  62  91 125 166 209 255 309 366
#     4  12  22  38  63  91 121 163 211 253 305 366
#     4  10  19  40  66  93 126 153 211 262 301 371
#     4  11  20  40  65  95 125 156 209 262 308 365
#     4  11  24  42  60  92 129 161 211 255 302 370
#
# _framework density 19.155633999999999
#
# number of rings (size 3 to 8) (size 9 to 14) (size 15 to 20)
#    0.000    1.000    3.750    5.250    0.000    7.000 
#    0.000    0.000    0.000    3.000    0.000    0.000 
#    0.000    0.000    0.000    0.000    0.000    0.000 
#
# Total GULP energy -89420.278135 kJ/mol
# GULP energy per Si atom -5588.767383 kJ/mol
# Density = 1.911203 g / cm^3
# Si number density = 19.155634 Si / 1000 Ang^3
#
#
#
# Elastic Constant Matrix: (Units=GPa)
#
#
# Indices 1 2 3 4 5 6 
#
# 1 61.3633 2.6922 5.1147 -0.8821 1.3987 -12.3618
# 2 2.6922 81.9462 26.9906 1.4598 11.2300 -13.8013
# 3 5.1147 26.9906 129.5246 11.6242 17.1161 -2.5485
# 4 -0.8821 1.4598 11.6242 23.2104 0.9089 -2.3467
# 5 1.3987 11.2300 17.1161 0.9089 37.9121 7.6977
# 6 -12.3618 -13.8013 -2.5485 -2.3467 7.6977 24.3586
#
#
#
# Elastic Compliance Matrix: (Units=1/GPa)
#
#
# Indices 1 2 3 4 5 6 
#
# 1 0.018780 0.002053 -0.000679 0.002268 -0.003473 0.011939
# 2 0.002053 0.015736 -0.002487 0.001762 -0.006048 0.011778
# 3 -0.000679 -0.002487 0.009069 -0.004308 -0.003186 -0.000213
# 4 0.002268 0.001762 -0.004308 0.045912 -0.001073 0.006461
# 5 -0.003473 -0.006048 -0.003186 -0.001073 0.033021 -0.016061
# 6 0.011939 0.011778 -0.000213 0.006461 -0.016061 0.059461
#
#
# Mechanical properties :
#
#
# Convention : Reuss Voigt Hill
#
# Bulk Modulus (GPa) = 24.17919 38.04770 31.11344
# Shear Modulus (GPa) = 25.25341 32.96531 29.10936
#
# Velocity S-wave (km/s) = 3.63482 4.15290 3.90246
# Velocity P-wave (km/s) = 5.50143 6.54988 6.04842
#
# Compressibility (1/GPa) = 0.04135788
#
# Stress axis : x y z
#
# Youngs Moduli (GPa) = 53.24879 63.54836 110.26423
#
# Poissons Ratio (x) = -0.13046 0.07488
# Poissons Ratio (y) = -0.10931 0.27427
# Poissons Ratio (z) = 0.03616 0.15807
#
# Static dielectric constant tensor:
#      x y z
#    x 1.662570 0.004790 0.011800 
#    y 0.004790 1.657930 0.015650 
#    z 0.011800 0.015650 1.685930 
# 
# From -- ./inp_files/180476.got.cif
#   From: 2010.05.17/outbox.cif.g08.bks.cpg/sg2_91_cif.got.tgz:180476.got - 2010.06.03 11:33:40.
