data_PCOD9092849
_publ_section_title
;
Structure prediction by ZEFSAII (Michael W. Deem and Ramdas Pophale) SiO2 
 PCOD9092849
Probable space group: P -1
;
_chemical_formula_sum "Si O2"
_cell_formula_units_Z 16
_cell_length_a 11.157973
_cell_length_b 10.941040
_cell_length_c 9.295599
_cell_angle_alpha 95.388011
_cell_angle_beta 131.898909
_cell_angle_gamma 117.055593
_cell_volume 601.834464
_symmetry_space_group_name_H-M "P -1"
_symmetry_group_IT_number 2
_symmetry_cell_setting 'triclinic'
loop_
_space_group_symop_operation_xyz
x,y,z
-x,-y,-z
loop_
_atom_site_type_symbol
_atom_site_label
_atom_site_fract_x
_atom_site_fract_y
_atom_site_fract_z
Si Si1 0.612522 0.736981 0.156696
Si Si2 0.230790 0.078078 0.265643
Si Si3 0.118914 0.754408 0.157696
Si Si4 0.434086 0.854888 0.170807
Si Si5 0.727676 0.633125 0.611804
Si Si6 0.374385 0.083397 0.072179
Si Si7 0.129263 0.485785 0.799644
Si Si8 0.045355 0.269141 0.466505
O O1 0.827977 0.767673 0.342602
O O2 0.568867 0.775205 0.970733
O O3 0.628414 0.865572 0.284627
O O4 0.377500 0.551972 0.003100
O O5 0.372866 0.129429 0.240228
O O6 0.198001 0.929524 0.297593
O O7 0.284874 0.227376 0.414118
O O8 0.000000 0.000000 0.000000
O O9 0.925198 0.689436 0.881230
O O10 0.325851 0.807693 0.238110
O O11 0.012115 0.615956 0.181257
O O12 0.503627 0.023363 0.183895
O O13 0.220140 0.674544 0.897101
O O14 0.500000 0.500000 0.500000
O O15 0.771782 0.592521 0.491678
O O16 0.142598 0.902475 0.798270
O O17 0.001885 0.358938 0.548994
#
# Coordination Sequence:
#
# PCOD9092849 Si02
#       8
#     2   2   2   2   2   2   2   2
#     4  10  24  37  63  91 131 159 206 263 314 363
#     4   9  19  36  62  87 118 171 203 245 309 378
#     4  10  19  43  65  85 124 174 209 239 318 384
#     4   9  21  42  65  85 125 177 210 237 318 386
#     4  11  23  37  64  96 129 156 211 263 307 368
#     4  11  21  41  64  91 125 168 210 252 314 377
#     4  10  24  37  66  90 130 164 209 257 317 360
#     4  12  23  39  59 103 122 158 211 269 307 356
#
# _framework density 26.585381000000002
#
# number of rings (size 3 to 8) (size 9 to 14) (size 15 to 20)
#    0.750    1.000    3.750    2.250    5.250    1.500 
#    0.000    0.000    0.000    3.750    0.000    0.000 
#    0.000    0.000    0.000    0.000    0.000    0.000 
#
# Total GULP energy -89344.917529 kJ/mol
# GULP energy per Si atom -5584.057346 kJ/mol
# Density = 2.652487 g / cm^3
# Si number density = 26.585381 Si / 1000 Ang^3
#
#
#
# Elastic Constant Matrix: (Units=GPa)
#
#
# Indices 1 2 3 4 5 6 
#
# 1 62.4825 21.4650 24.5441 8.6934 -17.7402 -2.6429
# 2 21.4650 57.4453 23.7168 -12.5108 -1.8851 7.9494
# 3 24.5441 23.7168 92.5220 -6.0537 -15.4763 0.8661
# 4 8.6934 -12.5108 -6.0537 36.4424 2.9740 -5.9685
# 5 -17.7402 -1.8851 -15.4763 2.9740 39.4121 3.6954
# 6 -2.6429 7.9494 0.8661 -5.9685 3.6954 44.1108
#
#
#
# Elastic Compliance Matrix: (Units=1/GPa)
#
#
# Indices 1 2 3 4 5 6 
#
# 1 0.025227 -0.010329 -0.003020 -0.010731 0.010381 0.001111
# 2 -0.010329 0.025462 -0.003989 0.010457 -0.005482 -0.003255
# 3 -0.003020 -0.003989 0.013312 0.001297 0.003565 0.000153
# 4 -0.010731 0.010457 0.001297 0.034798 -0.006701 0.002717
# 5 0.010381 -0.005482 0.003565 -0.006701 0.031880 -0.002038
# 6 0.001111 -0.003255 0.000153 0.002717 -0.002038 0.023859
#
#
# Mechanical properties :
#
#
# Convention : Reuss Voigt Hill
#
# Bulk Modulus (GPa) = 34.10279 39.10017 36.60148
# Shear Modulus (GPa) = 25.12699 33.50799 29.31749
#
# Velocity S-wave (km/s) = 3.07765 3.55405 3.32440
# Velocity P-wave (km/s) = 5.04824 5.61970 5.34162
#
# Compressibility (1/GPa) = 0.02932311
#
# Stress axis : x y z
#
# Youngs Moduli (GPa) = 39.64036 39.27354 75.12172
#
# Poissons Ratio (x) = 0.40567 0.22690
# Poissons Ratio (y) = 0.40946 0.29967
# Poissons Ratio (z) = 0.11973 0.15667
#
# Static dielectric constant tensor:
#      x y z
#    x 2.115510 0.005960 0.025950 
#    y 0.005960 2.126350 -0.003100 
#    z 0.025950 -0.003100 2.168560 
# 
# From -- ./inp_files/259095.got.cif
#   From: 2010.05.17/outbox.cif.g08.bks.cpg/sg2_130_cif.got.tgz:259095.got - 2010.06.03 11:33:40.
