data_PCOD9092090
_publ_section_title
;
Structure prediction by ZEFSAII (Michael W. Deem and Ramdas Pophale) SiO2 
 PCOD9092090
Probable space group: P -1
;
_chemical_formula_sum "Si O2"
_cell_formula_units_Z 16
_cell_length_a 21.176667
_cell_length_b 9.096248
_cell_length_c 12.074243
_cell_angle_alpha 70.113158
_cell_angle_beta 24.230686
_cell_angle_gamma 84.322447
_cell_volume 751.193609
_symmetry_space_group_name_H-M "P -1"
_symmetry_group_IT_number 2
_symmetry_cell_setting 'triclinic'
loop_
_space_group_symop_operation_xyz
x,y,z
-x,-y,-z
loop_
_atom_site_type_symbol
_atom_site_label
_atom_site_fract_x
_atom_site_fract_y
_atom_site_fract_z
Si Si1 0.633526 0.933045 0.543767
Si Si2 0.087613 0.515392 0.719014
Si Si3 0.288980 0.938090 0.364101
Si Si4 0.613271 0.564715 0.684250
Si Si5 0.637109 0.765750 0.001120
Si Si6 0.295035 0.699586 0.698522
Si Si7 0.160358 0.405904 0.185095
Si Si8 0.790293 0.339995 0.751003
O O1 0.716251 0.004272 0.516375
O O2 0.663589 0.767703 0.514050
O O3 0.707223 0.119652 0.305899
O O4 0.412123 0.825115 0.917731
O O5 0.202739 0.435990 0.602838
O O6 0.128980 0.528140 0.518529
O O7 0.166250 0.722566 0.583546
O O8 0.868742 0.400199 0.103578
O O9 0.258788 0.056521 0.291673
O O10 0.500000 0.000000 0.000000
O O11 0.480731 0.410062 0.847400
O O12 0.500000 0.500000 0.000000
O O13 0.488207 0.772311 0.312742
O O14 0.764485 0.724360 0.880558
O O15 0.253158 0.547437 0.897102
O O16 0.210094 0.541849 0.176175
O O17 0.940084 0.290544 0.551217
#
# Coordination Sequence:
#
# PCOD9092090 Si02
#       8
#     2   2   2   2   2   2   2   2
#     4  12  22  39  64  96 119 164 200 254 310 363
#     4  11  22  41  63  94 124 161 199 255 310 362
#     4  12  20  38  67  93 118 158 205 250 308 362
#     4  12  20  36  68  92 121 154 210 255 297 363
#     4  12  21  40  64  92 124 161 206 250 302 368
#     4  11  26  41  60  87 135 164 199 245 313 368
#     4  10  23  40  64  90 120 167 205 256 299 352
#     4  10  19  40  66  87 117 157 216 251 294 350
#
# _framework density 21.299436
#
# number of rings (size 3 to 8) (size 9 to 14) (size 15 to 20)
#    0.000    0.750    7.500    0.375    0.000    3.000 
#    0.000    6.875    0.000    0.000    0.000    0.000 
#    0.000    0.000    0.000    0.000    0.000    0.000 
#
# Total GULP energy -89400.448162 kJ/mol
# GULP energy per Si atom -5587.528010 kJ/mol
# Density = 2.125096 g / cm^3
# Si number density = 21.299436 Si / 1000 Ang^3
#
#
#
# Elastic Constant Matrix: (Units=GPa)
#
#
# Indices 1 2 3 4 5 6 
#
# 1 89.4455 48.4257 28.8869 5.3975 -0.3190 -25.7370
# 2 48.4257 153.3166 40.2494 -3.1729 -17.0157 -34.2172
# 3 28.8869 40.2494 63.9325 7.6522 -21.7981 -22.5535
# 4 5.3975 -3.1729 7.6522 27.6274 -8.3608 -2.9244
# 5 -0.3190 -17.0157 -21.7981 -8.3608 27.9764 9.7720
# 6 -25.7370 -34.2172 -22.5535 -2.9244 9.7720 46.8175
#
#
#
# Elastic Compliance Matrix: (Units=1/GPa)
#
#
# Indices 1 2 3 4 5 6 
#
# 1 0.017081 -0.003735 -0.006432 -0.004539 -0.010344 0.005437
# 2 -0.003735 0.009559 -0.002285 0.004033 0.004066 0.003235
# 3 -0.006432 -0.002285 0.027930 -0.000658 0.018591 0.004327
# 4 -0.004539 0.004033 -0.000658 0.042108 0.014569 -0.000275
# 5 -0.010344 0.004066 0.018591 0.014569 0.058722 -0.005106
# 6 0.005437 0.003235 0.004327 -0.000275 -0.005106 0.029846
#
#
# Mechanical properties :
#
#
# Convention : Reuss Voigt Hill
#
# Bulk Modulus (GPa) = 33.70904 60.20205 46.95555
# Shear Modulus (GPa) = 22.72317 33.09307 27.90812
#
# Velocity S-wave (km/s) = 3.26980 3.94598 3.62370
# Velocity P-wave (km/s) = 5.48781 7.00621 6.29298
#
# Compressibility (1/GPa) = 0.02966563
#
# Stress axis : x y z
#
# Youngs Moduli (GPa) = 58.54502 104.61377 35.80335
#
# Poissons Ratio (x) = 0.39074 0.23028
# Poissons Ratio (y) = 0.21867 0.08183
# Poissons Ratio (z) = 0.37655 0.23909
#
# Static dielectric constant tensor:
#      x y z
#    x 1.781660 -0.008250 0.018480 
#    y -0.008250 1.785430 -0.002030 
#    z 0.018480 -0.002030 1.797030 
# 
# From -- ./inp_files/542660.got.cif
#   From: 2010.05.17/outbox.cif.g08.bks.cpg/sg2_272_cif.got.tgz:542660.got - 2010.06.03 11:33:40.
