data_PCOD9092229
_publ_section_title
;
Structure prediction by ZEFSAII (Michael W. Deem and Ramdas Pophale) SiO2 
 PCOD9092229
Probable space group: P -1
;
_chemical_formula_sum "Si O2"
_cell_formula_units_Z 14
_cell_length_a 9.547457
_cell_length_b 9.391078
_cell_length_c 13.662538
_cell_angle_alpha 32.728219
_cell_angle_beta 121.879939
_cell_angle_gamma 108.167999
_cell_volume 538.467883
_symmetry_space_group_name_H-M "P -1"
_symmetry_group_IT_number 2
_symmetry_cell_setting 'triclinic'
loop_
_space_group_symop_operation_xyz
x,y,z
-x,-y,-z
loop_
_atom_site_type_symbol
_atom_site_label
_atom_site_fract_x
_atom_site_fract_y
_atom_site_fract_z
Si Si1 0.892082 0.291622 0.333201
Si Si2 0.607091 0.728729 0.474342
Si Si3 0.075069 0.305913 0.754120
Si Si4 0.544882 0.282392 0.235200
Si Si5 0.325476 0.056305 0.836027
Si Si6 0.183865 0.544434 0.009323
Si Si7 0.241150 0.825944 0.224894
O O1 0.000606 0.413639 0.377302
O O2 0.719384 0.330070 0.312164
O O3 0.842632 0.444344 0.124168
O O4 0.000000 0.000000 0.500000
O O5 0.624426 0.838999 0.308412
O O6 0.408558 0.737631 0.403968
O O7 0.724145 0.416241 0.704585
O O8 0.624028 0.970251 0.409181
O O9 0.177573 0.287663 0.703593
O O10 0.925358 0.159228 0.781507
O O11 0.211335 0.111158 0.993411
O O12 0.500000 0.500000 0.000000
O O13 0.374577 0.321285 0.214496
O O14 0.237261 0.808866 0.921505
O O15 0.500000 0.000000 0.000000
O O16 0.000000 0.500000 0.000000
#
# Coordination Sequence:
#
# PCOD9092229 Si02
#       7
#     2   2   2   2   2   2   2
#     4  11  23  45  70 100 130 179 229 274 341 422
#     4  11  21  41  65  95 127 174 224 272 325 407
#     4  11  24  40  67  95 136 172 219 275 347 391
#     4  10  19  40  68  88 128 177 225 255 345 394
#     4  12  24  42  67 102 136 176 228 283 341 399
#     4  11  26  43  69  99 138 179 230 283 341 407
#     4  10  23  39  61  97 129 173 216 274 330 400
#
# _framework density 25.999690999999999
#
# number of rings (size 3 to 8) (size 9 to 14) (size 15 to 20)
#    0.000    1.143    4.286    3.429    6.000    0.571 
#    0.000    0.714    0.000    0.000    0.000    0.000 
#    0.000    0.000    0.000    0.000    0.000    0.000 
#
# Total GULP energy -78153.666509 kJ/mol
# GULP energy per Si atom -5582.404751 kJ/mol
# Density = 2.594051 g / cm^3
# Si number density = 25.999691 Si / 1000 Ang^3
#
#
#
# Elastic Constant Matrix: (Units=GPa)
#
#
# Indices 1 2 3 4 5 6 
#
# 1 166.2631 40.2131 20.1446 13.5788 31.4097 6.9430
# 2 40.2131 127.8066 26.6266 -16.0436 -8.0454 5.0035
# 3 20.1446 26.6266 63.9000 -7.1914 6.9600 -5.1959
# 4 13.5788 -16.0436 -7.1914 41.2845 3.3942 4.4158
# 5 31.4097 -8.0454 6.9600 3.3942 42.1120 4.3560
# 6 6.9430 5.0035 -5.1959 4.4158 4.3560 41.5701
#
#
#
# Elastic Compliance Matrix: (Units=1/GPa)
#
#
# Indices 1 2 3 4 5 6 
#
# 1 0.008472 -0.003329 -0.001001 -0.003714 -0.006483 -0.000065
# 2 -0.003329 0.010565 -0.003572 0.004400 0.004959 -0.002149
# 3 -0.001001 -0.003572 0.018310 0.002090 -0.003443 0.003025
# 4 -0.003714 0.004400 0.002090 0.027702 0.001315 -0.002728
# 5 -0.006483 0.004959 -0.003443 0.001315 0.030330 -0.003262
# 6 -0.000065 -0.002149 0.003025 -0.002728 -0.003262 0.025335
#
#
# Mechanical properties :
#
#
# Convention : Reuss Voigt Hill
#
# Bulk Modulus (GPa) = 46.42120 59.10425 52.76273
# Shear Modulus (GPa) = 34.79521 43.05902 38.92712
#
# Velocity S-wave (km/s) = 3.66224 4.07398 3.87358
# Velocity P-wave (km/s) = 5.98130 6.70162 6.35168
#
# Compressibility (1/GPa) = 0.02154188
#
# Stress axis : x y z
#
# Youngs Moduli (GPa) = 118.03806 94.65477 54.61558
#
# Poissons Ratio (x) = 0.31510 0.05466
# Poissons Ratio (y) = 0.39294 0.19511
# Poissons Ratio (z) = 0.11814 0.33815
#
# Static dielectric constant tensor:
#      x y z
#    x 2.059610 0.083810 -0.022520 
#    y 0.083810 2.107150 -0.033550 
#    z -0.022520 -0.033550 2.124510 
# 
# From -- ./inp_files/494347.got.cif
#   From: 2010.05.17/outbox.cif.g08.bks.cpg/sg2_248_cif.got.tgz:494347.got - 2010.06.03 11:33:40.
