data_PCOD9092855
_publ_section_title
;
Structure prediction by ZEFSAII (Michael W. Deem and Ramdas Pophale) SiO2 
 PCOD9092855
Probable space group: P -1
;
_chemical_formula_sum "Si O2"
_cell_formula_units_Z 16
_cell_length_a 17.298143
_cell_length_b 9.015507
_cell_length_c 10.523194
_cell_angle_alpha 96.374516
_cell_angle_beta 122.133336
_cell_angle_gamma 130.870442
_cell_volume 732.650034
_symmetry_space_group_name_H-M "P -1"
_symmetry_group_IT_number 2
_symmetry_cell_setting 'triclinic'
loop_
_space_group_symop_operation_xyz
x,y,z
-x,-y,-z
loop_
_atom_site_type_symbol
_atom_site_label
_atom_site_fract_x
_atom_site_fract_y
_atom_site_fract_z
Si Si1 0.203077 0.530180 0.635706
Si Si2 0.885805 0.465037 0.826768
Si Si3 0.107579 0.816318 0.811071
Si Si4 0.668581 0.150362 0.974781
Si Si5 0.582802 0.537577 0.814393
Si Si6 0.581374 0.984775 0.337466
Si Si7 0.194344 0.331591 0.186634
Si Si8 0.354445 0.503449 0.616864
O O1 0.281488 0.665191 0.854351
O O2 0.213589 0.373837 0.579834
O O3 0.011604 0.326777 0.428967
O O4 0.313842 0.792501 0.664121
O O5 0.836134 0.540569 0.872322
O O6 0.992986 0.685471 0.823807
O O7 0.714070 0.155207 0.586134
O O8 0.000000 0.500000 0.000000
O O9 0.170622 0.735706 0.886640
O O10 0.263805 0.148299 0.967755
O O11 0.573136 0.113804 0.780649
O O12 0.520045 0.823463 0.843669
O O13 0.501905 0.287989 0.796198
O O14 0.678132 0.589673 0.782694
O O15 0.422866 0.430927 0.648024
O O16 0.287248 0.464007 0.417545
O O17 0.000000 0.000000 0.000000
#
# Coordination Sequence:
#
# PCOD9092855 Si02
#       8
#     2   2   2   2   2   2   2   2
#     4  10  19  43  66  86 116 160 202 248 304 346
#     4  11  24  40  60  88 123 162 200 245 290 355
#     4  10  21  42  59  92 123 155 201 240 302 363
#     4  10  20  38  68  86 115 160 202 253 295 351
#     4  11  24  36  60  89 123 159 194 245 299 353
#     4  10  22  40  57  91 120 151 205 250 289 350
#     4  12  22  40  60  84 125 165 195 231 307 365
#     4  10  20  38  57  86 119 156 200 240 289 363
#
# _framework density 21.838531
#
# number of rings (size 3 to 8) (size 9 to 14) (size 15 to 20)
#    0.000    1.500    5.000    2.250    3.500    2.500 
#    0.000    6.250    0.000    0.000    0.000    0.000 
#    0.000    0.000    0.000    0.000    0.000    0.000 
#
# Total GULP energy -89099.095879 kJ/mol
# GULP energy per Si atom -5568.693492 kJ/mol
# Density = 2.178883 g / cm^3
# Si number density = 21.838531 Si / 1000 Ang^3
#
#
#
# Elastic Constant Matrix: (Units=GPa)
#
#
# Indices 1 2 3 4 5 6 
#
# 1 108.6114 20.9246 43.8450 -7.9237 19.8786 -39.1829
# 2 20.9246 68.2005 27.8806 12.9016 12.3426 -26.0749
# 3 43.8450 27.8806 133.2559 -5.4386 15.2627 -16.2076
# 4 -7.9237 12.9016 -5.4386 18.3754 -10.2716 9.2428
# 5 19.8786 12.3426 15.2627 -10.2716 35.1427 -9.5183
# 6 -39.1829 -26.0749 -16.2076 9.2428 -9.5183 37.0600
#
#
#
# Elastic Compliance Matrix: (Units=1/GPa)
#
#
# Indices 1 2 3 4 5 6 
#
# 1 0.023840 0.023560 -0.006925 -0.041022 -0.018781 0.044160
# 2 0.023560 0.081725 -0.012902 -0.125691 -0.047161 0.096002
# 3 -0.006925 -0.012902 0.010818 0.020002 0.005465 -0.015254
# 4 -0.041022 -0.125691 0.020002 0.265330 0.091311 -0.165780
# 5 -0.018781 -0.047161 0.005465 0.091311 0.064563 -0.056840
# 6 0.044160 0.096002 -0.015254 -0.165780 -0.056840 0.161295
#
#
# Mechanical properties :
#
#
# Convention : Reuss Voigt Hill
#
# Bulk Modulus (GPa) = 8.07454 55.04091 31.55773
# Shear Modulus (GPa) = 7.79559 32.61013 20.20286
#
# Velocity S-wave (km/s) = 1.89140 3.86844 3.04485
# Velocity P-wave (km/s) = 2.91123 6.72394 5.18105
#
# Compressibility (1/GPa) = 0.12384610
#
# Stress axis : x y z
#
# Youngs Moduli (GPa) = 41.94632 12.23617 92.44234
#
# Poissons Ratio (x) = -0.28828 0.64019
# Poissons Ratio (y) = -0.98824 1.19273
# Poissons Ratio (z) = 0.29049 0.15788
#
# Static dielectric constant tensor:
#      x y z
#    x 1.925780 0.003670 0.054370 
#    y 0.003670 1.810670 0.003280 
#    z 0.054370 0.003280 1.802570 
# 
# From -- ./inp_files/333405.got.cif
#   From: 2010.05.17/outbox.cif.g08.bks.cpg/sg2_167_cif.got.tgz:333405.got - 2010.06.03 11:33:40.
