data_PCOD9092885
_publ_section_title
;
Structure prediction by ZEFSAII (Michael W. Deem and Ramdas Pophale) SiO2 
 PCOD9092885
Probable space group: P -1
;
_chemical_formula_sum "Si O2"
_cell_formula_units_Z 10
_cell_length_a 8.658860
_cell_length_b 8.156628
_cell_length_c 11.314734
_cell_angle_alpha 64.629896
_cell_angle_beta 39.027505
_cell_angle_gamma 88.387586
_cell_volume 383.973936
_symmetry_space_group_name_H-M "P -1"
_symmetry_group_IT_number 2
_symmetry_cell_setting 'triclinic'
loop_
_space_group_symop_operation_xyz
x,y,z
-x,-y,-z
loop_
_atom_site_type_symbol
_atom_site_label
_atom_site_fract_x
_atom_site_fract_y
_atom_site_fract_z
Si Si1 0.627136 0.145871 0.996855
Si Si2 0.329076 0.553827 0.292247
Si Si3 0.359620 0.780485 0.441959
Si Si4 0.107445 0.062539 0.782250
Si Si5 0.125597 0.403712 0.045806
O O1 0.570089 0.324225 0.932120
O O2 0.953566 0.188761 0.794937
O O3 0.500000 0.000000 0.000000
O O4 0.457928 0.011902 0.255292
O O5 0.424430 0.676903 0.324291
O O6 0.000000 0.500000 0.500000
O O7 0.524037 0.450606 0.208576
O O8 0.031281 0.629219 0.725625
O O9 0.551215 0.809976 0.434144
O O10 0.992310 0.844718 0.844718
O O11 0.000000 0.000000 0.000000
O O12 0.000000 0.500000 0.000000
#
# Coordination Sequence:
#
# PCOD9092885 Si02
#       5
#     2   2   2   2   2
#     4   9  18  41  68  93 127 180 224 263 326 403
#     4  11  25  46  66  99 142 178 215 282 345 387
#     4  10  23  42  71  98 127 184 224 276 326 399
#     4  10  19  43  70  95 128 181 224 267 330 399
#     4  12  26  42  67 108 136 169 228 278 338 397
#
# _framework density 26.043436
#
# number of rings (size 3 to 8) (size 9 to 14) (size 15 to 20)
#    0.000    1.600    6.000    0.600    2.800    5.600 
#    0.000    0.000    0.000    0.000    0.000    0.000 
#    0.000    0.000    0.000    0.000    0.000    0.000 
#
# Total GULP energy -55705.718621 kJ/mol
# GULP energy per Si atom -5570.571862 kJ/mol
# Density = 2.598416 g / cm^3
# Si number density = 26.043436 Si / 1000 Ang^3
#
#
#
# Elastic Constant Matrix: (Units=GPa)
#
#
# Indices 1 2 3 4 5 6 
#
# 1 178.2890 35.6483 41.9598 0.0310 -12.0371 -28.4454
# 2 35.6483 80.2358 2.0494 8.5322 10.1167 -5.6812
# 3 41.9598 2.0494 124.4401 29.6678 -3.2785 -23.2766
# 4 0.0310 8.5322 29.6678 25.9933 -5.2834 -0.6628
# 5 -12.0371 10.1167 -3.2785 -5.2834 54.0842 -2.5231
# 6 -28.4454 -5.6812 -23.2766 -0.6628 -2.5231 59.6048
#
#
#
# Elastic Compliance Matrix: (Units=1/GPa)
#
#
# Indices 1 2 3 4 5 6 
#
# 1 0.007846 -0.004276 -0.003553 0.006120 0.003028 0.002145
# 2 -0.004276 0.016004 0.003626 -0.010329 -0.004707 0.000587
# 3 -0.003553 0.003626 0.014012 -0.017518 -0.002152 0.003836
# 4 0.006120 -0.010329 -0.017518 0.063427 0.008249 -0.003851
# 5 0.003028 -0.004707 -0.002152 0.008249 0.020772 0.001127
# 6 0.002145 0.000587 0.003836 -0.003851 0.001127 0.019360
#
#
# Mechanical properties :
#
#
# Convention : Reuss Voigt Hill
#
# Bulk Modulus (GPa) = 33.94831 60.25333 47.10082
# Shear Modulus (GPa) = 31.31982 48.15696 39.73839
#
# Velocity S-wave (km/s) = 3.47161 4.30478 3.91045
# Velocity P-wave (km/s) = 5.39750 6.92056 6.20593
#
# Compressibility (1/GPa) = 0.02945655
#
# Stress axis : x y z
#
# Youngs Moduli (GPa) = 127.45925 62.48552 71.36971
#
# Poissons Ratio (x) = 0.26717 0.25357
# Poissons Ratio (y) = 0.54498 -0.25882
# Poissons Ratio (z) = 0.45285 -0.22660
#
# Static dielectric constant tensor:
#      x y z
#    x 2.050900 -0.032910 -0.134460 
#    y -0.032910 2.164120 -0.146990 
#    z -0.134460 -0.146990 2.234650 
# 
# From -- ./inp_files/162401.got.cif
#   From: 2010.05.17/outbox.cif.g08.bks.cpg/sg2_82_cif.got.tgz:162401.got - 2010.06.03 11:33:40.
