data_PCOD9092641
_publ_section_title
;
Structure prediction by ZEFSAII (Michael W. Deem and Ramdas Pophale) SiO2 
 PCOD9092641
Probable space group: P -1
;
_chemical_formula_sum "Si O2"
_cell_formula_units_Z 16
_cell_length_a 14.443705
_cell_length_b 14.295056
_cell_length_c 15.450297
_cell_angle_alpha 28.266910
_cell_angle_beta 150.506860
_cell_angle_gamma 151.879212
_cell_volume 646.393146
_symmetry_space_group_name_H-M "P -1"
_symmetry_group_IT_number 2
_symmetry_cell_setting 'triclinic'
loop_
_space_group_symop_operation_xyz
x,y,z
-x,-y,-z
loop_
_atom_site_type_symbol
_atom_site_label
_atom_site_fract_x
_atom_site_fract_y
_atom_site_fract_z
Si Si1 0.431921 0.207180 0.951017
Si Si2 0.337928 0.440260 0.996233
Si Si3 0.695247 0.526922 0.757988
Si Si4 0.929362 0.506996 0.806815
Si Si5 0.729322 0.039334 0.684227
Si Si6 0.249370 0.974493 0.601324
Si Si7 0.968064 0.775865 0.365214
Si Si8 0.870057 0.337946 0.706398
O O1 0.544837 0.054914 0.183574
O O2 0.549182 0.406592 0.954611
O O3 0.495875 0.326264 0.811370
O O4 0.178008 0.104176 0.845164
O O5 0.256948 0.177839 0.157173
O O6 0.500000 0.500000 0.000000
O O7 0.122881 0.451135 0.795397
O O8 0.732527 0.459014 0.748202
O O9 0.702323 0.767965 0.562497
O O10 0.904000 0.552513 0.960304
O O11 0.862436 0.368526 0.776639
O O12 0.060686 0.776719 0.668718
O O13 0.752804 0.100445 0.754683
O O14 0.930326 0.227449 0.641079
O O15 0.500000 0.000000 0.500000
O O16 0.156966 0.892482 0.495681
O O17 0.803525 0.512863 0.469323
#
# Coordination Sequence:
#
# PCOD9092641 Si02
#       8
#     2   2   2   2   2   2   2   2
#     4  11  23  44  68 103 144 185 230 293 346 414
#     4  12  23  43  64  98 140 175 224 284 344 414
#     4  10  19  41  72 104 134 189 234 285 359 411
#     4   9  20  39  72 103 143 179 233 299 345 409
#     4  12  26  42  69 101 135 188 232 281 355 421
#     4  10  21  41  69 101 143 180 239 285 351 413
#     4  11  23  44  67 101 143 180 232 291 342 420
#     4  11  22  44  64 101 140 180 230 287 344 411
#
# _framework density 24.752738999999998
#
# number of rings (size 3 to 8) (size 9 to 14) (size 15 to 20)
#    0.000    1.250    3.750    4.125    0.000    0.000 
#    2.250    2.500    0.000   20.250    0.000    0.000 
#    0.000    0.000    0.000    0.000    0.000    0.000 
#
# Total GULP energy -89575.163208 kJ/mol
# GULP energy per Si atom -5598.447701 kJ/mol
# Density = 2.469640 g / cm^3
# Si number density = 24.752739 Si / 1000 Ang^3
#
#
#
# Elastic Constant Matrix: (Units=GPa)
#
#
# Indices 1 2 3 4 5 6 
#
# 1 179.8636 40.8123 51.9170 6.6714 -4.5744 0.9537
# 2 40.8123 67.0034 41.1726 -4.8487 3.4270 -0.4391
# 3 51.9170 41.1726 137.8101 -17.0899 14.2673 -4.8777
# 4 6.6714 -4.8487 -17.0899 33.4827 -0.6149 14.9879
# 5 -4.5744 3.4270 14.2673 -0.6149 36.3384 -0.3755
# 6 0.9537 -0.4391 -4.8777 14.9879 -0.3755 29.2527
#
#
#
# Elastic Compliance Matrix: (Units=1/GPa)
#
#
# Indices 1 2 3 4 5 6 
#
# 1 0.007158 -0.003284 -0.002333 -0.003589 0.002079 0.001194
# 2 -0.003284 0.019807 -0.004447 0.001813 -0.000518 -0.001273
# 3 -0.002333 -0.004447 0.010529 0.005652 -0.003925 -0.001181
# 4 -0.003589 0.001813 0.005652 0.043097 -0.002330 -0.021024
# 5 0.002079 -0.000518 -0.003925 -0.002330 0.029340 0.000840
# 6 0.001194 -0.001273 -0.001181 -0.021024 0.000840 0.044713
#
#
# Mechanical properties :
#
#
# Convention : Reuss Voigt Hill
#
# Bulk Modulus (GPa) = 57.58641 72.49789 65.04215
# Shear Modulus (GPa) = 27.69128 36.53312 32.11220
#
# Velocity S-wave (km/s) = 3.34835 3.84594 3.60574
# Velocity P-wave (km/s) = 6.18577 7.00529 6.60825
#
# Compressibility (1/GPa) = 0.01736521
#
# Stress axis : x y z
#
# Youngs Moduli (GPa) = 139.69885 50.48692 94.97167
#
# Poissons Ratio (x) = 0.16582 0.22161
# Poissons Ratio (y) = 0.45884 0.42232
# Poissons Ratio (z) = 0.32598 0.22451
#
# Static dielectric constant tensor:
#      x y z
#    x -0.946860 -2.550310 -0.249790 
#    y -2.550310 -0.224770 -0.413970 
#    z -0.249790 -0.413970 2.139090 
# 
# From -- ./inp_files/534194.got.cif
#   From: 2010.05.17/outbox.cif.g08.bks.cpg/sg2_268_cif.got.tgz:534194.got - 2010.06.03 11:33:40.
