data_PCOD9092543
_publ_section_title
;
Structure prediction by ZEFSAII (Michael W. Deem and Ramdas Pophale) SiO2 
 PCOD9092543
Probable space group: P -1
;
_chemical_formula_sum "Si O2"
_cell_formula_units_Z 16
_cell_length_a 9.902442
_cell_length_b 7.013981
_cell_length_c 14.613055
_cell_angle_alpha 117.144041
_cell_angle_beta 56.117767
_cell_angle_gamma 123.585317
_cell_volume 685.715965
_symmetry_space_group_name_H-M "P -1"
_symmetry_group_IT_number 2
_symmetry_cell_setting 'triclinic'
loop_
_space_group_symop_operation_xyz
x,y,z
-x,-y,-z
loop_
_atom_site_type_symbol
_atom_site_label
_atom_site_fract_x
_atom_site_fract_y
_atom_site_fract_z
Si Si1 0.429770 0.744410 0.427865
Si Si2 0.812368 0.165988 0.599440
Si Si3 0.194707 0.011046 0.944591
Si Si4 0.881260 0.491548 0.189963
Si Si5 0.386299 0.235866 0.079496
Si Si6 0.213790 0.338060 0.548649
Si Si7 0.641882 0.591121 0.172792
Si Si8 0.276266 0.647865 0.146630
O O1 0.261726 0.709159 0.419299
O O2 0.367574 0.548045 0.485657
O O3 0.576506 0.721109 0.301738
O O4 0.500000 0.000000 0.500000
O O5 0.726001 0.182476 0.733273
O O6 0.023449 0.289702 0.562441
O O7 0.763809 0.903175 0.525832
O O8 0.321578 0.253942 0.899594
O O9 0.206456 0.790059 0.842303
O O10 0.237484 0.012773 0.037197
O O11 0.000000 0.000000 0.000000
O O12 0.807909 0.591626 0.324320
O O13 0.819308 0.573370 0.138371
O O14 0.090164 0.570526 0.146925
O O15 0.481180 0.334539 0.161778
O O16 0.300636 0.424558 0.131791
O O17 0.558714 0.246114 0.960263
#
# Coordination Sequence:
#
# PCOD9092543 Si02
#       8
#     2   2   2   2   2   2   2   2
#     4  12  24  40  66  96 134 178 222 277 331 399
#     4  10  21  43  69  93 128 181 219 278 330 399
#     4  12  23  42  69  94 131 174 215 272 340 389
#     4  11  25  42  65  99 131 171 216 279 324 398
#     4  11  20  42  65  95 124 170 215 265 326 399
#     4  10  24  43  66  98 134 172 231 272 337 391
#     4  12  25  42  65  95 134 172 223 268 332 397
#     4  10  19  41  68  89 132 167 212 270 332 384
#
# _framework density 23.333278
#
# number of rings (size 3 to 8) (size 9 to 14) (size 15 to 20)
#    0.000    1.000    5.000    1.875    0.000    6.500 
#    0.000    7.500    0.000    0.000    0.000    0.000 
#    0.000    0.000    0.000    0.000    0.000    0.000 
#
# Total GULP energy -89447.662010 kJ/mol
# GULP energy per Si atom -5590.478876 kJ/mol
# Density = 2.328017 g / cm^3
# Si number density = 23.333278 Si / 1000 Ang^3
#
#
#
# Elastic Constant Matrix: (Units=GPa)
#
#
# Indices 1 2 3 4 5 6 
#
# 1 149.8408 18.0389 21.7242 10.3750 4.1553 6.8895
# 2 18.0389 78.2657 36.7065 18.1264 7.6715 3.8663
# 3 21.7242 36.7065 116.1246 40.0221 -9.2450 4.4983
# 4 10.3750 18.1264 40.0221 39.9203 6.7360 8.2914
# 5 4.1553 7.6715 -9.2450 6.7360 36.1153 7.6837
# 6 6.8895 3.8663 4.4983 8.2914 7.6837 27.8558
#
#
#
# Elastic Compliance Matrix: (Units=1/GPa)
#
#
# Indices 1 2 3 4 5 6 
#
# 1 0.007015 -0.001038 -0.000974 -0.000016 -0.000562 -0.001274
# 2 -0.001038 0.015973 -0.004607 -0.001749 -0.004227 0.000470
# 3 -0.000974 -0.004607 0.016129 -0.015297 0.007936 0.000640
# 4 -0.000016 -0.001749 -0.015297 0.044509 -0.010202 -0.007717
# 5 -0.000562 -0.004227 0.007936 -0.010202 0.034057 -0.006913
# 6 -0.001274 0.000470 0.000640 -0.007717 -0.006913 0.040250
#
#
# Mechanical properties :
#
#
# Convention : Reuss Voigt Hill
#
# Bulk Modulus (GPa) = 38.64149 55.24116 46.94133
# Shear Modulus (GPa) = 27.80908 38.62904 33.21906
#
# Velocity S-wave (km/s) = 3.45602 4.07324 3.77726
# Velocity P-wave (km/s) = 5.70281 6.77111 6.25979
#
# Compressibility (1/GPa) = 0.02587892
#
# Stress axis : x y z
#
# Youngs Moduli (GPa) = 142.54690 62.60583 61.99983
#
# Poissons Ratio (x) = 0.06501 0.06040
# Poissons Ratio (y) = 0.14802 0.28561
# Poissons Ratio (z) = 0.13886 0.28840
#
# Static dielectric constant tensor:
#      x y z
#    x 1.908390 0.007610 0.039600 
#    y 0.007610 1.947890 0.020650 
#    z 0.039600 0.020650 1.841460 
# 
# From -- ./inp_files/225086.got.cif
#   From: 2010.05.17/outbox.cif.g08.bks.cpg/sg2_113_cif.got.tgz:225086.got - 2010.06.03 11:33:40.
