data_PCOD9092953
_publ_section_title
;
Structure prediction by ZEFSAII (Michael W. Deem and Ramdas Pophale) SiO2 
 PCOD9092953
Probable space group: P -1
;
_chemical_formula_sum "Si O2"
_cell_formula_units_Z 14
_cell_length_a 6.731375
_cell_length_b 12.139953
_cell_length_c 9.973103
_cell_angle_alpha 110.229822
_cell_angle_beta 48.205638
_cell_angle_gamma 111.470090
_cell_volume 559.318579
_symmetry_space_group_name_H-M "P -1"
_symmetry_group_IT_number 2
_symmetry_cell_setting 'triclinic'
loop_
_space_group_symop_operation_xyz
x,y,z
-x,-y,-z
loop_
_atom_site_type_symbol
_atom_site_label
_atom_site_fract_x
_atom_site_fract_y
_atom_site_fract_z
Si Si1 0.749066 0.171837 0.893913
Si Si2 0.314456 0.288220 0.549547
Si Si3 0.499982 0.664522 0.230476
Si Si4 0.350700 0.867644 0.547839
Si Si5 0.943923 0.531252 0.387666
Si Si6 0.064337 0.614453 0.918296
Si Si7 0.157588 0.059707 0.083505
O O1 0.016561 0.220019 0.706125
O O2 0.802459 0.051162 0.888491
O O3 0.451365 0.137050 0.950228
O O4 0.743282 0.277560 0.047955
O O5 0.440168 0.371795 0.655961
O O6 0.498553 0.187580 0.420764
O O7 0.241511 0.369844 0.498818
O O8 0.255693 0.586609 0.226271
O O9 0.788679 0.665066 0.036239
O O10 0.401590 0.785822 0.365642
O O11 0.500000 0.000000 0.500000
O O12 0.040721 0.866185 0.721548
O O13 0.000000 0.500000 0.500000
O O14 0.841551 0.427635 0.283935
O O15 0.000000 0.500000 0.000000
O O16 0.000000 0.000000 0.000000
#
# Coordination Sequence:
#
# PCOD9092953 Si02
#       7
#     2   2   2   2   2   2   2
#     4  10  22  44  75 107 148 201 255 298 379 473
#     4   9  21  45  71 103 146 197 251 298 379 463
#     4   9  22  42  69 103 141 193 259 293 377 463
#     4  10  19  45  73 103 152 194 245 310 380 456
#     4  12  25  44  72 111 150 194 255 330 380 437
#     4  11  20  48  76 103 146 207 255 308 381 462
#     4  11  24  44  70 116 153 190 245 321 386 441
#
# _framework density 25.030459
#
# number of rings (size 3 to 8) (size 9 to 14) (size 15 to 20)
#    0.857    0.857    4.286    0.429    0.000    5.143 
#   10.286    1.429    0.000    0.000    0.000    0.000 
#    0.000    0.000    0.000    0.000    0.000    0.000 
#
# Total GULP energy -78296.640028 kJ/mol
# GULP energy per Si atom -5592.617145 kJ/mol
# Density = 2.497349 g / cm^3
# Si number density = 25.030459 Si / 1000 Ang^3
#
#
#
# Elastic Constant Matrix: (Units=GPa)
#
#
# Indices 1 2 3 4 5 6 
#
# 1 178.8086 62.9833 32.0865 5.7577 -20.2108 -6.3718
# 2 62.9833 129.6820 53.3889 10.5883 3.1941 -24.7214
# 3 32.0865 53.3889 97.5028 13.1254 -8.2671 -16.6454
# 4 5.7577 10.5883 13.1254 35.2298 -5.2115 3.7478
# 5 -20.2108 3.1941 -8.2671 -5.2115 33.8239 -2.4659
# 6 -6.3718 -24.7214 -16.6454 3.7478 -2.4659 49.3381
#
#
#
# Elastic Compliance Matrix: (Units=1/GPa)
#
#
# Indices 1 2 3 4 5 6 
#
# 1 0.007499 -0.003929 -0.000164 0.000831 0.004876 -0.000875
# 2 -0.003929 0.012835 -0.005109 -0.002476 -0.004888 0.004144
# 3 -0.000164 -0.005109 0.014347 -0.003547 0.003542 0.002706
# 4 0.000831 -0.002476 -0.003547 0.031441 0.004380 -0.004499
# 5 0.004876 -0.004888 0.003542 0.004380 0.034537 0.000769
# 6 -0.000875 0.004144 0.002706 -0.004499 0.000769 0.023525
#
#
# Mechanical properties :
#
#
# Convention : Reuss Voigt Hill
#
# Bulk Modulus (GPa) = 61.43512 78.10119 69.76815
# Shear Modulus (GPa) = 33.78028 40.84734 37.31381
#
# Velocity S-wave (km/s) = 3.67763 4.04407 3.86519
# Velocity P-wave (km/s) = 6.52922 7.28534 6.91762
#
# Compressibility (1/GPa) = 0.01627734
#
# Stress axis : x y z
#
# Youngs Moduli (GPa) = 133.34474 77.90960 69.70010
#
# Poissons Ratio (x) = 0.30614 0.01144
# Poissons Ratio (y) = 0.52398 0.35608
# Poissons Ratio (z) = 0.02188 0.39802
#
# Static dielectric constant tensor:
#      x y z
#    x 1.997920 0.030860 0.004190 
#    y 0.030860 2.018770 -0.081390 
#    z 0.004190 -0.081390 2.077010 
# 
# From -- ./inp_files/135256.got.cif
#   From: 2010.05.17/outbox.cif.g08.bks.cpg/sg2_68_cif.got.tgz:135256.got - 2010.06.03 11:33:40.
