data_PCOD9092786
_publ_section_title
;
Structure prediction by ZEFSAII (Michael W. Deem and Ramdas Pophale) SiO2 
 PCOD9092786
Probable space group: P -1
;
_chemical_formula_sum "Si O2"
_cell_formula_units_Z 16
_cell_length_a 9.370719
_cell_length_b 12.030241
_cell_length_c 9.757024
_cell_angle_alpha 92.830544
_cell_angle_beta 52.752320
_cell_angle_gamma 60.676764
_cell_volume 661.881771
_symmetry_space_group_name_H-M "P -1"
_symmetry_group_IT_number 2
_symmetry_cell_setting 'triclinic'
loop_
_space_group_symop_operation_xyz
x,y,z
-x,-y,-z
loop_
_atom_site_type_symbol
_atom_site_label
_atom_site_fract_x
_atom_site_fract_y
_atom_site_fract_z
Si Si1 0.896990 0.735791 0.854724
Si Si2 0.418806 0.281109 0.604163
Si Si3 0.524555 0.964385 0.263546
Si Si4 0.061933 0.535586 0.241861
Si Si5 0.155542 0.976907 0.783214
Si Si6 0.738895 0.432543 0.133577
Si Si7 0.005757 0.884117 0.401674
Si Si8 0.771001 0.397227 0.604759
O O1 0.056873 0.694037 0.893999
O O2 0.057816 0.695256 0.627865
O O3 0.849181 0.623124 0.860361
O O4 0.656384 0.898164 0.037351
O O5 0.425814 0.170139 0.690261
O O6 0.335393 0.419580 0.747814
O O7 0.220209 0.349634 0.607770
O O8 0.680381 0.186130 0.386138
O O9 0.651679 0.010954 0.276055
O O10 0.240711 0.083309 0.427039
O O11 0.134169 0.544610 0.349686
O O12 0.162875 0.581618 0.074601
O O13 0.999630 0.086393 0.754742
O O14 0.000000 0.000000 0.000000
O O15 0.494595 0.465552 0.275914
O O16 0.218990 0.719926 0.317881
O O17 0.000000 0.000000 0.500000
#
# Coordination Sequence:
#
# PCOD9092786 Si02
#       8
#     2   2   2   2   2   2   2   2
#     4  11  24  41  68  95 130 178 226 260 330 399
#     4  10  19  42  69  92 127 171 223 265 326 397
#     4  11  21  43  70  93 132 179 223 266 330 402
#     4  11  21  43  65  99 123 176 218 272 335 388
#     4  11  25  43  70 101 127 176 232 273 323 403
#     4  11  22  42  69  93 128 178 222 267 325 397
#     4  11  26  46  67  99 136 177 219 276 343 389
#     4  12  25  41  63  98 140 165 214 286 332 381
#
# _framework density 24.173501000000002
#
# number of rings (size 3 to 8) (size 9 to 14) (size 15 to 20)
#    0.000    1.000    2.500    6.375    3.500    0.500 
#    2.250    0.000    0.000    0.000    0.000    0.000 
#    0.000    0.000    0.000    0.000    0.000    0.000 
#
# Total GULP energy -89660.218815 kJ/mol
# GULP energy per Si atom -5603.763676 kJ/mol
# Density = 2.411848 g / cm^3
# Si number density = 24.173501 Si / 1000 Ang^3
#
#
#
# Elastic Constant Matrix: (Units=GPa)
#
#
# Indices 1 2 3 4 5 6 
#
# 1 121.9086 13.7019 15.9190 -15.5023 7.5797 -6.7099
# 2 13.7019 44.0456 11.9025 -0.4513 2.5563 -6.0295
# 3 15.9190 11.9025 140.6158 -26.0682 1.6149 -14.9032
# 4 -15.5023 -0.4513 -26.0682 31.6034 1.6665 2.6003
# 5 7.5797 2.5563 1.6149 1.6665 24.8776 2.5030
# 6 -6.7099 -6.0295 -14.9032 2.6003 2.5030 27.2142
#
#
#
# Elastic Compliance Matrix: (Units=1/GPa)
#
#
# Indices 1 2 3 4 5 6 
#
# 1 0.009347 -0.002514 0.000259 0.004785 -0.003100 0.001718
# 2 -0.002514 0.024644 -0.001814 -0.002629 -0.001903 0.004273
# 3 0.000259 -0.001814 0.009031 0.007291 -0.001373 0.004037
# 4 0.004785 -0.002629 0.007291 0.040105 -0.004465 0.001169
# 5 -0.003100 -0.001903 -0.001373 -0.004465 0.042268 -0.005399
# 6 0.001718 0.004273 0.004037 0.001169 -0.005399 0.040712
#
#
# Mechanical properties :
#
#
# Convention : Reuss Voigt Hill
#
# Bulk Modulus (GPa) = 28.66503 43.29076 35.97789
# Shear Modulus (GPa) = 26.90005 34.40882 30.65443
#
# Velocity S-wave (km/s) = 3.33947 3.77690 3.56490
# Velocity P-wave (km/s) = 5.17235 6.08007 5.64449
#
# Compressibility (1/GPa) = 0.03488571
#
# Stress axis : x y z
#
# Youngs Moduli (GPa) = 106.98247 40.57717 110.72901
#
# Poissons Ratio (x) = 0.10200 -0.02872
# Poissons Ratio (y) = 0.26894 0.20087
# Poissons Ratio (z) = -0.02775 0.07361
#
# Static dielectric constant tensor:
#      x y z
#    x 1.918840 0.025420 -0.020820 
#    y 0.025420 1.925840 -0.010800 
#    z -0.020820 -0.010800 1.935320 
# 
# From -- ./inp_files/178237.got.cif
#   From: 2010.05.17/outbox.cif.g08.bks.cpg/sg2_90_cif.got.tgz:178237.got - 2010.06.03 11:33:40.
