data_PCOD9092360
_publ_section_title
;
Structure prediction by ZEFSAII (Michael W. Deem and Ramdas Pophale) SiO2 
 PCOD9092360
Probable space group: P -1
;
_chemical_formula_sum "Si O2"
_cell_formula_units_Z 12
_cell_length_a 7.517479
_cell_length_b 9.974750
_cell_length_c 7.169242
_cell_angle_alpha 71.517355
_cell_angle_beta 121.670607
_cell_angle_gamma 114.994864
_cell_volume 411.510718
_symmetry_space_group_name_H-M "P -1"
_symmetry_group_IT_number 2
_symmetry_cell_setting 'triclinic'
loop_
_space_group_symop_operation_xyz
x,y,z
-x,-y,-z
loop_
_atom_site_type_symbol
_atom_site_label
_atom_site_fract_x
_atom_site_fract_y
_atom_site_fract_z
Si Si1 0.163418 0.850283 0.637105
Si Si2 0.824653 0.670266 0.037361
Si Si3 0.256473 0.578459 0.660523
Si Si4 0.680167 0.167904 0.864170
Si Si5 0.311683 0.324702 0.622541
Si Si6 0.215250 0.050449 0.233869
O O1 0.914421 0.740716 0.587141
O O2 0.842077 0.018063 0.562457
O O3 0.276282 0.747293 0.628279
O O4 0.279100 0.888518 0.883416
O O5 0.723614 0.492840 0.091972
O O6 0.782031 0.722606 0.197927
O O7 0.081976 0.714911 0.113055
O O8 0.717806 0.770994 0.811978
O O9 0.377379 0.504408 0.608366
O O10 0.000000 0.500000 0.500000
O O11 0.497597 0.249574 0.723961
O O12 0.635003 0.033291 0.750942
O O13 0.000000 0.000000 0.000000
#
# Coordination Sequence:
#
# PCOD9092360 Si02
#       6
#     2   2   2   2   2   2
#     4  11  21  40  65  88 121 158 198 249 296 351
#     4   9  20  41  60  84 131 152 190 262 288 342
#     4   8  16  38  62  80 126 156 185 257 294 333
#     4  11  22  37  66  91 113 166 198 236 310 354
#     4   9  20  41  60  89 122 156 194 253 292 348
#     4  10  19  41  60  86 130 151 191 263 288 341
#
# _framework density 29.160847
#
# number of rings (size 3 to 8) (size 9 to 14) (size 15 to 20)
#    1.000    1.333    3.333    0.000    0.000    4.667 
#    3.000    8.333    0.000    3.000    0.000    0.000 
#    0.000    0.000    0.000    0.000    0.000    0.000 
#
# Total GULP energy -67224.501073 kJ/mol
# GULP energy per Si atom -5602.041756 kJ/mol
# Density = 2.909448 g / cm^3
# Si number density = 29.160847 Si / 1000 Ang^3
#
#
#
# Elastic Constant Matrix: (Units=GPa)
#
#
# Indices 1 2 3 4 5 6 
#
# 1 126.2864 34.5139 57.6805 -5.6690 23.1574 -50.2995
# 2 34.5139 194.6144 69.1086 -26.5495 -1.5406 -20.4885
# 3 57.6805 69.1086 165.0727 -6.2805 -6.6111 5.3246
# 4 -5.6690 -26.5495 -6.2805 58.2175 4.7193 0.9625
# 5 23.1574 -1.5406 -6.6111 4.7193 73.2372 -12.6263
# 6 -50.2995 -20.4885 5.3246 0.9625 -12.6263 64.3705
#
#
#
# Elastic Compliance Matrix: (Units=1/GPa)
#
#
# Indices 1 2 3 4 5 6 
#
# 1 0.016763 0.001000 -0.006797 0.001437 -0.003704 0.013232
# 2 0.001000 0.006813 -0.003200 0.002815 -0.000100 0.003153
# 3 -0.006797 -0.003200 0.010026 -0.001081 0.001889 -0.006772
# 4 0.001437 0.002815 -0.001081 0.018574 -0.001422 0.001551
# 5 -0.003704 -0.000100 0.001889 -0.001422 0.015067 -0.000106
# 6 0.013232 0.003153 -0.006772 0.001551 -0.000106 0.027394
#
#
# Mechanical properties :
#
#
# Convention : Reuss Voigt Hill
#
# Bulk Modulus (GPa) = 64.06900 89.84215 76.95558
# Shear Modulus (GPa) = 42.43291 60.80974 51.62133
#
# Velocity S-wave (km/s) = 3.81876 4.57149 4.21197
# Velocity P-wave (km/s) = 6.43914 7.66425 7.07825
#
# Compressibility (1/GPa) = 0.01560817
#
# Stress axis : x y z
#
# Youngs Moduli (GPa) = 59.65374 146.78750 99.74348
#
# Poissons Ratio (x) = -0.14684 0.67794
# Poissons Ratio (y) = -0.05968 0.31921
# Poissons Ratio (z) = 0.40546 0.46976
#
# Static dielectric constant tensor:
#      x y z
#    x 2.351660 0.079070 0.015410 
#    y 0.079070 2.307990 -0.041630 
#    z 0.015410 -0.041630 2.338920 
# 
# From -- ./inp_files/170842.got.cif
#   From: 2010.05.17/outbox.cif.g08.bks.cpg/sg2_86_cif.got.tgz:170842.got - 2010.06.03 11:33:40.
