data_PCOD9092661
_publ_section_title
;
Structure prediction by ZEFSAII (Michael W. Deem and Ramdas Pophale) SiO2 
 PCOD9092661
Probable space group: P -1
;
_chemical_formula_sum "Si O2"
_cell_formula_units_Z 14
_cell_length_a 8.785860
_cell_length_b 7.585012
_cell_length_c 11.578509
_cell_angle_alpha 52.263211
_cell_angle_beta 97.615041
_cell_angle_gamma 77.086540
_cell_volume 557.296903
_symmetry_space_group_name_H-M "P -1"
_symmetry_group_IT_number 2
_symmetry_cell_setting 'triclinic'
loop_
_space_group_symop_operation_xyz
x,y,z
-x,-y,-z
loop_
_atom_site_type_symbol
_atom_site_label
_atom_site_fract_x
_atom_site_fract_y
_atom_site_fract_z
Si Si1 0.616386 0.587958 0.744883
Si Si2 0.117285 0.664499 0.666039
Si Si3 0.864720 0.980320 0.663254
Si Si4 0.633765 0.238885 0.166816
Si Si5 0.413913 0.233193 0.821113
Si Si6 0.099325 0.855293 0.954412
Si Si7 0.485171 0.243870 0.570122
O O1 0.493690 0.789745 0.738271
O O2 0.517010 0.407130 0.782265
O O3 0.627016 0.697762 0.578104
O O4 0.792322 0.419604 0.884711
O O5 0.109251 0.798156 0.490029
O O6 0.225221 0.743998 0.738735
O O7 0.223583 0.383510 0.776789
O O8 0.939663 0.762641 0.667675
O O9 0.671341 0.071986 0.626456
O O10 0.956972 0.903541 0.824921
O O11 0.751756 0.105290 0.122287
O O12 0.500000 0.500000 0.000000
O O13 0.421908 0.174659 0.710402
O O14 0.500000 0.000000 0.000000
O O15 0.000000 0.000000 0.000000
O O16 0.500000 0.500000 0.500000
#
# Coordination Sequence:
#
# PCOD9092661 Si02
#       7
#     2   2   2   2   2   2   2
#     4   9  17  31  46  70  95 123 164 195 235 289
#     4   9  17  29  47  72  99 125 158 195 249 284
#     4  10  17  29  49  76 101 121 153 209 246 282
#     4   8  14  26  42  65  96 121 148 191 236 280
#     4  10  19  31  49  71  98 131 164 197 237 288
#     4  10  18  24  43  76 102 119 149 203 254 276
#     4  10  16  29  49  71  94 122 162 204 231 278
#
# _framework density 25.121258999999998
#
# number of rings (size 3 to 8) (size 9 to 14) (size 15 to 20)
#    0.000    2.571    4.286    1.714    0.000    0.000 
#    0.000    0.714    0.000    0.857    0.000   34.000 
#    0.000    0.000    0.000    0.000    0.000    0.000 
#
# Total GULP energy -78134.876558 kJ/mol
# GULP energy per Si atom -5581.062611 kJ/mol
# Density = 2.506408 g / cm^3
# Si number density = 25.121259 Si / 1000 Ang^3
#
#
#
# Elastic Constant Matrix: (Units=GPa)
#
#
# Indices 1 2 3 4 5 6 
#
# 1 91.5927 52.3700 57.0813 -2.7535 8.8463 -21.2702
# 2 52.3700 205.8604 71.4997 12.6524 -2.1631 -47.9081
# 3 57.0813 71.4997 209.6530 21.5335 15.3868 -19.2023
# 4 -2.7535 12.6524 21.5335 49.3149 -9.9700 7.8868
# 5 8.8463 -2.1631 15.3868 -9.9700 47.9035 4.3523
# 6 -21.2702 -47.9081 -19.2023 7.8868 4.3523 36.7679
#
#
#
# Elastic Compliance Matrix: (Units=1/GPa)
#
#
# Indices 1 2 3 4 5 6 
#
# 1 0.015226 -0.001802 -0.003101 0.001498 -0.002018 0.004758
# 2 -0.001802 0.008171 -0.000988 -0.003472 -0.000603 0.009905
# 3 -0.003101 -0.000988 0.006627 -0.003541 -0.002468 0.001431
# 4 0.001498 -0.003472 -0.003541 0.026178 0.007241 -0.011979
# 5 -0.002018 -0.000603 -0.002468 0.007241 0.024216 -0.007662
# 6 0.004758 0.009905 0.001431 -0.011979 -0.007662 0.047080
#
#
# Mechanical properties :
#
#
# Convention : Reuss Voigt Hill
#
# Bulk Modulus (GPa) = 54.81964 96.55645 75.68805
# Shear Modulus (GPa) = 34.39720 48.54092 41.46906
#
# Velocity S-wave (km/s) = 3.70435 4.40052 4.06736
# Velocity P-wave (km/s) = 6.33764 8.02116 7.22858
#
# Compressibility (1/GPa) = 0.01824164
#
# Stress axis : x y z
#
# Youngs Moduli (GPa) = 65.67879 122.37816 150.90082
#
# Poissons Ratio (x) = 0.22058 0.46790
# Poissons Ratio (y) = 0.11838 0.14909
# Poissons Ratio (z) = 0.20365 0.12091
#
# Static dielectric constant tensor:
#      x y z
#    x 2.237210 0.038910 -0.082790 
#    y 0.038910 2.155740 -0.086850 
#    z -0.082790 -0.086850 2.032650 
# 
# From -- ./inp_files/389567.got.cif
#   From: 2010.05.17/outbox.cif.g08.bks.cpg/sg2_195_cif.got.tgz:389567.got - 2010.06.03 11:33:40.
