data_PCOD9092308
_publ_section_title
;
Structure prediction by ZEFSAII (Michael W. Deem and Ramdas Pophale) SiO2 
 PCOD9092308
Probable space group: P -1
;
_chemical_formula_sum "Si O2"
_cell_formula_units_Z 14
_cell_length_a 8.550451
_cell_length_b 18.722398
_cell_length_c 5.726642
_cell_angle_alpha 124.964837
_cell_angle_beta 53.045116
_cell_angle_gamma 131.026087
_cell_volume 527.899775
_symmetry_space_group_name_H-M "P -1"
_symmetry_group_IT_number 2
_symmetry_cell_setting 'triclinic'
loop_
_space_group_symop_operation_xyz
x,y,z
-x,-y,-z
loop_
_atom_site_type_symbol
_atom_site_label
_atom_site_fract_x
_atom_site_fract_y
_atom_site_fract_z
Si Si1 0.237854 0.433137 0.873771
Si Si2 0.969295 0.214066 0.735659
Si Si3 0.260089 0.497678 0.477318
Si Si4 0.246271 0.987331 0.232368
Si Si5 0.728240 0.077695 0.315542
Si Si6 0.569803 0.270729 0.208974
Si Si7 0.439715 0.177588 0.653906
O O1 0.144998 0.441252 0.716386
O O2 0.503234 0.504014 0.752087
O O3 0.182717 0.319509 0.740846
O O4 0.158630 0.459489 0.238404
O O5 0.917972 0.128716 0.809010
O O6 0.934992 0.148441 0.416578
O O7 0.764924 0.239092 0.973774
O O8 0.321093 0.611032 0.670669
O O9 0.249649 0.065815 0.552740
O O10 0.215738 0.000169 0.015324
O O11 0.500000 0.000000 0.000000
O O12 0.654276 0.158172 0.437202
O O13 0.500000 0.000000 0.500000
O O14 0.458884 0.233962 0.496988
O O15 0.442992 0.228045 0.993326
#
# Coordination Sequence:
#
# PCOD9092308 Si02
#       7
#     2   2   2   2   2   2   2
#     4  10  24  42  64  80 107 148 197 234 281 345
#     4  11  21  31  57  91 112 145 192 234 270 328
#     4  10  23  46  60  78 110 153 187 237 295 335
#     4  10  16  30  48  81 123 149 177 216 274 335
#     4  10  16  29  47  80 122 152 177 220 270 328
#     4  11  21  34  59  85 114 147 184 233 287 331
#     4  10  19  30  52  86 116 154 181 215 275 341
#
# _framework density 26.520184
#
# number of rings (size 3 to 8) (size 9 to 14) (size 15 to 20)
#    0.000    1.714    5.714    1.714    2.000    1.143 
#    0.000    0.000    0.000    1.714    0.000    0.000 
#    0.000    0.000    0.000    0.000    0.000    0.000 
#
# Total GULP energy -77958.825583 kJ/mol
# GULP energy per Si atom -5568.487542 kJ/mol
# Density = 2.645982 g / cm^3
# Si number density = 26.520184 Si / 1000 Ang^3
#
#
#
# Elastic Constant Matrix: (Units=GPa)
#
#
# Indices 1 2 3 4 5 6 
#
# 1 45.1433 27.6344 84.1664 -13.2602 -20.1430 -11.8754
# 2 27.6344 144.6871 57.2102 2.8531 35.5686 -15.5510
# 3 84.1664 57.2102 157.0522 15.0023 80.2971 -3.6578
# 4 -13.2602 2.8531 15.0023 46.2857 7.6320 5.4516
# 5 -20.1430 35.5686 80.2971 7.6320 35.6941 -13.4256
# 6 -11.8754 -15.5510 -3.6578 5.4516 -13.4256 40.7658
#
#
#
# Elastic Compliance Matrix: (Units=1/GPa)
#
#
# Indices 1 2 3 4 5 6 
#
# 1 0.002113 0.000425 0.006517 0.001535 -0.015734 -0.004025
# 2 0.000425 0.008455 -0.002791 0.000339 -0.000949 0.002741
# 3 0.006517 -0.002791 -0.000136 0.000370 0.007963 0.003395
# 4 0.001535 0.000339 0.000370 0.023676 -0.007223 -0.004935
# 5 -0.015734 -0.000949 0.007963 -0.007223 0.002837 -0.002331
# 6 -0.004025 0.002741 0.003395 -0.004935 -0.002331 0.024600
#
#
# Mechanical properties :
#
#
# Convention : Reuss Voigt Hill
#
# Bulk Modulus (GPa) = 53.38078 76.10053 64.74065
# Shear Modulus (GPa) = 84.05050 36.40723 60.22887
#
# Velocity S-wave (km/s) = 5.63576 3.70917 4.77073
# Velocity P-wave (km/s) = 7.90703 6.86305 7.40347
#
# Compressibility (1/GPa) = 0.01873333
#
# Stress axis : x y z
#
# Youngs Moduli (GPa) = 473.34446 118.27198 -7341.76597
#
# Poissons Ratio (x) = -0.05022 47.84739
# Poissons Ratio (y) = -0.20099 -20.48973
# Poissons Ratio (z) = -3.08486 0.33008
#
# Static dielectric constant tensor:
#      x y z
#    x 2.309100 -0.018310 0.183530 
#    y -0.018310 1.966420 0.040500 
#    z 0.183530 0.040500 2.249040 
# 
# From -- ./inp_files/82309.got.cif
#   From: 2010.05.17/outbox.cif.g08.bks.cpg/sg2_42_cif.got.tgz:82309.got - 2010.06.03 11:33:40.
