data_PCOD9092493
_publ_section_title
;
Structure prediction by ZEFSAII (Michael W. Deem and Ramdas Pophale) SiO2 
 PCOD9092493
Probable space group: P -1
;
_chemical_formula_sum "Si O2"
_cell_formula_units_Z 16
_cell_length_a 16.805769
_cell_length_b 22.315146
_cell_length_c 9.291431
_cell_angle_alpha 55.873225
_cell_angle_beta 62.935262
_cell_angle_gamma 14.638482
_cell_volume 661.623333
_symmetry_space_group_name_H-M "P -1"
_symmetry_group_IT_number 2
_symmetry_cell_setting 'triclinic'
loop_
_space_group_symop_operation_xyz
x,y,z
-x,-y,-z
loop_
_atom_site_type_symbol
_atom_site_label
_atom_site_fract_x
_atom_site_fract_y
_atom_site_fract_z
Si Si1 0.782294 0.762635 0.964784
Si Si2 0.800565 0.596751 0.634535
Si Si3 0.014957 0.216402 0.549066
Si Si4 0.794076 0.428530 0.159699
Si Si5 0.078319 0.014022 0.835639
Si Si6 0.194730 0.155104 0.762251
Si Si7 0.133819 0.879704 0.710401
Si Si8 0.918224 0.241381 0.033889
O O1 0.926816 0.726734 0.849869
O O2 0.578809 0.885422 0.836189
O O3 0.064768 0.499128 0.182344
O O4 0.500000 0.000000 0.000000
O O5 0.383813 0.921243 0.556874
O O6 0.000000 0.500000 0.500000
O O7 0.932241 0.416967 0.702741
O O8 0.911722 0.222844 0.706999
O O9 0.071875 0.234013 0.596338
O O10 0.735942 0.447850 0.342722
O O11 0.470600 0.719596 0.957895
O O12 0.887085 0.291162 0.158771
O O13 0.035744 0.024901 0.691732
O O14 0.000000 0.000000 0.000000
O O15 0.183030 0.088534 0.947400
O O16 0.546506 0.546822 0.851387
O O17 0.992791 0.912427 0.836921
O O18 0.000000 0.000000 0.500000
#
# Coordination Sequence:
#
# PCOD9092493 Si02
#       8
#     2   2   2   2   2   2   2   2
#     4  10  19  41  66  92 137 177 216 280 335 394
#     4  11  23  42  67 100 138 180 227 280 340 404
#     4  12  25  43  70 102 137 180 230 282 338 404
#     4  11  22  42  68  95 139 179 226 283 340 406
#     4  11  24  44  64  95 140 177 224 285 346 402
#     4  11  24  42  66 100 136 180 234 270 338 415
#     4  10  21  38  64  92 124 169 228 274 334 401
#     4  10  20  39  63  92 130 173 216 280 336 395
#
# _framework density 24.182943999999999
#
# number of rings (size 3 to 8) (size 9 to 14) (size 15 to 20)
#    0.000    1.250    3.750    3.750    0.000    4.000 
#    2.250    0.000    0.000    0.000    0.000    0.000 
#    0.000    0.000    0.000    0.000    0.000    0.000 
#
# Total GULP energy -89436.127709 kJ/mol
# GULP energy per Si atom -5589.757982 kJ/mol
# Density = 2.412790 g / cm^3
# Si number density = 24.182944 Si / 1000 Ang^3
#
#
#
# Elastic Constant Matrix: (Units=GPa)
#
#
# Indices 1 2 3 4 5 6 
#
# 1 155.5714 37.9935 57.5774 3.5655 23.0765 -3.4032
# 2 37.9935 50.8390 10.3128 2.3826 0.8302 -9.0306
# 3 57.5774 10.3128 115.0928 2.4747 28.6997 1.8499
# 4 3.5655 2.3826 2.4747 21.4062 -5.4853 2.9153
# 5 23.0765 0.8302 28.6997 -5.4853 54.1506 15.8936
# 6 -3.4032 -9.0306 1.8499 2.9153 15.8936 38.1217
#
#
#
# Elastic Compliance Matrix: (Units=1/GPa)
#
#
# Indices 1 2 3 4 5 6 
#
# 1 0.009734 -0.006316 -0.003688 -0.001197 -0.002408 0.000647
# 2 -0.006316 0.025339 0.000877 -0.002659 -0.000085 0.005635
# 3 -0.003688 0.000877 0.011852 -0.002507 -0.005503 0.001789
# 4 -0.001197 -0.002659 -0.002507 0.051107 0.009554 -0.008506
# 5 -0.002408 -0.000085 -0.005503 0.009554 0.026872 -0.011902
# 6 0.000647 0.005635 0.001789 -0.008506 -0.011902 0.033150
#
#
# Mechanical properties :
#
#
# Convention : Reuss Voigt Hill
#
# Bulk Modulus (GPa) = 34.87766 59.25228 47.06497
# Shear Modulus (GPa) = 26.90105 37.11033 32.00569
#
# Velocity S-wave (km/s) = 3.33888 3.92160 3.64192
# Velocity P-wave (km/s) = 5.41460 6.71269 6.09828
#
# Compressibility (1/GPa) = 0.02867165
#
# Stress axis : x y z
#
# Youngs Moduli (GPa) = 102.73124 39.46454 84.37160
#
# Poissons Ratio (x) = 0.24926 0.31116
# Poissons Ratio (y) = 0.64886 -0.07400
# Poissons Ratio (z) = 0.37887 -0.03461
#
# Static dielectric constant tensor:
#      x y z
#    x 1.906630 -0.026570 -0.002940 
#    y -0.026570 2.012850 -0.029680 
#    z -0.002940 -0.029680 1.949040 
# 
# From -- ./inp_files/319290.got.cif
#   From: 2010.05.17/outbox.cif.g08.bks.cpg/sg2_160_cif.got.tgz:319290.got - 2010.06.03 11:33:40.
