data_PCOD9092790
_publ_section_title
;
Structure prediction by ZEFSAII (Michael W. Deem and Ramdas Pophale) SiO2 
 PCOD9092790
Probable space group: P -1
;
_chemical_formula_sum "Si O2"
_cell_formula_units_Z 14
_cell_length_a 13.031241
_cell_length_b 12.397114
_cell_length_c 11.722570
_cell_angle_alpha 132.599196
_cell_angle_beta 150.228091
_cell_angle_gamma 64.404255
_cell_volume 626.428981
_symmetry_space_group_name_H-M "P -1"
_symmetry_group_IT_number 2
_symmetry_cell_setting 'triclinic'
loop_
_space_group_symop_operation_xyz
x,y,z
-x,-y,-z
loop_
_atom_site_type_symbol
_atom_site_label
_atom_site_fract_x
_atom_site_fract_y
_atom_site_fract_z
Si Si1 0.660088 0.192374 0.392196
Si Si2 0.049998 0.799645 0.126984
Si Si3 0.099369 0.925793 0.864515
Si Si4 0.402643 0.307770 0.775294
Si Si5 0.413604 0.821298 0.936960
Si Si6 0.460863 0.800939 0.393053
Si Si7 0.558844 0.632258 0.553855
O O1 0.880654 0.263121 0.735532
O O2 0.685858 0.258440 0.337433
O O3 0.464258 0.224074 0.291614
O O4 0.592061 0.001362 0.199537
O O5 0.251713 0.838172 0.258835
O O6 0.004771 0.958752 0.211169
O O7 0.803161 0.666081 0.762051
O O8 0.866696 0.780095 0.580082
O O9 0.700741 0.950224 0.770101
O O10 0.222770 0.848919 0.845266
O O11 0.526786 0.240142 0.754746
O O12 0.500000 0.500000 0.000000
O O13 0.462764 0.260134 0.923555
O O14 0.422128 0.640113 0.315221
O O15 0.500000 0.500000 0.500000
#
# Coordination Sequence:
#
# PCOD9092790 Si02
#       7
#     2   2   2   2   2   2   2
#     4  10  21  40  65  99 130 165 219 269 323 393
#     4  10  19  42  69  96 125 171 219 271 326 384
#     4  11  21  44  69  97 125 175 223 273 320 394
#     4  12  28  45  64  96 136 174 217 276 342 379
#     4  11  23  41  65  98 130 168 224 266 321 401
#     4  10  23  43  67  98 125 174 228 264 320 400
#     4  10  22  40  66  98 132 169 220 271 330 383
#
# _framework density 22.348901000000001
#
# number of rings (size 3 to 8) (size 9 to 14) (size 15 to 20)
#    0.000    1.429    5.714    0.429    2.000    9.143 
#    2.571    0.000    0.000    0.000    0.000    0.000 
#    0.000    0.000    0.000    0.000    0.000    0.000 
#
# Total GULP energy -78050.966649 kJ/mol
# GULP energy per Si atom -5575.069046 kJ/mol
# Density = 2.229803 g / cm^3
# Si number density = 22.348901 Si / 1000 Ang^3
#
#
#
# Elastic Constant Matrix: (Units=GPa)
#
#
# Indices 1 2 3 4 5 6 
#
# 1 85.8932 17.7560 23.3657 -16.9445 -12.7021 6.9451
# 2 17.7560 107.1177 34.7962 -2.3457 0.2035 18.2639
# 3 23.3657 34.7962 55.6165 -13.4015 19.2073 -10.8813
# 4 -16.9445 -2.3457 -13.4015 25.8189 -0.2255 3.2417
# 5 -12.7021 0.2035 19.2073 -0.2255 27.7052 -6.0341
# 6 6.9451 18.2639 -10.8813 3.2417 -6.0341 33.2231
#
#
#
# Elastic Compliance Matrix: (Units=1/GPa)
#
#
# Indices 1 2 3 4 5 6 
#
# 1 0.021104 0.004785 -0.019890 0.005431 0.021247 -0.010228
# 2 0.004785 0.018430 -0.022728 -0.004913 0.014404 -0.015480
# 3 -0.019890 -0.022728 0.066705 0.015551 -0.048952 0.028091
# 4 0.005431 -0.004913 0.015551 0.049804 -0.007765 0.000389
# 5 0.021247 0.014404 -0.048952 -0.007765 0.076616 -0.013720
# 6 -0.010228 -0.015480 0.028091 0.000389 -0.013720 0.047418
#
#
# Mechanical properties :
#
#
# Convention : Reuss Voigt Hill
#
# Bulk Modulus (GPa) = 32.70778 44.49591 38.60185
# Shear Modulus (GPa) = 13.66368 28.86342 21.26355
#
# Velocity S-wave (km/s) = 2.47529 3.59763 3.08788
# Velocity P-wave (km/s) = 4.77873 6.10001 5.47934
#
# Compressibility (1/GPa) = 0.03057376
#
# Stress axis : x y z
#
# Youngs Moduli (GPa) = 47.38383 54.26038 14.99134
#
# Poissons Ratio (x) = -0.25966 0.29818
# Poissons Ratio (y) = -0.22675 0.34072
# Poissons Ratio (z) = 0.94248 1.23321
#
# Static dielectric constant tensor:
#      x y z
#    x 1.835210 0.021660 -0.031470 
#    y 0.021660 1.888430 0.025430 
#    z -0.031470 0.025430 1.901770 
# 
# From -- ./inp_files/363942.got.cif
#   From: 2010.05.17/outbox.cif.g08.bks.cpg/sg2_182_cif.got.tgz:363942.got - 2010.06.03 11:33:40.
