data_PCOD9092589
_publ_section_title
;
Structure prediction by ZEFSAII (Michael W. Deem and Ramdas Pophale) SiO2 
 PCOD9092589
Probable space group: P -1
;
_chemical_formula_sum "Si O2"
_cell_formula_units_Z 16
_cell_length_a 12.726576
_cell_length_b 18.599507
_cell_length_c 9.921925
_cell_angle_alpha 145.499302
_cell_angle_beta 33.566801
_cell_angle_gamma 148.950410
_cell_volume 617.682326
_symmetry_space_group_name_H-M "P -1"
_symmetry_group_IT_number 2
_symmetry_cell_setting 'triclinic'
loop_
_space_group_symop_operation_xyz
x,y,z
-x,-y,-z
loop_
_atom_site_type_symbol
_atom_site_label
_atom_site_fract_x
_atom_site_fract_y
_atom_site_fract_z
Si Si1 0.011226 0.132017 0.104921
Si Si2 0.488442 0.337388 0.040041
Si Si3 0.921347 0.178284 0.697355
Si Si4 0.744028 0.220950 0.690727
Si Si5 0.863722 0.439068 0.248682
Si Si6 0.374663 0.592129 0.275012
Si Si7 0.786552 0.858797 0.370041
Si Si8 0.391010 0.352100 0.510481
O O1 0.813932 0.155722 0.392814
O O2 0.250036 0.274289 0.125678
O O3 0.033611 0.116107 0.897244
O O4 0.000000 0.000000 0.000000
O O5 0.516192 0.215283 0.898134
O O6 0.673691 0.402443 0.821086
O O7 0.555316 0.479760 0.279799
O O8 0.761992 0.143414 0.684824
O O9 0.180325 0.252148 0.481598
O O10 0.837392 0.019266 0.611758
O O11 0.915400 0.308305 0.984830
O O12 0.939478 0.400307 0.771510
O O13 0.807698 0.465115 0.500755
O O14 0.633445 0.373970 0.305329
O O15 0.551602 0.765920 0.396035
O O16 0.500000 0.500000 0.000000
O O17 0.740340 0.743355 0.360170
#
# Coordination Sequence:
#
# PCOD9092589 Si02
#       8
#     2   2   2   2   2   2   2   2
#     4  11  23  46  70  95 132 171 210 270 333 376
#     4  11  23  41  71  99 127 164 221 273 318 381
#     4  12  26  43  60  96 138 172 218 264 316 393
#     4  12  25  42  65  98 132 169 219 266 316 393
#     4  11  23  40  68  95 128 173 215 265 329 378
#     4  10  19  41  69  95 126 165 217 274 319 375
#     4  10  22  43  67  95 133 165 218 275 318 382
#     4  11  23  42  69  93 128 175 216 268 323 379
#
# _framework density 25.903283999999999
#
# number of rings (size 3 to 8) (size 9 to 14) (size 15 to 20)
#    0.000    1.000    6.250    1.500    0.000    5.500 
#    0.000    0.000    0.000    0.000    0.000    0.000 
#    0.000    0.000    0.000    0.000    0.000    0.000 
#
# Total GULP energy -89559.376414 kJ/mol
# GULP energy per Si atom -5597.461026 kJ/mol
# Density = 2.584433 g / cm^3
# Si number density = 25.903284 Si / 1000 Ang^3
#
#
#
# Elastic Constant Matrix: (Units=GPa)
#
#
# Indices 1 2 3 4 5 6 
#
# 1 68.0871 -15.6860 18.0473 -4.2378 -11.0351 -7.3304
# 2 -15.6860 78.7121 28.5621 19.9756 -9.4338 -1.1657
# 3 18.0473 28.5621 140.5877 7.5369 -15.1948 -3.3798
# 4 -4.2378 19.9756 7.5369 39.6415 -6.6973 2.3456
# 5 -11.0351 -9.4338 -15.1948 -6.6973 51.0090 -4.8511
# 6 -7.3304 -1.1657 -3.3798 2.3456 -4.8511 41.6530
#
#
#
# Elastic Compliance Matrix: (Units=1/GPa)
#
#
# Indices 1 2 3 4 5 6 
#
# 1 0.017666 0.004981 -0.002752 0.000423 0.004312 0.003503
# 2 0.004981 0.017060 -0.003417 -0.007105 0.002449 0.001762
# 3 -0.002752 -0.003417 0.008301 0.000051 0.001275 0.000239
# 4 0.000423 -0.007105 0.000051 0.029353 0.002506 -0.001481
# 5 0.004312 0.002449 0.001275 0.002506 0.022018 0.003354
# 6 0.003503 0.001762 0.000239 -0.001481 0.003354 0.025167
#
#
# Mechanical properties :
#
#
# Convention : Reuss Voigt Hill
#
# Bulk Modulus (GPa) = 24.60039 38.80375 31.70207
# Shear Modulus (GPa) = 36.90220 43.55827 40.23024
#
# Velocity S-wave (km/s) = 3.77850 4.10515 3.94521
# Velocity P-wave (km/s) = 5.34357 6.12229 5.74614
#
# Compressibility (1/GPa) = 0.04064977
#
# Stress axis : x y z
#
# Youngs Moduli (GPa) = 56.60476 58.61728 120.46198
#
# Poissons Ratio (x) = -0.29194 0.33153
# Poissons Ratio (y) = -0.28192 0.41165
# Poissons Ratio (z) = 0.15578 0.20031
#
# Static dielectric constant tensor:
#      x y z
#    x 2.141170 -0.002910 0.057360 
#    y -0.002910 2.038240 -0.064230 
#    z 0.057360 -0.064230 2.032950 
# 
# From -- ./inp_files/457714.got.cif
#   From: 2010.05.17/outbox.cif.g08.bks.cpg/sg2_229_cif.got.tgz:457714.got - 2010.06.03 11:33:40.
