data_PCOD9092156
_publ_section_title
;
Structure prediction by ZEFSAII (Michael W. Deem and Ramdas Pophale) SiO2 
 PCOD9092156
Probable space group: P -1
;
_chemical_formula_sum "Si O2"
_cell_formula_units_Z 16
_cell_length_a 8.055159
_cell_length_b 11.686533
_cell_length_c 10.295527
_cell_angle_alpha 93.258579
_cell_angle_beta 89.577654
_cell_angle_gamma 37.654029
_cell_volume 588.928924
_symmetry_space_group_name_H-M "P -1"
_symmetry_group_IT_number 2
_symmetry_cell_setting 'triclinic'
loop_
_space_group_symop_operation_xyz
x,y,z
-x,-y,-z
loop_
_atom_site_type_symbol
_atom_site_label
_atom_site_fract_x
_atom_site_fract_y
_atom_site_fract_z
Si Si1 0.445073 0.402162 0.756800
Si Si2 0.366136 0.445182 0.475548
Si Si3 0.204768 0.192445 0.458343
Si Si4 0.071099 0.896891 0.626623
Si Si5 0.988542 0.837922 0.871461
Si Si6 0.704884 0.612339 0.976209
Si Si7 0.550202 0.894239 0.808042
Si Si8 0.072467 0.746186 0.152911
O O1 0.378728 0.384728 0.617026
O O2 0.745536 0.291972 0.742975
O O3 0.227864 0.621948 0.802143
O O4 0.427230 0.333943 0.879031
O O5 0.500000 0.500000 0.500000
O O6 0.602979 0.263334 0.376072
O O7 0.050343 0.615885 0.447694
O O8 0.278479 0.223634 0.331246
O O9 0.064328 0.152163 0.408390
O O10 0.500000 0.000000 0.500000
O O11 0.981590 0.948820 0.781472
O O12 0.000000 0.000000 0.500000
O O13 0.714871 0.910484 0.872373
O O14 0.063086 0.816795 0.018867
O O15 0.557822 0.782669 0.896212
O O16 0.765852 0.458681 0.896063
O O17 0.000000 0.500000 0.000000
O O18 0.239369 0.098735 0.793490
#
# Coordination Sequence:
#
# PCOD9092156 Si02
#       8
#     2   2   2   2   2   2   2   2
#     4  11  21  41  63  93 127 164 212 264 316 379
#     4  10  19  40  67  83 120 173 203 253 324 369
#     4  10  22  43  63  89 124 162 215 262 313 377
#     4  10  22  40  65  93 123 165 212 261 316 379
#     4  10  19  41  60  89 128 162 205 256 317 379
#     4  11  21  40  66  93 127 169 211 253 324 382
#     4  11  22  41  64  92 129 167 207 258 319 378
#     4  11  25  38  66  96 130 167 207 265 321 372
#
# _framework density 27.167964000000001
#
# number of rings (size 3 to 8) (size 9 to 14) (size 15 to 20)
#    0.000    1.500    6.250    1.875    3.500    1.500 
#   11.250    0.625    0.000    0.000    0.000    0.000 
#    0.000    0.000    0.000    0.000    0.000    0.000 
#
# Total GULP energy -89584.446033 kJ/mol
# GULP energy per Si atom -5599.027877 kJ/mol
# Density = 2.710613 g / cm^3
# Si number density = 27.167964 Si / 1000 Ang^3
#
#
#
# Elastic Constant Matrix: (Units=GPa)
#
#
# Indices 1 2 3 4 5 6 
#
# 1 87.5395 51.4147 42.9255 -13.6992 -10.8116 -23.7047
# 2 51.4147 187.6675 64.4021 2.7001 -11.4598 -43.4873
# 3 42.9255 64.4021 149.5752 -9.8419 -42.3916 -2.2816
# 4 -13.6992 2.7001 -9.8419 45.6045 -2.5101 -3.0337
# 5 -10.8116 -11.4598 -42.3916 -2.5101 41.4500 -12.2633
# 6 -23.7047 -43.4873 -2.2816 -3.0337 -12.2633 57.5761
#
#
#
# Elastic Compliance Matrix: (Units=1/GPa)
#
#
# Indices 1 2 3 4 5 6 
#
# 1 0.016847 -0.002200 -0.002488 0.005251 0.003386 0.006174
# 2 -0.002200 0.008106 -0.002816 -0.001400 0.000205 0.005075
# 3 -0.002488 -0.002816 0.011818 0.002543 0.010735 -0.000262
# 4 0.005251 -0.001400 0.002543 0.024734 0.006215 0.003833
# 5 0.003386 0.000205 0.010735 0.006215 0.039597 0.010735
# 6 0.006174 0.005075 -0.000262 0.003833 0.010735 0.026222
#
#
# Mechanical properties :
#
#
# Convention : Reuss Voigt Hill
#
# Bulk Modulus (GPa) = 45.94818 82.47410 64.21114
# Shear Modulus (GPa) = 33.42559 46.66210 40.04385
#
# Velocity S-wave (km/s) = 3.51141 4.14882 3.84335
# Velocity P-wave (km/s) = 5.77835 7.30570 6.58645
#
# Compressibility (1/GPa) = 0.02176365
#
# Stress axis : x y z
#
# Youngs Moduli (GPa) = 59.35625 123.36305 84.61729
#
# Poissons Ratio (x) = 0.27137 0.21057
# Poissons Ratio (y) = 0.13057 0.23825
# Poissons Ratio (z) = 0.14771 0.34735
#
# Static dielectric constant tensor:
#      x y z
#    x 2.152580 0.172230 0.003940 
#    y 0.172230 2.346960 -0.009770 
#    z 0.003940 -0.009770 2.146840 
# 
# From -- ./inp_files/398925.got.cif
#   From: 2010.05.17/outbox.cif.g08.bks.cpg/sg2_200_cif.got.tgz:398925.got - 2010.06.03 11:33:40.
