data_PCOD9092358
_publ_section_title
;
Structure prediction by ZEFSAII (Michael W. Deem and Ramdas Pophale) SiO2 
 PCOD9092358
Probable space group: P -1
;
_chemical_formula_sum "Si O2"
_cell_formula_units_Z 16
_cell_length_a 12.547835
_cell_length_b 22.535195
_cell_length_c 18.616282
_cell_angle_alpha 159.947597
_cell_angle_beta 152.134834
_cell_angle_gamma 26.156075
_cell_volume 766.019361
_symmetry_space_group_name_H-M "P -1"
_symmetry_group_IT_number 2
_symmetry_cell_setting 'triclinic'
loop_
_space_group_symop_operation_xyz
x,y,z
-x,-y,-z
loop_
_atom_site_type_symbol
_atom_site_label
_atom_site_fract_x
_atom_site_fract_y
_atom_site_fract_z
Si Si1 0.728509 0.712124 0.023660
Si Si2 0.980269 0.333558 0.251939
Si Si3 0.605116 0.859864 0.468140
Si Si4 0.270843 0.876091 0.052700
Si Si5 0.798479 0.444355 0.106770
Si Si6 0.553153 0.122480 0.357846
Si Si7 0.192963 0.689771 0.369754
Si Si8 0.158060 0.884709 0.328633
O O1 0.735664 0.509179 0.771867
O O2 0.506289 0.786424 0.036688
O O3 0.993997 0.678975 0.180433
O O4 0.674932 0.898201 0.154054
O O5 0.260693 0.171683 0.245847
O O6 0.000000 0.500000 0.500000
O O7 0.920921 0.377409 0.182199
O O8 0.764325 0.282855 0.100008
O O9 0.799583 0.648431 0.322962
O O10 0.367190 0.857414 0.363575
O O11 0.500000 0.000000 0.500000
O O12 0.702911 0.966603 0.703342
O O13 0.000000 0.000000 0.000000
O O14 0.500000 0.500000 0.000000
O O15 0.912811 0.287317 0.933612
O O16 0.584951 0.276224 0.498875
O O17 0.703234 0.133527 0.532310
O O18 0.046014 0.898129 0.554589
#
# Coordination Sequence:
#
# PCOD9092358 Si02
#       8
#     2   2   2   2   2   2   2   2
#     4  10  20  36  57  95 121 160 207 255 304 365
#     4  12  23  37  62  91 123 166 204 253 320 371
#     4  11  22  37  56  88 122 158 197 249 312 371
#     4  12  20  36  60  89 129 153 195 265 312 361
#     4  10  22  39  59  86 125 161 206 247 307 385
#     4  11  21  40  62  92 127 159 212 257 308 367
#     4  10  21  37  64  89 127 162 213 256 305 361
#     4  10  19  41  59  88 122 159 209 252 300 375
#
# _framework density 20.887201999999998
#
# number of rings (size 3 to 8) (size 9 to 14) (size 15 to 20)
#    0.000    1.250    3.750    6.000    0.000    1.000 
#    2.250    0.625    0.000    0.750    0.000    0.000 
#    0.000    0.000    0.000    0.000    0.000    0.000 
#
# Total GULP energy -89117.021106 kJ/mol
# GULP energy per Si atom -5569.813819 kJ/mol
# Density = 2.083966 g / cm^3
# Si number density = 20.887202 Si / 1000 Ang^3
#
#
#
# Elastic Constant Matrix: (Units=GPa)
#
#
# Indices 1 2 3 4 5 6 
#
# 1 43.4515 11.8259 40.1323 -2.0203 -0.0410 1.3905
# 2 11.8259 60.4442 2.1292 12.8268 -16.7957 -1.8900
# 3 40.1323 2.1292 18.2952 65.7795 -10.3693 -40.1434
# 4 -2.0203 12.8268 65.7795 32.2542 -4.7440 14.0398
# 5 -0.0410 -16.7957 -10.3693 -4.7440 41.2081 -0.1620
# 6 1.3905 -1.8900 -40.1434 14.0398 -0.1620 13.9426
#
#
#
# Elastic Compliance Matrix: (Units=1/GPa)
#
#
# Indices 1 2 3 4 5 6 
#
# 1 0.021066 -0.002744 0.002191 -0.006966 -0.001306 0.010835
# 2 -0.002744 0.018964 -0.002448 0.000215 0.007118 -0.004339
# 3 0.002191 -0.002448 -0.000898 0.007567 -0.000393 -0.010759
# 4 -0.006966 0.000215 0.007567 0.010160 0.003203 0.012317
# 5 -0.001306 0.007118 -0.000393 0.003203 0.027425 -0.002942
# 6 0.010835 -0.004339 -0.010759 0.012317 -0.002942 0.026641
#
#
# Mechanical properties :
#
#
# Convention : Reuss Voigt Hill
#
# Bulk Modulus (GPa) = 30.18538 25.59619 27.89079
# Shear Modulus (GPa) = 41.52676 22.02121 31.77398
#
# Velocity S-wave (km/s) = 4.46370 3.25051 3.90451
# Velocity P-wave (km/s) = 6.40696 5.13506 5.80594
#
# Compressibility (1/GPa) = 0.03312862
#
# Stress axis : x y z
#
# Youngs Moduli (GPa) = 47.47095 52.73161 -1114.11868
#
# Poissons Ratio (x) = 0.14472 2.44114
# Poissons Ratio (y) = 0.13028 -2.72776
# Poissons Ratio (z) = -0.10401 0.12911
#
# Static dielectric constant tensor:
#      x y z
#    x 1.789760 0.009810 0.034180 
#    y 0.009810 1.745460 -0.034760 
#    z 0.034180 -0.034760 1.297630 
# 
# From -- ./inp_files/437355.got.cif
#   From: 2010.05.17/outbox.cif.g08.bks.cpg/sg2_219_cif.got.tgz:437355.got - 2010.06.03 11:33:40.
