data_PCOD9092779
_publ_section_title
;
Structure prediction by ZEFSAII (Michael W. Deem and Ramdas Pophale) SiO2 
 PCOD9092779
Probable space group: P -1
;
_chemical_formula_sum "Si O2"
_cell_formula_units_Z 12
_cell_length_a 14.485621
_cell_length_b 7.903380
_cell_length_c 8.544365
_cell_angle_alpha 51.131002
_cell_angle_beta 96.432220
_cell_angle_gamma 57.789625
_cell_volume 473.772704
_symmetry_space_group_name_H-M "P -1"
_symmetry_group_IT_number 2
_symmetry_cell_setting 'triclinic'
loop_
_space_group_symop_operation_xyz
x,y,z
-x,-y,-z
loop_
_atom_site_type_symbol
_atom_site_label
_atom_site_fract_x
_atom_site_fract_y
_atom_site_fract_z
Si Si1 0.867569 0.895575 0.302027
Si Si2 0.368597 0.797516 0.683112
Si Si3 0.573656 0.035963 0.681397
Si Si4 0.720442 0.181455 0.782610
Si Si5 0.653299 0.617908 0.198488
Si Si6 0.939860 0.084117 0.759605
O O1 0.000000 0.500000 0.500000
O O2 0.932893 0.022077 0.251412
O O3 0.787032 0.938366 0.410414
O O4 0.754542 0.095278 0.021670
O O5 0.395665 0.968376 0.492320
O O6 0.364062 0.609150 0.667653
O O7 0.500000 0.500000 0.000000
O O8 0.656214 0.074326 0.772542
O O9 0.401300 0.400650 0.476132
O O10 0.646852 0.689303 0.970436
O O11 0.870782 0.969410 0.839826
O O12 0.793514 0.442307 0.428151
O O13 0.500000 0.000000 0.000000
O O14 0.000000 0.000000 0.000000
#
# Coordination Sequence:
#
# PCOD9092779 Si02
#       6
#     2   2   2   2   2   2
#     4  11  25  44  68 100 148 196 237 289 375 429
#     4  12  27  46  71 111 151 182 248 311 348 432
#     4  11  21  41  74 105 141 180 253 293 361 417
#     4  10  19  42  69 102 138 190 235 303 346 438
#     4  12  24  44  79 108 143 195 239 298 369 432
#     4  10  22  42  70 102 145 190 239 293 364 428
#
# _framework density 25.328603000000001
#
# number of rings (size 3 to 8) (size 9 to 14) (size 15 to 20)
#    0.000    1.000    5.000    2.000    2.333    1.333 
#    9.000    1.667    0.000    0.000    0.000    0.000 
#    0.000    0.000    0.000    0.000    0.000    0.000 
#
# Total GULP energy -66904.853301 kJ/mol
# GULP energy per Si atom -5575.404442 kJ/mol
# Density = 2.527095 g / cm^3
# Si number density = 25.328603 Si / 1000 Ang^3
#
#
#
# Elastic Constant Matrix: (Units=GPa)
#
#
# Indices 1 2 3 4 5 6 
#
# 1 86.2302 22.0400 6.0364 7.6150 0.9656 -21.9480
# 2 22.0400 83.6623 13.9718 -8.8086 7.7633 -34.5332
# 3 6.0364 13.9718 146.9497 32.3724 14.6820 0.8579
# 4 7.6150 -8.8086 32.3724 37.9623 -2.7020 -1.6593
# 5 0.9656 7.7633 14.6820 -2.7020 48.9355 16.8470
# 6 -21.9480 -34.5332 0.8579 -1.6593 16.8470 49.7347
#
#
#
# Elastic Compliance Matrix: (Units=1/GPa)
#
#
# Indices 1 2 3 4 5 6 
#
# 1 0.013724 -0.001518 0.000551 -0.003494 -0.002340 0.005669
# 2 -0.001518 0.021661 -0.003095 0.008160 -0.008022 0.017413
# 3 0.000551 -0.003095 0.009289 -0.008980 -0.002251 -0.001603
# 4 -0.003494 0.008160 -0.008980 0.036938 0.001824 0.004893
# 5 -0.002340 -0.008022 -0.002251 0.001824 0.028038 -0.016000
# 6 0.005669 0.017413 -0.001603 0.004893 -0.016000 0.040310
#
#
# Mechanical properties :
#
#
# Convention : Reuss Voigt Hill
#
# Bulk Modulus (GPa) = 27.36028 44.54872 35.95450
# Shear Modulus (GPa) = 29.36555 45.64612 37.50583
#
# Velocity S-wave (km/s) = 3.40867 4.24979 3.85225
# Velocity P-wave (km/s) = 5.13007 6.45813 5.83202
#
# Compressibility (1/GPa) = 0.03654934
#
# Stress axis : x y z
#
# Youngs Moduli (GPa) = 72.86532 46.16648 107.65126
#
# Poissons Ratio (x) = 0.07010 -0.05931
# Poissons Ratio (y) = 0.11064 0.33317
# Poissons Ratio (z) = -0.04015 0.14288
#
# Static dielectric constant tensor:
#      x y z
#    x 2.011340 -0.053710 -0.053630 
#    y -0.053710 2.112490 0.084700 
#    z -0.053630 0.084700 2.096700 
# 
# From -- ./inp_files/178529.got.cif
#   From: 2010.05.17/outbox.cif.g08.bks.cpg/sg2_90_cif.got.tgz:178529.got - 2010.06.03 11:33:40.
