data_PCOD9092484
_publ_section_title
;
Structure prediction by ZEFSAII (Michael W. Deem and Ramdas Pophale) SiO2 
 PCOD9092484
Probable space group: P -1
;
_chemical_formula_sum "Si O2"
_cell_formula_units_Z 16
_cell_length_a 12.125307
_cell_length_b 8.936660
_cell_length_c 13.786468
_cell_angle_alpha 126.698087
_cell_angle_beta 48.899563
_cell_angle_gamma 93.942634
_cell_volume 761.773317
_symmetry_space_group_name_H-M "P -1"
_symmetry_group_IT_number 2
_symmetry_cell_setting 'triclinic'
loop_
_space_group_symop_operation_xyz
x,y,z
-x,-y,-z
loop_
_atom_site_type_symbol
_atom_site_label
_atom_site_fract_x
_atom_site_fract_y
_atom_site_fract_z
Si Si1 0.550421 0.374932 0.025142
Si Si2 0.863736 0.354608 0.932628
Si Si3 0.032973 0.291751 0.017209
Si Si4 0.933168 0.133132 0.458769
Si Si5 0.707008 0.603416 0.442088
Si Si6 0.683631 0.428842 0.588886
Si Si7 0.771663 0.968122 0.620387
Si Si8 0.410554 0.890814 0.570918
O O1 0.409337 0.424015 0.206421
O O2 0.500000 0.500000 0.000000
O O3 0.672426 0.437294 0.038038
O O4 0.644718 0.119561 0.838170
O O5 0.917200 0.317120 0.999946
O O6 0.923092 0.518615 0.930825
O O7 0.965732 0.117272 0.732181
O O8 0.226921 0.070199 0.801386
O O9 0.886130 0.375084 0.218749
O O10 0.881796 0.287484 0.455555
O O11 0.041794 0.170496 0.489320
O O12 0.778505 0.138160 0.608523
O O13 0.648574 0.557219 0.559750
O O14 0.735716 0.803077 0.522770
O O15 0.555486 0.709299 0.490163
O O16 0.637335 0.244113 0.525642
O O17 0.500000 0.000000 0.500000
#
# Coordination Sequence:
#
# PCOD9092484 Si02
#       8
#     2   2   2   2   2   2   2   2
#     4  11  23  38  68  94 127 173 223 277 326 379
#     4  10  20  39  65  99 122 161 226 278 317 382
#     4  11  22  40  70  97 130 173 213 272 340 384
#     4  10  19  41  66  90 128 167 225 271 318 384
#     4  12  27  44  63 101 144 169 216 272 340 408
#     4  12  25  44  63  98 136 174 214 277 340 392
#     4  10  22  41  65  93 128 172 223 278 318 390
#     4  12  25  45  74  99 129 174 230 277 322 393
#
# _framework density 21.003623000000001
#
# number of rings (size 3 to 8) (size 9 to 14) (size 15 to 20)
#    0.000    1.000    3.750    4.125    1.750    1.500 
#    4.500    0.000    0.000    0.000    0.000    0.000 
#    0.000    0.000    0.000    0.000    0.000    0.000 
#
# Total GULP energy -89110.623664 kJ/mol
# GULP energy per Si atom -5569.413979 kJ/mol
# Density = 2.095582 g / cm^3
# Si number density = 21.003623 Si / 1000 Ang^3
#
#
#
# Elastic Constant Matrix: (Units=GPa)
#
#
# Indices 1 2 3 4 5 6 
#
# 1 89.8740 -6.6983 19.1087 11.2452 -9.1216 -8.5821
# 2 -6.6983 21.5838 16.4554 -8.2265 -20.3789 -29.6399
# 3 19.1087 16.4554 122.0953 -16.2068 -4.7595 -13.7746
# 4 11.2452 -8.2265 -16.2068 10.8680 -2.5824 3.4428
# 5 -9.1216 -20.3789 -4.7595 -2.5824 15.9853 3.3587
# 6 -8.5821 -29.6399 -13.7746 3.4428 3.3587 27.7363
#
#
#
# Elastic Compliance Matrix: (Units=1/GPa)
#
#
# Indices 1 2 3 4 5 6 
#
# 1 0.015280 -0.004931 -0.005684 -0.029247 -0.004145 0.000768
# 2 -0.004931 -0.025947 -0.002227 -0.018498 -0.034526 -0.023883
# 3 -0.005684 -0.002227 0.012439 0.023474 0.001639 -0.001073
# 4 -0.029247 -0.018498 0.023474 0.154603 -0.000687 -0.036267
# 5 -0.004145 -0.034526 0.001639 -0.000687 0.025023 -0.040309
# 6 0.000768 -0.023883 -0.001073 -0.036267 -0.040309 0.019619
#
#
# Mechanical properties :
#
#
# Convention : Reuss Voigt Hill
#
# Bulk Modulus (GPa) = -41.81999 32.36495 -4.72752
# Shear Modulus (GPa) = 22.85935 24.56375 23.71155
#
# Velocity S-wave (km/s) = 3.30260 3.42351 3.36360
# Velocity P-wave (km/s) = 2.32620 5.57404 3.58181
#
# Compressibility (1/GPa) = -0.02391201
#
# Stress axis : x y z
#
# Youngs Moduli (GPa) = 65.44614 -38.53952 80.39414
#
# Poissons Ratio (x) = -0.19002 0.45695
# Poissons Ratio (y) = 0.32269 0.17904
# Poissons Ratio (z) = 0.37199 -0.08583
#
# Static dielectric constant tensor:
#      x y z
#    x 0.072250 0.734640 0.474270 
#    y 0.734640 1.411360 -0.273410 
#    z 0.474270 -0.273410 1.698990 
# 
# From -- ./inp_files/516222.got.cif
#   From: 2010.05.17/outbox.cif.g08.bks.cpg/sg2_259_cif.got.tgz:516222.got - 2010.06.03 11:33:40.
