data_PCOD9092601
_publ_section_title
;
Structure prediction by ZEFSAII (Michael W. Deem and Ramdas Pophale) SiO2 
 PCOD9092601
Probable space group: P -1
;
_chemical_formula_sum "Si O2"
_cell_formula_units_Z 12
_cell_length_a 10.467368
_cell_length_b 9.304635
_cell_length_c 7.678804
_cell_angle_alpha 93.438328
_cell_angle_beta 56.869050
_cell_angle_gamma 57.059013
_cell_volume 452.661274
_symmetry_space_group_name_H-M "P -1"
_symmetry_group_IT_number 2
_symmetry_cell_setting 'triclinic'
loop_
_space_group_symop_operation_xyz
x,y,z
-x,-y,-z
loop_
_atom_site_type_symbol
_atom_site_label
_atom_site_fract_x
_atom_site_fract_y
_atom_site_fract_z
Si Si1 0.280649 0.721703 0.731549
Si Si2 0.235136 0.336427 0.492066
Si Si3 0.660890 0.043330 0.044195
Si Si4 0.857817 0.367389 0.860242
Si Si5 0.920333 0.239425 0.450658
Si Si6 0.246300 0.311153 0.857473
O O1 0.500000 0.500000 0.500000
O O2 0.167999 0.808673 0.635974
O O3 0.314493 0.836307 0.836964
O O4 0.133991 0.720073 0.968946
O O5 0.138236 0.558110 0.552183
O O6 0.350327 0.254466 0.587979
O O7 0.060040 0.326102 0.636427
O O8 0.411899 0.195033 0.206074
O O9 0.723517 0.859262 0.088619
O O10 0.828799 0.944675 0.757208
O O11 0.814360 0.295075 0.722682
O O12 0.693990 0.599290 0.050892
O O13 0.000000 0.500000 0.000000
#
# Coordination Sequence:
#
# PCOD9092601 Si02
#       6
#     2   2   2   2   2   2
#     4  12  26  50  71 105 146 189 240 296 353 431
#     4  11  22  44  71 108 140 183 240 294 347 426
#     4  12  24  42  76 102 145 193 233 289 366 419
#     4  11  24  45  76 101 148 183 239 300 350 419
#     4  12  24  45  75 103 144 189 235 298 354 414
#     4  10  19  41  70 101 135 186 230 287 348 410
#
# _framework density 26.509889000000001
#
# number of rings (size 3 to 8) (size 9 to 14) (size 15 to 20)
#    0.000    0.667    6.667    2.500    0.000    2.000 
#    0.000    0.000    0.000    0.000    0.000    0.000 
#    0.000    0.000    0.000    0.000    0.000    0.000 
#
# Total GULP energy -67115.912586 kJ/mol
# GULP energy per Si atom -5592.992715 kJ/mol
# Density = 2.644955 g / cm^3
# Si number density = 26.509889 Si / 1000 Ang^3
#
#
#
# Elastic Constant Matrix: (Units=GPa)
#
#
# Indices 1 2 3 4 5 6 
#
# 1 55.9416 1.4205 22.1282 -12.6414 25.6326 10.5532
# 2 1.4205 81.9069 10.5743 10.2112 9.3359 14.4975
# 3 22.1282 10.5743 84.1319 4.3277 34.4981 -8.1398
# 4 -12.6414 10.2112 4.3277 37.9606 -6.7258 7.8062
# 5 25.6326 9.3359 34.4981 -6.7258 62.0896 -1.0907
# 6 10.5532 14.4975 -8.1398 7.8062 -1.0907 31.2068
#
#
#
# Elastic Compliance Matrix: (Units=1/GPa)
#
#
# Indices 1 2 3 4 5 6 
#
# 1 0.030186 0.002748 -0.007349 0.012215 -0.007762 -0.016728
# 2 0.002748 0.014294 -0.002249 -0.001468 -0.002331 -0.007871
# 3 -0.007349 -0.002249 0.018535 -0.007335 -0.007546 0.009936
# 4 0.012215 -0.001468 -0.007335 0.035022 0.002801 -0.014025
# 5 -0.007762 -0.002331 -0.007546 0.002801 0.024190 0.001884
# 6 -0.016728 -0.007871 0.009936 -0.014025 0.001884 0.047523
#
#
# Mechanical properties :
#
#
# Convention : Reuss Voigt Hill
#
# Bulk Modulus (GPa) = 20.27833 32.24737 26.26285
# Shear Modulus (GPa) = 25.01409 38.77524 31.89466
#
# Velocity S-wave (km/s) = 3.07510 3.82864 3.47237
# Velocity P-wave (km/s) = 4.50270 5.63341 5.09949
#
# Compressibility (1/GPa) = 0.04931373
#
# Stress axis : x y z
#
# Youngs Moduli (GPa) = 33.12837 69.96183 53.95333
#
# Poissons Ratio (x) = -0.19225 0.39648
# Poissons Ratio (y) = -0.09104 0.12136
# Poissons Ratio (z) = 0.24345 0.15737
#
# Static dielectric constant tensor:
#      x y z
#    x 2.250250 0.049890 0.009300 
#    y 0.049890 2.079420 -0.011110 
#    z 0.009300 -0.011110 2.143750 
# 
# From -- ./inp_files/231838.got.cif
#   From: 2010.05.17/outbox.cif.g08.bks.cpg/sg2_116_cif.got.tgz:231838.got - 2010.06.03 11:33:40.
