data_PCOD9092112
_publ_section_title
;
Structure prediction by ZEFSAII (Michael W. Deem and Ramdas Pophale) SiO2 
 PCOD9092112
Probable space group: P -1
;
_chemical_formula_sum "Si O2"
_cell_formula_units_Z 12
_cell_length_a 10.243099
_cell_length_b 8.891921
_cell_length_c 9.303874
_cell_angle_alpha 114.423937
_cell_angle_beta 83.086409
_cell_angle_gamma 128.849728
_cell_volume 589.237329
_symmetry_space_group_name_H-M "P -1"
_symmetry_group_IT_number 2
_symmetry_cell_setting 'triclinic'
loop_
_space_group_symop_operation_xyz
x,y,z
-x,-y,-z
loop_
_atom_site_type_symbol
_atom_site_label
_atom_site_fract_x
_atom_site_fract_y
_atom_site_fract_z
Si Si1 0.964420 0.278349 0.438487
Si Si2 0.597979 0.528985 0.852305
Si Si3 0.260297 0.641991 0.080817
Si Si4 0.013578 0.302698 0.773200
Si Si5 0.436101 0.079560 0.658574
Si Si6 0.106184 0.095871 0.170381
O O1 0.006784 0.265334 0.591372
O O2 0.000000 0.500000 0.500000
O O3 0.069560 0.239956 0.309568
O O4 0.763822 0.093888 0.361502
O O5 0.749386 0.529663 0.887846
O O6 0.479185 0.303493 0.694858
O O7 0.692452 0.746299 0.837456
O O8 0.500000 0.500000 0.000000
O O9 0.128708 0.673033 0.163280
O O10 0.451641 0.852276 0.182634
O O11 0.194941 0.525362 0.889720
O O12 0.959145 0.099997 0.792522
O O13 0.500000 0.000000 0.500000
O O14 0.000000 0.000000 0.000000
#
# Coordination Sequence:
#
# PCOD9092112 Si02
#       6
#     2   2   2   2   2   2
#     4  12  25  42  69  99 133 177 219 274 331 392
#     4  10  21  42  66  93 126 174 217 269 328 388
#     4   9  21  39  67  92 136 173 216 270 330 384
#     4  11  22  42  66 101 137 170 222 275 322 399
#     4  10  19  40  66  91 128 171 213 266 324 385
#     4  12  23  41  69  98 130 179 221 270 335 393
#
# _framework density 20.365307000000001
#
# number of rings (size 3 to 8) (size 9 to 14) (size 15 to 20)
#    1.000    0.333    3.333    3.500    2.333    0.000 
#    0.000    4.167    0.000    0.000    0.000    0.000 
#    0.000    0.000    0.000    0.000    0.000    0.000 
#
# Total GULP energy -66847.934055 kJ/mol
# GULP energy per Si atom -5570.661171 kJ/mol
# Density = 2.031895 g / cm^3
# Si number density = 20.365307 Si / 1000 Ang^3
#
#
#
# Elastic Constant Matrix: (Units=GPa)
#
#
# Indices 1 2 3 4 5 6 
#
# 1 55.5530 32.4256 46.2021 -3.6702 -0.9565 2.4036
# 2 32.4256 110.6092 70.7859 3.1680 -1.7569 9.2990
# 3 46.2021 70.7859 148.4507 3.6788 0.7016 9.6444
# 4 -3.6702 3.1680 3.6788 34.3815 5.2841 8.7645
# 5 -0.9565 -1.7569 0.7016 5.2841 47.1313 11.2280
# 6 2.4036 9.2990 9.6444 8.7645 11.2280 38.6269
#
#
#
# Elastic Compliance Matrix: (Units=1/GPa)
#
#
# Indices 1 2 3 4 5 6 
#
# 1 0.025617 -0.003531 -0.006381 0.003737 0.000069 -0.000019
# 2 -0.003531 0.013646 -0.005272 -0.000751 0.001048 -0.001883
# 3 -0.006381 -0.005272 0.011321 -0.001166 -0.000162 -0.000849
# 4 0.003737 -0.000751 -0.001166 0.031601 -0.001963 -0.006361
# 5 0.000069 0.001048 -0.000162 -0.001963 0.023020 -0.006462
# 6 -0.000019 -0.001883 -0.000849 -0.006361 -0.006462 0.029877
#
#
# Mechanical properties :
#
#
# Convention : Reuss Voigt Hill
#
# Bulk Modulus (GPa) = 49.46309 68.16002 58.81156
# Shear Modulus (GPa) = 29.03777 35.04123 32.03950
#
# Velocity S-wave (km/s) = 3.78013 4.15255 3.97071
# Velocity P-wave (km/s) = 6.58735 7.51884 7.06846
#
# Compressibility (1/GPa) = 0.02021709
#
# Stress axis : x y z
#
# Youngs Moduli (GPa) = 39.03583 73.27959 88.33162
#
# Poissons Ratio (x) = 0.25872 0.56366
# Poissons Ratio (y) = 0.13782 0.46570
# Poissons Ratio (z) = 0.24909 0.38634
#
# Static dielectric constant tensor:
#      x y z
#    x 1.586480 -0.058540 0.071900 
#    y -0.058540 1.751650 0.059460 
#    z 0.071900 0.059460 1.725800 
# 
# From -- ./inp_files/235625.got.cif
#   From: 2010.05.17/outbox.cif.g08.bks.cpg/sg2_118_cif.got.tgz:235625.got - 2010.06.03 11:33:40.
