data_PCOD9092804
_publ_section_title
;
Structure prediction by ZEFSAII (Michael W. Deem and Ramdas Pophale) SiO2 
 PCOD9092804
Probable space group: P -1
;
_chemical_formula_sum "Si O2"
_cell_formula_units_Z 12
_cell_length_a 8.038608
_cell_length_b 5.026290
_cell_length_c 15.015288
_cell_angle_alpha 99.116178
_cell_angle_beta 104.327238
_cell_angle_gamma 121.403754
_cell_volume 470.441207
_symmetry_space_group_name_H-M "P -1"
_symmetry_group_IT_number 2
_symmetry_cell_setting 'triclinic'
loop_
_space_group_symop_operation_xyz
x,y,z
-x,-y,-z
loop_
_atom_site_type_symbol
_atom_site_label
_atom_site_fract_x
_atom_site_fract_y
_atom_site_fract_z
Si Si1 0.799457 0.371564 0.344715
Si Si2 0.845248 0.689167 0.827160
Si Si3 0.459796 0.915856 0.137170
Si Si4 0.852217 0.715946 0.536814
Si Si5 0.147239 0.883631 0.301413
Si Si6 0.694970 0.872871 0.017944
O O1 0.727168 0.415056 0.433997
O O2 0.991389 0.337905 0.389306
O O3 0.908705 0.672046 0.302242
O O4 0.593680 0.077889 0.252700
O O5 0.694617 0.471269 0.878121
O O6 0.839944 0.406648 0.751902
O O7 0.793699 0.873735 0.760322
O O8 0.071105 0.983619 0.912588
O O9 0.640501 0.056424 0.093408
O O10 0.315236 0.003870 0.074181
O O11 0.743033 0.848782 0.587739
O O12 0.000000 0.000000 0.500000
O O13 0.500000 0.500000 0.000000
#
# Coordination Sequence:
#
# PCOD9092804 Si02
#       6
#     2   2   2   2   2   2
#     4  10  19  42  70  99 132 182 224 273 335 399
#     4  12  26  43  70 100 140 176 221 278 335 395
#     4  11  25  43  66 103 131 178 227 277 334 399
#     4   9  19  36  73  97 133 178 224 269 337 396
#     4  11  21  43  67  98 137 176 219 274 331 395
#     4  11  25  45  70  94 137 178 227 276 334 400
#
# _framework density 25.507973
#
# number of rings (size 3 to 8) (size 9 to 14) (size 15 to 20)
#    0.000    1.333    3.333    1.500    4.667    2.000 
#    0.000    1.667    0.000    0.000    0.000    0.000 
#    0.000    0.000    0.000    0.000    0.000    0.000 
#
# Total GULP energy -66859.986671 kJ/mol
# GULP energy per Si atom -5571.665556 kJ/mol
# Density = 2.544992 g / cm^3
# Si number density = 25.507973 Si / 1000 Ang^3
#
#
#
# Elastic Constant Matrix: (Units=GPa)
#
#
# Indices 1 2 3 4 5 6 
#
# 1 57.8627 14.7361 11.7056 -10.9183 -19.9021 10.9417
# 2 14.7361 147.1537 34.2029 -26.4747 -0.2562 -0.9220
# 3 11.7056 34.2029 121.4749 -16.5430 -1.7195 2.0130
# 4 -10.9183 -26.4747 -16.5430 47.8878 7.8996 -7.3710
# 5 -19.9021 -0.2562 -1.7195 7.8996 32.1469 0.2927
# 6 10.9417 -0.9220 2.0130 -7.3710 0.2927 46.7527
#
#
#
# Elastic Compliance Matrix: (Units=1/GPa)
#
#
# Indices 1 2 3 4 5 6 
#
# 1 0.024401 -0.002016 -0.001392 0.000633 0.014912 -0.005684
# 2 -0.002016 0.008101 -0.001589 0.004054 -0.002277 0.001353
# 3 -0.001392 -0.001589 0.009087 0.002132 -0.000915 0.000245
# 4 0.000633 0.004054 0.002132 0.025558 -0.005778 0.003906
# 5 0.014912 -0.002277 -0.000915 -0.005778 0.041734 -0.004668
# 6 -0.005684 0.001353 0.000245 0.003906 -0.004668 0.023380
#
#
# Mechanical properties :
#
#
# Convention : Reuss Voigt Hill
#
# Bulk Modulus (GPa) = 31.65144 49.75339 40.70242
# Shear Modulus (GPa) = 32.72524 43.08059 37.90291
#
# Velocity S-wave (km/s) = 3.58570 4.11409 3.85895
# Velocity P-wave (km/s) = 5.43860 6.48961 5.98721
#
# Compressibility (1/GPa) = 0.03159413
#
# Stress axis : x y z
#
# Youngs Moduli (GPa) = 40.98260 123.44641 110.04630
#
# Poissons Ratio (x) = 0.24882 0.15321
# Poissons Ratio (y) = 0.08261 0.17489
# Poissons Ratio (z) = 0.05706 0.19618
#
# Static dielectric constant tensor:
#      x y z
#    x 2.227500 -0.124130 -0.237100 
#    y -0.124130 2.027810 0.105840 
#    z -0.237100 0.105840 2.239590 
# 
# From -- ./inp_files/88328.got.cif
#   From: 2010.05.17/outbox.cif.g08.bks.cpg/sg2_45_cif.got.tgz:88328.got - 2010.06.03 11:33:40.
