data_PCOD9092330
_publ_section_title
;
Structure prediction by ZEFSAII (Michael W. Deem and Ramdas Pophale) SiO2 
 PCOD9092330
Probable space group: P -1
;
_chemical_formula_sum "Si O2"
_cell_formula_units_Z 12
_cell_length_a 8.327659
_cell_length_b 9.202164
_cell_length_c 11.618094
_cell_angle_alpha 110.925737
_cell_angle_beta 144.353700
_cell_angle_gamma 75.634826
_cell_volume 483.186371
_symmetry_space_group_name_H-M "P -1"
_symmetry_group_IT_number 2
_symmetry_cell_setting 'triclinic'
loop_
_space_group_symop_operation_xyz
x,y,z
-x,-y,-z
loop_
_atom_site_type_symbol
_atom_site_label
_atom_site_fract_x
_atom_site_fract_y
_atom_site_fract_z
Si Si1 0.729072 0.132807 0.129988
Si Si2 0.875465 0.054077 0.564328
Si Si3 0.719926 0.082366 0.849581
Si Si4 0.941428 0.412900 0.756052
Si Si5 0.382522 0.604137 0.229140
Si Si6 0.733949 0.477008 0.226561
O O1 0.707606 0.304149 0.215866
O O2 0.685901 0.155911 0.976444
O O3 0.013876 0.061199 0.308300
O O4 0.500000 0.000000 0.000000
O O5 0.975196 0.231497 0.699379
O O6 0.545495 0.035208 0.360738
O O7 0.000000 0.000000 0.500000
O O8 0.719631 0.223676 0.800547
O O9 0.000000 0.000000 0.000000
O O10 0.664200 0.430456 0.673652
O O11 0.993973 0.493727 0.685756
O O12 0.176323 0.484268 0.001661
O O13 0.670166 0.593862 0.325584
O O14 0.500000 0.500000 0.000000
#
# Coordination Sequence:
#
# PCOD9092330 Si02
#       6
#     2   2   2   2   2   2
#     4  12  23  44  77 106 148 200 243 304 380 438
#     4  12  26  47  76 114 148 193 259 309 366 458
#     4  12  26  46  74 108 150 194 250 310 380 439
#     4  10  21  42  72 102 147 190 243 309 365 434
#     4  10  21  42  74 102 146 199 240 303 375 441
#     4  10  19  40  73 103 142 193 244 299 369 442
#
# _framework density 24.835138000000001
#
# number of rings (size 3 to 8) (size 9 to 14) (size 15 to 20)
#    0.000    1.000    5.000    4.000    0.000    4.000 
#    0.000    4.167    0.000    0.000    0.000    0.000 
#    0.000    0.000    0.000    0.000    0.000    0.000 
#
# Total GULP energy -67148.650741 kJ/mol
# GULP energy per Si atom -5595.720895 kJ/mol
# Density = 2.477861 g / cm^3
# Si number density = 24.835138 Si / 1000 Ang^3
#
#
#
# Elastic Constant Matrix: (Units=GPa)
#
#
# Indices 1 2 3 4 5 6 
#
# 1 188.9719 33.9609 17.3347 -3.4375 -2.2467 7.1560
# 2 33.9609 138.2422 37.9587 17.2345 11.1408 4.2672
# 3 17.3347 37.9587 76.0474 -8.9417 12.5913 6.8629
# 4 -3.4375 17.2345 -8.9417 40.8631 1.3353 -10.2074
# 5 -2.2467 11.1408 12.5913 1.3353 38.9073 -4.4474
# 6 7.1560 4.2672 6.8629 -10.2074 -4.4474 31.7102
#
#
#
# Elastic Compliance Matrix: (Units=1/GPa)
#
#
# Indices 1 2 3 4 5 6 
#
# 1 0.005637 -0.001359 -0.000600 0.000738 0.000814 -0.000608
# 2 -0.001359 0.009787 -0.004850 -0.005760 -0.001343 -0.002003
# 3 -0.000600 -0.004850 0.017284 0.005468 -0.004638 -0.001843
# 4 0.000738 -0.005760 0.005468 0.030466 -0.000069 0.009222
# 5 0.000814 -0.001343 -0.004638 -0.000069 0.028201 0.004934
# 6 -0.000608 -0.002003 -0.001843 0.009222 0.004934 0.036002
#
#
# Mechanical properties :
#
#
# Convention : Reuss Voigt Hill
#
# Bulk Modulus (GPa) = 52.37826 64.64111 58.50968
# Shear Modulus (GPa) = 33.93090 43.22992 38.58041
#
# Velocity S-wave (km/s) = 3.70029 4.17667 3.94567
# Velocity P-wave (km/s) = 6.27633 7.02453 6.66094
#
# Compressibility (1/GPa) = 0.01909189
#
# Stress axis : x y z
#
# Youngs Moduli (GPa) = 177.39475 102.17336 57.85591
#
# Poissons Ratio (x) = 0.13885 0.03470
# Poissons Ratio (y) = 0.24107 0.28058
# Poissons Ratio (z) = 0.10641 0.49551
#
# Static dielectric constant tensor:
#      x y z
#    x 2.101440 -0.015050 0.055000 
#    y -0.015050 1.938870 0.022610 
#    z 0.055000 0.022610 1.978980 
# 
# From -- ./inp_files/380191.got.cif
#   From: 2010.05.17/outbox.cif.g08.bks.cpg/sg2_191_cif.got.tgz:380191.got - 2010.06.03 11:33:40.
