data_PCOD9092902
_publ_section_title
;
Structure prediction by ZEFSAII (Michael W. Deem and Ramdas Pophale) SiO2 
 PCOD9092902
Probable space group: P -1
;
_chemical_formula_sum "Si O2"
_cell_formula_units_Z 16
_cell_length_a 9.663730
_cell_length_b 13.892499
_cell_length_c 7.315006
_cell_angle_alpha 68.152196
_cell_angle_beta 44.373347
_cell_angle_gamma 87.452415
_cell_volume 599.176274
_symmetry_space_group_name_H-M "P -1"
_symmetry_group_IT_number 2
_symmetry_cell_setting 'triclinic'
loop_
_space_group_symop_operation_xyz
x,y,z
-x,-y,-z
loop_
_atom_site_type_symbol
_atom_site_label
_atom_site_fract_x
_atom_site_fract_y
_atom_site_fract_z
Si Si1 0.558747 0.849686 0.307896
Si Si2 0.157360 0.626470 0.365121
Si Si3 0.372611 0.609901 0.831765
Si Si4 0.761308 0.682759 0.674712
Si Si5 0.777988 0.006950 0.286249
Si Si6 0.544554 0.829685 0.932662
Si Si7 0.204112 0.478695 0.744701
Si Si8 0.061618 0.225172 0.935183
O O1 0.426403 0.731937 0.608014
O O2 0.618789 0.956002 0.305436
O O3 0.496144 0.865324 0.151643
O O4 0.782089 0.829293 0.084678
O O5 0.319429 0.751977 0.124359
O O6 0.247180 0.556288 0.469208
O O7 0.171924 0.589864 0.167866
O O8 0.927545 0.629661 0.627277
O O9 0.557706 0.613109 0.796529
O O10 0.363684 0.529451 0.727241
O O11 0.889229 0.762202 0.336444
O O12 0.677934 0.745795 0.860753
O O13 0.680435 0.925052 0.603533
O O14 0.000000 0.000000 0.000000
O O15 0.832902 0.131558 0.221655
O O16 0.129189 0.348962 0.862129
O O17 0.000000 0.500000 0.000000
#
# Coordination Sequence:
#
# PCOD9092902 Si02
#       8
#     2   2   2   2   2   2   2   2
#     4  10  20  40  74 108 138 189 247 304 371 436
#     4  11  24  47  73 108 154 194 249 312 376 443
#     4  10  22  48  72 107 153 193 250 310 374 444
#     4  10  22  43  73 109 146 195 246 306 383 439
#     4  10  19  43  74 107 146 190 247 306 373 449
#     4  11  21  43  76 109 146 192 245 318 369 443
#     4  12  27  46  73 108 157 197 249 313 367 453
#     4  10  23  43  68 107 145 196 246 292 376 446
#
# _framework density 26.703325
#
# number of rings (size 3 to 8) (size 9 to 14) (size 15 to 20)
#    0.000    1.500    6.250    0.750    1.750    6.000 
#    0.000    4.375    0.000    1.500    0.000    0.000 
#    0.000    0.000    0.000    0.000    0.000    0.000 
#
# Total GULP energy -89539.796115 kJ/mol
# GULP energy per Si atom -5596.237257 kJ/mol
# Density = 2.664255 g / cm^3
# Si number density = 26.703325 Si / 1000 Ang^3
#
#
#
# Elastic Constant Matrix: (Units=GPa)
#
#
# Indices 1 2 3 4 5 6 
#
# 1 87.9534 53.0473 34.0211 0.4029 7.2713 1.9908
# 2 53.0473 221.3526 70.0383 -2.4759 8.4601 21.3662
# 3 34.0211 70.0383 127.7640 1.0177 18.4196 16.1806
# 4 0.4029 -2.4759 1.0177 58.0566 4.6084 1.3767
# 5 7.2713 8.4601 18.4196 4.6084 34.5052 20.3286
# 6 1.9908 21.3662 16.1806 1.3767 20.3286 36.3198
#
#
#
# Elastic Compliance Matrix: (Units=1/GPa)
#
#
# Indices 1 2 3 4 5 6 
#
# 1 0.014175 -0.002954 -0.002153 -0.000011 -0.003347 0.003794
# 2 -0.002954 0.006319 -0.002575 0.000211 0.002750 -0.003956
# 3 -0.002153 -0.002575 0.010496 0.000063 -0.004076 -0.000764
# 4 -0.000011 0.000211 0.000063 0.017443 -0.002885 0.000802
# 5 -0.003347 0.002750 -0.004076 -0.002885 0.046675 -0.025634
# 6 0.003794 -0.003956 -0.000764 0.000802 -0.025634 0.044310
#
#
# Mechanical properties :
#
#
# Convention : Reuss Voigt Hill
#
# Bulk Modulus (GPa) = 63.99468 83.47594 73.73531
# Shear Modulus (GPa) = 31.25186 44.44054 37.84620
#
# Velocity S-wave (km/s) = 3.42473 4.08393 3.76877
# Velocity P-wave (km/s) = 6.29726 7.31890 6.82722
#
# Compressibility (1/GPa) = 0.01562630
#
# Stress axis : x y z
#
# Youngs Moduli (GPa) = 70.54603 158.24218 95.27866
#
# Poissons Ratio (x) = 0.46749 0.20513
# Poissons Ratio (y) = 0.20841 0.24531
# Poissons Ratio (z) = 0.15188 0.40743
#
# Static dielectric constant tensor:
#      x y z
#    x 2.180990 -0.019190 -0.093360 
#    y -0.019190 2.160220 -0.039630 
#    z -0.093360 -0.039630 2.110890 
# 
# From -- ./inp_files/334316.got.cif
#   From: 2010.05.17/outbox.cif.g08.bks.cpg/sg2_168_cif.got.tgz:334316.got - 2010.06.03 11:33:40.
