data_PCOD9092598
_publ_section_title
;
Structure prediction by ZEFSAII (Michael W. Deem and Ramdas Pophale) SiO2 
 PCOD9092598
Probable space group: P -1
;
_chemical_formula_sum "Si O2"
_cell_formula_units_Z 16
_cell_length_a 9.635721
_cell_length_b 8.373358
_cell_length_c 27.362960
_cell_angle_alpha 41.966397
_cell_angle_beta 142.614646
_cell_angle_gamma 110.779493
_cell_volume 729.359382
_symmetry_space_group_name_H-M "P -1"
_symmetry_group_IT_number 2
_symmetry_cell_setting 'triclinic'
loop_
_space_group_symop_operation_xyz
x,y,z
-x,-y,-z
loop_
_atom_site_type_symbol
_atom_site_label
_atom_site_fract_x
_atom_site_fract_y
_atom_site_fract_z
Si Si1 0.175153 0.503723 0.502420
Si Si2 0.651961 0.854857 0.801561
Si Si3 0.446080 0.710106 0.995293
Si Si4 0.030999 0.365690 0.695616
Si Si5 0.584138 0.674948 0.588180
Si Si6 0.827833 0.591343 0.007522
Si Si7 0.453672 0.635056 0.128888
Si Si8 0.971239 0.715023 0.115691
O O1 0.034860 0.587234 0.390974
O O2 0.300509 0.690571 0.504024
O O3 0.000000 0.500000 0.500000
O O4 0.447243 0.170589 0.650747
O O5 0.676128 0.859077 0.866126
O O6 0.555240 0.644788 0.809918
O O7 0.959795 0.690051 0.902528
O O8 0.400020 0.460387 0.025637
O O9 0.430440 0.728888 0.045078
O O10 0.740583 0.658249 0.079920
O O11 0.199085 0.020902 0.833257
O O12 0.766898 0.543461 0.618842
O O13 0.254603 0.440038 0.752146
O O14 0.776366 0.457300 0.736200
O O15 0.500000 0.000000 0.500000
O O16 0.014872 0.602573 0.098137
O O17 0.192444 0.934315 0.011551
#
# Coordination Sequence:
#
# PCOD9092598 Si02
#       8
#     2   2   2   2   2   2   2   2
#     4  12  31  48  68  99 145 193 230 280 348 428
#     4  10  25  45  63  94 144 184 223 270 357 412
#     4  10  19  41  70 100 129 170 230 289 336 394
#     4  11  23  46  73  97 139 183 238 281 350 407
#     4  12  28  46  72 103 142 182 237 288 342 419
#     4  10  23  38  68  99 135 176 223 289 341 410
#     4  10  21  42  73 100 131 174 225 295 334 404
#     4  11  22  39  68 105 128 164 233 288 343 387
#
# _framework density 21.937059999999999
#
# number of rings (size 3 to 8) (size 9 to 14) (size 15 to 20)
#    0.000    1.250    2.500    2.250   12.250    2.000 
#    0.000    0.000    0.000    0.000    0.000    0.000 
#    0.000    0.000    0.000    0.000    0.000    0.000 
#
# Total GULP energy -89430.599104 kJ/mol
# GULP energy per Si atom -5589.412444 kJ/mol
# Density = 2.188713 g / cm^3
# Si number density = 21.937060 Si / 1000 Ang^3
#
#
#
# Elastic Constant Matrix: (Units=GPa)
#
#
# Indices 1 2 3 4 5 6 
#
# 1 112.9530 47.2588 27.5577 23.4445 -10.8711 3.7720
# 2 47.2588 114.0475 32.0145 25.5555 -14.6936 7.7897
# 3 27.5577 32.0145 74.1626 23.9316 -19.2509 -1.1083
# 4 23.4445 25.5555 23.9316 39.8082 -7.0160 -3.9337
# 5 -10.8711 -14.6936 -19.2509 -7.0160 30.7956 5.6141
# 6 3.7720 7.7897 -1.1083 -3.9337 5.6141 38.1820
#
#
#
# Elastic Compliance Matrix: (Units=1/GPa)
#
#
# Indices 1 2 3 4 5 6 
#
# 1 0.011489 -0.003348 -0.001402 -0.003712 0.000920 -0.001010
# 2 -0.003348 0.012314 -0.001837 -0.004600 0.003074 -0.003161
# 3 -0.001402 -0.001837 0.019940 -0.008444 0.009381 -0.001157
# 4 -0.003712 -0.004600 -0.008444 0.035545 -0.001589 0.004956
# 5 0.000920 0.003074 0.009381 -0.001589 0.040975 -0.006634
# 6 -0.001010 -0.003161 -0.001157 0.004956 -0.006634 0.028387
#
#
# Mechanical properties :
#
#
# Convention : Reuss Voigt Hill
#
# Bulk Modulus (GPa) = 32.71290 57.20279 44.95784
# Shear Modulus (GPa) = 29.06743 34.71262 31.89003
#
# Velocity S-wave (km/s) = 3.64406 3.98222 3.81689
# Velocity P-wave (km/s) = 5.71402 6.87580 6.32166
#
# Compressibility (1/GPa) = 0.03056898
#
# Stress axis : x y z
#
# Youngs Moduli (GPa) = 87.04150 81.21054 50.14970
#
# Poissons Ratio (x) = 0.27187 0.07033
# Poissons Ratio (y) = 0.29140 0.09211
# Poissons Ratio (z) = 0.12207 0.14916
#
# Static dielectric constant tensor:
#      x y z
#    x 1.896230 -0.045090 0.004800 
#    y -0.045090 1.873330 0.027850 
#    z 0.004800 0.027850 1.756240 
# 
# From -- ./inp_files/616778.got.cif
#   From: 2010.05.17/outbox.cif.g08.bks.cpg/sg2_309_cif.got.tgz:616778.got - 2010.06.03 11:33:40.
