data_PCOD9092670
_publ_section_title
;
Structure prediction by ZEFSAII (Michael W. Deem and Ramdas Pophale) SiO2 
 PCOD9092670
Probable space group: P -1
;
_chemical_formula_sum "Si O2"
_cell_formula_units_Z 14
_cell_length_a 23.077254
_cell_length_b 22.807168
_cell_length_c 12.874461
_cell_angle_alpha 23.215719
_cell_angle_beta 157.159242
_cell_angle_gamma 167.322308
_cell_volume 561.282021
_symmetry_space_group_name_H-M "P -1"
_symmetry_group_IT_number 2
_symmetry_cell_setting 'triclinic'
loop_
_space_group_symop_operation_xyz
x,y,z
-x,-y,-z
loop_
_atom_site_type_symbol
_atom_site_label
_atom_site_fract_x
_atom_site_fract_y
_atom_site_fract_z
Si Si1 0.713812 0.672619 0.322047
Si Si2 0.496129 0.165170 0.957372
Si Si3 0.160110 0.485245 0.761050
Si Si4 0.205885 0.214979 0.362609
Si Si5 0.362007 0.007289 0.420661
Si Si6 0.004590 0.379002 0.117159
Si Si7 0.710297 0.800959 0.892861
O O1 0.403744 0.377070 0.323538
O O2 0.860711 0.650681 0.557346
O O3 0.728423 0.798834 0.049349
O O4 0.903755 0.892348 0.371607
O O5 0.371989 0.225623 0.683908
O O6 0.785980 0.419673 0.961024
O O7 0.280046 0.913540 0.927600
O O8 0.538049 0.080068 0.255130
O O9 0.448841 0.773430 0.718169
O O10 0.000000 0.500000 0.500000
O O11 0.173554 0.368097 0.063692
O O12 0.960983 0.259876 0.707057
O O13 0.393217 0.115448 0.409673
O O14 0.000000 0.500000 0.000000
O O15 0.500000 0.500000 0.000000
O O16 0.000000 0.000000 0.000000
#
# Coordination Sequence:
#
# PCOD9092670 Si02
#       7
#     2   2   2   2   2   2   2
#     4  10  20  36  57  79 119 162 203 241 289 348
#     4  10  23  38  60  83 123 166 191 256 318 340
#     4  12  24  44  71  93 118 162 207 260 324 378
#     4  10  19  42  60  85 116 159 198 243 300 368
#     4  12  25  44  62  96 131 155 210 268 303 370
#     4  10  21  35  55  83 118 164 215 243 282 364
#     4  12  24  35  58  88 127 167 202 245 307 359
#
# _framework density 24.942898
#
# number of rings (size 3 to 8) (size 9 to 14) (size 15 to 20)
#    0.000    1.143    2.857    3.429    4.000    0.000 
#    0.000    1.429    0.000    0.000    0.000    0.000 
#    0.000    0.000    0.000    0.000    0.000    0.000 
#
# Total GULP energy -78134.262338 kJ/mol
# GULP energy per Si atom -5581.018738 kJ/mol
# Density = 2.488613 g / cm^3
# Si number density = 24.942898 Si / 1000 Ang^3
#
#
#
# Elastic Constant Matrix: (Units=GPa)
#
#
# Indices 1 2 3 4 5 6 
#
# 1 67.9859 13.6608 37.0530 3.7114 25.3066 11.7241
# 2 13.6608 91.2815 24.5737 -1.7302 -1.4695 15.8357
# 3 37.0530 24.5737 138.1068 -7.6977 38.3648 -6.1928
# 4 3.7114 -1.7302 -7.6977 33.3757 0.0677 1.8566
# 5 25.3066 -1.4695 38.3648 0.0677 37.4660 2.7866
# 6 11.7241 15.8357 -6.1928 1.8566 2.7866 32.8709
#
#
#
# Elastic Compliance Matrix: (Units=1/GPa)
#
#
# Indices 1 2 3 4 5 6 
#
# 1 0.022225 -0.001657 -0.002888 -0.002837 -0.011629 -0.006527
# 2 -0.001657 0.013677 -0.004065 0.000350 0.006363 -0.007323
# 3 -0.002888 -0.004065 0.012283 0.002626 -0.011245 0.006108
# 4 -0.002837 0.000350 0.002626 0.030922 -0.000790 -0.000342
# 5 -0.011629 0.006363 -0.011245 -0.000790 0.046680 -0.004949
# 6 -0.006527 -0.007323 0.006108 -0.000342 -0.004949 0.037867
#
#
# Mechanical properties :
#
#
# Convention : Reuss Voigt Hill
#
# Bulk Modulus (GPa) = 32.29607 49.77214 41.03410
# Shear Modulus (GPa) = 26.15095 35.54828 30.84962
#
# Velocity S-wave (km/s) = 3.24146 3.77926 3.52065
# Velocity P-wave (km/s) = 5.19476 6.24832 5.74574
#
# Compressibility (1/GPa) = 0.03096352
#
# Stress axis : x y z
#
# Youngs Moduli (GPa) = 44.99402 73.11538 81.41219
#
# Poissons Ratio (x) = 0.12117 0.23515
# Poissons Ratio (y) = 0.07457 0.33097
# Poissons Ratio (z) = 0.12996 0.29724
#
# Static dielectric constant tensor:
#      x y z
#    x 1.999910 -0.102730 0.196430 
#    y -0.102730 1.957340 -0.122560 
#    z 0.196430 -0.122560 2.582640 
# 
# From -- ./inp_files/439531.got.cif
#   From: 2010.05.17/outbox.cif.g08.bks.cpg/sg2_220_cif.got.tgz:439531.got - 2010.06.03 11:33:40.
