data_PCOD9092329
_publ_section_title
;
Structure prediction by ZEFSAII (Michael W. Deem and Ramdas Pophale) SiO2 
 PCOD9092329
Probable space group: P -1
;
_chemical_formula_sum "Si O2"
_cell_formula_units_Z 16
_cell_length_a 9.526606
_cell_length_b 13.445382
_cell_length_c 11.994524
_cell_angle_alpha 35.170831
_cell_angle_beta 118.150334
_cell_angle_gamma 101.279379
_cell_volume 723.591854
_symmetry_space_group_name_H-M "P -1"
_symmetry_group_IT_number 2
_symmetry_cell_setting 'triclinic'
loop_
_space_group_symop_operation_xyz
x,y,z
-x,-y,-z
loop_
_atom_site_type_symbol
_atom_site_label
_atom_site_fract_x
_atom_site_fract_y
_atom_site_fract_z
Si Si1 0.443475 0.823544 0.148834
Si Si2 0.196301 0.475835 0.395659
Si Si3 0.321680 0.642741 0.845554
Si Si4 0.835724 0.185468 0.791763
Si Si5 0.198478 0.438147 0.165359
Si Si6 0.930037 0.296132 0.503612
Si Si7 0.873513 0.065444 0.218123
Si Si8 0.195207 0.071642 0.445584
O O1 0.613001 0.638633 0.383092
O O2 0.334082 0.843241 0.203716
O O3 0.500000 0.000000 0.000000
O O4 0.133502 0.689029 0.213429
O O5 0.207967 0.443607 0.297026
O O6 0.062831 0.397127 0.472043
O O7 0.317279 0.821898 0.001410
O O8 0.183691 0.631555 0.714568
O O9 0.303524 0.858310 0.646293
O O10 0.500000 0.500000 0.000000
O O11 0.277254 0.572320 0.011107
O O12 0.816944 0.301998 0.563909
O O13 0.000000 0.000000 0.000000
O O14 0.278754 0.226433 0.340861
O O15 0.000000 0.500000 0.000000
O O16 0.044657 0.083221 0.712258
O O17 0.859090 0.950215 0.427837
O O18 0.022068 0.138688 0.243628
#
# Coordination Sequence:
#
# PCOD9092329 Si02
#       8
#     2   2   2   2   2   2   2   2
#     4  12  24  43  69 104 142 181 241 292 346 426
#     4  12  26  45  70 109 139 183 250 292 346 444
#     4  11  27  43  69 105 146 181 233 305 358 420
#     4  12  27  44  70 100 145 196 226 292 367 419
#     4  12  23  45  78 101 132 191 242 290 356 425
#     4  11  22  48  67  99 144 181 236 292 357 424
#     4  10  19  40  73 100 138 179 231 293 349 415
#     4  10  22  42  73 105 136 187 239 291 350 431
#
# _framework density 22.111913000000001
#
# number of rings (size 3 to 8) (size 9 to 14) (size 15 to 20)
#    0.000    0.750    5.000    2.250    5.250    1.500 
#    0.000    1.250    0.000    0.000    0.000    0.000 
#    0.000    0.000    0.000    0.000    0.000    0.000 
#
# Total GULP energy -89454.599900 kJ/mol
# GULP energy per Si atom -5590.912494 kJ/mol
# Density = 2.206159 g / cm^3
# Si number density = 22.111913 Si / 1000 Ang^3
#
#
#
# Elastic Constant Matrix: (Units=GPa)
#
#
# Indices 1 2 3 4 5 6 
#
# 1 121.7119 35.3827 47.1287 -6.8425 -2.7041 -9.9788
# 2 35.3827 118.1992 57.8036 -8.1789 1.6476 2.4609
# 3 47.1287 57.8036 109.8194 -11.8464 16.0985 9.5836
# 4 -6.8425 -8.1789 -11.8464 53.0174 -4.3254 -4.7352
# 5 -2.7041 1.6476 16.0985 -4.3254 44.6017 1.1629
# 6 -9.9788 2.4609 9.5836 -4.7352 1.1629 22.9129
#
#
#
# Elastic Compliance Matrix: (Units=1/GPa)
#
#
# Indices 1 2 3 4 5 6 
#
# 1 0.011209 -0.000921 -0.005218 0.000990 0.002504 0.007241
# 2 -0.000921 0.011676 -0.006020 0.000557 0.001716 0.000891
# 3 -0.005218 -0.006020 0.016118 0.000834 -0.005625 -0.007910
# 4 0.000990 0.000557 0.000834 0.019748 0.001549 0.004025
# 5 0.002504 0.001716 -0.005625 0.001549 0.024629 0.002329
# 6 0.007241 0.000891 -0.007910 0.004025 0.002329 0.050723
#
#
# Mechanical properties :
#
#
# Convention : Reuss Voigt Hill
#
# Bulk Modulus (GPa) = 68.08973 70.04003 69.06488
# Shear Modulus (GPa) = 30.61569 38.06743 34.34156
#
# Velocity S-wave (km/s) = 3.72503 4.15369 3.94519
# Velocity P-wave (km/s) = 7.02575 7.39921 7.21490
#
# Compressibility (1/GPa) = 0.01468650
#
# Stress axis : x y z
#
# Youngs Moduli (GPa) = 89.21267 85.64680 62.04139
#
# Poissons Ratio (x) = 0.07887 0.32372
# Poissons Ratio (y) = 0.08216 0.37347
# Poissons Ratio (z) = 0.46550 0.51556
#
# Static dielectric constant tensor:
#      x y z
#    x 1.793500 -0.001480 -0.030740 
#    y -0.001480 1.828560 0.000960 
#    z -0.030740 0.000960 1.918570 
# 
# From -- ./inp_files/562329.got.cif
#   From: 2010.05.17/outbox.cif.g08.bks.cpg/sg2_282_cif.got.tgz:562329.got - 2010.06.03 11:33:40.
