data_PCOD9092507
_publ_section_title
;
Structure prediction by ZEFSAII (Michael W. Deem and Ramdas Pophale) SiO2 
 PCOD9092507
Probable space group: P -1
;
_chemical_formula_sum "Si O2"
_cell_formula_units_Z 14
_cell_length_a 12.283945
_cell_length_b 8.478437
_cell_length_c 15.172913
_cell_angle_alpha 96.768332
_cell_angle_beta 160.376636
_cell_angle_gamma 86.605281
_cell_volume 520.606999
_symmetry_space_group_name_H-M "P -1"
_symmetry_group_IT_number 2
_symmetry_cell_setting 'triclinic'
loop_
_space_group_symop_operation_xyz
x,y,z
-x,-y,-z
loop_
_atom_site_type_symbol
_atom_site_label
_atom_site_fract_x
_atom_site_fract_y
_atom_site_fract_z
Si Si1 0.066577 0.508038 0.442021
Si Si2 0.344326 0.218320 0.665056
Si Si3 0.949161 0.335662 0.008862
Si Si4 0.364221 0.307404 0.936805
Si Si5 0.132937 0.565514 0.311885
Si Si6 0.171364 0.877425 0.256562
Si Si7 0.253547 0.973292 0.914809
O O1 0.701622 0.399726 0.160115
O O2 0.246237 0.391015 0.628602
O O3 0.959185 0.684856 0.370182
O O4 0.271611 0.522290 0.508418
O O5 0.614323 0.255871 0.796198
O O6 0.032629 0.116911 0.372148
O O7 0.495186 0.132062 0.856112
O O8 0.136949 0.411012 0.244500
O O9 0.003456 0.200022 0.970606
O O10 0.000000 0.500000 0.000000
O O11 0.221349 0.392027 0.920316
O O12 0.409905 0.132748 0.992065
O O13 0.270968 0.727301 0.378036
O O14 0.500000 0.000000 0.500000
O O15 0.927756 0.962601 0.134930
#
# Coordination Sequence:
#
# PCOD9092507 Si02
#       7
#     2   2   2   2   2   2   2
#     4   9  19  42  73 101 138 187 238 296 348 432
#     4  12  25  44  69 102 150 184 234 294 364 417
#     4  10  21  40  64 103 136 187 234 297 344 421
#     4   8  19  44  72 104 134 189 239 292 354 424
#     4   8  17  38  67 102 135 178 240 294 345 416
#     4  10  19  41  67 100 139 191 234 288 355 430
#     4  11  25  46  69 107 145 186 234 299 354 433
#
# _framework density 26.891687999999998
#
# number of rings (size 3 to 8) (size 9 to 14) (size 15 to 20)
#    0.857    1.429    1.429    0.857    0.000    1.714 
#   10.286    4.286    0.000    0.000    0.000    0.000 
#    0.000    0.000    0.000    0.000    0.000    0.000 
#
# Total GULP energy -78042.701872 kJ/mol
# GULP energy per Si atom -5574.478705 kJ/mol
# Density = 2.683048 g / cm^3
# Si number density = 26.891688 Si / 1000 Ang^3
#
#
#
# Elastic Constant Matrix: (Units=GPa)
#
#
# Indices 1 2 3 4 5 6 
#
# 1 121.7797 35.3176 51.5881 -7.3723 -10.3069 15.3382
# 2 35.3176 151.4688 90.1270 -31.9755 3.3140 13.0328
# 3 51.5881 90.1270 101.2724 -13.8158 -12.3034 -3.7266
# 4 -7.3723 -31.9755 -13.8158 57.3023 10.2193 1.4783
# 5 -10.3069 3.3140 -12.3034 10.2193 45.6072 3.2114
# 6 15.3382 13.0328 -3.7266 1.4783 3.2114 52.2827
#
#
#
# Elastic Compliance Matrix: (Units=1/GPa)
#
#
# Indices 1 2 3 4 5 6 
#
# 1 0.011720 0.003202 -0.008814 0.001279 0.000097 -0.004907
# 2 0.003202 0.019895 -0.019348 0.008335 -0.007312 -0.007064
# 3 -0.008814 -0.019348 0.032177 -0.005978 0.008777 0.009332
# 4 0.001279 0.008335 -0.005978 0.022094 -0.006662 -0.003094
# 5 0.000097 -0.007312 0.008777 -0.006662 0.026270 0.000994
# 6 -0.004907 -0.007064 0.009332 -0.003094 0.000994 0.023019
#
#
# Mechanical properties :
#
#
# Convention : Reuss Voigt Hill
#
# Bulk Modulus (GPa) = 72.08632 80.95405 76.52019
# Shear Modulus (GPa) = 26.35473 44.20432 35.27953
#
# Velocity S-wave (km/s) = 3.13394 4.05877 3.62596
# Velocity P-wave (km/s) = 6.32138 7.22038 6.78578
#
# Compressibility (1/GPa) = 0.01387226
#
# Stress axis : x y z
#
# Youngs Moduli (GPa) = 85.32062 50.26349 31.07830
#
# Poissons Ratio (x) = -0.16093 0.27393
# Poissons Ratio (y) = -0.27317 0.60129
# Poissons Ratio (z) = 0.75202 0.97248
#
# Static dielectric constant tensor:
#      x y z
#    x 2.162760 -0.059340 -0.037110 
#    y -0.059340 2.112050 -0.045970 
#    z -0.037110 -0.045970 2.196310 
# 
# From -- ./inp_files/572345.got.cif
#   From: 2010.05.17/outbox.cif.g08.bks.cpg/sg2_287_cif.got.tgz:572345.got - 2010.06.03 11:33:40.
