data_PCOD9092030
_publ_section_title
;
Structure prediction by ZEFSAII (Michael W. Deem and Ramdas Pophale) SiO2 
 PCOD9092030
Probable space group: P -1
;
_chemical_formula_sum "Si O2"
_cell_formula_units_Z 15
_cell_length_a 13.399575
_cell_length_b 9.674955
_cell_length_c 11.749709
_cell_angle_alpha 52.178252
_cell_angle_beta 32.471399
_cell_angle_gamma 51.001185
_cell_volume 623.071942
_symmetry_space_group_name_H-M "P -1"
_symmetry_group_IT_number 2
_symmetry_cell_setting 'triclinic'
loop_
_space_group_symop_operation_xyz
x,y,z
-x,-y,-z
loop_
_atom_site_type_symbol
_atom_site_label
_atom_site_fract_x
_atom_site_fract_y
_atom_site_fract_z
Si Si1 0.000000 0.000000 0.500000
Si Si2 0.572594 0.530083 0.732029
Si Si3 0.735257 0.254495 0.427375
Si Si4 0.999331 0.318765 0.492069
Si Si5 0.816063 0.377947 0.857978
Si Si6 0.338778 0.329997 0.656063
Si Si7 0.991988 0.169335 0.006423
Si Si8 0.362411 0.873206 0.183902
O O1 0.945050 0.814878 0.598005
O O2 0.177550 0.964034 0.242082
O O3 0.795805 0.465259 0.583709
O O4 0.560631 0.651948 0.570525
O O5 0.536114 0.334523 0.834110
O O6 0.405280 0.628025 0.929467
O O7 0.511905 0.261658 0.613669
O O8 0.754630 0.458062 0.327182
O O9 0.778855 0.140777 0.561108
O O10 0.860261 0.171776 0.241756
O O11 0.954301 0.255708 0.693072
O O12 0.162702 0.423779 0.291001
O O13 0.889861 0.333852 0.937147
O O14 0.189822 0.210657 0.838546
O O15 0.000000 0.000000 0.000000
O O16 0.500000 0.000000 0.000000
#
# Coordination Sequence:
#
# PCOD9092030 Si02
#       8
#     1   2   2   2   2   2   2   2
#     4  10  22  40  64  94 126 158 208 264 320 372
#     4  10  19  40  65  89 121 166 213 258 313 382
#     4  10  23  43  69  93 124 172 217 262 323 380
#     4  10  22  39  64  92 122 170 207 268 314 378
#     4  11  22  40  63  89 127 167 217 255 321 382
#     4  10  21  44  69  92 123 167 222 263 314 383
#     4  12  26  42  62  96 135 172 213 269 321 383
#     4  10  22  39  62  97 127 157 205 267 321 373
#
# _framework density 24.074266000000001
#
# number of rings (size 3 to 8) (size 9 to 14) (size 15 to 20)
#    0.000    1.600    2.667    1.600    1.867    1.600 
#    2.400    0.000    0.000    0.000    0.000    0.000 
#    0.000    0.000    0.000    0.000    0.000    0.000 
#
# Total GULP energy -83591.803029 kJ/mol
# GULP energy per Si atom -5572.786869 kJ/mol
# Density = 2.401947 g / cm^3
# Si number density = 24.074266 Si / 1000 Ang^3
#
#
#
# Elastic Constant Matrix: (Units=GPa)
#
#
# Indices 1 2 3 4 5 6 
#
# 1 108.7675 34.9598 21.0548 -4.9633 1.8459 8.1270
# 2 34.9598 98.0151 48.1315 -1.5196 -2.7084 24.9279
# 3 21.0548 48.1315 114.3143 18.9615 -0.9632 11.4562
# 4 -4.9633 -1.5196 18.9615 21.5296 15.0365 -7.1710
# 5 1.8459 -2.7084 -0.9632 15.0365 49.7576 -1.0264
# 6 8.1270 24.9279 11.4562 -7.1710 -1.0264 42.7127
#
#
#
# Elastic Compliance Matrix: (Units=1/GPa)
#
#
# Indices 1 2 3 4 5 6 
#
# 1 0.010799 -0.003307 -0.001706 0.005813 -0.002345 0.001253
# 2 -0.003307 0.016117 -0.006199 0.004011 -0.000465 -0.006452
# 3 -0.001706 -0.006199 0.015276 -0.019451 0.005832 -0.003280
# 4 0.005813 0.004011 -0.019451 0.089496 -0.027086 0.016144
# 5 -0.002345 -0.000465 0.005832 -0.027086 0.028360 -0.004713
# 6 0.001253 -0.006452 -0.003280 0.016144 -0.004713 0.030416
#
#
# Mechanical properties :
#
#
# Convention : Reuss Voigt Hill
#
# Bulk Modulus (GPa) = 50.59054 58.82103 54.70578
# Shear Modulus (GPa) = 22.78137 37.26335 30.02236
#
# Velocity S-wave (km/s) = 3.07953 3.93854 3.53522
# Velocity P-wave (km/s) = 5.80557 6.72079 6.27987
#
# Compressibility (1/GPa) = 0.01976654
#
# Stress axis : x y z
#
# Youngs Moduli (GPa) = 92.60460 62.04814 65.46050
#
# Poissons Ratio (x) = 0.20520 0.11168
# Poissons Ratio (y) = 0.30625 0.40581
# Poissons Ratio (z) = 0.15799 0.38466
#
# Static dielectric constant tensor:
#      x y z
#    x 2.138780 -0.027350 -0.016510 
#    y -0.027350 2.009910 -0.007090 
#    z -0.016510 -0.007090 1.943430 
# 
# From -- ./inp_files/445605.got.cif
#   From: 2010.05.17/outbox.cif.g08.bks.cpg/sg2_223_cif.got.tgz:445605.got - 2010.06.03 11:33:40.
