data_PCOD9092938
_publ_section_title
;
Structure prediction by ZEFSAII (Michael W. Deem and Ramdas Pophale) SiO2 
 PCOD9092938
Probable space group: P -1
;
_chemical_formula_sum "Si O2"
_cell_formula_units_Z 16
_cell_length_a 5.173818
_cell_length_b 22.265983
_cell_length_c 9.164064
_cell_angle_alpha 137.805200
_cell_angle_beta 86.724988
_cell_angle_gamma 75.040804
_cell_volume 632.868422
_symmetry_space_group_name_H-M "P -1"
_symmetry_group_IT_number 2
_symmetry_cell_setting 'triclinic'
loop_
_space_group_symop_operation_xyz
x,y,z
-x,-y,-z
loop_
_atom_site_type_symbol
_atom_site_label
_atom_site_fract_x
_atom_site_fract_y
_atom_site_fract_z
Si Si1 0.740634 0.866031 0.463280
Si Si2 0.767956 0.591051 0.082396
Si Si3 0.555736 0.792704 0.074408
Si Si4 0.017095 0.589938 0.742106
Si Si5 0.457655 0.808399 0.620809
Si Si6 0.061260 0.966337 0.269200
Si Si7 0.226305 0.086705 0.073175
Si Si8 0.302460 0.669965 0.047717
O O1 0.651271 0.864050 0.294545
O O2 0.502930 0.857954 0.559741
O O3 0.007701 0.756013 0.277108
O O4 0.836642 0.952519 0.647419
O O5 0.618150 0.691112 0.366051
O O6 0.475659 0.593195 0.030674
O O7 0.907591 0.595026 0.924889
O O8 0.000000 0.500000 0.000000
O O9 0.325879 0.856589 0.078982
O O10 0.414161 0.745263 0.108146
O O11 0.832659 0.692040 0.842146
O O12 0.000000 0.500000 0.500000
O O13 0.303734 0.601074 0.788716
O O14 0.111256 0.863641 0.767173
O O15 0.661176 0.829585 0.767665
O O16 0.825203 0.950592 0.150813
O O17 0.000000 0.000000 0.500000
O O18 0.500000 0.000000 0.000000
#
# Coordination Sequence:
#
# PCOD9092938 Si02
#       8
#     2   2   2   2   2   2   2   2
#     4  11  23  43  82 111 153 214 266 330 398 488
#     4  11  25  45  74 114 149 210 266 330 405 482
#     4  10  22  43  72 113 149 205 263 321 403 471
#     4  10  23  44  73 109 150 204 263 325 408 475
#     4  12  27  53  81 112 162 216 270 329 405 492
#     4  12  28  48  77 118 157 208 269 338 402 482
#     4  12  33  52  80 117 159 214 274 335 407 481
#     4  10  19  44  72 106 151 206 260 315 408 475
#
# _framework density 25.281717
#
# number of rings (size 3 to 8) (size 9 to 14) (size 15 to 20)
#    0.000    1.000    5.000    1.500    7.000    4.500 
#    4.500    0.000    0.000    0.000    0.000    0.000 
#    0.000    0.000    0.000    0.000    0.000    0.250 
#
# Total GULP energy -89159.817912 kJ/mol
# GULP energy per Si atom -5572.488620 kJ/mol
# Density = 2.522417 g / cm^3
# Si number density = 25.281717 Si / 1000 Ang^3
#
#
#
# Elastic Constant Matrix: (Units=GPa)
#
#
# Indices 1 2 3 4 5 6 
#
# 1 143.5088 64.2444 66.5235 -8.3618 5.1375 -28.3494
# 2 64.2444 129.2980 72.5021 9.8554 -4.5080 -44.4747
# 3 66.5235 72.5021 189.4994 -5.7855 36.2833 -32.0916
# 4 -8.3618 9.8554 -5.7855 38.8013 -12.6334 -13.8282
# 5 5.1375 -4.5080 36.2833 -12.6334 50.1992 -12.7856
# 6 -28.3494 -44.4747 -32.0916 -13.8282 -12.7856 63.0187
#
#
#
# Elastic Compliance Matrix: (Units=1/GPa)
#
#
# Indices 1 2 3 4 5 6 
#
# 1 0.010049 -0.003205 -0.002117 0.004163 0.001893 0.002478
# 2 -0.003205 0.014960 -0.004556 0.000078 0.007085 0.008251
# 3 -0.002117 -0.004556 0.008894 -0.000736 -0.007123 -0.001245
# 4 0.004163 0.000078 -0.000736 0.034445 0.011707 0.011487
# 5 0.001893 0.007085 -0.007123 0.011707 0.031296 0.011143
# 6 0.002478 0.008251 -0.001245 0.011487 0.011143 0.026953
#
#
# Mechanical properties :
#
#
# Convention : Reuss Voigt Hill
#
# Bulk Modulus (GPa) = 70.68283 96.53848 83.61066
# Shear Modulus (GPa) = 33.09773 47.67292 40.38533
#
# Velocity S-wave (km/s) = 3.62215 4.34714 4.00110
# Velocity P-wave (km/s) = 6.74627 7.96648 7.38163
#
# Compressibility (1/GPa) = 0.01414771
#
# Stress axis : x y z
#
# Youngs Moduli (GPa) = 99.51640 66.84488 112.43805
#
# Poissons Ratio (x) = 0.21421 0.23805
# Poissons Ratio (y) = 0.31891 0.51223
# Poissons Ratio (z) = 0.21069 0.30452
#
# Static dielectric constant tensor:
#      x y z
#    x 2.514860 -0.021500 -0.016630 
#    y -0.021500 2.019380 -0.058750 
#    z -0.016630 -0.058750 2.144020 
# 
# From -- ./inp_files/371477.got.cif
#   From: 2010.05.17/outbox.cif.g08.bks.cpg/sg2_186_cif.got.tgz:371477.got - 2010.06.03 11:33:40.
