data_PCOD9092336
_publ_section_title
;
Structure prediction by ZEFSAII (Michael W. Deem and Ramdas Pophale) SiO2 
 PCOD9092336
Probable space group: P -1
;
_chemical_formula_sum "Si O2"
_cell_formula_units_Z 16
_cell_length_a 19.968736
_cell_length_b 23.912327
_cell_length_c 9.322097
_cell_angle_alpha 156.637506
_cell_angle_beta 40.232711
_cell_angle_gamma 156.355957
_cell_volume 618.114950
_symmetry_space_group_name_H-M "P -1"
_symmetry_group_IT_number 2
_symmetry_cell_setting 'triclinic'
loop_
_space_group_symop_operation_xyz
x,y,z
-x,-y,-z
loop_
_atom_site_type_symbol
_atom_site_label
_atom_site_fract_x
_atom_site_fract_y
_atom_site_fract_z
Si Si1 0.715990 0.810783 0.391433
Si Si2 0.726010 0.560005 0.955164
Si Si3 0.408705 0.218220 0.914947
Si Si4 0.636881 0.313360 0.010512
Si Si5 0.542359 0.907320 0.928054
Si Si6 0.853709 0.430610 0.493317
Si Si7 0.028926 0.604379 0.046233
Si Si8 0.795836 0.789193 0.905406
O O1 0.686599 0.938741 0.787408
O O2 0.500000 0.500000 0.000000
O O3 0.795108 0.790095 0.329111
O O4 0.795954 0.882258 0.268543
O O5 0.561536 0.387522 0.935710
O O6 0.626889 0.353944 0.505646
O O7 0.880074 0.627958 0.927803
O O8 0.203898 0.912769 0.494854
O O9 0.498044 0.227212 0.917871
O O10 0.337973 0.300166 0.212219
O O11 0.525453 0.113732 0.855729
O O12 0.720138 0.549464 0.507505
O O13 0.826566 0.446185 0.961827
O O14 0.650147 0.149632 0.230438
O O15 0.000000 0.500000 0.500000
O O16 0.895162 0.428569 0.260725
O O17 0.000000 0.500000 0.000000
O O18 0.000000 0.000000 0.000000
#
# Coordination Sequence:
#
# PCOD9092336 Si02
#       8
#     2   2   2   2   2   2   2   2
#     4  10  19  40  73  95 128 176 231 275 339 416
#     4  11  21  44  74  93 131 183 229 276 347 410
#     4  12  25  44  72 103 138 182 228 285 352 412
#     4  12  26  43  72 105 138 181 233 283 344 420
#     4  11  22  45  72  96 136 178 232 279 340 411
#     4  12  27  45  69 101 138 181 236 286 339 412
#     4  12  28  46  67 100 145 181 230 290 344 407
#     4  12  22  42  72 103 140 176 224 288 352 407
#
# _framework density 25.885152999999999
#
# number of rings (size 3 to 8) (size 9 to 14) (size 15 to 20)
#    0.000    0.500    7.500    2.250    3.500    0.500 
#    0.000    0.625    0.000    0.000    0.000    0.000 
#    0.000    0.000    0.000    0.000    0.000    0.000 
#
# Total GULP energy -89591.397201 kJ/mol
# GULP energy per Si atom -5599.462325 kJ/mol
# Density = 2.582624 g / cm^3
# Si number density = 25.885153 Si / 1000 Ang^3
#
#
#
# Elastic Constant Matrix: (Units=GPa)
#
#
# Indices 1 2 3 4 5 6 
#
# 1 158.0732 76.2458 21.4367 -2.0747 -24.5241 1.1592
# 2 76.2458 177.6851 15.4642 -16.1264 8.6038 -10.7635
# 3 21.4367 15.4642 31.2841 3.5461 -20.3453 -6.0163
# 4 -2.0747 -16.1264 3.5461 33.6698 4.8616 -1.0321
# 5 -24.5241 8.6038 -20.3453 4.8616 53.5133 -6.1993
# 6 1.1592 -10.7635 -6.0163 -1.0321 -6.1993 63.3774
#
#
#
# Elastic Compliance Matrix: (Units=1/GPa)
#
#
# Indices 1 2 3 4 5 6 
#
# 1 0.009258 -0.004332 -0.001044 -0.002086 0.004664 -0.000582
# 2 -0.004332 0.008817 -0.005855 0.005464 -0.006066 0.000517
# 3 -0.001044 -0.005855 0.052395 -0.011396 0.022111 0.005976
# 4 -0.002086 0.005464 -0.011396 0.034729 -0.009376 -0.000467
# 5 0.004664 -0.006066 0.022111 -0.009376 0.031511 0.003913
# 6 -0.000582 0.000517 0.005976 -0.000467 0.003913 0.016819
#
#
# Mechanical properties :
#
#
# Convention : Reuss Voigt Hill
#
# Bulk Modulus (GPa) = 20.82997 65.92621 43.37809
# Shear Modulus (GPa) = 26.04233 47.03848 36.54040
#
# Velocity S-wave (km/s) = 3.17530 4.26749 3.76125
# Velocity P-wave (km/s) = 4.63767 7.05733 5.97134
#
# Compressibility (1/GPa) = 0.04800774
#
# Stress axis : x y z
#
# Youngs Moduli (GPa) = 108.01562 113.41243 19.08568
#
# Poissons Ratio (x) = 0.49132 0.01993
# Poissons Ratio (y) = 0.46794 0.11174
# Poissons Ratio (z) = 0.11282 0.66401
#
# Static dielectric constant tensor:
#      x y z
#    x 2.183640 0.077440 0.044400 
#    y 0.077440 2.017000 0.073510 
#    z 0.044400 0.073510 2.143350 
# 
# From -- ./inp_files/188028.got.cif
#   From: 2010.05.17/outbox.cif.g08.bks.cpg/sg2_95_cif.got.tgz:188028.got - 2010.06.03 11:33:40.
