data_PCOD9092554
_publ_section_title
;
Structure prediction by ZEFSAII (Michael W. Deem and Ramdas Pophale) SiO2 
 PCOD9092554
Probable space group: P -1
;
_chemical_formula_sum "Si O2"
_cell_formula_units_Z 14
_cell_length_a 9.384691
_cell_length_b 11.523391
_cell_length_c 11.399146
_cell_angle_alpha 112.302365
_cell_angle_beta 135.975607
_cell_angle_gamma 103.482547
_cell_volume 489.013779
_symmetry_space_group_name_H-M "P -1"
_symmetry_group_IT_number 2
_symmetry_cell_setting 'triclinic'
loop_
_space_group_symop_operation_xyz
x,y,z
-x,-y,-z
loop_
_atom_site_type_symbol
_atom_site_label
_atom_site_fract_x
_atom_site_fract_y
_atom_site_fract_z
Si Si1 0.066544 0.117028 0.256106
Si Si2 0.255589 0.572349 0.863379
Si Si3 0.452222 0.940655 0.082776
Si Si4 0.048719 0.665227 0.048259
Si Si5 0.280639 0.066279 0.563191
Si Si6 0.517721 0.562052 0.787968
Si Si7 0.607781 0.342582 0.476886
O O1 0.017613 0.000884 0.294435
O O2 0.278471 0.334695 0.517497
O O3 0.309619 0.171848 0.325135
O O4 0.751984 0.037152 0.983926
O O5 0.241825 0.709873 0.861011
O O6 0.384118 0.548815 0.826516
O O7 0.891719 0.378061 0.627005
O O8 0.526870 0.720854 0.182745
O O9 0.754123 0.038505 0.382707
O O10 0.500000 0.000000 0.000000
O O11 0.888050 0.681698 0.051471
O O12 0.820324 0.553901 0.753214
O O13 0.000000 0.500000 0.000000
O O14 0.427226 0.860420 0.309756
O O15 0.518096 0.663190 0.721953
#
# Coordination Sequence:
#
# PCOD9092554 Si02
#       7
#     2   2   2   2   2   2   2
#     4  11  19  33  59  82 102 146 176 214 272 317
#     4   9  21  33  49  84 114 137 168 221 277 308
#     4  10  22  38  53  76 107 142 190 223 251 311
#     4  10  16  29  48  77 112 138 167 207 261 329
#     4   9  19  35  52  80 106 137 186 211 261 321
#     4  11  18  30  52  82 118 136 164 217 278 327
#     4  10  18  30  51  80 108 134 176 209 264 334
#
# _framework density 28.629047
#
# number of rings (size 3 to 8) (size 9 to 14) (size 15 to 20)
#    0.857    1.143    4.286    3.000    0.000    1.143 
#    0.000    0.000    0.000    3.429    0.000    2.000 
#    0.000    0.000    0.000    0.000    0.000    0.000 
#
# Total GULP energy -78392.421632 kJ/mol
# GULP energy per Si atom -5599.458688 kJ/mol
# Density = 2.856389 g / cm^3
# Si number density = 28.629047 Si / 1000 Ang^3
#
#
#
# Elastic Constant Matrix: (Units=GPa)
#
#
# Indices 1 2 3 4 5 6 
#
# 1 258.3161 34.8352 43.7814 -7.5744 13.9390 16.2233
# 2 34.8352 116.5983 47.9643 -36.7677 -7.9845 5.5665
# 3 43.7814 47.9643 156.3078 -32.6028 -0.6786 6.9973
# 4 -7.5744 -36.7677 -32.6028 49.6140 3.2843 -4.4057
# 5 13.9390 -7.9845 -0.6786 3.2843 45.3590 3.5123
# 6 16.2233 5.5665 6.9973 -4.4057 3.5123 43.5548
#
#
#
# Elastic Compliance Matrix: (Units=1/GPa)
#
#
# Indices 1 2 3 4 5 6 
#
# 1 0.004329 -0.001209 -0.000978 -0.000899 -0.001394 -0.001279
# 2 -0.001209 0.012200 -0.001820 0.007511 0.001965 -0.000215
# 3 -0.000978 -0.001820 0.008027 0.003760 -0.000149 -0.000300
# 4 -0.000899 0.007511 0.003760 0.028238 -0.000519 0.001669
# 5 -0.001394 0.001965 -0.000149 -0.000519 0.022981 -0.001614
# 6 -0.001279 -0.000215 -0.000300 0.001669 -0.001614 0.023811
#
#
# Mechanical properties :
#
#
# Convention : Reuss Voigt Hill
#
# Bulk Modulus (GPa) = 60.45205 87.15379 73.80292
# Shear Modulus (GPa) = 44.20334 54.68163 49.44248
#
# Velocity S-wave (km/s) = 3.93364 4.37510 4.16023
# Velocity P-wave (km/s) = 6.46474 7.48536 6.99369
#
# Compressibility (1/GPa) = 0.01654204
#
# Stress axis : x y z
#
# Youngs Moduli (GPa) = 230.98948 81.96921 124.57804
#
# Poissons Ratio (x) = 0.09910 0.12182
# Poissons Ratio (y) = 0.27926 0.22675
# Poissons Ratio (z) = 0.22588 0.14919
#
# Static dielectric constant tensor:
#      x y z
#    x 2.210880 0.007050 -0.021520 
#    y 0.007050 2.253500 0.063340 
#    z -0.021520 0.063340 2.330450 
# 
# From -- ./inp_files/394290.got.cif
#   From: 2010.05.17/outbox.cif.g08.bks.cpg/sg2_198_cif.got.tgz:394290.got - 2010.06.03 11:33:40.
