data_PCOD9092704
_publ_section_title
;
Structure prediction by ZEFSAII (Michael W. Deem and Ramdas Pophale) SiO2 
 PCOD9092704
Probable space group: P -1
;
_chemical_formula_sum "Si O2"
_cell_formula_units_Z 12
_cell_length_a 14.494350
_cell_length_b 7.587964
_cell_length_c 11.574166
_cell_angle_alpha 48.302676
_cell_angle_beta 33.496136
_cell_angle_gamma 66.002606
_cell_volume 489.537155
_symmetry_space_group_name_H-M "P -1"
_symmetry_group_IT_number 2
_symmetry_cell_setting 'triclinic'
loop_
_space_group_symop_operation_xyz
x,y,z
-x,-y,-z
loop_
_atom_site_type_symbol
_atom_site_label
_atom_site_fract_x
_atom_site_fract_y
_atom_site_fract_z
Si Si1 0.795455 0.483781 0.629114
Si Si2 0.892849 0.044552 0.380406
Si Si3 0.723558 0.710748 0.016113
Si Si4 0.830555 0.378418 0.890880
Si Si5 0.478986 0.036666 0.162294
Si Si6 0.706084 0.191525 0.330643
O O1 0.814230 0.333692 0.791477
O O2 0.955011 0.509796 0.363426
O O3 0.830307 0.765289 0.512281
O O4 0.596059 0.315618 0.875304
O O5 0.886537 0.217292 0.201060
O O6 0.080207 0.119819 0.215341
O O7 0.726176 0.056945 0.624882
O O8 0.755653 0.596175 0.910224
O O9 0.667545 0.451184 0.262704
O O10 0.585510 0.853016 0.102866
O O11 0.738847 0.158532 0.175553
O O12 0.442950 0.018806 0.347450
#
# Coordination Sequence:
#
# PCOD9092704 Si02
#       6
#     2   2   2   2   2   2
#     4  11  21  40  56  91 125 160 193 243 298 357
#     4  10  22  38  66  87 124 151 200 247 299 351
#     4  10  19  42  65  87 118 155 205 245 294 348
#     4   9  22  37  64  89 116 165 201 232 307 349
#     4  10  22  38  66  87 124 151 200 247 299 351
#     4   8  21  39  62  92 115 153 205 245 292 351
#
# _framework density 24.512951000000001
#
# number of rings (size 3 to 8) (size 9 to 14) (size 15 to 20)
#    2.000    0.333    0.000    3.500    0.000    4.000 
#    0.000    5.000    3.667    0.000    0.000    0.000 
#    0.000    0.000    0.000    0.000    0.000    0.000 
#
# Total GULP energy -66872.088168 kJ/mol
# GULP energy per Si atom -5572.674014 kJ/mol
# Density = 2.445716 g / cm^3
# Si number density = 24.512951 Si / 1000 Ang^3
#
#
#
# Elastic Constant Matrix: (Units=GPa)
#
#
# Indices 1 2 3 4 5 6 
#
# 1 57.2951 5.6553 6.0010 15.3110 6.9000 -2.3618
# 2 5.6553 91.3647 9.8818 17.1296 -5.5728 -20.7462
# 3 6.0010 9.8818 85.0896 23.6210 7.0425 -5.6969
# 4 15.3110 17.1296 23.6210 43.4192 -2.1955 -3.3709
# 5 6.9000 -5.5728 7.0425 -2.1955 47.3293 10.1258
# 6 -2.3618 -20.7462 -5.6969 -3.3709 10.1258 22.2266
#
#
#
# Elastic Compliance Matrix: (Units=1/GPa)
#
#
# Indices 1 2 3 4 5 6 
#
# 1 0.020048 0.000736 0.001330 -0.007997 -0.004234 0.003874
# 2 0.000736 0.014988 0.000872 -0.005631 -0.001782 0.014249
# 3 0.001330 0.000872 0.014579 -0.008538 -0.003749 0.005105
# 4 -0.007997 -0.005631 -0.008538 0.032524 0.004433 -0.005381
# 5 -0.004234 -0.001782 -0.003749 0.004433 0.025277 -0.013917
# 6 0.003874 0.014249 0.005105 -0.005381 -0.013917 0.065536
#
#
# Mechanical properties :
#
#
# Convention : Reuss Voigt Hill
#
# Bulk Modulus (GPa) = 18.02043 30.75841 24.38942
# Shear Modulus (GPa) = 26.94363 36.74245 31.84304
#
# Velocity S-wave (km/s) = 3.31895 3.87576 3.60811
# Velocity P-wave (km/s) = 4.69623 5.70997 5.22773
#
# Compressibility (1/GPa) = 0.05549258
#
# Stress axis : x y z
#
# Youngs Moduli (GPa) = 49.87990 66.72077 68.58966
#
# Poissons Ratio (x) = -0.04911 -0.09125
# Poissons Ratio (y) = -0.03671 -0.05982
# Poissons Ratio (z) = -0.06636 -0.05819
#
# Static dielectric constant tensor:
#      x y z
#    x 2.111290 0.009730 -0.029760 
#    y 0.009730 1.916160 -0.008400 
#    z -0.029760 -0.008400 2.005780 
# 
# From -- ./inp_files/578871.got.cif
#   From: 2010.05.17/outbox.cif.g08.bks.cpg/sg2_290_cif.got.tgz:578871.got - 2010.06.03 11:33:40.
