data_PCOD9092303
_publ_section_title
;
Structure prediction by ZEFSAII (Michael W. Deem and Ramdas Pophale) SiO2 
 PCOD9092303
Probable space group: P -1
;
_chemical_formula_sum "Si O2"
_cell_formula_units_Z 16
_cell_length_a 13.088720
_cell_length_b 8.914464
_cell_length_c 10.515950
_cell_angle_alpha 51.397391
_cell_angle_beta 100.197891
_cell_angle_gamma 68.486522
_cell_volume 740.152360
_symmetry_space_group_name_H-M "P -1"
_symmetry_group_IT_number 2
_symmetry_cell_setting 'triclinic'
loop_
_space_group_symop_operation_xyz
x,y,z
-x,-y,-z
loop_
_atom_site_type_symbol
_atom_site_label
_atom_site_fract_x
_atom_site_fract_y
_atom_site_fract_z
Si Si1 0.483486 0.801059 0.146375
Si Si2 0.777129 0.759930 0.525353
Si Si3 0.760140 0.803264 0.991514
Si Si4 0.210413 0.507309 0.076973
Si Si5 0.367144 0.719694 0.923767
Si Si6 0.228327 0.583737 0.498347
Si Si7 0.952715 0.430823 0.405515
Si Si8 0.059416 0.067171 0.085929
O O1 0.628911 0.554771 0.334537
O O2 0.382404 0.936635 0.169764
O O3 0.407754 0.772623 0.036341
O O4 0.500000 0.000000 0.000000
O O5 0.747187 0.675622 0.694161
O O6 0.766282 0.603748 0.498716
O O7 0.926104 0.679613 0.604799
O O8 0.696222 0.038942 0.307557
O O9 0.772538 0.648272 0.958445
O O10 0.882814 0.805733 0.024650
O O11 0.801698 0.643607 0.213452
O O12 0.283588 0.624903 0.995433
O O13 0.058872 0.738184 0.950158
O O14 0.500000 0.500000 0.000000
O O15 0.085313 0.733295 0.462135
O O16 0.194032 0.815107 0.294269
O O17 0.000000 0.500000 0.500000
O O18 0.000000 0.000000 0.000000
#
# Coordination Sequence:
#
# PCOD9092303 Si02
#       8
#     2   2   2   2   2   2   2   2
#     4  12  23  46  72 100 143 193 243 296 363 437
#     4  11  23  46  75 105 147 189 241 303 373 428
#     4  12  25  44  73 102 151 185 236 308 359 430
#     4  12  27  48  73 110 148 191 242 306 368 433
#     4  12  28  49  74 106 148 194 244 303 368 439
#     4  11  23  41  76 106 138 192 248 297 365 436
#     4  10  19  40  71 102 131 182 234 294 358 417
#     4  12  23  45  72 108 143 184 244 300 362 428
#
# _framework density 21.617170999999999
#
# number of rings (size 3 to 8) (size 9 to 14) (size 15 to 20)
#    0.000    0.500    5.000    4.125    0.000    2.000 
#    0.000    1.250    0.000    0.000    0.000    0.000 
#    0.000    0.000    0.000    0.000    0.000    0.000 
#
# Total GULP energy -89075.031131 kJ/mol
# GULP energy per Si atom -5567.189446 kJ/mol
# Density = 2.156797 g / cm^3
# Si number density = 21.617171 Si / 1000 Ang^3
#
#
#
# Elastic Constant Matrix: (Units=GPa)
#
#
# Indices 1 2 3 4 5 6 
#
# 1 85.8040 33.7251 2.2541 6.8835 2.2148 -16.2996
# 2 33.7251 88.0869 18.6004 -1.2741 -2.6565 -7.0870
# 3 2.2541 18.6004 116.2149 -15.8857 10.1660 -12.5047
# 4 6.8835 -1.2741 -15.8857 37.1141 -2.4953 12.3293
# 5 2.2148 -2.6565 10.1660 -2.4953 26.0429 -1.3370
# 6 -16.2996 -7.0870 -12.5047 12.3293 -1.3370 29.9339
#
#
#
# Elastic Compliance Matrix: (Units=1/GPa)
#
#
# Indices 1 2 3 4 5 6 
#
# 1 0.016545 -0.005879 0.001096 -0.006506 -0.002511 0.010642
# 2 -0.005879 0.014112 -0.002371 0.001153 0.002914 -0.001195
# 3 0.001096 -0.002371 0.009987 0.002772 -0.003819 0.002895
# 4 -0.006506 0.001153 0.002772 0.034973 0.002097 -0.016423
# 5 -0.002511 0.002914 -0.003819 0.002097 0.040533 -0.001326
# 6 0.010642 -0.001195 0.002895 -0.016423 -0.001326 0.046833
#
#
# Mechanical properties :
#
#
# Convention : Reuss Voigt Hill
#
# Bulk Modulus (GPa) = 37.97081 44.36277 41.16679
# Shear Modulus (GPa) = 26.87142 34.31991 30.59567
#
# Velocity S-wave (km/s) = 3.52953 3.98882 3.76618
# Velocity P-wave (km/s) = 5.84922 6.46381 6.16418
#
# Compressibility (1/GPa) = 0.02633602
#
# Stress axis : x y z
#
# Youngs Moduli (GPa) = 60.44149 70.85981 100.12605
#
# Poissons Ratio (x) = 0.41661 -0.10970
# Poissons Ratio (y) = 0.35536 0.23735
# Poissons Ratio (z) = -0.06622 0.16798
#
# Static dielectric constant tensor:
#      x y z
#    x 1.716210 -0.010010 -0.069300 
#    y -0.010010 1.752530 0.076980 
#    z -0.069300 0.076980 1.779700 
# 
# From -- ./inp_files/297687.got.cif
#   From: 2010.05.17/outbox.cif.g08.bks.cpg/sg2_149_cif.got.tgz:297687.got - 2010.06.03 11:33:40.
