data_PCOD9092832
_publ_section_title
;
Structure prediction by ZEFSAII (Michael W. Deem and Ramdas Pophale) SiO2 
 PCOD9092832
Probable space group: P -1
;
_chemical_formula_sum "Si O2"
_cell_formula_units_Z 12
_cell_length_a 11.600178
_cell_length_b 9.386629
_cell_length_c 9.352154
_cell_angle_alpha 132.678183
_cell_angle_beta 48.931296
_cell_angle_gamma 101.534091
_cell_volume 506.088318
_symmetry_space_group_name_H-M "P -1"
_symmetry_group_IT_number 2
_symmetry_cell_setting 'triclinic'
loop_
_space_group_symop_operation_xyz
x,y,z
-x,-y,-z
loop_
_atom_site_type_symbol
_atom_site_label
_atom_site_fract_x
_atom_site_fract_y
_atom_site_fract_z
Si Si1 0.874056 0.039414 0.761148
Si Si2 0.120284 0.066328 0.780913
Si Si3 0.424424 0.136851 0.510515
Si Si4 0.543405 0.443400 0.263005
Si Si5 0.322070 0.551542 0.262379
Si Si6 0.781469 0.817080 0.915033
O O1 0.937996 0.148755 0.910400
O O2 0.867669 0.837808 0.711636
O O3 0.690586 0.204892 0.966853
O O4 0.000000 0.000000 0.500000
O O5 0.245422 0.133183 0.631393
O O6 0.206583 0.805950 0.523105
O O7 0.132426 0.131252 0.979645
O O8 0.397013 0.378723 0.717601
O O9 0.500000 0.000000 0.500000
O O10 0.585380 0.005519 0.188272
O O11 0.500000 0.500000 0.500000
O O12 0.380101 0.482694 0.330645
O O13 0.231385 0.403381 0.192530
O O14 0.500000 0.500000 0.000000
#
# Coordination Sequence:
#
# PCOD9092832 Si02
#       6
#     2   2   2   2   2   2
#     4  12  28  44  65 109 156 178 227 306 370 406
#     4  11  23  46  70 104 144 182 236 301 349 422
#     4  10  19  42  74 101 128 186 246 279 339 425
#     4  12  24  45  73 106 140 191 239 293 358 423
#     4  12  22  41  77 104 136 187 248 288 342 437
#     4  11  23  44  75 102 134 195 245 281 348 434
#
# _framework density 23.711276999999999
#
# number of rings (size 3 to 8) (size 9 to 14) (size 15 to 20)
#    0.000    0.667    6.667    2.500    0.000    3.333 
#    0.000    1.667    0.000    0.000    0.000    0.000 
#    0.000    0.000    0.000    0.000    0.000    0.000 
#
# Total GULP energy -67127.708320 kJ/mol
# GULP energy per Si atom -5593.975693 kJ/mol
# Density = 2.365731 g / cm^3
# Si number density = 23.711277 Si / 1000 Ang^3
#
#
#
# Elastic Constant Matrix: (Units=GPa)
#
#
# Indices 1 2 3 4 5 6 
#
# 1 60.5044 21.1976 -8.6158 4.8361 8.7655 8.1623
# 2 21.1976 138.8185 33.1442 -6.8153 21.9413 17.4869
# 3 -8.6158 33.1442 59.5116 -12.3493 15.2438 -4.7043
# 4 4.8361 -6.8153 -12.3493 51.0506 0.6651 8.5806
# 5 8.7655 21.9413 15.2438 0.6651 33.1085 3.8805
# 6 8.1623 17.4869 -4.7043 8.5806 3.8805 37.0862
#
#
#
# Elastic Compliance Matrix: (Units=1/GPa)
#
#
# Indices 1 2 3 4 5 6 
#
# 1 0.019574 -0.003407 0.005916 -0.000598 -0.005491 -0.001238
# 2 -0.003407 0.010136 -0.005575 0.001156 -0.002718 -0.004720
# 3 0.005916 -0.005575 0.024441 0.003974 -0.009735 0.004526
# 4 -0.000598 0.001156 0.003974 0.021574 -0.002325 -0.004658
# 5 -0.005491 -0.002718 -0.009735 -0.002325 0.038247 -0.002209
# 6 -0.001238 -0.004720 0.004526 -0.004658 -0.002209 0.031345
#
#
# Mechanical properties :
#
#
# Convention : Reuss Voigt Hill
#
# Bulk Modulus (GPa) = 20.82544 38.92071 29.87308
# Shear Modulus (GPa) = 29.85872 38.45630 34.15751
#
# Velocity S-wave (km/s) = 3.55246 4.03160 3.79959
# Velocity P-wave (km/s) = 5.06247 6.17428 5.64581
#
# Compressibility (1/GPa) = 0.04801819
#
# Stress axis : x y z
#
# Youngs Moduli (GPa) = 51.08792 98.65860 40.91497
#
# Poissons Ratio (x) = 0.33612 -0.24204
# Poissons Ratio (y) = 0.17405 0.22811
# Poissons Ratio (z) = -0.30222 0.55005
#
# Static dielectric constant tensor:
#      x y z
#    x 1.937220 0.023170 0.009480 
#    y 0.023170 1.943130 -0.067470 
#    z 0.009480 -0.067470 1.948130 
# 
# From -- ./inp_files/245733.got.cif
#   From: 2010.05.17/outbox.cif.g08.bks.cpg/sg2_123_cif.got.tgz:245733.got - 2010.06.03 11:33:40.
