data_PCOD9092449
_publ_section_title
;
Structure prediction by ZEFSAII (Michael W. Deem and Ramdas Pophale) SiO2 
 PCOD9092449
Probable space group: P -1
;
_chemical_formula_sum "Si O2"
_cell_formula_units_Z 16
_cell_length_a 13.864651
_cell_length_b 7.126253
_cell_length_c 12.046995
_cell_angle_alpha 82.242179
_cell_angle_beta 75.714790
_cell_angle_gamma 36.255232
_cell_volume 677.880493
_symmetry_space_group_name_H-M "P -1"
_symmetry_group_IT_number 2
_symmetry_cell_setting 'triclinic'
loop_
_space_group_symop_operation_xyz
x,y,z
-x,-y,-z
loop_
_atom_site_type_symbol
_atom_site_label
_atom_site_fract_x
_atom_site_fract_y
_atom_site_fract_z
Si Si1 0.079979 0.364305 0.366709
Si Si2 0.332614 0.569255 0.148536
Si Si3 0.111063 0.716392 0.578411
Si Si4 0.456274 0.801077 0.102467
Si Si5 0.023833 0.203082 0.073837
Si Si6 0.645112 0.780651 0.641620
Si Si7 0.896721 0.512208 0.871583
Si Si8 0.299077 0.444080 0.754586
O O1 0.269180 0.149926 0.350978
O O2 0.025587 0.586210 0.264683
O O3 0.000000 0.500000 0.500000
O O4 0.015861 0.258463 0.351568
O O5 0.381438 0.708233 0.159142
O O6 0.322221 0.441027 0.263760
O O7 0.466502 0.319666 0.033378
O O8 0.152615 0.858074 0.117034
O O9 0.264824 0.404867 0.484433
O O10 0.189384 0.701312 0.664181
O O11 0.000000 0.000000 0.500000
O O12 0.600473 0.612848 0.168355
O O13 0.305418 0.187830 0.110410
O O14 0.837402 0.475859 0.152707
O O15 0.092757 0.301832 0.082547
O O16 0.003125 0.218589 0.946310
O O17 0.446774 0.108784 0.675080
#
# Coordination Sequence:
#
# PCOD9092449 Si02
#       8
#     2   2   2   2   2   2   2   2
#     4  10  22  43  66  94 125 173 216 263 324 391
#     4  10  23  46  62  99 136 173 214 270 328 376
#     4  11  25  47  69  94 130 169 218 276 326 381
#     4  10  23  41  67  91 138 166 220 266 327 379
#     4  10  22  36  67  93 130 170 215 262 322 385
#     4  11  24  41  71  92 131 176 216 266 324 390
#     4  10  19  41  65  90 127 176 211 263 320 384
#     4  12  23  41  65 101 126 170 220 264 326 395
#
# _framework density 23.602981
#
# number of rings (size 3 to 8) (size 9 to 14) (size 15 to 20)
#    0.000    1.500    2.500    1.875    3.500    2.500 
#    4.500    3.750    0.000    0.000    0.000    0.000 
#    0.000    0.000    0.000    0.000    0.000    0.000 
#
# Total GULP energy -89284.957913 kJ/mol
# GULP energy per Si atom -5580.309870 kJ/mol
# Density = 2.354926 g / cm^3
# Si number density = 23.602981 Si / 1000 Ang^3
#
#
#
# Elastic Constant Matrix: (Units=GPa)
#
#
# Indices 1 2 3 4 5 6 
#
# 1 95.2171 13.3596 20.4755 -18.0828 -4.9081 -25.5065
# 2 13.3596 96.7253 37.4271 -16.8636 -9.6539 -21.6476
# 3 20.4755 37.4271 132.8303 -23.0822 3.0653 -16.2537
# 4 -18.0828 -16.8636 -23.0822 50.4107 -11.8995 5.4613
# 5 -4.9081 -9.6539 3.0653 -11.8995 45.8468 0.6929
# 6 -25.5065 -21.6476 -16.2537 5.4613 0.6929 29.8174
#
#
#
# Elastic Compliance Matrix: (Units=1/GPa)
#
#
# Indices 1 2 3 4 5 6 
#
# 1 0.014991 0.002329 -0.000513 0.005271 0.003298 0.013193
# 2 0.002329 0.014510 -0.002520 0.004486 0.004483 0.010227
# 3 -0.000513 -0.002520 0.009078 0.002774 -0.000506 0.002184
# 4 0.005271 0.004486 0.002774 0.025912 0.007983 0.004346
# 5 0.003298 0.004483 -0.000506 0.007983 0.025158 0.003754
# 6 0.013193 0.010227 0.002184 0.004346 0.003754 0.052555
#
#
# Mechanical properties :
#
#
# Convention : Reuss Voigt Hill
#
# Bulk Modulus (GPa) = 26.90248 51.92188 39.41218
# Shear Modulus (GPa) = 32.05051 42.11568 37.08309
#
# Velocity S-wave (km/s) = 3.68897 4.22872 3.96803
# Velocity P-wave (km/s) = 5.43758 6.77411 6.14231
#
# Compressibility (1/GPa) = 0.03717129
#
# Stress axis : x y z
#
# Youngs Moduli (GPa) = 66.70733 68.91596 110.15059
#
# Poissons Ratio (x) = -0.16048 0.05649
# Poissons Ratio (y) = -0.15533 0.27758
# Poissons Ratio (z) = 0.03421 0.17367
#
# Static dielectric constant tensor:
#      x y z
#    x 1.959240 0.017810 0.034540 
#    y 0.017810 1.925550 -0.008120 
#    z 0.034540 -0.008120 1.926890 
# 
# From -- ./inp_files/447145.got.cif
#   From: 2010.05.17/outbox.cif.g08.bks.cpg/sg2_224_cif.got.tgz:447145.got - 2010.06.03 11:33:40.
