data_PCOD9092913
_publ_section_title
;
Structure prediction by ZEFSAII (Michael W. Deem and Ramdas Pophale) SiO2 
 PCOD9092913
Probable space group: P -1
;
_chemical_formula_sum "Si O2"
_cell_formula_units_Z 16
_cell_length_a 5.932415
_cell_length_b 21.750986
_cell_length_c 7.979133
_cell_angle_alpha 46.652222
_cell_angle_beta 117.854471
_cell_angle_gamma 114.810972
_cell_volume 654.092622
_symmetry_space_group_name_H-M "P -1"
_symmetry_group_IT_number 2
_symmetry_cell_setting 'triclinic'
loop_
_space_group_symop_operation_xyz
x,y,z
-x,-y,-z
loop_
_atom_site_type_symbol
_atom_site_label
_atom_site_fract_x
_atom_site_fract_y
_atom_site_fract_z
Si Si1 0.270847 0.034590 0.253982
Si Si2 0.053668 0.854723 0.468387
Si Si3 0.996919 0.151999 0.143868
Si Si4 0.589871 0.363738 0.716204
Si Si5 0.520872 0.803538 0.214223
Si Si6 0.543841 0.261729 0.205988
Si Si7 0.843159 0.524335 0.631474
Si Si8 0.347932 0.566889 0.910181
O O1 0.065390 0.065210 0.251917
O O2 0.500000 0.000000 0.500000
O O3 0.137840 0.952419 0.258923
O O4 0.376074 0.119550 0.025533
O O5 0.254312 0.799945 0.555795
O O6 0.093268 0.855796 0.680677
O O7 0.752197 0.820095 0.397511
O O8 0.269809 0.214268 0.136290
O O9 0.777466 0.183808 0.893916
O O10 0.502249 0.294305 0.674100
O O11 0.807186 0.447665 0.626281
O O12 0.342659 0.407252 0.601242
O O13 0.677146 0.308002 0.000856
O O14 0.513868 0.338037 0.179583
O O15 0.117021 0.572644 0.690960
O O16 0.745604 0.476226 0.863365
O O17 0.500000 0.500000 0.000000
#
# Coordination Sequence:
#
# PCOD9092913 Si02
#       8
#     2   2   2   2   2   2   2   2
#     4  12  23  48  70  95 140 179 220 279 339 392
#     4  12  26  45  70 101 133 182 225 275 336 398
#     4  12  24  44  69 101 133 182 218 281 331 402
#     4  10  19  44  63  90 128 177 214 271 338 383
#     4  12  26  42  70 101 135 175 228 278 331 399
#     4  11  23  43  68  92 142 176 216 279 336 395
#     4   9  21  39  65  87 130 169 218 275 324 395
#     4  10  22  39  62  99 127 171 221 270 329 391
#
# _framework density 24.461366999999999
#
# number of rings (size 3 to 8) (size 9 to 14) (size 15 to 20)
#    0.000    1.000    5.000    1.500    1.750    3.500 
#    4.500    1.875    0.000    0.000    0.000    0.000 
#    0.000    0.000    0.000    0.000    0.000    0.000 
#
# Total GULP energy -89417.510859 kJ/mol
# GULP energy per Si atom -5588.594429 kJ/mol
# Density = 2.440569 g / cm^3
# Si number density = 24.461367 Si / 1000 Ang^3
#
#
#
# Elastic Constant Matrix: (Units=GPa)
#
#
# Indices 1 2 3 4 5 6 
#
# 1 61.7642 41.7346 31.0446 -7.9566 23.1573 14.4658
# 2 41.7346 179.9487 65.3088 -17.6517 35.7012 12.4375
# 3 31.0446 65.3088 101.0328 -4.1753 22.1450 4.2955
# 4 -7.9566 -17.6517 -4.1753 49.7953 3.0593 7.1214
# 5 23.1573 35.7012 22.1450 3.0593 47.8913 7.1400
# 6 14.4658 12.4375 4.2955 7.1214 7.1400 35.9154
#
#
#
# Elastic Compliance Matrix: (Units=1/GPa)
#
#
# Indices 1 2 3 4 5 6 
#
# 1 0.025009 -0.001599 -0.004358 0.004747 -0.007942 -0.008360
# 2 -0.001599 0.008509 -0.004019 0.002886 -0.003647 -0.001669
# 3 -0.004358 -0.004019 0.014059 -0.001130 -0.001625 0.002013
# 4 0.004747 0.002886 -0.001130 0.022964 -0.004430 -0.006449
# 5 -0.007942 -0.003647 -0.001625 -0.004430 0.028493 -0.000130
# 6 -0.008360 -0.001669 0.002013 -0.006449 -0.000130 0.032852
#
#
# Mechanical properties :
#
#
# Convention : Reuss Voigt Hill
#
# Bulk Modulus (GPa) = 36.20126 68.76909 52.48518
# Shear Modulus (GPa) = 31.04666 40.36425 35.70545
#
# Velocity S-wave (km/s) = 3.56646 4.06658 3.82470
# Velocity P-wave (km/s) = 5.63836 7.08687 6.40370
#
# Compressibility (1/GPa) = 0.02762334
#
# Stress axis : x y z
#
# Youngs Moduli (GPa) = 39.98501 117.52662 71.12903
#
# Poissons Ratio (x) = 0.18795 0.31001
# Poissons Ratio (y) = 0.06395 0.28588
# Poissons Ratio (z) = 0.17427 0.47236
#
# Static dielectric constant tensor:
#      x y z
#    x 2.044970 0.028510 -0.041600 
#    y 0.028510 1.968140 0.040720 
#    z -0.041600 0.040720 1.997180 
# 
# From -- ./inp_files/141181.got.cif
#   From: 2010.05.17/outbox.cif.g08.bks.cpg/sg2_71_cif.got.tgz:141181.got - 2010.06.03 11:33:40.
