data_PCOD9092322
_publ_section_title
;
Structure prediction by ZEFSAII (Michael W. Deem and Ramdas Pophale) SiO2 
 PCOD9092322
Probable space group: P -1
;
_chemical_formula_sum "Si O2"
_cell_formula_units_Z 16
_cell_length_a 12.234805
_cell_length_b 16.297415
_cell_length_c 10.646193
_cell_angle_alpha 120.492779
_cell_angle_beta 103.307519
_cell_angle_gamma 27.621728
_cell_volume 708.718746
_symmetry_space_group_name_H-M "P -1"
_symmetry_group_IT_number 2
_symmetry_cell_setting 'triclinic'
loop_
_space_group_symop_operation_xyz
x,y,z
-x,-y,-z
loop_
_atom_site_type_symbol
_atom_site_label
_atom_site_fract_x
_atom_site_fract_y
_atom_site_fract_z
Si Si1 0.384149 0.831129 0.704729
Si Si2 0.668836 0.250927 0.120974
Si Si3 0.170891 0.110557 0.407397
Si Si4 0.153720 0.144515 0.709680
Si Si5 0.319665 0.235204 0.111496
Si Si6 0.340507 0.347005 0.962474
Si Si7 0.358026 0.547686 0.609791
Si Si8 0.814219 0.674277 0.466685
O O1 0.350602 0.789776 0.783320
O O2 0.564668 0.776122 0.768511
O O3 0.524864 0.649767 0.501939
O O4 0.134614 0.076777 0.755637
O O5 0.499911 0.318150 0.031503
O O6 0.585914 0.426568 0.239470
O O7 0.000000 0.000000 0.000000
O O8 0.049204 0.196269 0.583165
O O9 0.176389 0.219422 0.469650
O O10 0.480060 0.827487 0.244511
O O11 0.963058 0.220436 0.339526
O O12 0.984952 0.365913 0.892921
O O13 0.486179 0.905317 0.583894
O O14 0.370338 0.240914 0.992714
O O15 0.987934 0.489235 0.255103
O O16 0.500000 0.000000 0.000000
O O17 0.500000 0.500000 0.500000
O O18 0.000000 0.500000 0.500000
#
# Coordination Sequence:
#
# PCOD9092322 Si02
#       8
#     2   2   2   2   2   2   2   2
#     4  10  22  41  64  96 127 171 218 273 331 391
#     4  10  20  43  72  96 122 166 230 279 322 392
#     4  12  23  42  66  97 135 179 219 272 343 396
#     4  12  25  44  62  95 150 170 216 278 337 403
#     4  11  22  41  66  98 131 172 233 275 314 390
#     4  11  25  42  67 100 137 172 225 276 332 397
#     4  10  19  40  72  91 120 171 228 276 326 387
#     4  12  23  43  66  92 129 183 233 267 322 396
#
# _framework density 22.575951
#
# number of rings (size 3 to 8) (size 9 to 14) (size 15 to 20)
#    0.000    1.000    5.000    2.625    0.000    1.500 
#    2.250    6.250    0.000    0.000    0.000    0.000 
#    0.000    0.000    0.000    0.000    0.000    0.000 
#
# Total GULP energy -89274.594282 kJ/mol
# GULP energy per Si atom -5579.662143 kJ/mol
# Density = 2.252457 g / cm^3
# Si number density = 22.575951 Si / 1000 Ang^3
#
#
#
# Elastic Constant Matrix: (Units=GPa)
#
#
# Indices 1 2 3 4 5 6 
#
# 1 82.8563 23.3161 36.2151 18.8659 27.8484 -12.5640
# 2 23.3161 56.8565 15.7623 16.4329 17.3786 2.5430
# 3 36.2151 15.7623 140.0497 32.1432 21.5227 3.5141
# 4 18.8659 16.4329 32.1432 34.8547 4.0495 -3.1152
# 5 27.8484 17.3786 21.5227 4.0495 38.4550 10.2198
# 6 -12.5640 2.5430 3.5141 -3.1152 10.2198 30.7514
#
#
#
# Elastic Compliance Matrix: (Units=1/GPa)
#
#
# Indices 1 2 3 4 5 6 
#
# 1 0.023534 -0.002377 -0.001940 -0.006315 -0.018334 0.015487
# 2 -0.002377 0.023838 0.001728 -0.010679 -0.008525 -0.001389
# 3 -0.001940 0.001728 0.010063 -0.008784 -0.003611 -0.001775
# 4 -0.006315 -0.010679 -0.008784 0.044197 0.009494 0.000629
# 5 -0.018334 -0.008525 -0.003611 0.009494 0.050011 -0.022032
# 6 0.015487 -0.001389 -0.001775 0.000629 -0.022032 0.046550
#
#
# Mechanical properties :
#
#
# Convention : Reuss Voigt Hill
#
# Bulk Modulus (GPa) = 19.13611 47.81662 33.47636
# Shear Modulus (GPa) = 22.64591 34.44348 28.54470
#
# Velocity S-wave (km/s) = 3.17061 3.91022 3.55968
# Velocity P-wave (km/s) = 4.67957 6.45080 5.63521
#
# Compressibility (1/GPa) = 0.05225724
#
# Stress axis : x y z
#
# Youngs Moduli (GPa) = 42.49149 41.94915 99.37354
#
# Poissons Ratio (x) = 0.09971 0.19277
# Poissons Ratio (y) = 0.10100 -0.17169
# Poissons Ratio (z) = 0.08243 -0.07248
#
# Static dielectric constant tensor:
#      x y z
#    x 1.834890 -0.046410 -0.015050 
#    y -0.046410 1.872300 0.015780 
#    z -0.015050 0.015780 1.909080 
# 
# From -- ./inp_files/434255.got.cif
#   From: 2010.05.17/outbox.cif.g08.bks.cpg/sg2_218_cif.got.tgz:434255.got - 2010.06.03 11:33:40.
