data_PCOD9092317
_publ_section_title
;
Structure prediction by ZEFSAII (Michael W. Deem and Ramdas Pophale) SiO2 
 PCOD9092317
Probable space group: P -1
;
_chemical_formula_sum "Si O2"
_cell_formula_units_Z 12
_cell_length_a 8.769153
_cell_length_b 14.857094
_cell_length_c 12.627874
_cell_angle_alpha 27.185208
_cell_angle_beta 132.664868
_cell_angle_gamma 141.350487
_cell_volume 468.609487
_symmetry_space_group_name_H-M "P -1"
_symmetry_group_IT_number 2
_symmetry_cell_setting 'triclinic'
loop_
_space_group_symop_operation_xyz
x,y,z
-x,-y,-z
loop_
_atom_site_type_symbol
_atom_site_label
_atom_site_fract_x
_atom_site_fract_y
_atom_site_fract_z
Si Si1 0.784533 0.185602 0.436362
Si Si2 0.797217 0.865082 0.924542
Si Si3 0.668114 0.977523 0.947395
Si Si4 0.881457 0.653052 0.751140
Si Si5 0.630728 0.830770 0.313431
Si Si6 0.148850 0.319941 0.057818
O O1 0.880359 0.151010 0.405964
O O2 0.500000 0.000000 0.500000
O O3 0.896260 0.118970 0.655233
O O4 0.853112 0.447090 0.204899
O O5 0.704237 0.704106 0.945149
O O6 0.610838 0.833434 0.961974
O O7 0.035600 0.870641 0.071563
O O8 0.573061 0.816701 0.176042
O O9 0.563627 0.143769 0.735986
O O10 0.687559 0.646143 0.582272
O O11 0.786252 0.683340 0.786259
O O12 0.000000 0.500000 0.000000
O O13 0.875386 0.091164 0.161812
#
# Coordination Sequence:
#
# PCOD9092317 Si02
#       6
#     2   2   2   2   2   2
#     4  11  24  40  65  99 137 175 220 282 338 394
#     4  10  21  42  64  97 142 173 222 274 325 402
#     4   9  20  38  70  97 133 185 216 272 328 392
#     4  10  21  40  68  98 135 172 221 283 332 392
#     4  10  19  40  71  98 135 180 224 269 329 404
#     4  10  22  40  69 100 131 172 225 276 335 392
#
# _framework density 25.607676999999999
#
# number of rings (size 3 to 8) (size 9 to 14) (size 15 to 20)
#    0.000    2.000    3.333    0.500    2.333    0.667 
#    0.000   10.000    7.333    0.000    0.000    0.000 
#    0.000    0.000    0.000    0.000    0.000    0.000 
#
# Total GULP energy -66928.982040 kJ/mol
# GULP energy per Si atom -5577.415170 kJ/mol
# Density = 2.554939 g / cm^3
# Si number density = 25.607677 Si / 1000 Ang^3
#
#
#
# Elastic Constant Matrix: (Units=GPa)
#
#
# Indices 1 2 3 4 5 6 
#
# 1 191.7085 35.8114 60.2476 17.9873 -1.6608 -29.9430
# 2 35.8114 61.4846 39.7598 3.0384 3.1686 -24.9491
# 3 60.2476 39.7598 158.4495 10.0493 14.6537 -14.1770
# 4 17.9873 3.0384 10.0493 41.2472 -3.7449 -4.8416
# 5 -1.6608 3.1686 14.6537 -3.7449 52.5777 15.2421
# 6 -29.9430 -24.9491 -14.1770 -4.8416 15.2421 54.9933
#
#
#
# Elastic Compliance Matrix: (Units=1/GPa)
#
#
# Indices 1 2 3 4 5 6 
#
# 1 0.006629 -0.001738 -0.001760 -0.002076 0.000026 0.002177
# 2 -0.001738 0.024164 -0.004291 0.000897 -0.003107 0.009850
# 3 -0.001760 -0.004291 0.008301 -0.001164 -0.002112 -0.000282
# 4 -0.002076 0.000897 -0.001164 0.025617 0.001818 0.000728
# 5 0.000026 -0.003107 -0.002112 0.001818 0.022227 -0.007940
# 6 0.002177 0.009850 -0.000282 0.000728 -0.007940 0.026030
#
#
# Mechanical properties :
#
#
# Convention : Reuss Voigt Hill
#
# Bulk Modulus (GPa) = 42.52477 75.92003 59.22240
# Shear Modulus (GPa) = 36.66043 48.15190 42.40617
#
# Velocity S-wave (km/s) = 3.78778 4.34103 4.07381
# Velocity P-wave (km/s) = 5.98097 7.40525 6.73089
#
# Compressibility (1/GPa) = 0.02351570
#
# Stress axis : x y z
#
# Youngs Moduli (GPa) = 150.84673 41.38372 120.46652
#
# Poissons Ratio (x) = 0.07192 0.21207
# Poissons Ratio (y) = 0.26217 0.51691
# Poissons Ratio (z) = 0.26556 0.17757
#
# Static dielectric constant tensor:
#      x y z
#    x 2.122500 0.017270 0.044260 
#    y 0.017270 2.200410 0.042760 
#    z 0.044260 0.042760 2.027510 
# 
# From -- ./inp_files/393523.got.cif
#   From: 2010.05.17/outbox.cif.g08.bks.cpg/sg2_197_cif.got.tgz:393523.got - 2010.06.03 11:33:40.
