data_PCOD9092898
_publ_section_title
;
Structure prediction by ZEFSAII (Michael W. Deem and Ramdas Pophale) SiO2 
 PCOD9092898
Probable space group: P -1
;
_chemical_formula_sum "Si O2"
_cell_formula_units_Z 14
_cell_length_a 10.173961
_cell_length_b 11.900535
_cell_length_c 11.407484
_cell_angle_alpha 60.503493
_cell_angle_beta 93.235916
_cell_angle_gamma 143.591468
_cell_volume 537.430742
_symmetry_space_group_name_H-M "P -1"
_symmetry_group_IT_number 2
_symmetry_cell_setting 'triclinic'
loop_
_space_group_symop_operation_xyz
x,y,z
-x,-y,-z
loop_
_atom_site_type_symbol
_atom_site_label
_atom_site_fract_x
_atom_site_fract_y
_atom_site_fract_z
Si Si1 0.345448 0.162827 0.503005
Si Si2 0.588732 0.622895 0.145753
Si Si3 0.324224 0.136851 0.770396
Si Si4 0.014495 0.605035 0.058461
Si Si5 0.768343 0.300957 0.429158
Si Si6 0.016902 0.770926 0.463186
Si Si7 0.522893 0.360180 0.081836
O O1 0.441997 0.383560 0.340252
O O2 0.201142 0.058465 0.675483
O O3 0.623510 0.308770 0.459589
O O4 0.135220 0.914269 0.524356
O O5 0.782307 0.873435 0.118437
O O6 0.642881 0.586744 0.048159
O O7 0.417510 0.583526 0.082928
O O8 0.668256 0.471603 0.604404
O O9 0.260166 0.930338 0.893251
O O10 0.014544 0.542396 0.218584
O O11 0.705074 0.408251 0.131583
O O12 0.000000 0.500000 0.000000
O O13 0.880663 0.286569 0.527547
O O14 0.500000 0.000000 0.500000
O O15 0.185470 0.018934 0.259722
#
# Coordination Sequence:
#
# PCOD9092898 Si02
#       7
#     2   2   2   2   2   2   2
#     4  10  22  47  70 101 142 192 227 288 352 410
#     4  10  23  48  69 106 141 189 238 282 344 423
#     4  12  28  41  72 112 139 181 239 293 342 420
#     4  12  25  45  72 106 141 184 232 298 355 407
#     4  10  19  43  73  94 135 186 231 276 352 418
#     4  10  23  46  73 104 137 187 235 286 353 417
#     4  10  23  48  76  98 144 194 225 289 355 416
#
# _framework density 26.049869000000001
#
# number of rings (size 3 to 8) (size 9 to 14) (size 15 to 20)
#    0.000    1.429    4.286    2.143    4.000    5.143 
#   10.286    0.000    0.000    0.000    0.000    0.000 
#    0.000    0.000    0.000    0.000    0.000    0.000 
#
# Total GULP energy -78229.511018 kJ/mol
# GULP energy per Si atom -5587.822216 kJ/mol
# Density = 2.599058 g / cm^3
# Si number density = 26.049869 Si / 1000 Ang^3
#
#
#
# Elastic Constant Matrix: (Units=GPa)
#
#
# Indices 1 2 3 4 5 6 
#
# 1 62.4985 39.4590 23.1897 -0.6345 0.7677 -22.9668
# 2 39.4590 152.9901 74.6458 3.1120 4.9500 -38.3277
# 3 23.1897 74.6458 123.6225 -5.2524 23.2429 -7.1454
# 4 -0.6345 3.1120 -5.2524 54.2918 0.1111 -0.8655
# 5 0.7677 4.9500 23.2429 0.1111 38.7212 2.2485
# 6 -22.9668 -38.3277 -7.1454 -0.8655 2.2485 42.1844
#
#
#
# Elastic Compliance Matrix: (Units=1/GPa)
#
#
# Indices 1 2 3 4 5 6 
#
# 1 0.021675 -0.002085 -0.002382 0.000292 0.000716 0.009471
# 2 -0.002085 0.012933 -0.007371 -0.001337 0.002281 0.009218
# 3 -0.002382 -0.007371 0.014110 0.001692 -0.007184 -0.005187
# 4 0.000292 -0.001337 0.001692 0.018659 -0.000884 -0.000339
# 5 0.000716 0.002281 -0.007184 -0.000884 0.029856 -0.000364
# 6 0.009471 0.009218 -0.005187 -0.000339 -0.000364 0.036371
#
#
# Mechanical properties :
#
#
# Convention : Reuss Voigt Hill
#
# Bulk Modulus (GPa) = 39.93237 68.18890 54.06064
# Shear Modulus (GPa) = 30.18838 40.49392 35.34115
#
# Velocity S-wave (km/s) = 3.40791 3.94696 3.68730
# Velocity P-wave (km/s) = 5.55406 6.85598 6.23907
#
# Compressibility (1/GPa) = 0.02504234
#
# Stress axis : x y z
#
# Youngs Moduli (GPa) = 46.13645 77.31944 70.87388
#
# Poissons Ratio (x) = 0.16118 0.16881
# Poissons Ratio (y) = 0.09617 0.52243
# Poissons Ratio (z) = 0.10989 0.56994
#
# Static dielectric constant tensor:
#      x y z
#    x 2.453810 0.054030 0.142670 
#    y 0.054030 2.004730 0.110260 
#    z 0.142670 0.110260 2.646480 
# 
# From -- ./inp_files/425474.got.cif
#   From: 2010.05.17/outbox.cif.g08.bks.cpg/sg2_213_cif.got.tgz:425474.got - 2010.06.03 11:33:40.
