data_PCOD9092190
_publ_section_title
;
Structure prediction by ZEFSAII (Michael W. Deem and Ramdas Pophale) SiO2 
 PCOD9092190
Probable space group: P -1
;
_chemical_formula_sum "Si O2"
_cell_formula_units_Z 14
_cell_length_a 9.843835
_cell_length_b 20.317629
_cell_length_c 7.412825
_cell_angle_alpha 93.763912
_cell_angle_beta 116.463979
_cell_angle_gamma 37.341540
_cell_volume 681.889581
_symmetry_space_group_name_H-M "P -1"
_symmetry_group_IT_number 2
_symmetry_cell_setting 'triclinic'
loop_
_space_group_symop_operation_xyz
x,y,z
-x,-y,-z
loop_
_atom_site_type_symbol
_atom_site_label
_atom_site_fract_x
_atom_site_fract_y
_atom_site_fract_z
Si Si1 0.838968 0.763859 0.422104
Si Si2 0.248272 0.297517 0.318485
Si Si3 0.332952 0.502926 0.806955
Si Si4 0.356192 0.359803 0.659652
Si Si5 0.148771 0.903392 0.910068
Si Si6 0.536731 0.117146 0.133799
Si Si7 0.761720 0.932286 0.521692
O O1 0.683792 0.785482 0.506840
O O2 0.930069 0.803707 0.535502
O O3 0.472102 0.754767 0.128909
O O4 0.639047 0.837839 0.141488
O O5 0.393104 0.311180 0.478102
O O6 0.344017 0.235018 0.173130
O O7 0.897862 0.436060 0.165377
O O8 0.487297 0.382609 0.787555
O O9 0.127699 0.611100 0.549253
O O10 0.500000 0.500000 0.000000
O O11 0.000000 0.500000 0.500000
O O12 0.192763 0.939024 0.782769
O O13 0.955759 0.912733 0.740587
O O14 0.000000 0.000000 0.000000
O O15 0.634516 0.018002 0.289184
O O16 0.500000 0.000000 0.500000
#
# Coordination Sequence:
#
# PCOD9092190 Si02
#       7
#     2   2   2   2   2   2   2
#     4  10  21  39  62  93 130 171 225 273 334 390
#     4   9  20  38  64  91 129 170 222 270 333 388
#     4   9  18  38  64  94 131 176 216 283 334 390
#     4  10  19  40  67  93 131 178 217 273 338 393
#     4  12  25  42  68 102 135 175 229 285 334 405
#     4  12  22  43  66  93 134 177 226 274 334 408
#     4  12  23  40  63  94 133 180 217 276 345 399
#
# _framework density 20.531182999999999
#
# number of rings (size 3 to 8) (size 9 to 14) (size 15 to 20)
#    0.857    0.571    2.857    3.429    0.000    0.000 
#    0.000    8.571    0.000    3.429    0.000    0.000 
#    0.000    0.000    0.000    0.000    0.000    0.000 
#
# Total GULP energy -78005.256305 kJ/mol
# GULP energy per Si atom -5571.804022 kJ/mol
# Density = 2.048445 g / cm^3
# Si number density = 20.531183 Si / 1000 Ang^3
#
#
#
# Elastic Constant Matrix: (Units=GPa)
#
#
# Indices 1 2 3 4 5 6 
#
# 1 93.3307 27.8416 40.1472 13.8569 2.3020 13.2042
# 2 27.8416 93.9250 20.3011 17.9773 -0.9710 23.1808
# 3 40.1472 20.3011 104.7309 20.1772 11.9179 9.3388
# 4 13.8569 17.9773 20.1772 52.7559 11.8176 3.6301
# 5 2.3020 -0.9710 11.9179 11.8176 28.4038 10.6795
# 6 13.2042 23.1808 9.3388 3.6301 10.6795 28.9160
#
#
#
# Elastic Compliance Matrix: (Units=1/GPa)
#
#
# Indices 1 2 3 4 5 6 
#
# 1 0.014048 -0.001670 -0.004688 -0.001732 0.003193 -0.004524
# 2 -0.001670 0.016097 -0.001130 -0.005619 0.008895 -0.014357
# 3 -0.004688 -0.001130 0.012400 -0.002231 -0.004271 0.000899
# 4 -0.001732 -0.005619 -0.002231 0.024365 -0.012036 0.007403
# 5 0.003193 0.008895 -0.004271 -0.012036 0.051321 -0.024653
# 6 -0.004524 -0.014357 0.000899 0.007403 -0.024653 0.056043
#
#
# Mechanical properties :
#
#
# Convention : Reuss Voigt Hill
#
# Bulk Modulus (GPa) = 36.27110 52.06294 44.16702
# Shear Modulus (GPa) = 25.19695 35.59495 30.39595
#
# Velocity S-wave (km/s) = 3.50702 4.16829 3.85187
# Velocity P-wave (km/s) = 5.83983 6.96988 6.42973
#
# Compressibility (1/GPa) = 0.02757016
#
# Stress axis : x y z
#
# Youngs Moduli (GPa) = 71.18694 62.12475 80.64571
#
# Poissons Ratio (x) = 0.10374 0.37803
# Poissons Ratio (y) = 0.11888 0.09109
# Poissons Ratio (z) = 0.33369 0.07017
#
# Static dielectric constant tensor:
#      x y z
#    x 1.741500 -0.009370 0.040210 
#    y -0.009370 1.792360 -0.015660 
#    z 0.040210 -0.015660 1.772960 
# 
# From -- ./inp_files/210705.got.cif
#   From: 2010.05.17/outbox.cif.g08.bks.cpg/sg2_106_cif.got.tgz:210705.got - 2010.06.03 11:33:40.
