data_PCOD9092452
_publ_section_title
;
Structure prediction by ZEFSAII (Michael W. Deem and Ramdas Pophale) SiO2 
 PCOD9092452
Probable space group: P -1
;
_chemical_formula_sum "Si O2"
_cell_formula_units_Z 16
_cell_length_a 9.233488
_cell_length_b 12.416242
_cell_length_c 12.723231
_cell_angle_alpha 92.790667
_cell_angle_beta 130.417856
_cell_angle_gamma 117.603834
_cell_volume 842.128452
_symmetry_space_group_name_H-M "P -1"
_symmetry_group_IT_number 2
_symmetry_cell_setting 'triclinic'
loop_
_space_group_symop_operation_xyz
x,y,z
-x,-y,-z
loop_
_atom_site_type_symbol
_atom_site_label
_atom_site_fract_x
_atom_site_fract_y
_atom_site_fract_z
Si Si1 0.265913 0.640659 0.592956
Si Si2 0.936516 0.139300 0.035566
Si Si3 0.610687 0.651759 0.106009
Si Si4 0.394695 0.429210 0.334895
Si Si5 0.308937 0.163422 0.043435
Si Si6 0.171893 0.812342 0.415232
Si Si7 0.698286 0.397758 0.843275
Si Si8 0.601121 0.129013 0.704920
O O1 0.424483 0.597560 0.624546
O O2 0.425652 0.747855 0.769327
O O3 0.241981 0.724926 0.498418
O O4 0.000000 0.500000 0.500000
O O5 0.735414 0.127981 0.870054
O O6 0.808813 0.997426 0.034710
O O7 0.112772 0.278320 0.196092
O O8 0.122091 0.154152 0.036848
O O9 0.419688 0.630586 0.098802
O O10 0.878750 0.725768 0.288023
O O11 0.500000 0.500000 0.000000
O O12 0.660890 0.753957 0.040977
O O13 0.500000 0.500000 0.500000
O O14 0.378475 0.525089 0.254733
O O15 0.232770 0.828030 0.320101
O O16 0.344262 0.970684 0.552381
O O17 0.589402 0.251567 0.728308
O O18 0.000000 0.500000 0.000000
#
# Coordination Sequence:
#
# PCOD9092452 Si02
#       8
#     2   2   2   2   2   2   2   2
#     4  11  22  40  61  93 129 161 209 271 315 379
#     4  10  19  41  65  92 130 164 214 265 316 382
#     4  12  24  42  65  98 131 172 220 266 321 384
#     4  11  24  41  65  94 124 168 213 263 323 381
#     4  10  21  37  67  93 124 170 214 262 320 375
#     4  11  23  40  70  97 125 170 220 264 322 389
#     4  12  25  43  67  93 134 174 215 269 327 384
#     4  11  22  41  67  96 129 169 217 266 321 388
#
# _framework density 18.999479000000001
#
# number of rings (size 3 to 8) (size 9 to 14) (size 15 to 20)
#    0.000    1.000    3.750    4.500    0.000    2.500 
#    0.000    1.875    0.000    0.000    0.000    0.000 
#    0.000    0.000    0.000    0.000    0.000    0.000 
#
# Total GULP energy -89420.722425 kJ/mol
# GULP energy per Si atom -5588.795152 kJ/mol
# Density = 1.895624 g / cm^3
# Si number density = 18.999479 Si / 1000 Ang^3
#
#
#
# Elastic Constant Matrix: (Units=GPa)
#
#
# Indices 1 2 3 4 5 6 
#
# 1 81.1378 44.7649 43.4789 16.4297 4.7683 0.8615
# 2 44.7649 174.7558 68.6257 3.1549 -3.8675 -4.3372
# 3 43.4789 68.6257 122.9183 9.4152 2.3985 -3.2954
# 4 16.4297 3.1549 9.4152 47.5165 -5.0969 -2.1320
# 5 4.7683 -3.8675 2.3985 -5.0969 33.0535 3.3382
# 6 0.8615 -4.3372 -3.2954 -2.1320 3.3382 21.1934
#
#
#
# Elastic Compliance Matrix: (Units=1/GPa)
#
#
# Indices 1 2 3 4 5 6 
#
# 1 0.017435 -0.002860 -0.004144 -0.005449 -0.003189 -0.001984
# 2 -0.002860 0.007864 -0.003490 0.001387 0.001693 0.001056
# 3 -0.004144 -0.003490 0.011655 -0.000681 -0.000897 0.001339
# 4 -0.005449 0.001387 -0.000681 0.023539 0.004418 0.002072
# 5 -0.003189 0.001693 -0.000897 0.004418 0.032090 -0.004273
# 6 -0.001984 0.001056 0.001339 0.002072 -0.004273 0.048571
#
#
# Mechanical properties :
#
#
# Convention : Reuss Voigt Hill
#
# Bulk Modulus (GPa) = 62.63151 76.95011 69.79081
# Shear Modulus (GPa) = 29.85709 35.14883 32.50296
#
# Velocity S-wave (km/s) = 3.96848 4.30582 4.14058
# Velocity P-wave (km/s) = 7.35084 8.08141 7.72477
#
# Compressibility (1/GPa) = 0.01596640
#
# Stress axis : x y z
#
# Youngs Moduli (GPa) = 57.35546 127.16182 85.79885
#
# Poissons Ratio (x) = 0.36372 0.35554
# Poissons Ratio (y) = 0.16405 0.29942
# Poissons Ratio (z) = 0.23768 0.44376
#
# Static dielectric constant tensor:
#      x y z
#    x 1.625000 0.004320 0.012430 
#    y 0.004320 1.652170 -0.000090 
#    z 0.012430 -0.000090 1.651330 
# 
# From -- ./inp_files/244432.got.cif
#   From: 2010.05.17/outbox.cif.g08.bks.cpg/sg2_123_cif.got.tgz:244432.got - 2010.06.03 11:33:40.
