data_PCOD9092473
_publ_section_title
;
Structure prediction by ZEFSAII (Michael W. Deem and Ramdas Pophale) SiO2 
 PCOD9092473
Probable space group: P -1
;
_chemical_formula_sum "Si O2"
_cell_formula_units_Z 14
_cell_length_a 7.699274
_cell_length_b 14.164916
_cell_length_c 18.237296
_cell_angle_alpha 21.899193
_cell_angle_beta 129.565081
_cell_angle_gamma 130.466474
_cell_volume 560.116665
_symmetry_space_group_name_H-M "P -1"
_symmetry_group_IT_number 2
_symmetry_cell_setting 'triclinic'
loop_
_space_group_symop_operation_xyz
x,y,z
-x,-y,-z
loop_
_atom_site_type_symbol
_atom_site_label
_atom_site_fract_x
_atom_site_fract_y
_atom_site_fract_z
Si Si1 0.697871 0.342023 0.837407
Si Si2 0.662459 0.782333 0.852197
Si Si3 0.346946 0.966131 0.097663
Si Si4 0.806752 0.672878 0.815135
Si Si5 0.508053 0.788125 0.417531
Si Si6 0.725419 0.592084 0.157121
Si Si7 0.985788 0.201635 0.449017
O O1 0.494454 0.501627 0.651610
O O2 0.913686 0.574109 0.745584
O O3 0.742715 0.219018 0.860067
O O4 0.600799 0.116651 0.029688
O O5 0.797082 0.812056 0.791411
O O6 0.536099 0.012720 0.675193
O O7 0.500000 0.500000 0.000000
O O8 0.790296 0.747221 0.986910
O O9 0.365268 0.814941 0.286894
O O10 0.219478 0.199799 0.914088
O O11 0.553903 0.503136 0.852320
O O12 0.848761 0.920732 0.593854
O O13 0.000000 0.500000 0.000000
O O14 0.774666 0.854875 0.416054
O O15 0.839276 0.344852 0.360617
#
# Coordination Sequence:
#
# PCOD9092473 Si02
#       7
#     2   2   2   2   2   2   2
#     4   9  22  37  65  91 118 163 207 249 300 358
#     4   9  19  37  60  81 117 158 201 244 301 358
#     4  10  19  41  66  85 123 164 203 250 306 349
#     4  11  22  40  60  87 121 164 203 249 309 362
#     4   9  20  39  61  90 120 160 201 249 300 362
#     4  10  22  37  60  89 119 164 201 251 301 363
#     4  10  22  36  56  91 125 153 208 244 299 365
#
# _framework density 24.994793000000001
#
# number of rings (size 3 to 8) (size 9 to 14) (size 15 to 20)
#    0.857    1.429    0.000    3.429    2.000    2.857 
#    0.000    4.286    0.000    3.429    0.000    0.000 
#    0.000    0.000    0.000    0.000    0.000    0.000 
#
# Total GULP energy -78085.423452 kJ/mol
# GULP energy per Si atom -5577.530247 kJ/mol
# Density = 2.493790 g / cm^3
# Si number density = 24.994793 Si / 1000 Ang^3
#
#
#
# Elastic Constant Matrix: (Units=GPa)
#
#
# Indices 1 2 3 4 5 6 
#
# 1 92.0673 49.9778 52.3572 -15.6254 30.9637 -4.2104
# 2 49.9778 93.3306 45.9721 -23.4189 19.1440 -22.4222
# 3 52.3572 45.9721 132.4443 -20.1794 28.3185 -8.5088
# 4 -15.6254 -23.4189 -20.1794 35.4400 -15.1214 12.1734
# 5 30.9637 19.1440 28.3185 -15.1214 70.1475 -11.9480
# 6 -4.2104 -22.4222 -8.5088 12.1734 -11.9480 41.4772
#
#
#
# Elastic Compliance Matrix: (Units=1/GPa)
#
#
# Indices 1 2 3 4 5 6 
#
# 1 0.019273 -0.008507 -0.003801 0.000099 -0.005487 -0.005032
# 2 -0.008507 0.019430 -0.002416 0.005833 0.002052 0.008024
# 3 -0.003801 -0.002416 0.010526 0.002291 -0.001528 -0.000645
# 4 0.000099 0.005833 0.002291 0.037408 0.004472 -0.006058
# 5 -0.005487 0.002052 -0.001528 0.004472 0.018419 0.004232
# 6 -0.005032 0.008024 -0.000645 -0.006058 0.004232 0.030801
#
#
# Mechanical properties :
#
#
# Convention : Reuss Voigt Hill
#
# Bulk Modulus (GPa) = 50.55247 68.27294 59.41270
# Shear Modulus (GPa) = 29.08674 40.71528 34.90101
#
# Velocity S-wave (km/s) = 3.41502 4.04040 3.74081
# Velocity P-wave (km/s) = 5.98489 7.01004 6.51765
#
# Compressibility (1/GPa) = 0.01978143
#
# Stress axis : x y z
#
# Youngs Moduli (GPa) = 51.88558 51.46577 95.00349
#
# Poissons Ratio (x) = 0.43781 0.36113
# Poissons Ratio (y) = 0.44138 0.22953
# Poissons Ratio (z) = 0.19723 0.12434
#
# Static dielectric constant tensor:
#      x y z
#    x 2.169180 0.007850 -0.023760 
#    y 0.007850 1.980760 0.006070 
#    z -0.023760 0.006070 1.969720 
# 
# From -- ./inp_files/590025.got.cif
#   From: 2010.05.17/outbox.cif.g08.bks.cpg/sg2_296_cif.got.tgz:590025.got - 2010.06.03 11:33:40.
