data_PCOD9092474
_publ_section_title
;
Structure prediction by ZEFSAII (Michael W. Deem and Ramdas Pophale) SiO2 
 PCOD9092474
Probable space group: P -1
;
_chemical_formula_sum "Si O2"
_cell_formula_units_Z 16
_cell_length_a 14.990691
_cell_length_b 8.621111
_cell_length_c 8.534827
_cell_angle_alpha 59.717273
_cell_angle_beta 112.605400
_cell_angle_gamma 138.214379
_cell_volume 634.628005
_symmetry_space_group_name_H-M "P -1"
_symmetry_group_IT_number 2
_symmetry_cell_setting 'triclinic'
loop_
_space_group_symop_operation_xyz
x,y,z
-x,-y,-z
loop_
_atom_site_type_symbol
_atom_site_label
_atom_site_fract_x
_atom_site_fract_y
_atom_site_fract_z
Si Si1 0.741244 0.528067 0.551515
Si Si2 0.884301 0.764989 0.839917
Si Si3 0.471826 0.045459 0.789727
Si Si4 0.260347 0.765916 0.547724
Si Si5 0.426857 0.362701 0.686528
Si Si6 0.910320 0.421588 0.182708
Si Si7 0.859995 0.085278 0.045827
Si Si8 0.320496 0.205597 0.183021
O O1 0.849673 0.711944 0.661189
O O2 0.611809 0.280058 0.683323
O O3 0.784961 0.441258 0.498783
O O4 0.689754 0.643229 0.376234
O O5 0.798069 0.814756 0.827524
O O6 0.844288 0.519365 0.013628
O O7 0.044778 0.968140 0.866807
O O8 0.385808 0.108480 0.751941
O O9 0.380586 0.838510 0.700196
O O10 0.500000 0.000000 0.000000
O O11 0.142333 0.669466 0.633382
O O12 0.317278 0.013725 0.371704
O O13 0.500000 0.500000 0.500000
O O14 0.540634 0.524763 0.812331
O O15 0.065696 0.679518 0.144285
O O16 0.884210 0.219676 0.155588
O O17 0.714661 0.873476 0.982094
#
# Coordination Sequence:
#
# PCOD9092474 Si02
#       8
#     2   2   2   2   2   2   2   2
#     4  11  21  41  63  91 133 167 203 251 314 372
#     4  10  19  41  66  86 121 166 200 262 314 361
#     4  11  22  40  65  91 126 165 209 257 307 369
#     4  12  24  37  65  97 124 169 211 252 312 379
#     4  10  20  41  62  90 129 167 200 258 315 363
#     4   9  22  44  62  91 125 157 219 262 306 367
#     4   9  22  43  68  88 119 169 212 259 318 361
#     4  12  21  38  69  90 127 165 209 256 314 376
#
# _framework density 25.211621000000001
#
# number of rings (size 3 to 8) (size 9 to 14) (size 15 to 20)
#    0.750    0.750    5.000    2.250    0.000    0.500 
#    0.000    5.000    0.000    0.000    0.000    0.000 
#    0.000    0.000    0.000    0.000    0.000    0.000 
#
# Total GULP energy -89537.663727 kJ/mol
# GULP energy per Si atom -5596.103983 kJ/mol
# Density = 2.515424 g / cm^3
# Si number density = 25.211621 Si / 1000 Ang^3
#
#
#
# Elastic Constant Matrix: (Units=GPa)
#
#
# Indices 1 2 3 4 5 6 
#
# 1 86.2461 19.2065 23.2963 0.6429 -2.0965 -8.5214
# 2 19.2065 66.7356 23.4824 36.8669 -9.2974 3.4212
# 3 23.2963 23.4824 98.3911 21.4197 6.0498 1.3990
# 4 0.6429 36.8669 21.4197 48.3096 2.1570 2.4448
# 5 -2.0965 -9.2974 6.0498 2.1570 35.7684 -0.3471
# 6 -8.5214 3.4212 1.3990 2.4448 -0.3471 49.9068
#
#
#
# Elastic Compliance Matrix: (Units=1/GPa)
#
#
# Indices 1 2 3 4 5 6 
#
# 1 0.014090 -0.006565 -0.003089 0.006090 -0.000700 0.002639
# 2 -0.006565 0.032173 -0.001429 -0.024159 0.009657 -0.002036
# 3 -0.003089 -0.001429 0.012303 -0.004187 -0.002387 -0.000586
# 4 0.006090 -0.024159 -0.004187 0.041218 -0.007693 0.000741
# 5 -0.000700 0.009657 -0.002387 -0.007693 0.031293 -0.000120
# 6 0.002639 -0.002036 -0.000586 0.000741 -0.000120 0.020607
#
#
# Mechanical properties :
#
#
# Convention : Reuss Voigt Hill
#
# Bulk Modulus (GPa) = 27.47438 42.59369 35.03404
# Shear Modulus (GPa) = 26.88403 39.15612 33.02008
#
# Velocity S-wave (km/s) = 3.26902 3.94521 3.62293
# Velocity P-wave (km/s) = 5.01695 6.13874 5.60597
#
# Compressibility (1/GPa) = 0.03639754
#
# Stress axis : x y z
#
# Youngs Moduli (GPa) = 70.97450 31.08182 81.28301
#
# Poissons Ratio (x) = 0.20405 0.25112
# Poissons Ratio (y) = 0.46594 0.11619
# Poissons Ratio (z) = 0.21927 0.04443
#
# Static dielectric constant tensor:
#      x y z
#    x 2.008240 0.055700 -0.004680 
#    y 0.055700 1.969710 -0.042080 
#    z -0.004680 -0.042080 2.032150 
# 
# From -- ./inp_files/294930.got.cif
#   From: 2010.05.17/outbox.cif.g08.bks.cpg/sg2_148_cif.got.tgz:294930.got - 2010.06.03 11:33:40.
