data_PCOD9092705
_publ_section_title
;
Structure prediction by ZEFSAII (Michael W. Deem and Ramdas Pophale) SiO2 
 PCOD9092705
Probable space group: P -1
;
_chemical_formula_sum "Si O2"
_cell_formula_units_Z 15
_cell_length_a 10.028141
_cell_length_b 11.404317
_cell_length_c 11.290219
_cell_angle_alpha 62.226348
_cell_angle_beta 50.318725
_cell_angle_gamma 100.535824
_cell_volume 623.149461
_symmetry_space_group_name_H-M "P -1"
_symmetry_group_IT_number 2
_symmetry_cell_setting 'triclinic'
loop_
_space_group_symop_operation_xyz
x,y,z
-x,-y,-z
loop_
_atom_site_type_symbol
_atom_site_label
_atom_site_fract_x
_atom_site_fract_y
_atom_site_fract_z
Si Si1 0.026806 0.287228 0.448020
Si Si2 0.845427 0.859746 0.387831
Si Si3 0.348981 0.678470 0.159535
Si Si4 0.105767 0.254430 0.828304
Si Si5 0.500000 0.000000 0.000000
Si Si6 0.435012 0.680140 0.387701
Si Si7 0.147883 0.175244 0.245245
Si Si8 0.416715 0.065486 0.609079
O O1 0.201272 0.281902 0.426152
O O2 0.105816 0.475017 0.353805
O O3 0.080388 0.282572 0.283358
O O4 0.760489 0.107439 0.731969
O O5 0.945585 0.844749 0.220896
O O6 0.605733 0.809775 0.510913
O O7 0.030207 0.067000 0.240006
O O8 0.418315 0.723016 0.241135
O O9 0.351557 0.834541 0.058862
O O10 0.570434 0.712827 0.964032
O O11 0.218910 0.460338 0.643093
O O12 0.321852 0.278841 0.750424
O O13 0.855704 0.118434 0.105899
O O14 0.439878 0.808266 0.413685
O O15 0.000000 0.000000 0.500000
O O16 0.500000 0.000000 0.500000
#
# Coordination Sequence:
#
# PCOD9092705 Si02
#       8
#     2   2   2   2   1   2   2   2
#     4  11  24  42  65  94 124 172 218 263 312 375
#     4  10  19  42  65  88 127 172 214 251 313 378
#     4  12  22  42  67  93 127 169 213 265 319 380
#     4  10  20  40  68  96 121 164 218 256 305 386
#     4  12  26  40  62  90 134 156 218 268 318 372
#     4  10  22  39  69  93 121 168 213 256 313 381
#     4  10  20  39  65  90 123 171 218 258 307 369
#     4  11  24  39  62  99 132 161 203 264 321 376
#
# _framework density 24.071269999999998
#
# number of rings (size 3 to 8) (size 9 to 14) (size 15 to 20)
#    0.000    1.333    4.000    4.000    0.000    1.600 
#    0.000    0.000    2.933    0.000    0.000    0.000 
#    0.000    0.000    0.000    0.000    0.000    0.000 
#
# Total GULP energy -83611.855215 kJ/mol
# GULP energy per Si atom -5574.123681 kJ/mol
# Density = 2.401648 g / cm^3
# Si number density = 24.071270 Si / 1000 Ang^3
#
#
#
# Elastic Constant Matrix: (Units=GPa)
#
#
# Indices 1 2 3 4 5 6 
#
# 1 59.2570 5.5390 9.2437 17.0894 -0.5624 4.2299
# 2 5.5390 184.3695 75.9028 28.4446 -11.1049 2.8777
# 3 9.2437 75.9028 107.9402 23.2335 -13.1276 12.3570
# 4 17.0894 28.4446 23.2335 42.3900 -2.9366 -6.6859
# 5 -0.5624 -11.1049 -13.1276 -2.9366 17.1719 5.6672
# 6 4.2299 2.8777 12.3570 -6.6859 5.6672 25.6984
#
#
#
# Elastic Compliance Matrix: (Units=1/GPa)
#
#
# Indices 1 2 3 4 5 6 
#
# 1 0.020097 0.000807 0.001019 -0.010143 0.002565 -0.007092
# 2 0.000807 0.007928 -0.005032 -0.002757 0.000658 0.000537
# 3 0.001019 -0.005032 0.017436 -0.007717 0.013036 -0.012871
# 4 -0.010143 -0.002757 -0.007717 0.035874 -0.007374 0.016649
# 5 0.002565 0.000658 0.013036 -0.007374 0.075834 -0.025406
# 6 -0.007092 0.000537 -0.012871 0.016649 -0.025406 0.056143
#
#
# Mechanical properties :
#
#
# Convention : Reuss Voigt Hill
#
# Bulk Modulus (GPa) = 25.60979 59.21530 42.41255
# Shear Modulus (GPa) = 21.48314 34.44414 27.96364
#
# Velocity S-wave (km/s) = 2.99068 3.78686 3.41207
# Velocity P-wave (km/s) = 4.75266 6.61618 5.76028
#
# Compressibility (1/GPa) = 0.03904757
#
# Stress axis : x y z
#
# Youngs Moduli (GPa) = 49.75859 126.13830 57.35399
#
# Poissons Ratio (x) = -0.10178 -0.05842
# Poissons Ratio (y) = -0.04015 0.28860
# Poissons Ratio (z) = -0.05068 0.63472
#
# Static dielectric constant tensor:
#      x y z
#    x 1.704470 0.230670 -0.244950 
#    y 0.230670 1.888360 0.179240 
#    z -0.244950 0.179240 1.727330 
# 
# From -- ./inp_files/270645.got.cif
#   From: 2010.05.17/outbox.cif.g08.bks.cpg/sg2_136_cif.got.tgz:270645.got - 2010.06.03 11:33:40.
