data_PCOD9092392
_publ_section_title
;
Structure prediction by ZEFSAII (Michael W. Deem and Ramdas Pophale) SiO2 
 PCOD9092392
Probable space group: P -1
;
_chemical_formula_sum "Si O2"
_cell_formula_units_Z 12
_cell_length_a 13.823808
_cell_length_b 7.997354
_cell_length_c 7.091802
_cell_angle_alpha 55.620480
_cell_angle_beta 130.577840
_cell_angle_gamma 110.297379
_cell_volume 491.202996
_symmetry_space_group_name_H-M "P -1"
_symmetry_group_IT_number 2
_symmetry_cell_setting 'triclinic'
loop_
_space_group_symop_operation_xyz
x,y,z
-x,-y,-z
loop_
_atom_site_type_symbol
_atom_site_label
_atom_site_fract_x
_atom_site_fract_y
_atom_site_fract_z
Si Si1 0.175008 0.820892 0.799083
Si Si2 0.416936 0.850212 0.608547
Si Si3 0.199363 0.148076 0.109267
Si Si4 0.362622 0.539377 0.399066
Si Si5 0.013153 0.122758 0.164236
Si Si6 0.673705 0.782637 0.153212
O O1 0.053393 0.774231 0.806781
O O2 0.102003 0.929876 0.465155
O O3 0.268758 0.998296 0.876744
O O4 0.271432 0.630353 0.061336
O O5 0.373043 0.687980 0.501906
O O6 0.500000 0.000000 0.500000
O O7 0.308860 0.010234 0.438169
O O8 0.520207 0.769535 0.941495
O O9 0.098769 0.255709 0.053355
O O10 0.260402 0.269313 0.934330
O O11 0.108040 0.975949 0.021922
O O12 0.500000 0.500000 0.500000
O O13 0.300989 0.349733 0.545465
#
# Coordination Sequence:
#
# PCOD9092392 Si02
#       6
#     2   2   2   2   2   2
#     4  10  21  42  61  92 129 159 203 254 307 366
#     4  10  19  41  63  85 126 158 203 253 300 367
#     4   9  18  37  65  89 114 169 210 242 308 360
#     4  12  25  39  60  96 129 159 202 255 313 364
#     4   9  18  37  69  84 120 171 202 247 304 363
#     4  10  22  39  63  90 124 160 206 253 305 362
#
# _framework density 24.429817
#
# number of rings (size 3 to 8) (size 9 to 14) (size 15 to 20)
#    0.000    2.000    5.000    0.500    2.333    3.333 
#    0.000    8.333    0.000    0.000    0.000    0.000 
#    0.000    0.000    0.000    0.000    0.000    0.000 
#
# Total GULP energy -66812.628933 kJ/mol
# GULP energy per Si atom -5567.719078 kJ/mol
# Density = 2.437421 g / cm^3
# Si number density = 24.429817 Si / 1000 Ang^3
#
#
#
# Elastic Constant Matrix: (Units=GPa)
#
#
# Indices 1 2 3 4 5 6 
#
# 1 178.2616 6.7802 23.1817 -20.6109 20.3011 26.9737
# 2 6.7802 63.9678 -1.5336 4.8098 -7.5739 7.1249
# 3 23.1817 -1.5336 121.3442 3.3822 16.3188 11.8306
# 4 -20.6109 4.8098 3.3822 33.2610 0.8788 -4.0304
# 5 20.3011 -7.5739 16.3188 0.8788 20.3684 9.3919
# 6 26.9737 7.1249 11.8306 -4.0304 9.3919 19.1695
#
#
#
# Elastic Compliance Matrix: (Units=1/GPa)
#
#
# Indices 1 2 3 4 5 6 
#
# 1 0.007810 -0.000902 -0.000277 0.004241 -0.004726 -0.007276
# 2 -0.000902 0.019564 -0.000045 -0.005550 0.015169 -0.014573
# 3 -0.000277 -0.000045 0.009397 -0.001297 -0.005944 -0.002754
# 4 0.004241 -0.005550 -0.001297 0.035115 -0.011290 0.009810
# 5 -0.004726 0.015169 -0.005944 -0.011290 0.082203 -0.037969
# 6 -0.007276 -0.014573 -0.002754 0.009810 -0.037969 0.090185
#
#
# Mechanical properties :
#
#
# Convention : Reuss Voigt Hill
#
# Bulk Modulus (GPa) = 29.13500 46.71446 37.92473
# Shear Modulus (GPa) = 19.36759 36.90282 28.13520
#
# Velocity S-wave (km/s) = 2.81870 3.89081 3.39732
# Velocity P-wave (km/s) = 4.74819 6.27280 5.56297
#
# Compressibility (1/GPa) = 0.03432298
#
# Stress axis : x y z
#
# Youngs Moduli (GPa) = 128.04872 51.11419 106.41292
#
# Poissons Ratio (x) = 0.04613 0.02944
# Poissons Ratio (y) = 0.11556 0.00477
# Poissons Ratio (z) = 0.03543 0.00229
#
# Static dielectric constant tensor:
#      x y z
#    x 1.953970 0.070630 0.140770 
#    y 0.070630 1.660880 -0.185360 
#    z 0.140770 -0.185360 1.906650 
# 
# From -- ./inp_files/289649.got.cif
#   From: 2010.05.17/outbox.cif.g08.bks.cpg/sg2_145_cif.got.tgz:289649.got - 2010.06.03 11:33:40.
