data_PCOD9092633
_publ_section_title
;
Structure prediction by ZEFSAII (Michael W. Deem and Ramdas Pophale) SiO2 
 PCOD9092633
Probable space group: P -1
;
_chemical_formula_sum "Si O2"
_cell_formula_units_Z 14
_cell_length_a 17.995324
_cell_length_b 9.399037
_cell_length_c 12.409576
_cell_angle_alpha 47.526019
_cell_angle_beta 29.883419
_cell_angle_gamma 66.962678
_cell_volume 654.917604
_symmetry_space_group_name_H-M "P -1"
_symmetry_group_IT_number 2
_symmetry_cell_setting 'triclinic'
loop_
_space_group_symop_operation_xyz
x,y,z
-x,-y,-z
loop_
_atom_site_type_symbol
_atom_site_label
_atom_site_fract_x
_atom_site_fract_y
_atom_site_fract_z
Si Si1 0.200915 0.829289 0.645777
Si Si2 0.911853 0.823562 0.422043
Si Si3 0.944293 0.747626 0.662931
Si Si4 0.332707 0.414570 0.329564
Si Si5 0.641525 0.263584 0.317436
Si Si6 0.158549 0.585926 0.599851
Si Si7 0.287857 0.053292 0.743184
O O1 0.353658 0.859966 0.516804
O O2 0.204292 0.710503 0.592967
O O3 0.194194 0.047963 0.511122
O O4 0.017271 0.661151 0.027010
O O5 0.909075 0.724671 0.591711
O O6 0.826772 0.651456 0.518111
O O7 0.113168 0.995794 0.052423
O O8 0.095285 0.707923 0.535051
O O9 0.764820 0.532682 0.045819
O O10 0.000000 0.000000 0.500000
O O11 0.316387 0.571355 0.358175
O O12 0.307389 0.202455 0.538203
O O13 0.500000 0.500000 0.000000
O O14 0.452849 0.187154 0.546624
O O15 0.720969 0.172779 0.172959
#
# Coordination Sequence:
#
# PCOD9092633 Si02
#       7
#     2   2   2   2   2   2   2
#     4  10  19  41  71  96 125 177 229 271 333 406
#     4  12  22  41  71  95 130 183 225 277 339 402
#     4  11  23  41  66 102 139 176 225 284 343 399
#     4  12  25  42  68 102 138 174 230 283 341 403
#     4  10  23  41  67 100 139 176 223 286 338 400
#     4  10  22  40  69  97 132 177 224 278 339 399
#     4  11  23  42  69 101 136 175 234 281 336 406
#
# _framework density 21.376736000000001
#
# number of rings (size 3 to 8) (size 9 to 14) (size 15 to 20)
#    0.000    1.143    4.286    3.000    0.000    4.571 
#    0.000    5.000    0.000    0.000    0.000    0.000 
#    0.000    0.000    0.000    0.000    0.000    0.000 
#
# Total GULP energy -78224.263382 kJ/mol
# GULP energy per Si atom -5587.447384 kJ/mol
# Density = 2.132808 g / cm^3
# Si number density = 21.376736 Si / 1000 Ang^3
#
#
#
# Elastic Constant Matrix: (Units=GPa)
#
#
# Indices 1 2 3 4 5 6 
#
# 1 145.0450 12.5162 22.4528 9.1671 2.1801 -6.3425
# 2 12.5162 86.5485 32.3684 1.3652 -2.1818 -4.0893
# 3 22.4528 32.3684 52.5080 14.0267 0.7705 -10.3881
# 4 9.1671 1.3652 14.0267 30.5086 2.8836 2.4701
# 5 2.1801 -2.1818 0.7705 2.8836 34.9882 -8.6627
# 6 -6.3425 -4.0893 -10.3881 2.4701 -8.6627 24.5712
#
#
#
# Elastic Compliance Matrix: (Units=1/GPa)
#
#
# Indices 1 2 3 4 5 6 
#
# 1 0.007420 0.000002 -0.002735 -0.001028 -0.000114 0.000823
# 2 0.000002 0.015635 -0.011436 0.004755 0.000180 -0.002647
# 3 -0.002735 -0.011436 0.034440 -0.016055 0.003704 0.014871
# 4 -0.001028 0.004755 -0.016055 0.041820 -0.005833 -0.012522
# 5 -0.000114 0.000180 0.003704 -0.005833 0.032356 0.013560
# 6 0.000823 -0.002647 0.014871 -0.012522 0.013560 0.052797
#
#
# Mechanical properties :
#
#
# Convention : Reuss Voigt Hill
#
# Bulk Modulus (GPa) = 34.29544 46.53069 40.41306
# Shear Modulus (GPa) = 22.46935 32.46456 27.46695
#
# Velocity S-wave (km/s) = 3.24560 3.90126 3.58844
# Velocity P-wave (km/s) = 5.48848 6.48902 6.00961
#
# Compressibility (1/GPa) = 0.02915840
#
# Stress axis : x y z
#
# Youngs Moduli (GPa) = 134.76562 63.95833 29.03580
#
# Poissons Ratio (x) = -0.00013 0.07942
# Poissons Ratio (y) = -0.00028 0.33204
# Poissons Ratio (z) = 0.36861 0.73140
#
# Static dielectric constant tensor:
#      x y z
#    x 1.784920 -0.006680 -0.011090 
#    y -0.006680 1.787140 -0.034470 
#    z -0.011090 -0.034470 1.780970 
# 
# From -- ./inp_files/156613.got.cif
#   From: 2010.05.17/outbox.cif.g08.bks.cpg/sg2_79_cif.got.tgz:156613.got - 2010.06.03 11:33:40.
