data_PCOD9092593
_publ_section_title
;
Structure prediction by ZEFSAII (Michael W. Deem and Ramdas Pophale) SiO2 
 PCOD9092593
Probable space group: P -1
;
_chemical_formula_sum "Si O2"
_cell_formula_units_Z 14
_cell_length_a 7.260629
_cell_length_b 8.713242
_cell_length_c 15.874588
_cell_angle_alpha 132.083259
_cell_angle_beta 75.268414
_cell_angle_gamma 124.463291
_cell_volume 601.582153
_symmetry_space_group_name_H-M "P -1"
_symmetry_group_IT_number 2
_symmetry_cell_setting 'triclinic'
loop_
_space_group_symop_operation_xyz
x,y,z
-x,-y,-z
loop_
_atom_site_type_symbol
_atom_site_label
_atom_site_fract_x
_atom_site_fract_y
_atom_site_fract_z
Si Si1 0.064607 0.693658 0.138166
Si Si2 0.244786 0.060648 0.115382
Si Si3 0.233116 0.216722 0.510228
Si Si4 0.891415 0.406359 0.367400
Si Si5 0.449170 0.944608 0.309792
Si Si6 0.639515 0.426315 0.668244
Si Si7 0.773664 0.289456 0.144838
O O1 0.297892 0.767255 0.185164
O O2 0.866304 0.541777 0.173712
O O3 0.103811 0.927866 0.168222
O O4 0.000000 0.500000 0.000000
O O5 0.273229 0.320724 0.198524
O O6 0.501379 0.129725 0.126418
O O7 0.160377 0.875687 0.977498
O O8 0.185072 0.404060 0.539547
O O9 0.424547 0.359873 0.612312
O O10 0.328424 0.093344 0.394722
O O11 0.000000 0.000000 0.500000
O O12 0.843730 0.471670 0.600485
O O13 0.876748 0.367016 0.253412
O O14 0.710354 0.140732 0.329204
O O15 0.422755 0.790924 0.339212
#
# Coordination Sequence:
#
# PCOD9092593 Si02
#       7
#     2   2   2   2   2   2   2
#     4  10  20  40  70  98 130 181 224 270 337 401
#     4  10  22  39  70  97 136 180 227 271 340 398
#     4  12  25  49  73  95 137 182 224 284 345 398
#     4  12  25  46  69  99 140 181 226 278 342 404
#     4  12  25  44  70 104 138 177 231 281 336 405
#     4  12  26  46  67 106 135 176 232 281 339 403
#     4  10  19  41  69  96 134 181 220 277 331 398
#
# _framework density 23.271965999999999
#
# number of rings (size 3 to 8) (size 9 to 14) (size 15 to 20)
#    0.000    0.857    5.714    0.857    0.000    2.286 
#    2.571    0.714    0.000    0.000    0.000    0.000 
#    0.000    0.000    0.000    0.000    0.000    0.000 
#
# Total GULP energy -78357.329108 kJ/mol
# GULP energy per Si atom -5596.952079 kJ/mol
# Density = 2.321900 g / cm^3
# Si number density = 23.271966 Si / 1000 Ang^3
#
#
#
# Elastic Constant Matrix: (Units=GPa)
#
#
# Indices 1 2 3 4 5 6 
#
# 1 81.8213 36.7729 28.7205 -1.2712 -5.7337 3.8033
# 2 36.7729 154.8118 36.5006 4.5239 0.7996 22.6012
# 3 28.7205 36.5006 82.9328 -1.4368 5.9995 -12.7491
# 4 -1.2712 4.5239 -1.4368 28.0116 -5.6341 -4.3630
# 5 -5.7337 0.7996 5.9995 -5.6341 31.8519 4.9083
# 6 3.8033 22.6012 -12.7491 -4.3630 4.9083 28.3116
#
#
#
# Elastic Compliance Matrix: (Units=1/GPa)
#
#
# Indices 1 2 3 4 5 6 
#
# 1 0.015486 -0.001949 -0.005367 0.001111 0.004594 -0.003567
# 2 -0.001949 0.009915 -0.005539 -0.003368 0.001532 -0.010932
# 3 -0.005367 -0.005539 0.019213 0.002751 -0.006319 0.015314
# 4 0.001111 -0.003368 0.002751 0.038876 0.005278 0.008854
# 5 0.004594 0.001532 -0.006319 0.005278 0.035863 -0.010090
# 6 -0.003567 -0.010932 0.015314 0.008854 -0.010090 0.054537
#
#
# Mechanical properties :
#
#
# Convention : Reuss Voigt Hill
#
# Bulk Modulus (GPa) = 52.89306 58.17264 55.53285
# Shear Modulus (GPa) = 24.28370 32.13982 28.21176
#
# Velocity S-wave (km/s) = 3.23379 3.72028 3.48554
# Velocity P-wave (km/s) = 6.05977 6.59584 6.33348
#
# Compressibility (1/GPa) = 0.01890607
#
# Stress axis : x y z
#
# Youngs Moduli (GPa) = 64.57325 100.86083 52.04769
#
# Poissons Ratio (x) = 0.19654 0.27933
# Poissons Ratio (y) = 0.12583 0.28827
# Poissons Ratio (z) = 0.34655 0.55863
#
# Static dielectric constant tensor:
#      x y z
#    x 1.850120 0.017350 0.002910 
#    y 0.017350 1.866940 0.008800 
#    z 0.002910 0.008800 1.923120 
# 
# From -- ./inp_files/493838.got.cif
#   From: 2010.05.17/outbox.cif.g08.bks.cpg/sg2_247_cif.got.tgz:493838.got - 2010.06.03 11:33:40.
