data_PCOD9092273
_publ_section_title
;
Structure prediction by ZEFSAII (Michael W. Deem and Ramdas Pophale) SiO2 
 PCOD9092273
Probable space group: P -1
;
_chemical_formula_sum "Si O2"
_cell_formula_units_Z 16
_cell_length_a 11.780568
_cell_length_b 8.073547
_cell_length_c 12.165659
_cell_angle_alpha 91.901469
_cell_angle_beta 85.728463
_cell_angle_gamma 38.184055
_cell_volume 705.372351
_symmetry_space_group_name_H-M "P -1"
_symmetry_group_IT_number 2
_symmetry_cell_setting 'triclinic'
loop_
_space_group_symop_operation_xyz
x,y,z
-x,-y,-z
loop_
_atom_site_type_symbol
_atom_site_label
_atom_site_fract_x
_atom_site_fract_y
_atom_site_fract_z
Si Si1 0.803952 0.048170 0.774973
Si Si2 0.411024 0.041425 0.892053
Si Si3 0.689815 0.982463 0.317751
Si Si4 0.949391 0.951879 0.189043
Si Si5 0.429918 0.271030 0.526063
Si Si6 0.937102 0.437499 0.415688
Si Si7 0.914181 0.779142 0.991968
Si Si8 0.395106 0.405985 0.784904
O O1 0.879185 0.148793 0.771973
O O2 0.891947 0.850074 0.660921
O O3 0.584358 0.276251 0.807897
O O4 0.896742 0.856035 0.871160
O O5 0.290301 0.025253 0.943425
O O6 0.350934 0.291080 0.854529
O O7 0.455247 0.909311 0.764807
O O8 0.500000 0.000000 0.000000
O O9 0.849075 0.924671 0.265386
O O10 0.567828 0.200740 0.429682
O O11 0.812802 0.682639 0.341432
O O12 0.783557 0.272804 0.189477
O O13 0.008114 0.802706 0.066091
O O14 0.210497 0.520863 0.520465
O O15 0.440308 0.314272 0.651917
O O16 0.500000 0.000000 0.500000
O O17 0.000000 0.500000 0.500000
O O18 0.000000 0.500000 0.000000
#
# Coordination Sequence:
#
# PCOD9092273 Si02
#       8
#     2   2   2   2   2   2   2   2
#     4  12  23  42  66  97 137 179 225 274 344 410
#     4  11  21  41  66 101 131 173 233 283 323 411
#     4  10  22  43  65  96 137 178 227 279 343 395
#     4  11  25  46  63  99 145 176 220 286 341 409
#     4  10  19  40  69  92 133 175 221 284 330 388
#     4  11  22  40  69 102 130 177 237 283 330 404
#     4  11  24  43  69  93 130 183 226 283 341 396
#     4  12  23  43  69  98 140 179 227 276 352 393
#
# _framework density 22.683055
#
# number of rings (size 3 to 8) (size 9 to 14) (size 15 to 20)
#    0.000    1.000    5.000    4.125    0.000    1.000 
#    6.750    1.250    0.000    0.000    0.000    0.000 
#    0.000    0.000    0.000    0.000    0.000    0.000 
#
# Total GULP energy -89177.325352 kJ/mol
# GULP energy per Si atom -5573.582834 kJ/mol
# Density = 2.263143 g / cm^3
# Si number density = 22.683055 Si / 1000 Ang^3
#
#
#
# Elastic Constant Matrix: (Units=GPa)
#
#
# Indices 1 2 3 4 5 6 
#
# 1 98.0729 1.2675 13.4297 -4.9779 16.8897 -9.0647
# 2 1.2675 40.0999 5.6856 7.5067 7.6624 -3.2904
# 3 13.4297 5.6856 108.1150 5.1982 28.8843 3.0029
# 4 -4.9779 7.5067 5.1982 23.1841 -2.0512 5.0326
# 5 16.8897 7.6624 28.8843 -2.0512 39.0172 4.6856
# 6 -9.0647 -3.2904 3.0029 5.0326 4.6856 30.1673
#
#
#
# Elastic Compliance Matrix: (Units=1/GPa)
#
#
# Indices 1 2 3 4 5 6 
#
# 1 0.011606 0.000927 -0.000162 0.000795 -0.005565 0.004336
# 2 0.000927 0.029042 0.000916 -0.011556 -0.008177 0.006553
# 3 -0.000162 0.000916 0.011847 -0.004013 -0.009208 0.000971
# 4 0.000795 -0.011556 -0.004013 0.051007 0.008839 -0.010504
# 5 -0.005565 -0.008177 -0.009208 0.008839 0.038009 -0.009026
# 6 0.004336 0.006553 0.000971 -0.010504 -0.009026 0.038224
#
#
# Mechanical properties :
#
#
# Convention : Reuss Voigt Hill
#
# Bulk Modulus (GPa) = 17.90333 31.89484 24.89909
# Shear Modulus (GPa) = 25.64175 33.53407 29.58791
#
# Velocity S-wave (km/s) = 3.36584 3.84914 3.61557
# Velocity P-wave (km/s) = 4.79741 5.81774 5.33204
#
# Compressibility (1/GPa) = 0.05585552
#
# Stress axis : x y z
#
# Youngs Moduli (GPa) = 86.16036 34.43294 84.40698
#
# Poissons Ratio (x) = -0.03190 0.01370
# Poissons Ratio (y) = -0.07983 -0.07730
# Poissons Ratio (z) = 0.01399 -0.03153
#
# Static dielectric constant tensor:
#      x y z
#    x 0.391840 -0.958650 -2.913940 
#    y -0.958650 1.238570 -1.814710 
#    z -2.913940 -1.814710 -3.645430 
# 
# From -- ./inp_files/417367.got.cif
#   From: 2010.05.17/outbox.cif.g08.bks.cpg/sg2_209_cif.got.tgz:417367.got - 2010.06.03 11:33:40.
