data_PCOD9092726
_publ_section_title
;
Structure prediction by ZEFSAII (Michael W. Deem and Ramdas Pophale) SiO2 
 PCOD9092726
Probable space group: P -1
;
_chemical_formula_sum "Si O2"
_cell_formula_units_Z 16
_cell_length_a 12.027120
_cell_length_b 8.900126
_cell_length_c 16.010634
_cell_angle_alpha 131.323116
_cell_angle_beta 133.034921
_cell_angle_gamma 34.852545
_cell_volume 694.942253
_symmetry_space_group_name_H-M "P -1"
_symmetry_group_IT_number 2
_symmetry_cell_setting 'triclinic'
loop_
_space_group_symop_operation_xyz
x,y,z
-x,-y,-z
loop_
_atom_site_type_symbol
_atom_site_label
_atom_site_fract_x
_atom_site_fract_y
_atom_site_fract_z
Si Si1 0.792972 0.740054 0.254664
Si Si2 0.209050 0.588801 0.443308
Si Si3 0.548719 0.573179 0.335747
Si Si4 0.284130 0.951731 0.842046
Si Si5 0.808528 0.279229 0.703711
Si Si6 0.786496 0.727314 0.926791
Si Si7 0.917527 0.859402 0.881477
Si Si8 0.523905 0.045868 0.680277
O O1 0.723007 0.906138 0.193172
O O2 0.615877 0.861466 0.275905
O O3 0.976374 0.715480 0.376375
O O4 0.905377 0.432347 0.176337
O O5 0.287945 0.624507 0.579752
O O6 0.222079 0.697347 0.403088
O O7 0.360799 0.263029 0.393153
O O8 0.326851 0.766762 0.337600
O O9 0.598626 0.739412 0.378733
O O10 0.570695 0.368656 0.208771
O O11 0.049647 0.072939 0.773524
O O12 0.336954 0.037957 0.981673
O O13 0.720822 0.571131 0.799304
O O14 0.842186 0.811916 0.907875
O O15 0.000000 0.500000 0.000000
O O16 0.710564 0.038288 0.786690
O O17 0.000000 0.000000 0.000000
#
# Coordination Sequence:
#
# PCOD9092726 Si02
#       8
#     2   2   2   2   2   2   2   2
#     4  10  22  44  65  90 130 168 208 258 320 373
#     4  10  22  46  65  88 127 172 209 266 320 354
#     4  12  26  37  65 100 124 164 220 260 305 385
#     4  10  23  39  64  95 124 163 213 260 313 370
#     4  10  21  42  66  91 125 166 212 264 314 366
#     4  10  19  42  66  91 124 167 206 255 322 365
#     4  11  24  42  66  92 131 170 204 260 314 379
#     4  11  25  42  61  95 129 168 209 253 325 377
#
# _framework density 23.023496000000002
#
# number of rings (size 3 to 8) (size 9 to 14) (size 15 to 20)
#    0.000    1.500    5.000    1.500    5.250    5.500 
#    0.000    0.000    0.000    0.000    0.000    0.000 
#    0.000    0.000    0.000    0.000    0.000    0.000 
#
# Total GULP energy -89504.792506 kJ/mol
# GULP energy per Si atom -5594.049532 kJ/mol
# Density = 2.297109 g / cm^3
# Si number density = 23.023496 Si / 1000 Ang^3
#
#
#
# Elastic Constant Matrix: (Units=GPa)
#
#
# Indices 1 2 3 4 5 6 
#
# 1 93.8885 28.2195 10.9267 8.5553 6.9574 -8.5105
# 2 28.2195 73.7244 1.7926 8.6747 -7.9706 -11.8686
# 3 10.9267 1.7926 66.1864 5.6446 -10.0345 -7.5948
# 4 8.5553 8.6747 5.6446 32.8971 -3.0845 -6.1775
# 5 6.9574 -7.9706 -10.0345 -3.0845 21.6722 -5.9368
# 6 -8.5105 -11.8686 -7.5948 -6.1775 -5.9368 31.5317
#
#
#
# Elastic Compliance Matrix: (Units=1/GPa)
#
#
# Indices 1 2 3 4 5 6 
#
# 1 0.013620 -0.006067 -0.003418 -0.002501 -0.008983 -0.001612
# 2 -0.006067 0.018636 0.003451 -0.001191 0.012512 0.008331
# 3 -0.003418 0.003451 0.018375 -0.000654 0.012717 0.007069
# 4 -0.002501 -0.001191 -0.000654 0.033309 0.006579 0.006483
# 5 -0.008983 0.012512 0.012717 0.006579 0.065657 0.018999
# 6 -0.001612 0.008331 0.007069 0.006483 0.018999 0.040965
#
#
# Mechanical properties :
#
#
# Convention : Reuss Voigt Hill
#
# Bulk Modulus (GPa) = 25.93070 35.07521 30.50295
# Shear Modulus (GPa) = 23.20382 30.07757 26.64069
#
# Velocity S-wave (km/s) = 3.17808 3.61832 3.40532
# Velocity P-wave (km/s) = 4.97535 5.72048 5.36088
#
# Compressibility (1/GPa) = 0.03856433
#
# Stress axis : x y z
#
# Youngs Moduli (GPa) = 73.42394 53.65876 54.42297
#
# Poissons Ratio (x) = 0.32552 0.18601
# Poissons Ratio (y) = 0.44543 -0.18783
# Poissons Ratio (z) = 0.25095 -0.18519
#
# Static dielectric constant tensor:
#      x y z
#    x 1.804230 -0.143930 0.092010 
#    y -0.143930 1.592090 0.199210 
#    z 0.092010 0.199210 1.711330 
# 
# From -- ./inp_files/305960.got.cif
#   From: 2010.05.17/outbox.cif.g08.bks.cpg/sg2_153_cif.got.tgz:305960.got - 2010.06.03 11:33:40.
