data_PCOD9092160
_publ_section_title
;
Structure prediction by ZEFSAII (Michael W. Deem and Ramdas Pophale) SiO2 
 PCOD9092160
Probable space group: P -1
;
_chemical_formula_sum "Si O2"
_cell_formula_units_Z 16
_cell_length_a 15.922305
_cell_length_b 11.895447
_cell_length_c 7.303891
_cell_angle_alpha 102.311465
_cell_angle_beta 124.000332
_cell_angle_gamma 44.607335
_cell_volume 763.689511
_symmetry_space_group_name_H-M "P -1"
_symmetry_group_IT_number 2
_symmetry_cell_setting 'triclinic'
loop_
_space_group_symop_operation_xyz
x,y,z
-x,-y,-z
loop_
_atom_site_type_symbol
_atom_site_label
_atom_site_fract_x
_atom_site_fract_y
_atom_site_fract_z
Si Si1 0.257011 0.772656 0.234086
Si Si2 0.694356 0.729453 0.966196
Si Si3 0.587778 0.170218 0.312231
Si Si4 0.883666 0.700014 0.905476
Si Si5 0.998363 0.155171 0.956452
Si Si6 0.888511 0.372404 0.247105
Si Si7 0.396347 0.504301 0.993745
Si Si8 0.188912 0.208506 0.576182
O O1 0.361433 0.775139 0.465464
O O2 0.349122 0.614186 0.156794
O O3 0.133800 0.952954 0.041394
O O4 0.157269 0.778077 0.253088
O O5 0.799286 0.529964 0.052082
O O6 0.714807 0.775152 0.201378
O O7 0.531460 0.820987 0.752081
O O8 0.753322 0.771686 0.907079
O O9 0.498312 0.310034 0.094669
O O10 0.728677 0.980314 0.356927
O O11 0.956948 0.763340 0.057220
O O12 0.827496 0.754202 0.646697
O O13 0.000000 0.500000 0.000000
O O14 0.971359 0.213308 0.158415
O O15 0.019176 0.337640 0.486999
O O16 0.764762 0.412990 0.233967
O O17 0.500000 0.500000 0.000000
#
# Coordination Sequence:
#
# PCOD9092160 Si02
#       8
#     2   2   2   2   2   2   2   2
#     4  10  19  40  67  86 124 170 211 261 324 379
#     4  11  23  39  63  94 134 172 212 266 328 384
#     4  11  23  43  60  92 132 171 211 268 335 382
#     4  11  21  39  65  97 125 162 223 262 315 391
#     4   9  18  36  67  94 118 162 218 270 306 383
#     4   9  18  39  64  87 128 166 210 265 322 379
#     4  10  23  41  61  92 127 166 214 266 324 394
#     4  11  22  42  64  93 131 173 214 268 325 379
#
# _framework density 20.950924000000001
#
# number of rings (size 3 to 8) (size 9 to 14) (size 15 to 20)
#    0.000    1.750    5.000    1.125    0.000    1.500 
#    6.750    0.625    0.000    0.000    0.000    0.000 
#    0.000    0.000    0.000    0.000    0.000    0.000 
#
# Total GULP energy -89231.982848 kJ/mol
# GULP energy per Si atom -5576.998928 kJ/mol
# Density = 2.090324 g / cm^3
# Si number density = 20.950924 Si / 1000 Ang^3
#
#
#
# Elastic Constant Matrix: (Units=GPa)
#
#
# Indices 1 2 3 4 5 6 
#
# 1 154.5084 15.0979 37.0217 -8.8834 38.9687 13.6956
# 2 15.0979 72.7045 14.6461 -11.1847 1.0035 16.7803
# 3 37.0217 14.6461 84.9212 5.3880 38.2155 -0.5189
# 4 -8.8834 -11.1847 5.3880 30.9796 4.0689 8.4409
# 5 38.9687 1.0035 38.2155 4.0689 40.5212 2.2594
# 6 13.6956 16.7803 -0.5189 8.4409 2.2594 25.4336
#
#
#
# Elastic Compliance Matrix: (Units=1/GPa)
#
#
# Indices 1 2 3 4 5 6 
#
# 1 0.009863 0.000949 -0.000923 0.006493 -0.008881 -0.007322
# 2 0.000949 0.021964 -0.007725 0.014385 0.005523 -0.020425
# 3 -0.000923 -0.007725 0.023416 -0.007197 -0.020856 0.010313
# 4 0.006493 0.014385 -0.007197 0.048922 -0.003103 -0.029095
# 5 -0.008881 0.005523 -0.020856 -0.003103 0.053231 -0.002985
# 6 -0.007322 -0.020425 0.010313 -0.029095 -0.002985 0.066868
#
#
# Mechanical properties :
#
#
# Convention : Reuss Voigt Hill
#
# Bulk Modulus (GPa) = 25.09719 49.51840 37.30779
# Shear Modulus (GPa) = 19.76733 35.74476 27.75604
#
# Velocity S-wave (km/s) = 3.07499 4.13500 3.64375
# Velocity P-wave (km/s) = 4.96109 6.81794 5.96225
#
# Compressibility (1/GPa) = 0.03984510
#
# Stress axis : x y z
#
# Youngs Moduli (GPa) = 101.38900 45.52876 42.70641
#
# Poissons Ratio (x) = -0.04322 0.03944
# Poissons Ratio (y) = -0.09625 0.32989
# Poissons Ratio (z) = 0.09363 0.35170
#
# Static dielectric constant tensor:
#      x y z
#    x 1.798770 0.002070 0.055560 
#    y 0.002070 1.768350 0.005470 
#    z 0.055560 0.005470 1.798540 
# 
# From -- ./inp_files/223036.got.cif
#   From: 2010.05.17/outbox.cif.g08.bks.cpg/sg2_112_cif.got.tgz:223036.got - 2010.06.03 11:33:40.
