data_PCOD9092942
_publ_section_title
;
Structure prediction by ZEFSAII (Michael W. Deem and Ramdas Pophale) SiO2 
 PCOD9092942
Probable space group: P -1
;
_chemical_formula_sum "Si O2"
_cell_formula_units_Z 12
_cell_length_a 7.507681
_cell_length_b 7.289056
_cell_length_c 9.245956
_cell_angle_alpha 92.903356
_cell_angle_beta 71.697159
_cell_angle_gamma 90.331499
_cell_volume 479.733578
_symmetry_space_group_name_H-M "P -1"
_symmetry_group_IT_number 2
_symmetry_cell_setting 'triclinic'
loop_
_space_group_symop_operation_xyz
x,y,z
-x,-y,-z
loop_
_atom_site_type_symbol
_atom_site_label
_atom_site_fract_x
_atom_site_fract_y
_atom_site_fract_z
Si Si1 0.427588 0.020101 0.177620
Si Si2 0.061769 0.128798 0.621334
Si Si3 0.531685 0.371156 0.690377
Si Si4 0.368955 0.853657 0.609918
Si Si5 0.164955 0.326152 0.320368
Si Si6 0.080019 0.447598 0.819262
O O1 0.555075 0.153230 0.248674
O O2 0.232938 0.130429 0.231731
O O3 0.426120 0.821019 0.244225
O O4 0.500000 0.000000 0.000000
O O5 0.138513 0.289270 0.497428
O O6 0.988819 0.258992 0.773554
O O7 0.184105 0.975544 0.665309
O O8 0.000000 0.000000 0.500000
O O9 0.601059 0.321799 0.506687
O O10 0.307848 0.415356 0.761324
O O11 0.329279 0.477175 0.275465
O O12 0.500000 0.000000 0.500000
O O13 0.991387 0.399404 0.271929
O O14 0.000000 0.500000 0.000000
#
# Coordination Sequence:
#
# PCOD9092942 Si02
#       6
#     2   2   2   2   2   2
#     4  11  23  43  71 105 144 190 241 297 371 443
#     4  12  25  48  76 108 148 196 258 309 367 456
#     4  11  24  51  76 106 151 194 253 307 369 449
#     4  10  19  44  73  99 137 193 248 298 358 444
#     4  12  27  47  77 110 143 202 253 305 374 446
#     4  12  27  47  73 116 156 189 247 320 379 440
#
# _framework density 25.013881000000001
#
# number of rings (size 3 to 8) (size 9 to 14) (size 15 to 20)
#    0.000    0.667    6.667    2.500    0.000    6.667 
#    0.000    0.833    0.000    0.000    0.000    0.000 
#    0.000    0.000    0.000    0.000    0.000    0.000 
#
# Total GULP energy -66960.985034 kJ/mol
# GULP energy per Si atom -5580.082086 kJ/mol
# Density = 2.495695 g / cm^3
# Si number density = 25.013881 Si / 1000 Ang^3
#
#
#
# Elastic Constant Matrix: (Units=GPa)
#
#
# Indices 1 2 3 4 5 6 
#
# 1 100.9263 65.1174 42.8798 8.6295 4.9275 -18.8186
# 2 65.1174 198.0300 64.2344 22.4535 3.4709 -25.0426
# 3 42.8798 64.2344 206.3884 36.5756 2.6517 -3.8882
# 4 8.6295 22.4535 36.5756 30.6110 -2.4096 -7.7776
# 5 4.9275 3.4709 2.6517 -2.4096 17.5868 8.0754
# 6 -18.8186 -25.0426 -3.8882 -7.7776 8.0754 52.2658
#
#
#
# Elastic Compliance Matrix: (Units=1/GPa)
#
#
# Indices 1 2 3 4 5 6 
#
# 1 0.013846 -0.003513 -0.001946 0.001685 -0.004549 0.004111
# 2 -0.003513 0.007083 -0.000937 -0.002726 -0.001512 0.001887
# 3 -0.001946 -0.000937 0.006825 -0.007384 -0.000551 -0.001655
# 4 0.001685 -0.002726 -0.007384 0.044588 0.005182 0.004586
# 5 -0.004549 -0.001512 -0.000551 0.005182 0.064556 -0.011607
# 6 0.004111 0.001887 -0.001655 0.004586 -0.011607 0.023870
#
#
# Mechanical properties :
#
#
# Convention : Reuss Voigt Hill
#
# Bulk Modulus (GPa) = 66.83132 94.42310 80.62721
# Shear Modulus (GPa) = 28.00362 42.30026 35.15194
#
# Velocity S-wave (km/s) = 3.34956 4.11673 3.75280
# Velocity P-wave (km/s) = 6.46027 7.77347 7.14709
#
# Compressibility (1/GPa) = 0.01496304
#
# Stress axis : x y z
#
# Youngs Moduli (GPa) = 72.22118 141.18399 146.51060
#
# Poissons Ratio (x) = 0.49602 0.28512
# Poissons Ratio (y) = 0.25373 0.13721
# Poissons Ratio (z) = 0.14055 0.13222
#
# Static dielectric constant tensor:
#      x y z
#    x 2.126410 -0.121060 -0.033160 
#    y -0.121060 2.302090 -0.051140 
#    z -0.033160 -0.051140 1.913600 
# 
# From -- ./inp_files/155220.got.cif
#   From: 2010.05.17/outbox.cif.g08.bks.cpg/sg2_78_cif.got.tgz:155220.got - 2010.06.03 11:33:40.
