data_PCOD9092149
_publ_section_title
;
Structure prediction by ZEFSAII (Michael W. Deem and Ramdas Pophale) SiO2 
 PCOD9092149
Probable space group: P -1
;
_chemical_formula_sum "Si O2"
_cell_formula_units_Z 14
_cell_length_a 9.353794
_cell_length_b 12.230358
_cell_length_c 10.747194
_cell_angle_alpha 140.936224
_cell_angle_beta 65.637265
_cell_angle_gamma 123.438165
_cell_volume 646.281627
_symmetry_space_group_name_H-M "P -1"
_symmetry_group_IT_number 2
_symmetry_cell_setting 'triclinic'
loop_
_space_group_symop_operation_xyz
x,y,z
-x,-y,-z
loop_
_atom_site_type_symbol
_atom_site_label
_atom_site_fract_x
_atom_site_fract_y
_atom_site_fract_z
Si Si1 0.706073 0.250430 0.346465
Si Si2 0.060709 0.217431 0.194644
Si Si3 0.640505 0.522642 0.807186
Si Si4 0.297013 0.438733 0.531526
Si Si5 0.832008 0.802910 0.383853
Si Si6 0.419031 0.988333 0.378891
Si Si7 0.681838 0.425124 0.979518
O O1 0.894404 0.261270 0.311627
O O2 0.659267 0.383628 0.575320
O O3 0.715935 0.357200 0.305410
O O4 0.561915 0.052661 0.272747
O O5 0.174380 0.308996 0.114511
O O6 0.187108 0.298943 0.337714
O O7 0.000000 0.000000 0.000000
O O8 0.485813 0.585464 0.892550
O O9 0.622083 0.427939 0.862597
O O10 0.500000 0.500000 0.500000
O O11 0.218864 0.313287 0.570721
O O12 0.825649 0.631640 0.143784
O O13 0.684182 0.876474 0.466079
O O14 0.000000 0.000000 0.500000
O O15 0.500000 0.000000 0.500000
O O16 0.294747 0.770698 0.196894
#
# Coordination Sequence:
#
# PCOD9092149 Si02
#       7
#     2   2   2   2   2   2   2
#     4  11  22  44  73 103 137 190 236 297 358 421
#     4  11  25  41  70 105 135 181 254 296 343 430
#     4  10  19  40  67 101 134 177 231 290 350 410
#     4  11  23  47  69  95 151 188 228 295 367 427
#     4  12  28  45  67 106 148 189 231 299 362 419
#     4  12  23  43  74 104 137 186 243 288 358 425
#     4  11  22  41  70  99 143 181 233 285 352 435
#
# _framework density 21.662381
#
# number of rings (size 3 to 8) (size 9 to 14) (size 15 to 20)
#    0.000    0.857    4.286    4.286    4.000    1.714 
#    2.571    1.429    0.000    0.000    0.000    0.000 
#    0.000    0.000    0.000    0.000    0.000    0.000 
#
# Total GULP energy -77972.363192 kJ/mol
# GULP energy per Si atom -5569.454514 kJ/mol
# Density = 2.161308 g / cm^3
# Si number density = 21.662381 Si / 1000 Ang^3
#
#
#
# Elastic Constant Matrix: (Units=GPa)
#
#
# Indices 1 2 3 4 5 6 
#
# 1 103.6267 37.8180 21.9535 7.2324 10.0721 -1.9220
# 2 37.8180 122.2394 27.9628 19.8997 9.5821 -5.3703
# 3 21.9535 27.9628 92.8859 30.3586 4.5175 -10.3301
# 4 7.2324 19.8997 30.3586 40.4496 5.5496 5.4619
# 5 10.0721 9.5821 4.5175 5.5496 22.0757 4.5453
# 6 -1.9220 -5.3703 -10.3301 5.4619 4.5453 38.3927
#
#
#
# Elastic Compliance Matrix: (Units=1/GPa)
#
#
# Indices 1 2 3 4 5 6 
#
# 1 0.011469 -0.003024 -0.002165 0.001617 -0.003841 -0.000207
# 2 -0.003024 0.010180 -0.000781 -0.003819 -0.002306 0.001879
# 3 -0.002165 -0.000781 0.016127 -0.012106 -0.000137 0.005860
# 4 0.001617 -0.003819 -0.012106 0.037119 -0.004185 -0.008496
# 5 -0.003841 -0.002306 -0.000137 -0.004185 0.050350 -0.005917
# 6 -0.000207 0.001879 0.005860 -0.008496 -0.005917 0.029785
#
#
# Mechanical properties :
#
#
# Convention : Reuss Voigt Hill
#
# Bulk Modulus (GPa) = 38.70419 54.91340 46.80880
# Shear Modulus (GPa) = 28.47670 35.58478 32.03074
#
# Velocity S-wave (km/s) = 3.62963 4.05742 3.84947
# Velocity P-wave (km/s) = 5.95579 6.88149 6.43531
#
# Compressibility (1/GPa) = 0.02583700
#
# Stress axis : x y z
#
# Youngs Moduli (GPa) = 87.19172 98.23353 62.00589
#
# Poissons Ratio (x) = 0.29708 0.13424
# Poissons Ratio (y) = 0.26369 0.04840
# Poissons Ratio (z) = 0.18876 0.07668
#
# Static dielectric constant tensor:
#      x y z
#    x 1.736970 -0.148800 0.023480 
#    y -0.148800 2.147900 0.036180 
#    z 0.023480 0.036180 1.823680 
# 
# From -- ./inp_files/391555.got.cif
#   From: 2010.05.17/outbox.cif.g08.bks.cpg/sg2_196_cif.got.tgz:391555.got - 2010.06.03 11:33:40.
