data_PCOD9092021
_publ_section_title
;
Structure prediction by ZEFSAII (Michael W. Deem and Ramdas Pophale) SiO2 
 PCOD9092021
Probable space group: P -1
;
_chemical_formula_sum "Si O2"
_cell_formula_units_Z 12
_cell_length_a 16.428357
_cell_length_b 7.555973
_cell_length_c 7.056263
_cell_angle_alpha 109.016876
_cell_angle_beta 132.269558
_cell_angle_gamma 58.826564
_cell_volume 554.226398
_symmetry_space_group_name_H-M "P -1"
_symmetry_group_IT_number 2
_symmetry_cell_setting 'triclinic'
loop_
_space_group_symop_operation_xyz
x,y,z
-x,-y,-z
loop_
_atom_site_type_symbol
_atom_site_label
_atom_site_fract_x
_atom_site_fract_y
_atom_site_fract_z
Si Si1 0.075202 0.441005 0.289226
Si Si2 0.656112 0.623180 0.319827
Si Si3 0.373298 0.118904 0.987506
Si Si4 0.509630 0.291983 0.541666
Si Si5 0.892589 0.790514 0.381359
Si Si6 0.295473 0.816331 0.912161
O O1 0.209869 0.403494 0.429923
O O2 0.083297 0.248944 0.369081
O O3 0.007964 0.634224 0.393315
O O4 0.000000 0.500000 0.000000
O O5 0.574885 0.646561 0.383057
O O6 0.673443 0.418710 0.159610
O O7 0.606567 0.813431 0.163476
O O8 0.456145 0.167467 0.283392
O O9 0.227492 0.256758 0.855307
O O10 0.369260 0.897370 0.911787
O O11 0.500000 0.500000 0.500000
O O12 0.647980 0.165720 0.790194
O O13 0.841483 0.021934 0.295787
#
# Coordination Sequence:
#
# PCOD9092021 Si02
#       6
#     2   2   2   2   2   2
#     4  10  19  40  65  87 120 158 202 252 309 355
#     4  11  23  41  63  89 127 161 200 259 303 354
#     4   9  21  42  60  91 120 163 198 249 305 355
#     4  12  23  40  63  91 128 165 202 247 303 364
#     4   8  20  39  61  89 121 152 202 249 304 354
#     4  10  22  42  61  94 124 161 204 247 304 365
#
# _framework density 21.651800000000001
#
# number of rings (size 3 to 8) (size 9 to 14) (size 15 to 20)
#    1.000    1.000    1.667    2.000    0.000    1.333 
#    6.000    0.833    0.000    0.000    0.000    0.000 
#    0.000    0.000    0.000    0.000    0.000    0.000 
#
# Total GULP energy -66907.050642 kJ/mol
# GULP energy per Si atom -5575.587554 kJ/mol
# Density = 2.160252 g / cm^3
# Si number density = 21.651800 Si / 1000 Ang^3
#
#
#
# Elastic Constant Matrix: (Units=GPa)
#
#
# Indices 1 2 3 4 5 6 
#
# 1 60.1548 9.7350 1.7871 -20.3859 -17.1159 0.5740
# 2 9.7350 64.4887 19.6416 -18.9932 -8.1680 18.5110
# 3 1.7871 19.6416 128.9214 -29.7126 -7.3626 9.3049
# 4 -20.3859 -18.9932 -29.7126 35.9850 2.2065 -1.6555
# 5 -17.1159 -8.1680 -7.3626 2.2065 25.6034 -7.1565
# 6 0.5740 18.5110 9.3049 -1.6555 -7.1565 36.3993
#
#
#
# Elastic Compliance Matrix: (Units=1/GPa)
#
#
# Indices 1 2 3 4 5 6 
#
# 1 0.028750 0.002090 0.004974 0.020359 0.020149 0.002099
# 2 0.002090 0.022195 0.000467 0.012536 0.004755 -0.009935
# 3 0.004974 0.000467 0.010666 0.011488 0.005129 -0.001512
# 4 0.020359 0.012536 0.011488 0.054308 0.015058 -0.004202
# 5 0.020149 0.004755 0.005129 0.015058 0.056380 0.007723
# 6 0.002099 -0.009935 -0.001512 -0.004202 0.007723 0.034206
#
#
# Mechanical properties :
#
#
# Convention : Reuss Voigt Hill
#
# Bulk Modulus (GPa) = 13.04198 35.09914 24.07056
# Shear Modulus (GPa) = 23.04154 34.42428 28.73291
#
# Velocity S-wave (km/s) = 3.26573 3.99169 3.64681
# Velocity P-wave (km/s) = 4.50073 6.12296 5.37342
#
# Compressibility (1/GPa) = 0.07667547
#
# Stress axis : x y z
#
# Youngs Moduli (GPa) = 34.78230 45.05577 93.75497
#
# Poissons Ratio (x) = -0.09419 -0.46637
# Poissons Ratio (y) = -0.07271 -0.04382
# Poissons Ratio (z) = -0.17302 -0.02106
#
# Static dielectric constant tensor:
#      x y z
#    x 1.819900 -0.035030 0.046000 
#    y -0.035030 1.852650 -0.079310 
#    z 0.046000 -0.079310 1.822530 
# 
# From -- ./inp_files/44785.got.cif
#   From: 2010.05.17/outbox.cif.g08.bks.cpg/sg2_23_cif.got.tgz:44785.got - 2010.06.03 11:33:40.
