data_PCOD9092803
_publ_section_title
;
Structure prediction by ZEFSAII (Michael W. Deem and Ramdas Pophale) SiO2 
 PCOD9092803
Probable space group: P -1
;
_chemical_formula_sum "Si O2"
_cell_formula_units_Z 16
_cell_length_a 10.131625
_cell_length_b 8.295839
_cell_length_c 11.895144
_cell_angle_alpha 117.846524
_cell_angle_beta 130.397258
_cell_angle_gamma 86.625484
_cell_volume 627.542291
_symmetry_space_group_name_H-M "P -1"
_symmetry_group_IT_number 2
_symmetry_cell_setting 'triclinic'
loop_
_space_group_symop_operation_xyz
x,y,z
-x,-y,-z
loop_
_atom_site_type_symbol
_atom_site_label
_atom_site_fract_x
_atom_site_fract_y
_atom_site_fract_z
Si Si1 0.905346 0.709616 0.760875
Si Si2 0.340767 0.908157 0.760943
Si Si3 0.720418 0.950433 0.864153
Si Si4 0.128364 0.891072 0.416491
Si Si5 0.595102 0.324221 0.094140
Si Si6 0.683316 0.689982 0.414505
Si Si7 0.853243 0.518131 0.094953
Si Si8 0.680184 0.226751 0.727071
O O1 0.768146 0.768369 0.786533
O O2 0.796891 0.645782 0.564391
O O3 0.977128 0.546929 0.794166
O O4 0.092480 0.906599 0.923864
O O5 0.532652 0.891298 0.812588
O O6 0.194359 0.855497 0.563671
O O7 0.284644 0.768192 0.791754
O O8 0.411533 0.136435 0.908089
O O9 0.692156 0.076742 0.782974
O O10 0.246657 0.833736 0.365748
O O11 0.922602 0.748024 0.226417
O O12 0.173479 0.120990 0.507187
O O13 0.591377 0.506777 0.222927
O O14 0.690214 0.405044 0.054750
O O15 0.521258 0.761098 0.392693
O O16 0.799762 0.437181 0.914735
#
# Coordination Sequence:
#
# PCOD9092803 Si02
#       8
#     2   2   2   2   2   2   2   2
#     4  10  21  38  70  99 133 167 223 277 331 391
#     4  11  23  46  72  95 129 187 223 277 333 392
#     4  10  19  42  70  99 132 171 218 278 341 389
#     4  12  24  41  73 101 135 173 224 276 350 388
#     4  11  26  47  66  95 138 183 231 269 322 403
#     4  12  24  41  70 102 133 180 224 275 327 404
#     4  11  25  47  66  99 142 181 215 277 334 399
#     4  11  22  45  70 100 143 168 214 289 343 392
#
# _framework density 25.496292
#
# number of rings (size 3 to 8) (size 9 to 14) (size 15 to 20)
#    0.000    1.000    5.000    2.250    0.000    5.500 
#    2.250    2.500    0.000    0.000    0.000    0.000 
#    0.000    0.000    0.000    0.000    0.000    0.000 
#
# Total GULP energy -89689.890575 kJ/mol
# GULP energy per Si atom -5605.618161 kJ/mol
# Density = 2.543826 g / cm^3
# Si number density = 25.496292 Si / 1000 Ang^3
#
#
#
# Elastic Constant Matrix: (Units=GPa)
#
#
# Indices 1 2 3 4 5 6 
#
# 1 92.2876 27.0230 21.1793 -2.9434 -11.7789 -21.7065
# 2 27.0230 66.7422 36.7805 12.8841 3.5761 -4.7395
# 3 21.1793 36.7805 154.4322 2.7097 -21.3577 -5.4517
# 4 -2.9434 12.8841 2.7097 46.9759 -5.2520 6.1328
# 5 -11.7789 3.5761 -21.3577 -5.2520 37.2726 -1.4345
# 6 -21.7065 -4.7395 -5.4517 6.1328 -1.4345 34.8150
#
#
#
# Elastic Compliance Matrix: (Units=1/GPa)
#
#
# Indices 1 2 3 4 5 6 
#
# 1 0.015721 -0.006959 0.000699 0.002455 0.006721 0.008808
# 2 -0.006959 0.022596 -0.005533 -0.007114 -0.008588 -0.001230
# 3 0.000699 -0.005533 0.008519 0.001602 0.005897 0.000977
# 4 0.002455 -0.007114 0.001602 0.024359 0.005684 -0.003244
# 5 0.006721 -0.008588 0.005897 0.005684 0.034124 0.004350
# 6 0.008808 -0.001230 0.000977 -0.003244 0.004350 0.034951
#
#
# Mechanical properties :
#
#
# Convention : Reuss Voigt Hill
#
# Bulk Modulus (GPa) = 43.01238 53.71419 48.36329
# Shear Modulus (GPa) = 29.13628 39.04463 34.09046
#
# Velocity S-wave (km/s) = 3.38415 3.91754 3.66057
# Velocity P-wave (km/s) = 5.67244 6.44794 6.07259
#
# Compressibility (1/GPa) = 0.02324912
#
# Stress axis : x y z
#
# Youngs Moduli (GPa) = 63.61007 44.25567 117.38055
#
# Poissons Ratio (x) = 0.30796 -0.08201
# Poissons Ratio (y) = 0.44264 0.64952
# Poissons Ratio (z) = -0.04444 0.24489
#
# Static dielectric constant tensor:
#      x y z
#    x 2.029800 0.001340 0.028030 
#    y 0.001340 2.008390 0.053810 
#    z 0.028030 0.053810 1.987600 
# 
# From -- ./inp_files/419848.got.cif
#   From: 2010.05.17/outbox.cif.g08.bks.cpg/sg2_210_cif.got.tgz:419848.got - 2010.06.03 11:33:40.
