data_PCOD9092352
_publ_section_title
;
Structure prediction by ZEFSAII (Michael W. Deem and Ramdas Pophale) SiO2 
 PCOD9092352
Probable space group: P -1
;
_chemical_formula_sum "Si O2"
_cell_formula_units_Z 16
_cell_length_a 17.263929
_cell_length_b 8.189148
_cell_length_c 12.374912
_cell_angle_alpha 84.478528
_cell_angle_beta 48.230697
_cell_angle_gamma 121.976531
_cell_volume 779.820179
_symmetry_space_group_name_H-M "P -1"
_symmetry_group_IT_number 2
_symmetry_cell_setting 'triclinic'
loop_
_space_group_symop_operation_xyz
x,y,z
-x,-y,-z
loop_
_atom_site_type_symbol
_atom_site_label
_atom_site_fract_x
_atom_site_fract_y
_atom_site_fract_z
Si Si1 0.581316 0.301463 0.683839
Si Si2 0.055969 0.158916 0.753960
Si Si3 0.550106 0.826942 0.428432
Si Si4 0.871402 0.022411 0.131015
Si Si5 0.457629 0.461842 0.915827
Si Si6 0.614134 0.269380 0.073256
Si Si7 0.756190 0.407135 0.170188
Si Si8 0.110175 0.164660 0.281124
O O1 0.785164 0.533885 0.456767
O O2 0.493602 0.219923 0.654188
O O3 0.547062 0.424295 0.774649
O O4 0.497727 0.031610 0.829331
O O5 0.123611 0.133527 0.791149
O O6 0.997778 0.972152 0.720392
O O7 0.903872 0.055824 0.968866
O O8 0.368885 0.603781 0.673150
O O9 0.681504 0.852255 0.335639
O O10 0.666087 0.135596 0.324939
O O11 0.044422 0.332070 0.997087
O O12 0.493218 0.692904 0.823023
O O13 0.500000 0.500000 0.000000
O O14 0.248306 0.194343 0.125890
O O15 0.716233 0.357991 0.083506
O O16 0.768020 0.522336 0.835371
O O17 0.000000 0.000000 0.500000
#
# Coordination Sequence:
#
# PCOD9092352 Si02
#       8
#     2   2   2   2   2   2   2   2
#     4  11  22  42  64  93 125 166 216 258 318 388
#     4  11  23  37  61  93 128 164 216 264 319 383
#     4  10  22  34  63  89 129 174 208 264 313 385
#     4  11  21  37  58  93 128 171 214 259 324 380
#     4  10  22  41  67  91 117 160 219 258 320 387
#     4   9  23  41  66  86 130 168 202 269 322 373
#     4  10  19  41  55  92 132 166 217 256 319 386
#     4  10  21  43  64  87 127 166 202 273 325 368
#
# _framework density 20.517551000000001
#
# number of rings (size 3 to 8) (size 9 to 14) (size 15 to 20)
#    0.750    1.000    2.500    1.875    1.750    1.000 
#    0.000    0.625    5.500    0.000    0.000    0.000 
#    0.000    0.000    0.000    0.000    0.000    0.000 
#
# Total GULP energy -89067.408071 kJ/mol
# GULP energy per Si atom -5566.713004 kJ/mol
# Density = 2.047085 g / cm^3
# Si number density = 20.517551 Si / 1000 Ang^3
#
#
#
# Elastic Constant Matrix: (Units=GPa)
#
#
# Indices 1 2 3 4 5 6 
#
# 1 31.3934 1.4854 5.7908 -0.2429 -2.3641 -2.7533
# 2 1.4854 60.8181 10.3308 -17.2273 2.1504 -3.6344
# 3 5.7908 10.3308 73.9871 -7.7510 5.3248 0.0802
# 4 -0.2429 -17.2273 -7.7510 35.5721 -6.2478 1.9816
# 5 -2.3641 2.1504 5.3248 -6.2478 25.0066 -3.5486
# 6 -2.7533 -3.6344 0.0802 1.9816 -3.5486 22.5234
#
#
#
# Elastic Compliance Matrix: (Units=1/GPa)
#
#
# Indices 1 2 3 4 5 6 
#
# 1 0.033145 -0.000186 -0.002891 0.000023 0.004442 0.004730
# 2 -0.000186 0.019444 -0.001845 0.009107 0.001338 0.002531
# 3 -0.002891 -0.001845 0.014398 0.001784 -0.002922 -0.001320
# 4 0.000023 0.009107 0.001784 0.034221 0.007334 -0.000389
# 5 0.004442 0.001338 -0.002922 0.007334 0.043744 0.007016
# 6 0.004730 0.002531 -0.001320 -0.000389 0.007016 0.046529
#
#
# Mechanical properties :
#
#
# Convention : Reuss Voigt Hill
#
# Bulk Modulus (GPa) = 17.49990 22.37916 19.93953
# Shear Modulus (GPa) = 22.68857 26.52652 24.60754
#
# Velocity S-wave (km/s) = 3.32898 3.59955 3.46691
# Velocity P-wave (km/s) = 4.82948 5.31100 5.07595
#
# Compressibility (1/GPa) = 0.05714320
#
# Stress axis : x y z
#
# Youngs Moduli (GPa) = 30.17012 51.42938 69.45207
#
# Poissons Ratio (x) = 0.00959 0.20076
# Poissons Ratio (y) = 0.00563 0.12816
# Poissons Ratio (z) = 0.08721 0.09490
#
# Static dielectric constant tensor:
#      x y z
#    x 1.766250 -0.009430 -0.043700 
#    y -0.009430 1.853460 0.010210 
#    z -0.043700 0.010210 1.787450 
# 
# From -- ./inp_files/470017.got.cif
#   From: 2010.05.17/outbox.cif.g08.bks.cpg/sg2_236_cif.got.tgz:470017.got - 2010.06.03 11:33:40.
