data_PCOD9092465
_publ_section_title
;
Structure prediction by ZEFSAII (Michael W. Deem and Ramdas Pophale) SiO2 
 PCOD9092465
Probable space group: P -1
;
_chemical_formula_sum "Si O2"
_cell_formula_units_Z 16
_cell_length_a 11.827589
_cell_length_b 7.655084
_cell_length_c 9.108209
_cell_angle_alpha 111.907016
_cell_angle_beta 100.478684
_cell_angle_gamma 60.909150
_cell_volume 668.599252
_symmetry_space_group_name_H-M "P -1"
_symmetry_group_IT_number 2
_symmetry_cell_setting 'triclinic'
loop_
_space_group_symop_operation_xyz
x,y,z
-x,-y,-z
loop_
_atom_site_type_symbol
_atom_site_label
_atom_site_fract_x
_atom_site_fract_y
_atom_site_fract_z
Si Si1 0.790825 0.151957 0.268627
Si Si2 0.947703 0.248287 0.839018
Si Si3 0.084394 0.618905 0.793849
Si Si4 0.242886 0.322135 0.162220
Si Si5 0.690795 0.799674 0.401779
Si Si6 0.387490 0.049495 0.873652
Si Si7 0.821303 0.940691 0.714867
Si Si8 0.372484 0.471163 0.468342
O O1 0.826174 0.266180 0.182386
O O2 0.749126 0.304800 0.447256
O O3 0.669149 0.116376 0.188244
O O4 0.916857 0.928302 0.246386
O O5 0.888221 0.459002 0.793448
O O6 0.851032 0.140070 0.790108
O O7 0.963426 0.314224 0.029646
O O8 0.175686 0.379755 0.693167
O O9 0.964108 0.737279 0.690731
O O10 0.240368 0.122145 0.179297
O O11 0.346253 0.376296 0.284658
O O12 0.276549 0.267158 0.984121
O O13 0.595898 0.916950 0.282191
O O14 0.734889 0.940748 0.557402
O O15 0.629579 0.684321 0.452875
O O16 0.500000 0.000000 0.000000
O O17 0.500000 0.500000 0.500000
#
# Coordination Sequence:
#
# PCOD9092465 Si02
#       8
#     2   2   2   2   2   2   2   2
#     4  10  23  40  67  97 134 172 223 275 333 406
#     4  11  22  40  69 105 138 176 216 276 349 404
#     4  10  19  41  65  99 140 174 213 275 341 409
#     4  11  24  42  68  99 136 180 221 278 344 397
#     4  10  23  42  67  98 129 180 226 276 342 391
#     4  12  25  45  65  98 135 178 233 282 328 401
#     4  10  22  40  66 100 139 174 220 273 335 417
#     4  10  23  48  66  93 134 178 231 283 326 401
#
# _framework density 23.930627999999999
#
# number of rings (size 3 to 8) (size 9 to 14) (size 15 to 20)
#    0.000    1.500    1.250    4.125    3.500    2.500 
#    4.500    3.750    0.000    0.000    0.000    0.000 
#    0.000    0.000    0.000    0.000    0.000    0.000 
#
# Total GULP energy -89499.239332 kJ/mol
# GULP energy per Si atom -5593.702458 kJ/mol
# Density = 2.387616 g / cm^3
# Si number density = 23.930628 Si / 1000 Ang^3
#
#
#
# Elastic Constant Matrix: (Units=GPa)
#
#
# Indices 1 2 3 4 5 6 
#
# 1 103.7601 19.3335 43.7343 3.5725 17.9561 23.0946
# 2 19.3335 67.6218 34.9774 -3.4136 1.7171 6.9226
# 3 43.7343 34.9774 136.5478 -8.6439 14.0832 14.1167
# 4 3.5725 -3.4136 -8.6439 34.9044 -5.5053 -2.6399
# 5 17.9561 1.7171 14.0832 -5.5053 42.3160 11.2183
# 6 23.0946 6.9226 14.1167 -2.6399 11.2183 36.3800
#
#
#
# Elastic Compliance Matrix: (Units=1/GPa)
#
#
# Indices 1 2 3 4 5 6 
#
# 1 0.013298 -0.001672 -0.003057 -0.003275 -0.003356 -0.006140
# 2 -0.001672 0.017425 -0.003917 0.001093 0.001766 -0.001200
# 3 -0.003057 -0.003917 0.009626 0.002064 -0.001351 -0.000483
# 4 -0.003275 0.001093 0.002064 0.030399 0.004078 0.002019
# 5 -0.003356 0.001766 -0.001351 0.004078 0.027521 -0.005872
# 6 -0.006140 -0.001200 -0.000483 0.002019 -0.005872 0.033758
#
#
# Mechanical properties :
#
#
# Convention : Reuss Voigt Hill
#
# Bulk Modulus (GPa) = 43.37183 56.00223 49.68703
# Shear Modulus (GPa) = 31.84598 36.71238 34.27918
#
# Velocity S-wave (km/s) = 3.65192 3.92103 3.78886
# Velocity P-wave (km/s) = 5.99544 6.62963 6.32050
#
# Compressibility (1/GPa) = 0.02305644
#
# Stress axis : x y z
#
# Youngs Moduli (GPa) = 75.19961 57.38742 103.88656
#
# Poissons Ratio (x) = 0.09596 0.31761
# Poissons Ratio (y) = 0.12575 0.40692
# Poissons Ratio (z) = 0.22991 0.22479
#
# Static dielectric constant tensor:
#      x y z
#    x 1.972750 -0.049160 -0.030240 
#    y -0.049160 1.954950 0.016120 
#    z -0.030240 0.016120 1.868810 
# 
# From -- ./inp_files/184876.got.cif
#   From: 2010.05.17/outbox.cif.g08.bks.cpg/sg2_93_cif.got.tgz:184876.got - 2010.06.03 11:33:40.
