data_PCOD9092820
_publ_section_title
;
Structure prediction by ZEFSAII (Michael W. Deem and Ramdas Pophale) SiO2 
 PCOD9092820
Probable space group: P -1
;
_chemical_formula_sum "Si O2"
_cell_formula_units_Z 14
_cell_length_a 18.278368
_cell_length_b 5.525965
_cell_length_c 18.809942
_cell_angle_alpha 120.523540
_cell_angle_beta 157.380503
_cell_angle_gamma 67.737348
_cell_volume 605.805246
_symmetry_space_group_name_H-M "P -1"
_symmetry_group_IT_number 2
_symmetry_cell_setting 'triclinic'
loop_
_space_group_symop_operation_xyz
x,y,z
-x,-y,-z
loop_
_atom_site_type_symbol
_atom_site_label
_atom_site_fract_x
_atom_site_fract_y
_atom_site_fract_z
Si Si1 0.604749 0.791678 0.456164
Si Si2 0.229811 0.810441 0.046408
Si Si3 0.478295 0.827110 0.742828
Si Si4 0.956622 0.151111 0.910311
Si Si5 0.482201 0.329843 0.033197
Si Si6 0.180447 0.226949 0.858152
Si Si7 0.786172 0.817494 0.463355
O O1 0.384676 0.826059 0.252027
O O2 0.578009 0.453351 0.400599
O O3 0.720922 0.825411 0.488922
O O4 0.737113 0.007362 0.663001
O O5 0.377542 0.902579 0.127271
O O6 0.107518 0.480717 0.870885
O O7 0.102271 0.037590 0.971794
O O8 0.287904 0.928871 0.605825
O O9 0.614790 0.762093 0.916657
O O10 0.000000 0.500000 0.000000
O O11 0.000000 0.000000 0.000000
O O12 0.663460 0.523298 0.272363
O O13 0.500000 0.500000 0.000000
O O14 0.263344 0.305147 0.865509
O O15 0.500000 0.000000 0.000000
O O16 0.020335 0.920965 0.679817
#
# Coordination Sequence:
#
# PCOD9092820 Si02
#       7
#     2   2   2   2   2   2   2
#     4  10  23  43  74 100 136 193 247 293 349 438
#     4  10  23  43  74 100 136 193 247 293 349 438
#     4  10  19  42  72 105 134 176 262 300 329 422
#     4  12  30  46  66 110 152 182 234 308 366 418
#     4  12  27  48  68 109 156 180 234 308 367 420
#     4  11  23  43  75 103 137 197 246 293 351 434
#     4  11  23  43  75 103 137 197 246 293 351 434
#
# _framework density 23.109738
#
# number of rings (size 3 to 8) (size 9 to 14) (size 15 to 20)
#    0.000    1.143    4.286    2.571   10.000    2.286 
#    0.000    0.000    0.000    0.000    0.000    0.000 
#    0.000    0.000    0.000    0.000    0.000    0.000 
#
# Total GULP energy -78174.490449 kJ/mol
# GULP energy per Si atom -5583.892175 kJ/mol
# Density = 2.305714 g / cm^3
# Si number density = 23.109738 Si / 1000 Ang^3
#
#
#
# Elastic Constant Matrix: (Units=GPa)
#
#
# Indices 1 2 3 4 5 6 
#
# 1 59.9494 2.4189 20.7674 3.9290 -4.2660 9.4747
# 2 2.4189 143.4472 48.1667 20.7027 -12.5209 -8.5072
# 3 20.7674 48.1667 139.2633 33.7962 -0.7468 -5.9651
# 4 3.9290 20.7027 33.7962 36.5793 -1.4196 2.5102
# 5 -4.2660 -12.5209 -0.7468 -1.4196 27.6432 -2.6897
# 6 9.4747 -8.5072 -5.9651 2.5102 -2.6897 33.6271
#
#
#
# Elastic Compliance Matrix: (Units=1/GPa)
#
#
# Indices 1 2 3 4 5 6 
#
# 1 0.018898 0.000565 -0.003602 0.001472 0.002594 -0.005723
# 2 0.000565 0.008605 -0.002259 -0.002837 0.003987 0.002148
# 3 -0.003602 -0.002259 0.010660 -0.008436 -0.001447 0.002849
# 4 0.001472 -0.002837 -0.008436 0.036952 0.000089 -0.005380
# 5 0.002594 0.003987 -0.001447 0.000089 0.038649 0.003106
# 6 -0.005723 0.002148 0.002849 -0.005380 0.003106 0.033049
#
#
# Mechanical properties :
#
#
# Convention : Reuss Voigt Hill
#
# Bulk Modulus (GPa) = 36.26742 53.92956 45.09849
# Shear Modulus (GPa) = 30.01282 37.65703 33.83493
#
# Velocity S-wave (km/s) = 3.60767 4.04107 3.83050
# Velocity P-wave (km/s) = 5.75164 6.72017 6.25468
#
# Compressibility (1/GPa) = 0.02757296
#
# Stress axis : x y z
#
# Youngs Moduli (GPa) = 52.91460 116.21331 93.80474
#
# Poissons Ratio (x) = -0.06572 0.33789
# Poissons Ratio (y) = -0.02992 0.21188
# Poissons Ratio (z) = 0.19060 0.26249
#
# Static dielectric constant tensor:
#      x y z
#    x 1.983030 -0.008420 -0.038400 
#    y -0.008420 1.927780 -0.043260 
#    z -0.038400 -0.043260 1.843380 
# 
# From -- ./inp_files/120483.got.cif
#   From: 2010.05.17/outbox.cif.g08.bks.cpg/sg2_61_cif.got.tgz:120483.got - 2010.06.03 11:33:40.
