data_PCOD9092894
_publ_section_title
;
Structure prediction by ZEFSAII (Michael W. Deem and Ramdas Pophale) SiO2 
 PCOD9092894
Probable space group: P -1
;
_chemical_formula_sum "Si O2"
_cell_formula_units_Z 16
_cell_length_a 12.691666
_cell_length_b 9.467633
_cell_length_c 14.917636
_cell_angle_alpha 110.186547
_cell_angle_beta 28.717638
_cell_angle_gamma 119.044251
_cell_volume 738.952676
_symmetry_space_group_name_H-M "P -1"
_symmetry_group_IT_number 2
_symmetry_cell_setting 'triclinic'
loop_
_space_group_symop_operation_xyz
x,y,z
-x,-y,-z
loop_
_atom_site_type_symbol
_atom_site_label
_atom_site_fract_x
_atom_site_fract_y
_atom_site_fract_z
Si Si1 0.614362 0.748476 0.761911
Si Si2 0.833534 0.931627 0.250689
Si Si3 0.785389 0.135155 0.168075
Si Si4 0.374388 0.617728 0.586622
Si Si5 0.184513 0.005691 0.164758
Si Si6 0.592798 0.022779 0.723019
Si Si7 0.892588 0.360142 0.809548
Si Si8 0.017663 0.638198 0.449164
O O1 0.721633 0.867146 0.795100
O O2 0.761068 0.637304 0.616053
O O3 0.647507 0.868177 0.678971
O O4 0.332215 0.645964 0.966154
O O5 0.580708 0.779728 0.424137
O O6 0.815004 0.071828 0.230718
O O7 0.973714 0.003752 0.255122
O O8 0.998593 0.860550 0.055241
O O9 0.746581 0.302888 0.233866
O O10 0.545870 0.003794 0.272206
O O11 0.500000 0.500000 0.500000
O O12 0.146378 0.502715 0.674371
O O13 0.103454 0.819536 0.220378
O O14 0.411181 0.034583 0.937340
O O15 0.829531 0.184912 0.584429
O O16 0.847342 0.378597 0.743701
O O17 0.000000 0.500000 0.500000
#
# Coordination Sequence:
#
# PCOD9092894 Si02
#       8
#     2   2   2   2   2   2   2   2
#     4  11  23  43  73  91 126 181 214 273 317 387
#     4  10  23  45  67  96 130 178 220 271 322 395
#     4  10  25  44  66  99 131 176 223 265 332 390
#     4  12  26  41  67  96 136 173 217 275 326 391
#     4  10  19  43  72  93 127 169 230 262 314 389
#     4  10  21  43  69  95 127 168 224 267 310 399
#     4  11  24  45  61 102 133 164 223 270 325 385
#     4  12  27  40  63 103 132 168 211 273 340 383
#
# _framework density 21.652266999999998
#
# number of rings (size 3 to 8) (size 9 to 14) (size 15 to 20)
#    0.000    1.250    3.750    1.500    5.250    3.000 
#    4.500    0.000    0.000    0.000    0.000    0.000 
#    0.000    0.000    0.000    0.000    0.000    0.000 
#
# Total GULP energy -89459.668662 kJ/mol
# GULP energy per Si atom -5591.229291 kJ/mol
# Density = 2.160299 g / cm^3
# Si number density = 21.652267 Si / 1000 Ang^3
#
#
#
# Elastic Constant Matrix: (Units=GPa)
#
#
# Indices 1 2 3 4 5 6 
#
# 1 88.6014 13.5858 16.1727 -21.3823 -10.5583 -9.1058
# 2 13.5858 45.2320 36.0269 4.5696 -9.6167 -12.7394
# 3 16.1727 36.0269 87.7127 -3.0639 -25.3956 -9.0510
# 4 -21.3823 4.5696 -3.0639 31.5639 2.5563 -2.9794
# 5 -10.5583 -9.6167 -25.3956 2.5563 29.5765 -5.6872
# 6 -9.1058 -12.7394 -9.0510 -2.9794 -5.6872 36.5851
#
#
#
# Elastic Compliance Matrix: (Units=1/GPa)
#
#
# Indices 1 2 3 4 5 6 
#
# 1 0.015514 -0.004563 0.001307 0.011296 0.005027 0.004297
# 2 -0.004563 0.038040 -0.013951 -0.009281 0.001116 0.008077
# 3 0.001307 -0.013951 0.021702 0.004136 0.014877 0.003486
# 4 0.011296 -0.009281 0.004136 0.041334 0.001811 0.004251
# 5 0.005027 0.001116 0.014877 0.001811 0.051167 0.013422
# 6 0.004297 0.008077 0.003486 0.004251 0.013422 0.034510
#
#
# Mechanical properties :
#
#
# Convention : Reuss Voigt Hill
#
# Bulk Modulus (GPa) = 24.48417 39.23522 31.85969
# Shear Modulus (GPa) = 19.97648 29.92913 24.95281
#
# Velocity S-wave (km/s) = 3.04074 3.72191 3.39843
# Velocity P-wave (km/s) = 4.86421 6.05228 5.49048
#
# Compressibility (1/GPa) = 0.04084272
#
# Stress axis : x y z
#
# Youngs Moduli (GPa) = 64.45648 26.28804 46.07965
#
# Poissons Ratio (x) = 0.11995 -0.06023
# Poissons Ratio (y) = 0.29412 0.64285
# Poissons Ratio (z) = -0.08425 0.36674
#
# Static dielectric constant tensor:
#      x y z
#    x 1.803150 0.022580 -0.013690 
#    y 0.022580 1.771310 0.044840 
#    z -0.013690 0.044840 1.828950 
# 
# From -- ./inp_files/272144.got.cif
#   From: 2010.05.17/outbox.cif.g08.bks.cpg/sg2_137_cif.got.tgz:272144.got - 2010.06.03 11:33:40.
