data_PCOD9092078
_publ_section_title
;
Structure prediction by ZEFSAII (Michael W. Deem and Ramdas Pophale) SiO2 
 PCOD9092078
Probable space group: P -1
;
_chemical_formula_sum "Si O2"
_cell_formula_units_Z 16
_cell_length_a 14.143683
_cell_length_b 10.453234
_cell_length_c 9.746554
_cell_angle_alpha 118.680559
_cell_angle_beta 133.880923
_cell_angle_gamma 93.676304
_cell_volume 709.501854
_symmetry_space_group_name_H-M "P -1"
_symmetry_group_IT_number 2
_symmetry_cell_setting 'triclinic'
loop_
_space_group_symop_operation_xyz
x,y,z
-x,-y,-z
loop_
_atom_site_type_symbol
_atom_site_label
_atom_site_fract_x
_atom_site_fract_y
_atom_site_fract_z
Si Si1 0.954387 0.807763 0.904884
Si Si2 0.171578 0.630688 0.827015
Si Si3 0.239817 0.049145 0.529020
Si Si4 0.142153 0.992359 0.697899
Si Si5 0.829012 0.412502 0.873688
Si Si6 0.302902 0.363279 0.214703
Si Si7 0.489555 0.007396 0.656807
Si Si8 0.870133 0.692118 0.464094
O O1 0.779081 0.691663 0.746222
O O2 0.932808 0.708093 0.690598
O O3 0.000000 0.000000 0.000000
O O4 0.093725 0.875588 0.197013
O O5 0.243732 0.517541 0.812141
O O6 0.000000 0.500000 0.500000
O O7 0.142904 0.616183 0.954879
O O8 0.312713 0.845682 0.030075
O O9 0.225607 0.989666 0.642731
O O10 0.214753 0.206442 0.576311
O O11 0.409176 0.105533 0.666529
O O12 0.255649 0.180431 0.997060
O O13 0.000000 0.000000 0.500000
O O14 0.034028 0.813994 0.594251
O O15 0.779238 0.549873 0.892420
O O16 0.653158 0.207652 0.545739
O O17 0.000000 0.500000 0.000000
O O18 0.500000 0.500000 0.500000
O O19 0.500000 0.000000 0.500000
#
# Coordination Sequence:
#
# PCOD9092078 Si02
#       8
#     2   2   2   2   2   2   2   2
#     4  10  20  38  65 100 134 182 219 283 350 417
#     4  11  27  47  69 101 144 185 237 291 355 423
#     4  10  20  39  73  96 134 178 238 286 353 415
#     4  10  19  40  66 101 136 174 224 292 346 415
#     4  11  26  47  76  98 139 197 237 286 362 427
#     4  12  25  41  69 110 142 176 239 298 352 419
#     4  10  25  45  68 100 139 182 235 289 349 426
#     4  10  22  37  71  99 133 179 231 286 354 410
#
# _framework density 22.551033
#
# number of rings (size 3 to 8) (size 9 to 14) (size 15 to 20)
#    0.000    1.500    3.750    2.250    7.000    6.500 
#    0.000    0.625    0.000    0.000    0.000    0.000 
#    0.000    0.000    0.000    0.000    0.000    0.000 
#
# Total GULP energy -89251.131298 kJ/mol
# GULP energy per Si atom -5578.195706 kJ/mol
# Density = 2.249971 g / cm^3
# Si number density = 22.551033 Si / 1000 Ang^3
#
#
#
# Elastic Constant Matrix: (Units=GPa)
#
#
# Indices 1 2 3 4 5 6 
#
# 1 121.6096 43.0503 32.6123 -0.6521 -3.5461 26.7444
# 2 43.0503 90.4733 36.8151 13.4423 4.7862 18.1236
# 3 32.6123 36.8151 115.6621 27.0652 8.0221 28.0636
# 4 -0.6521 13.4423 27.0652 35.4716 0.6041 -0.4661
# 5 -3.5461 4.7862 8.0221 0.6041 49.0677 1.9847
# 6 26.7444 18.1236 28.0636 -0.4661 1.9847 36.8664
#
#
#
# Elastic Compliance Matrix: (Units=1/GPa)
#
#
# Indices 1 2 3 4 5 6 
#
# 1 0.011290 -0.004302 -0.001331 0.002759 0.001626 -0.005115
# 2 -0.004302 0.015145 -0.001734 -0.004512 -0.001328 -0.002990
# 3 -0.001331 -0.001734 0.014349 -0.010406 -0.001775 -0.009140
# 4 0.002759 -0.004512 -0.010406 0.037978 0.001528 0.008536
# 5 0.001626 -0.001328 -0.001775 0.001528 0.020910 -0.000282
# 6 -0.005115 -0.002990 -0.009140 0.008536 -0.000282 0.039386
#
#
# Mechanical properties :
#
#
# Convention : Reuss Voigt Hill
#
# Bulk Modulus (GPa) = 38.38890 61.41116 49.90003
# Shear Modulus (GPa) = 30.77369 38.63229 34.70299
#
# Velocity S-wave (km/s) = 3.69809 4.14346 3.92709
# Velocity P-wave (km/s) = 5.94092 7.08394 6.53746
#
# Compressibility (1/GPa) = 0.02604920
#
# Stress axis : x y z
#
# Youngs Moduli (GPa) = 88.57457 66.02745 69.69029
#
# Poissons Ratio (x) = 0.28403 0.09279
# Poissons Ratio (y) = 0.38102 0.12087
# Poissons Ratio (z) = 0.11794 0.11452
#
# Static dielectric constant tensor:
#      x y z
#    x 1.888190 -0.102120 0.018020 
#    y -0.102120 1.999590 -0.012810 
#    z 0.018020 -0.012810 1.847390 
# 
# From -- ./inp_files/308202.got.cif
#   From: 2010.05.17/outbox.cif.g08.bks.cpg/sg2_155_cif.got.tgz:308202.got - 2010.06.03 11:33:40.
