data_PCOD9092314
_publ_section_title
;
Structure prediction by ZEFSAII (Michael W. Deem and Ramdas Pophale) SiO2 
 PCOD9092314
Probable space group: P -1
;
_chemical_formula_sum "Si O2"
_cell_formula_units_Z 12
_cell_length_a 12.340756
_cell_length_b 14.386757
_cell_length_c 5.100414
_cell_angle_alpha 69.044715
_cell_angle_beta 71.179412
_cell_angle_gamma 31.107017
_cell_volume 436.643948
_symmetry_space_group_name_H-M "P -1"
_symmetry_group_IT_number 2
_symmetry_cell_setting 'triclinic'
loop_
_space_group_symop_operation_xyz
x,y,z
-x,-y,-z
loop_
_atom_site_type_symbol
_atom_site_label
_atom_site_fract_x
_atom_site_fract_y
_atom_site_fract_z
Si Si1 0.694902 0.588097 0.468005
Si Si2 0.634212 0.040068 0.447620
Si Si3 0.352720 0.173151 0.115916
Si Si4 0.905515 0.937129 0.731255
Si Si5 0.642786 0.308375 0.465292
Si Si6 0.975425 0.367197 0.963421
O O1 0.540371 0.795442 0.366782
O O2 0.528505 0.623849 0.645633
O O3 0.805369 0.480413 0.217124
O O4 0.864103 0.476323 0.673362
O O5 0.486630 0.154885 0.192836
O O6 0.703801 0.874397 0.575406
O O7 0.831890 0.963511 0.460714
O O8 0.137539 0.333078 0.963183
O O9 0.500000 0.000000 0.000000
O O10 0.143364 0.802159 0.706311
O O11 0.908717 0.824488 0.966951
O O12 0.746685 0.142218 0.727723
O O13 0.500000 0.500000 0.500000
#
# Coordination Sequence:
#
# PCOD9092314 Si02
#       6
#     2   2   2   2   2   2
#     4  11  25  43  67  99 132 172 221 278 324 397
#     4   9  22  42  64  94 134 172 223 270 335 386
#     4  10  23  40  66  92 130 181 218 272 333 395
#     4   9  20  41  65  99 131 178 216 277 324 397
#     4  10  19  40  71  97 135 173 224 266 336 390
#     4  11  25  43  67  96 135 170 223 273 331 389
#
# _framework density 27.482347000000001
#
# number of rings (size 3 to 8) (size 9 to 14) (size 15 to 20)
#    0.000    2.000    1.667    0.000    9.333    2.000 
#    0.000    0.833    0.000    0.000    0.000    0.000 
#    0.000    0.000    0.000    0.000    0.000    0.000 
#
# Total GULP energy -66993.141708 kJ/mol
# GULP energy per Si atom -5582.761809 kJ/mol
# Density = 2.741980 g / cm^3
# Si number density = 27.482347 Si / 1000 Ang^3
#
#
#
# Elastic Constant Matrix: (Units=GPa)
#
#
# Indices 1 2 3 4 5 6 
#
# 1 131.5114 49.8682 13.0115 -19.0812 11.5509 -30.9874
# 2 49.8682 178.8501 27.6210 -21.2027 1.6048 10.6012
# 3 13.0115 27.6210 95.6500 -20.4117 23.9732 -3.4193
# 4 -19.0812 -21.2027 -20.4117 40.7638 -2.6721 -7.5695
# 5 11.5509 1.6048 23.9732 -2.6721 38.2000 -16.5673
# 6 -30.9874 10.6012 -3.4193 -7.5695 -16.5673 72.3613
#
#
#
# Elastic Compliance Matrix: (Units=1/GPa)
#
#
# Indices 1 2 3 4 5 6 
#
# 1 0.010626 -0.002823 0.000841 0.004842 -0.000992 0.005283
# 2 -0.002823 0.006874 -0.001636 0.001118 0.000806 -0.001992
# 3 0.000841 -0.001636 0.014316 0.006118 -0.008783 -0.000095
# 4 0.004842 0.001118 0.006118 0.031367 -0.000866 0.005282
# 5 -0.000992 0.000806 -0.008783 -0.000866 0.034907 0.006944
# 6 0.005283 -0.001992 -0.000095 0.005282 0.006944 0.018511
#
#
# Mechanical properties :
#
#
# Convention : Reuss Voigt Hill
#
# Bulk Modulus (GPa) = 40.68231 65.22365 52.95298
# Shear Modulus (GPa) = 37.86983 51.29907 44.58445
#
# Velocity S-wave (km/s) = 3.71613 4.32513 4.03214
# Velocity P-wave (km/s) = 5.76611 6.98045 6.40214
#
# Compressibility (1/GPa) = 0.02458071
#
# Stress axis : x y z
#
# Youngs Moduli (GPa) = 94.11243 145.46912 69.85042
#
# Poissons Ratio (x) = 0.41061 -0.05871
# Poissons Ratio (y) = 0.26565 0.11425
# Poissons Ratio (z) = -0.07910 0.23793
#
# Static dielectric constant tensor:
#      x y z
#    x 2.222090 -0.015950 -0.228150 
#    y -0.015950 2.196650 0.028740 
#    z -0.228150 0.028740 2.389790 
# 
# From -- ./inp_files/30459.got.cif
#   From: 2010.05.17/outbox.cif.g08.bks.cpg/sg2_16_cif.got.tgz:30459.got - 2010.06.03 11:33:40.
