data_PCOD9092605
_publ_section_title
;
Structure prediction by ZEFSAII (Michael W. Deem and Ramdas Pophale) SiO2 
 PCOD9092605
Probable space group: P -1
;
_chemical_formula_sum "Si O2"
_cell_formula_units_Z 11
_cell_length_a 13.991191
_cell_length_b 11.567771
_cell_length_c 9.111330
_cell_angle_alpha 50.026262
_cell_angle_beta 35.744799
_cell_angle_gamma 29.646977
_cell_volume 415.889129
_symmetry_space_group_name_H-M "P -1"
_symmetry_group_IT_number 2
_symmetry_cell_setting 'triclinic'
loop_
_space_group_symop_operation_xyz
x,y,z
-x,-y,-z
loop_
_atom_site_type_symbol
_atom_site_label
_atom_site_fract_x
_atom_site_fract_y
_atom_site_fract_z
Si Si1 0.110602 0.027224 0.970696
Si Si2 0.427436 0.047386 0.220939
Si Si3 0.099232 0.740944 0.339956
Si Si4 0.380036 0.333855 0.539536
Si Si5 0.500000 0.500000 0.500000
Si Si6 0.662310 0.546271 0.006300
O O1 0.094115 0.925937 0.211779
O O2 0.399919 0.856814 0.702520
O O3 0.000000 0.000000 0.000000
O O4 0.907475 0.310550 0.994962
O O5 0.350123 0.272481 0.170352
O O6 0.169897 0.131115 0.493082
O O7 0.655023 0.804160 0.228712
O O8 0.500000 0.000000 0.000000
O O9 0.162761 0.585693 0.521873
O O10 0.308266 0.563238 0.093075
O O11 0.479260 0.372367 0.513978
O O12 0.558580 0.342121 0.696585
#
# Coordination Sequence:
#
# PCOD9092605 Si02
#       6
#     2   2   2   2   1   2
#     4  10  19  41  70  93 129 174 221 267 322 388
#     4  12  25  45  68  96 142 175 212 281 338 387
#     4  11  24  44  70 101 129 177 229 267 320 406
#     4  12  24  44  71  98 133 175 224 275 328 394
#     4  12  22  42  66 100 130 172 216 278 332 376
#     4  11  23  42  71  95 133 178 220 265 339 390
#
# _framework density 26.449359000000001
#
# number of rings (size 3 to 8) (size 9 to 14) (size 15 to 20)
#    0.000    0.727    9.091    1.091    0.000    1.455 
#    0.000    3.636    0.000    0.000    0.000    0.000 
#    0.000    0.000    0.000    0.000    0.000    0.000 
#
# Total GULP energy -61258.586890 kJ/mol
# GULP energy per Si atom -5568.962445 kJ/mol
# Density = 2.638916 g / cm^3
# Si number density = 26.449359 Si / 1000 Ang^3
#
#
#
# Elastic Constant Matrix: (Units=GPa)
#
#
# Indices 1 2 3 4 5 6 
#
# 1 63.3754 43.9060 14.9605 -9.8566 16.5073 -4.0352
# 2 43.9060 145.9791 44.0587 -52.4770 14.0362 -0.6596
# 3 14.9605 44.0587 107.3040 -40.9224 22.3351 -5.3250
# 4 -9.8566 -52.4770 -40.9224 67.8317 -1.2378 9.6249
# 5 16.5073 14.0362 22.3351 -1.2378 26.1164 -11.6083
# 6 -4.0352 -0.6596 -5.3250 9.6249 -11.6083 39.0615
#
#
#
# Elastic Compliance Matrix: (Units=1/GPa)
#
#
# Indices 1 2 3 4 5 6 
#
# 1 0.023114 -0.006435 0.001965 -0.000491 -0.013445 -0.001328
# 2 -0.006435 0.012435 -0.000163 0.009061 -0.003746 -0.003823
# 3 0.001965 -0.000163 0.016380 0.010468 -0.016974 -0.005190
# 4 -0.000491 0.009061 0.010468 0.029204 -0.016875 -0.010682
# 5 -0.013445 -0.003746 -0.016974 -0.016875 0.072234 0.021859
# 6 -0.001328 -0.003823 -0.005190 -0.010682 0.021859 0.033819
#
#
# Mechanical properties :
#
#
# Convention : Reuss Voigt Hill
#
# Bulk Modulus (GPa) = 23.43925 58.05654 40.74790
# Shear Modulus (GPa) = 23.73343 40.85081 32.29212
#
# Velocity S-wave (km/s) = 2.99877 3.93427 3.49793
# Velocity P-wave (km/s) = 4.56852 6.52960 5.63503
#
# Compressibility (1/GPa) = 0.04266347
#
# Stress axis : x y z
#
# Youngs Moduli (GPa) = 43.26326 80.41753 61.05037
#
# Poissons Ratio (x) = 0.51747 -0.11996
# Poissons Ratio (y) = 0.27839 0.00995
# Poissons Ratio (z) = -0.08501 0.01311
#
# Static dielectric constant tensor:
#      x y z
#    x 2.070180 -0.251580 -0.245850 
#    y -0.251580 1.377450 -0.974390 
#    z -0.245850 -0.974390 1.068720 
# 
# From -- ./inp_files/148683.got.cif
#   From: 2010.05.17/outbox.cif.g08.bks.cpg/sg2_75_cif.got.tgz:148683.got - 2010.06.03 11:33:40.
