data_PCOD9092445
_publ_section_title
;
Structure prediction by ZEFSAII (Michael W. Deem and Ramdas Pophale) SiO2 
 PCOD9092445
Probable space group: P -1
;
_chemical_formula_sum "Si O2"
_cell_formula_units_Z 14
_cell_length_a 21.871473
_cell_length_b 9.360696
_cell_length_c 14.777437
_cell_angle_alpha 34.030315
_cell_angle_beta 158.707711
_cell_angle_gamma 151.700406
_cell_volume 520.215027
_symmetry_space_group_name_H-M "P -1"
_symmetry_group_IT_number 2
_symmetry_cell_setting 'triclinic'
loop_
_space_group_symop_operation_xyz
x,y,z
-x,-y,-z
loop_
_atom_site_type_symbol
_atom_site_label
_atom_site_fract_x
_atom_site_fract_y
_atom_site_fract_z
Si Si1 0.551733 0.305181 0.365555
Si Si2 0.764584 0.305547 0.503397
Si Si3 0.657415 0.263768 0.837156
Si Si4 0.199043 0.115162 0.836393
Si Si5 0.948335 0.740367 0.839921
Si Si6 0.964375 0.241421 0.658722
Si Si7 0.463202 0.222545 0.771712
O O1 0.753013 0.387264 0.547092
O O2 0.553588 0.542545 0.311845
O O3 0.500000 0.000000 0.500000
O O4 0.381600 0.219654 0.102406
O O5 0.763552 0.573750 0.309888
O O6 0.943303 0.309744 0.697202
O O7 0.564508 0.981368 0.377754
O O8 0.777435 0.520478 0.792894
O O9 0.620060 0.355037 0.836062
O O10 0.769577 0.079156 0.093415
O O11 0.994353 0.924351 0.709677
O O12 0.076499 0.058982 0.905659
O O13 0.000000 0.500000 0.000000
O O14 0.000000 0.500000 0.500000
O O15 0.747898 0.981079 0.460988
O O16 0.500000 0.000000 0.000000
#
# Coordination Sequence:
#
# PCOD9092445 Si02
#       7
#     2   2   2   2   2   2   2
#     4  11  24  37  61  95 131 160 207 270 323 361
#     4  10  20  39  67  88 123 168 218 248 310 390
#     4   9  20  36  64  90 118 163 215 250 305 371
#     4  10  19  41  65  88 125 172 210 253 314 389
#     4  10  22  37  65  92 122 154 218 262 305 359
#     4  11  23  41  68  92 121 166 219 254 306 384
#     4  11  24  41  64  93 130 164 209 262 318 375
#
# _framework density 26.911949
#
# number of rings (size 3 to 8) (size 9 to 14) (size 15 to 20)
#    0.000    1.714    1.429    4.286    8.000    1.143 
#    0.000    2.857    0.000    0.000    0.000    0.000 
#    0.000    0.000    0.000    0.000    0.000    0.000 
#
# Total GULP energy -78130.975645 kJ/mol
# GULP energy per Si atom -5580.783975 kJ/mol
# Density = 2.685070 g / cm^3
# Si number density = 26.911949 Si / 1000 Ang^3
#
#
#
# Elastic Constant Matrix: (Units=GPa)
#
#
# Indices 1 2 3 4 5 6 
#
# 1 276.0961 101.4447 27.4366 -9.1535 40.9379 -15.8841
# 2 101.4447 167.7080 34.3937 -29.3471 12.9525 0.4920
# 3 27.4366 34.3937 48.0141 -2.0607 4.0759 -9.4608
# 4 -9.1535 -29.3471 -2.0607 54.2847 -0.5417 5.8906
# 5 40.9379 12.9525 4.0759 -0.5417 41.9029 -12.2490
# 6 -15.8841 0.4920 -9.4608 5.8906 -12.2490 66.0652
#
#
#
# Elastic Compliance Matrix: (Units=1/GPa)
#
#
# Indices 1 2 3 4 5 6 
#
# 1 0.005386 -0.002976 -0.000521 -0.000821 -0.004141 0.000548
# 2 -0.002976 0.009729 -0.005452 0.004768 -0.000096 -0.002012
# 3 -0.000521 -0.005452 0.025634 -0.002484 0.000827 0.003961
# 4 -0.000821 0.004768 -0.002484 0.021043 -0.000929 -0.002637
# 5 -0.004141 -0.000096 0.000827 -0.000929 0.029198 0.004620
# 6 0.000548 -0.002012 0.003961 -0.002637 0.004620 0.016942
#
#
# Mechanical properties :
#
#
# Convention : Reuss Voigt Hill
#
# Bulk Modulus (GPa) = 43.76438 90.92982 67.34710
# Shear Modulus (GPa) = 37.46794 54.35345 45.91070
#
# Velocity S-wave (km/s) = 3.73532 4.49896 4.13481
# Velocity P-wave (km/s) = 5.90770 7.80056 6.91916
#
# Compressibility (1/GPa) = 0.02284963
#
# Stress axis : x y z
#
# Youngs Moduli (GPa) = 185.67883 102.78773 39.01061
#
# Poissons Ratio (x) = 0.30593 0.02033
# Poissons Ratio (y) = 0.55264 0.21268
# Poissons Ratio (z) = 0.09679 0.56038
#
# Static dielectric constant tensor:
#      x y z
#    x 2.295520 -0.096760 0.247570 
#    y -0.096760 2.040460 -0.011030 
#    z 0.247570 -0.011030 2.329210 
# 
# From -- ./inp_files/540196.got.cif
#   From: 2010.05.17/outbox.cif.g08.bks.cpg/sg2_271_cif.got.tgz:540196.got - 2010.06.03 11:33:40.
