data_PCOD9092249
_publ_section_title
;
Structure prediction by ZEFSAII (Michael W. Deem and Ramdas Pophale) SiO2 
 PCOD9092249
Probable space group: P -1
;
_chemical_formula_sum "Si O2"
_cell_formula_units_Z 16
_cell_length_a 11.201231
_cell_length_b 13.734672
_cell_length_c 10.951018
_cell_angle_alpha 55.331955
_cell_angle_beta 43.307668
_cell_angle_gamma 87.117783
_cell_volume 726.640516
_symmetry_space_group_name_H-M "P -1"
_symmetry_group_IT_number 2
_symmetry_cell_setting 'triclinic'
loop_
_space_group_symop_operation_xyz
x,y,z
-x,-y,-z
loop_
_atom_site_type_symbol
_atom_site_label
_atom_site_fract_x
_atom_site_fract_y
_atom_site_fract_z
Si Si1 0.342761 0.748030 0.290950
Si Si2 0.260137 0.525047 0.296826
Si Si3 0.814856 0.180874 0.849901
Si Si4 0.085300 0.522786 0.056439
Si Si5 0.912264 0.944662 0.243230
Si Si6 0.707978 0.752584 0.139805
Si Si7 0.475697 0.522647 0.705185
Si Si8 0.390225 0.769569 0.824432
O O1 0.316903 0.631387 0.294872
O O2 0.334680 0.860265 0.131220
O O3 0.546179 0.793808 0.195131
O O4 0.110486 0.635649 0.618213
O O5 0.393287 0.467493 0.281997
O O6 0.002296 0.369009 0.585238
O O7 0.346192 0.634586 0.038589
O O8 0.970880 0.132435 0.760068
O O9 0.653440 0.136203 0.120091
O O10 0.308986 0.545709 0.862780
O O11 0.179135 0.677259 0.950783
O O12 0.000000 0.500000 0.000000
O O13 0.643962 0.859057 0.518036
O O14 0.000000 0.000000 0.000000
O O15 0.041808 0.090822 0.133748
O O16 0.629021 0.651216 0.394788
O O17 0.669719 0.641379 0.140175
#
# Coordination Sequence:
#
# PCOD9092249 Si02
#       8
#     2   2   2   2   2   2   2   2
#     4  10  20  38  65  93 127 159 214 272 312 370
#     4  10  19  40  68  97 125 162 220 270 318 371
#     4  11  22  43  70  94 130 174 207 273 328 368
#     4  12  21  34  63 103 125 158 214 271 318 377
#     4  12  28  44  62  94 136 175 215 258 324 401
#     4  10  22  45  58  90 132 167 215 265 313 388
#     4  10  22  37  69  91 121 172 212 270 326 361
#     4  11  24  43  68 100 131 167 217 268 319 386
#
# _framework density 22.019141000000001
#
# number of rings (size 3 to 8) (size 9 to 14) (size 15 to 20)
#    0.000    1.250    3.750    3.000    1.750    3.000 
#    2.250    5.625    0.000    0.000    0.000    0.000 
#    0.000    0.000    0.000    0.000    0.000    0.000 
#
# Total GULP energy -89219.394990 kJ/mol
# GULP energy per Si atom -5576.212187 kJ/mol
# Density = 2.196902 g / cm^3
# Si number density = 22.019141 Si / 1000 Ang^3
#
#
#
# Elastic Constant Matrix: (Units=GPa)
#
#
# Indices 1 2 3 4 5 6 
#
# 1 7.6387 26.8386 -17.2025 -70.9592 -13.7542 23.5318
# 2 26.8386 47.5511 22.5035 8.5671 4.7160 6.7595
# 3 -17.2025 22.5035 66.5969 -9.0783 -10.2455 19.5711
# 4 -70.9592 8.5671 -9.0783 -10.7478 4.1516 4.0232
# 5 -13.7542 4.7160 -10.2455 4.1516 30.0214 -0.0762
# 6 23.5318 6.7595 19.5711 4.0232 -0.0762 32.9690
#
#
#
# Elastic Compliance Matrix: (Units=1/GPa)
#
#
# Indices 1 2 3 4 5 6 
#
# 1 0.002510 0.001348 -0.001376 -0.013301 0.002309 0.000377
# 2 0.001348 0.022288 -0.005790 0.010085 -0.006263 -0.003340
# 3 -0.001376 -0.005790 0.018586 -0.010908 0.008111 -0.007514
# 4 -0.013301 0.010085 -0.010908 0.011671 -0.012983 0.012447
# 5 0.002309 -0.006263 0.008111 -0.012983 0.039906 -0.003502
# 6 0.000377 -0.003340 -0.007514 0.012447 -0.003502 0.033680
#
#
# Mechanical properties :
#
#
# Convention : Reuss Voigt Hill
#
# Bulk Modulus (GPa) = 31.49799 20.67397 26.08598
# Shear Modulus (GPa) = 33.14341 16.42499 24.78420
#
# Velocity S-wave (km/s) = 3.88391 2.73416 3.35860
# Velocity P-wave (km/s) = 5.86932 4.40193 5.18777
#
# Compressibility (1/GPa) = 0.03174806
#
# Stress axis : x y z
#
# Youngs Moduli (GPa) = 398.40923 44.86710 53.80454
#
# Poissons Ratio (x) = -0.06050 0.07404
# Poissons Ratio (y) = -0.53721 0.31153
# Poissons Ratio (z) = 0.54828 0.25979
#
# Static dielectric constant tensor:
#      x y z
#    x 1.915780 -0.050530 -0.013660 
#    y -0.050530 1.866710 -0.016810 
#    z -0.013660 -0.016810 1.797340 
# 
# From -- ./inp_files/433792.got.cif
#   From: 2010.05.17/outbox.cif.g08.bks.cpg/sg2_217_cif.got.tgz:433792.got - 2010.06.03 11:33:40.
