data_PCOD9092247
_publ_section_title
;
Structure prediction by ZEFSAII (Michael W. Deem and Ramdas Pophale) SiO2 
 PCOD9092247
Probable space group: P -1
;
_chemical_formula_sum "Si O2"
_cell_formula_units_Z 13
_cell_length_a 12.538095
_cell_length_b 20.560504
_cell_length_c 13.280216
_cell_angle_alpha 24.332228
_cell_angle_beta 34.986120
_cell_angle_gamma 20.421179
_cell_volume 477.694848
_symmetry_space_group_name_H-M "P -1"
_symmetry_group_IT_number 2
_symmetry_cell_setting 'triclinic'
loop_
_space_group_symop_operation_xyz
x,y,z
-x,-y,-z
loop_
_atom_site_type_symbol
_atom_site_label
_atom_site_fract_x
_atom_site_fract_y
_atom_site_fract_z
Si Si1 0.500000 0.500000 0.500000
Si Si2 0.864062 0.722958 0.714955
Si Si3 0.935109 0.464364 0.855351
Si Si4 0.670625 0.577278 0.522443
Si Si5 0.006746 0.911220 0.729816
Si Si6 0.978858 0.908598 0.973206
Si Si7 0.516008 0.936606 0.287152
O O1 0.839138 0.373192 0.411634
O O2 0.294138 0.788874 0.206898
O O3 0.734175 0.705101 0.748840
O O4 0.610558 0.981762 0.616894
O O5 0.000000 0.500000 0.000000
O O6 0.063599 0.496489 0.627867
O O7 0.844223 0.361364 0.021833
O O8 0.237462 0.194863 0.066902
O O9 0.588572 0.715407 0.497426
O O10 0.372278 0.806850 0.356166
O O11 0.758626 0.334478 0.809937
O O12 0.116054 0.878471 0.803914
O O13 0.000000 0.000000 0.500000
O O14 0.800384 0.863358 0.155602
#
# Coordination Sequence:
#
# PCOD9092247 Si02
#       7
#     1   2   2   2   2   2   2
#     4  12  24  42  66  98 136 186 226 276 358 396
#     4  10  21  40  68  94 136 182 227 275 342 411
#     4  10  19  42  66  93 134 176 223 280 337 403
#     4  11  22  42  68  99 133 175 234 280 337 411
#     4  11  24  40  66 100 140 178 226 283 341 408
#     4  12  24  41  70  98 132 184 228 283 347 405
#     4  10  19  40  68  96 133 175 224 283 338 401
#
# _framework density 27.214027999999999
#
# number of rings (size 3 to 8) (size 9 to 14) (size 15 to 20)
#    0.000    1.231    6.154    1.385    6.462    0.615 
#    0.000    3.846    0.000    0.000    0.000    0.000 
#    0.000    0.000    0.000    0.000    0.000    0.000 
#
# Total GULP energy -72403.451574 kJ/mol
# GULP energy per Si atom -5569.496275 kJ/mol
# Density = 2.715209 g / cm^3
# Si number density = 27.214028 Si / 1000 Ang^3
#
#
#
# Elastic Constant Matrix: (Units=GPa)
#
#
# Indices 1 2 3 4 5 6 
#
# 1 64.0044 20.6447 36.6033 -10.0748 18.9245 22.0311
# 2 20.6447 99.7940 39.7737 -15.5325 8.3128 11.6360
# 3 36.6033 39.7737 166.3995 -23.0570 6.2840 14.5845
# 4 -10.0748 -15.5325 -23.0570 59.0327 2.1569 -1.7786
# 5 18.9245 8.3128 6.2840 2.1569 23.6668 11.2552
# 6 22.0311 11.6360 14.5845 -1.7786 11.2552 46.4486
#
#
#
# Elastic Compliance Matrix: (Units=1/GPa)
#
#
# Indices 1 2 3 4 5 6 
#
# 1 0.025742 -0.001231 -0.003755 0.002996 -0.016256 -0.006668
# 2 -0.001231 0.011743 -0.002061 0.002125 -0.002274 -0.001078
# 3 -0.003755 -0.002061 0.007532 0.001681 0.001780 -0.000435
# 4 0.002996 0.002125 0.001681 0.018835 -0.005050 -0.000536
# 5 -0.016256 -0.002274 0.001780 -0.005050 0.059291 -0.006839
# 6 -0.006668 -0.001078 -0.000435 -0.000536 -0.006839 0.026735
#
#
# Mechanical properties :
#
#
# Convention : Reuss Voigt Hill
#
# Bulk Modulus (GPa) = 32.33859 58.24903 45.29381
# Shear Modulus (GPa) = 28.68967 41.37471 35.03219
#
# Velocity S-wave (km/s) = 3.25040 3.90339 3.59177
# Velocity P-wave (km/s) = 5.09860 6.46265 5.82072
#
# Compressibility (1/GPa) = 0.03092281
#
# Stress axis : x y z
#
# Youngs Moduli (GPa) = 38.84754 85.15932 132.76686
#
# Poissons Ratio (x) = 0.10481 0.49851
# Poissons Ratio (y) = 0.04781 0.27366
# Poissons Ratio (z) = 0.14586 0.17553
#
# Static dielectric constant tensor:
#      x y z
#    x 2.273830 -0.019390 -0.006460 
#    y -0.019390 2.331490 -0.053090 
#    z -0.006460 -0.053090 2.120180 
# 
# From -- ./inp_files/412900.got.cif
#   From: 2010.05.17/outbox.cif.g08.bks.cpg/sg2_207_cif.got.tgz:412900.got - 2010.06.03 11:33:40.
