data_PCOD9092806
_publ_section_title
;
Structure prediction by ZEFSAII (Michael W. Deem and Ramdas Pophale) SiO2 
 PCOD9092806
Probable space group: P -1
;
_chemical_formula_sum "Si O2"
_cell_formula_units_Z 16
_cell_length_a 14.991209
_cell_length_b 9.370825
_cell_length_c 10.043672
_cell_angle_alpha 118.310682
_cell_angle_beta 146.316502
_cell_angle_gamma 76.745561
_cell_volume 648.205881
_symmetry_space_group_name_H-M "P -1"
_symmetry_group_IT_number 2
_symmetry_cell_setting 'triclinic'
loop_
_space_group_symop_operation_xyz
x,y,z
-x,-y,-z
loop_
_atom_site_type_symbol
_atom_site_label
_atom_site_fract_x
_atom_site_fract_y
_atom_site_fract_z
Si Si1 0.996687 0.590514 0.896344
Si Si2 0.881212 0.216180 0.500222
Si Si3 0.319917 0.106344 0.768978
Si Si4 0.751029 0.793266 0.743660
Si Si5 0.509915 0.320955 0.872978
Si Si6 0.961427 0.154448 0.277722
Si Si7 0.806937 0.391672 0.070236
Si Si8 0.262616 0.293046 0.025467
O O1 0.901692 0.416365 0.616028
O O2 0.898102 0.720514 0.849868
O O3 0.179928 0.680909 0.095076
O O4 0.000000 0.500000 0.000000
O O5 0.881182 0.148647 0.321730
O O6 0.060759 0.198411 0.766759
O O7 0.735990 0.095881 0.360911
O O8 0.468159 0.189464 0.885926
O O9 0.347590 0.195365 0.987983
O O10 0.150253 0.142399 0.517701
O O11 0.166042 0.004736 0.032403
O O12 0.663583 0.690810 0.725984
O O13 0.626294 0.751540 0.445805
O O14 0.500000 0.500000 0.000000
O O15 0.680352 0.336442 0.011981
O O16 0.964645 0.336097 0.300527
O O17 0.762033 0.557437 0.033532
#
# Coordination Sequence:
#
# PCOD9092806 Si02
#       8
#     2   2   2   2   2   2   2   2
#     4  11  22  41  72 108 133 172 236 293 339 399
#     4  10  20  38  73 107 137 169 236 295 345 394
#     4  11  20  44  75 101 142 179 235 283 347 416
#     4  12  24  46  74 105 134 186 236 284 351 411
#     4  12  29  46  65  99 148 192 228 276 355 426
#     4  11  23  42  77 107 134 178 236 296 349 392
#     4  11  25  44  65 101 149 178 228 287 347 412
#     4  10  19  42  71 102 135 179 227 292 339 407
#
# _framework density 24.683513999999999
#
# number of rings (size 3 to 8) (size 9 to 14) (size 15 to 20)
#    0.000    1.000    6.250    1.500    1.750    8.500 
#    0.000    0.625    0.000    0.000    0.000    0.000 
#    0.000    0.000    0.000    0.000    0.000    0.000 
#
# Total GULP energy -89241.193234 kJ/mol
# GULP energy per Si atom -5577.574577 kJ/mol
# Density = 2.462733 g / cm^3
# Si number density = 24.683514 Si / 1000 Ang^3
#
#
#
# Elastic Constant Matrix: (Units=GPa)
#
#
# Indices 1 2 3 4 5 6 
#
# 1 164.9147 49.8056 35.2206 7.6461 -12.7694 29.5471
# 2 49.8056 139.2811 25.1589 13.4261 -4.1102 18.1442
# 3 35.2206 25.1589 74.9392 4.2935 -34.2363 -12.4402
# 4 7.6461 13.4261 4.2935 27.0623 -2.0672 -3.1632
# 5 -12.7694 -4.1102 -34.2363 -2.0672 31.1898 5.2169
# 6 29.5471 18.1442 -12.4402 -3.1632 5.2169 48.4369
#
#
#
# Elastic Compliance Matrix: (Units=1/GPa)
#
#
# Indices 1 2 3 4 5 6 
#
# 1 0.008607 -0.001208 -0.005214 -0.001830 -0.001460 -0.006099
# 2 -0.001208 0.009276 -0.004895 -0.004257 -0.004290 -0.003811
# 3 -0.005214 -0.004895 0.034175 0.002224 0.033146 0.010367
# 4 -0.001830 -0.004257 0.002224 0.040100 0.002853 0.005593
# 5 -0.001460 -0.004290 0.033146 0.002853 0.066802 0.004002
# 6 -0.006099 -0.003811 0.010367 0.005593 0.004002 0.028390
#
#
# Mechanical properties :
#
#
# Convention : Reuss Voigt Hill
#
# Bulk Modulus (GPa) = 33.98724 66.61170 50.29947
# Shear Modulus (GPa) = 22.74871 39.26781 31.00826
#
# Velocity S-wave (km/s) = 3.03911 3.99288 3.54818
# Velocity P-wave (km/s) = 5.11018 6.94999 6.09985
#
# Compressibility (1/GPa) = 0.02942281
#
# Stress axis : x y z
#
# Youngs Moduli (GPa) = 116.18908 107.80270 29.26124
#
# Poissons Ratio (x) = 0.13023 0.15257
# Poissons Ratio (y) = 0.14036 0.14324
# Poissons Ratio (z) = 0.60583 0.52772
#
# Static dielectric constant tensor:
#      x y z
#    x 1.979390 0.051060 0.025170 
#    y 0.051060 2.043760 0.006110 
#    z 0.025170 0.006110 2.094810 
# 
# From -- ./inp_files/305608.got.cif
#   From: 2010.05.17/outbox.cif.g08.bks.cpg/sg2_153_cif.got.tgz:305608.got - 2010.06.03 11:33:40.
