data_PCOD9092157
_publ_section_title
;
Structure prediction by ZEFSAII (Michael W. Deem and Ramdas Pophale) SiO2 
 PCOD9092157
Probable space group: P -1
;
_chemical_formula_sum "Si O2"
_cell_formula_units_Z 16
_cell_length_a 7.116313
_cell_length_b 9.229300
_cell_length_c 11.900755
_cell_angle_alpha 80.644308
_cell_angle_beta 121.108867
_cell_angle_gamma 94.382983
_cell_volume 660.288775
_symmetry_space_group_name_H-M "P -1"
_symmetry_group_IT_number 2
_symmetry_cell_setting 'triclinic'
loop_
_space_group_symop_operation_xyz
x,y,z
-x,-y,-z
loop_
_atom_site_type_symbol
_atom_site_label
_atom_site_fract_x
_atom_site_fract_y
_atom_site_fract_z
Si Si1 0.213732 0.401852 0.112613
Si Si2 0.823701 0.171782 0.411353
Si Si3 0.093105 0.220190 0.298532
Si Si4 0.413341 0.822197 0.867096
Si Si5 0.470480 0.678823 0.130630
Si Si6 0.022498 0.832644 0.065341
Si Si7 0.622716 0.894031 0.296022
Si Si8 0.766715 0.107709 0.654107
O O1 0.191604 0.351812 0.241339
O O2 0.415025 0.508176 0.135883
O O3 0.000000 0.500000 0.000000
O O4 0.172974 0.255415 0.044491
O O5 0.613622 0.230653 0.265165
O O6 0.033566 0.245534 0.407892
O O7 0.812936 0.000099 0.386248
O O8 0.786347 0.181751 0.529669
O O9 0.219300 0.067738 0.338733
O O10 0.848018 0.188110 0.179172
O O11 0.473932 0.992632 0.844872
O O12 0.513680 0.735285 0.012294
O O13 0.248678 0.756607 0.102250
O O14 0.655669 0.741045 0.263068
O O15 0.048318 0.839205 0.207438
O O16 0.000000 0.000000 0.000000
O O17 0.460434 0.870142 0.352735
#
# Coordination Sequence:
#
# PCOD9092157 Si02
#       8
#     2   2   2   2   2   2   2   2
#     4  10  16  29  47  71  98 121 153 194 234 287
#     4   8  18  29  44  70  95 124 155 194 225 281
#     4   9  17  28  47  72  90 121 154 193 236 273
#     4   8  16  29  45  70  94 117 160 192 226 277
#     4  10  16  29  50  69  93 127 158 187 235 282
#     4  10  17  26  43  74  97 112 149 203 239 264
#     4   8  19  27  47  72  92 122 160 194 227 272
#     4  11  16  28  47  71  99 115 155 197 243 262
#
# _framework density 24.231825000000001
#
# number of rings (size 3 to 8) (size 9 to 14) (size 15 to 20)
#    1.500    1.000    3.750    1.125    0.000    0.000 
#    0.000    0.000    0.000   13.500    0.000    0.000 
#    0.000    0.000    0.000    0.000    0.000    0.000 
#
# Total GULP energy -89185.305234 kJ/mol
# GULP energy per Si atom -5574.081577 kJ/mol
# Density = 2.417667 g / cm^3
# Si number density = 24.231825 Si / 1000 Ang^3
#
#
#
# Elastic Constant Matrix: (Units=GPa)
#
#
# Indices 1 2 3 4 5 6 
#
# 1 69.2235 17.2528 38.8015 -0.7818 -19.0816 21.2881
# 2 17.2528 120.6783 66.4622 5.3754 -10.8514 19.1279
# 3 38.8015 66.4622 201.2738 -6.2415 -30.3442 30.2256
# 4 -0.7818 5.3754 -6.2415 27.6398 12.5292 2.7291
# 5 -19.0816 -10.8514 -30.3442 12.5292 36.2562 -6.5075
# 6 21.2881 19.1279 30.2256 2.7291 -6.5075 28.9449
#
#
#
# Elastic Compliance Matrix: (Units=1/GPa)
#
#
# Indices 1 2 3 4 5 6 
#
# 1 0.021263 0.000478 -0.001088 -0.002615 0.009078 -0.012531
# 2 0.000478 0.010690 -0.002949 -0.002965 0.001333 -0.003757
# 3 -0.001088 -0.002949 0.007360 0.000986 0.003606 -0.004219
# 4 -0.002615 -0.002965 0.000986 0.045720 -0.018235 -0.005558
# 5 0.009078 0.001333 0.003606 -0.018235 0.042051 -0.000150
# 6 -0.012531 -0.003757 -0.004219 -0.005558 -0.000150 0.051143
#
#
# Mechanical properties :
#
#
# Convention : Reuss Voigt Hill
#
# Bulk Modulus (GPa) = 31.06010 70.68986 50.87498
# Shear Modulus (GPa) = 25.50050 36.47879 30.98965
#
# Velocity S-wave (km/s) = 3.24752 3.88417 3.58003
# Velocity P-wave (km/s) = 5.18725 7.02505 6.17491
#
# Compressibility (1/GPa) = 0.03219565
#
# Stress axis : x y z
#
# Youngs Moduli (GPa) = 47.03035 93.54926 135.87799
#
# Poissons Ratio (x) = -0.04473 0.14779
# Poissons Ratio (y) = -0.02249 0.40065
# Poissons Ratio (z) = 0.05115 0.27584
#
# Static dielectric constant tensor:
#      x y z
#    x 2.088260 -0.055640 0.106260 
#    y -0.055640 1.917750 -0.014730 
#    z 0.106260 -0.014730 2.034300 
# 
# From -- ./inp_files/376417.got.cif
#   From: 2010.05.17/outbox.cif.g08.bks.cpg/sg2_189_cif.got.tgz:376417.got - 2010.06.03 11:33:40.
