data_PCOD9092537
_publ_section_title
;
Structure prediction by ZEFSAII (Michael W. Deem and Ramdas Pophale) SiO2 
 PCOD9092537
Probable space group: P -1
;
_chemical_formula_sum "Si O2"
_cell_formula_units_Z 13
_cell_length_a 15.685427
_cell_length_b 12.978763
_cell_length_c 10.337870
_cell_angle_alpha 34.837290
_cell_angle_beta 32.830429
_cell_angle_gamma 26.243317
_cell_volume 484.357233
_symmetry_space_group_name_H-M "P -1"
_symmetry_group_IT_number 2
_symmetry_cell_setting 'triclinic'
loop_
_space_group_symop_operation_xyz
x,y,z
-x,-y,-z
loop_
_atom_site_type_symbol
_atom_site_label
_atom_site_fract_x
_atom_site_fract_y
_atom_site_fract_z
Si Si1 0.778251 0.895822 0.183419
Si Si2 0.955252 0.811097 0.324514
Si Si3 0.500000 0.500000 0.500000
Si Si4 0.961920 0.234571 0.268667
Si Si5 0.715422 0.931924 0.757465
Si Si6 0.352468 0.683017 0.717958
Si Si7 0.595591 0.649058 0.682385
O O1 0.595818 0.183302 0.145155
O O2 0.871771 0.079245 0.185461
O O3 0.661306 0.798980 0.403259
O O4 0.936253 0.813655 0.951728
O O5 0.887927 0.791177 0.291807
O O6 0.199396 0.598716 0.262787
O O7 0.817178 0.812873 0.609949
O O8 0.711823 0.438781 0.370653
O O9 0.426100 0.453177 0.786903
O O10 0.000000 0.000000 0.500000
O O11 0.100960 0.233209 0.200664
O O12 0.659182 0.192975 0.537318
O O13 0.500000 0.000000 0.000000
O O14 0.506972 0.625346 0.691985
#
# Coordination Sequence:
#
# PCOD9092537 Si02
#       7
#     2   2   1   2   2   2   2
#     4  10  23  38  69  99 137 179 230 282 343 418
#     4   9  20  40  62 100 138 170 222 286 346 407
#     4  12  24  44  66  92 138 184 234 272 344 410
#     4  12  25  45  65 100 141 184 230 285 341 413
#     4  10  21  41  69  98 137 175 224 289 343 399
#     4   9  21  38  63  94 130 174 227 275 327 413
#     4  10  19  41  68 101 136 174 228 291 347 396
#
# _framework density 26.839694000000001
#
# number of rings (size 3 to 8) (size 9 to 14) (size 15 to 20)
#    0.923    0.923    1.538    2.308    2.154    2.462 
#    0.000   10.000    0.000    9.231    0.000    0.000 
#    0.000    0.000    0.000    0.000    0.000    0.000 
#
# Total GULP energy -72611.954066 kJ/mol
# GULP energy per Si atom -5585.534928 kJ/mol
# Density = 2.677861 g / cm^3
# Si number density = 26.839694 Si / 1000 Ang^3
#
#
#
# Elastic Constant Matrix: (Units=GPa)
#
#
# Indices 1 2 3 4 5 6 
#
# 1 126.2584 57.9190 59.0764 2.5717 21.3164 -34.8953
# 2 57.9190 158.4634 36.0049 29.2175 18.3396 -39.7068
# 3 59.0764 36.0049 153.6496 22.8483 17.0405 -6.9115
# 4 2.5717 29.2175 22.8483 37.6385 3.7706 -8.9198
# 5 21.3164 18.3396 17.0405 3.7706 55.4194 7.3147
# 6 -34.8953 -39.7068 -6.9115 -8.9198 7.3147 54.3462
#
#
#
# Elastic Compliance Matrix: (Units=1/GPa)
#
#
# Indices 1 2 3 4 5 6 
#
# 1 0.014504 -0.002739 -0.005026 0.006645 -0.004687 0.008394
# 2 -0.002739 0.009920 0.000145 -0.006209 -0.002488 0.004824
# 3 -0.005026 0.000145 0.009187 -0.006024 -0.000144 -0.002922
# 4 0.006645 -0.006209 -0.006024 0.035979 -0.001771 0.005107
# 5 -0.004687 -0.002488 -0.000144 -0.001771 0.021902 -0.008085
# 6 0.008394 0.004824 -0.002922 0.005107 -0.008085 0.028870
#
#
# Mechanical properties :
#
#
# Convention : Reuss Voigt Hill
#
# Bulk Modulus (GPa) = 54.43035 82.70801 68.56918
# Shear Modulus (GPa) = 35.27948 48.50554 41.89251
#
# Velocity S-wave (km/s) = 3.62947 4.25577 3.95503
# Velocity P-wave (km/s) = 6.15531 7.41830 6.81612
#
# Compressibility (1/GPa) = 0.01837210
#
# Stress axis : x y z
#
# Youngs Moduli (GPa) = 68.94614 100.80423 108.84946
#
# Poissons Ratio (x) = 0.27607 0.54702
# Poissons Ratio (y) = 0.18882 -0.01574
# Poissons Ratio (z) = 0.34649 -0.01458
#
# Static dielectric constant tensor:
#      x y z
#    x 2.073940 0.081430 0.012620 
#    y 0.081430 2.175420 -0.005610 
#    z 0.012620 -0.005610 2.300520 
# 
# From -- ./inp_files/310894.got.cif
#   From: 2010.05.17/outbox.cif.g08.bks.cpg/sg2_156_cif.got.tgz:310894.got - 2010.06.03 11:33:40.
