data_PCOD9092224
_publ_section_title
;
Structure prediction by ZEFSAII (Michael W. Deem and Ramdas Pophale) SiO2 
 PCOD9092224
Probable space group: P -1
;
_chemical_formula_sum "Si O2"
_cell_formula_units_Z 15
_cell_length_a 9.377086
_cell_length_b 16.853702
_cell_length_c 7.739822
_cell_angle_alpha 125.864627
_cell_angle_beta 146.302374
_cell_angle_gamma 57.943633
_cell_volume 547.412175
_symmetry_space_group_name_H-M "P -1"
_symmetry_group_IT_number 2
_symmetry_cell_setting 'triclinic'
loop_
_space_group_symop_operation_xyz
x,y,z
-x,-y,-z
loop_
_atom_site_type_symbol
_atom_site_label
_atom_site_fract_x
_atom_site_fract_y
_atom_site_fract_z
Si Si1 0.500000 0.500000 0.000000
Si Si2 0.092303 0.938363 0.347041
Si Si3 0.583891 0.033997 0.826978
Si Si4 0.549945 0.794566 0.328293
Si Si5 0.295940 0.777737 0.580464
Si Si6 0.303911 0.321231 0.373348
Si Si7 0.928093 0.304934 0.419030
Si Si8 0.932210 0.492714 0.128672
O O1 0.578242 0.603860 0.280526
O O2 0.663695 0.512879 0.985917
O O3 0.142968 0.826875 0.324460
O O4 0.000000 0.000000 0.500000
O O5 0.865489 0.973093 0.029532
O O6 0.358784 0.977378 0.608909
O O7 0.609707 0.128756 0.103411
O O8 0.499209 0.094910 0.647619
O O9 0.658516 0.778940 0.609897
O O10 0.781395 0.738671 0.380271
O O11 0.277609 0.749390 0.967402
O O12 0.531045 0.701456 0.659984
O O13 0.131277 0.722526 0.480061
O O14 0.033989 0.381936 0.140879
O O15 0.901176 0.422881 0.509753
O O16 0.000000 0.500000 0.000000
#
# Coordination Sequence:
#
# PCOD9092224 Si02
#       8
#     1   2   2   2   2   2   2   2
#     4  12  26  52  74 106 156 202 256 308 394 440
#     4  10  19  40  68 103 142 185 237 309 385 441
#     4  10  21  41  70  99 142 192 237 306 382 448
#     4  11  24  44  72 101 140 193 245 299 373 453
#     4  10  23  42  70 110 139 185 254 313 366 459
#     4  12  27  46  70 106 147 197 247 315 375 447
#     4  11  25  46  71 100 142 190 252 302 374 450
#     4  12  29  48  76 108 151 203 255 317 386 455
#
# _framework density 27.401657
#
# number of rings (size 3 to 8) (size 9 to 14) (size 15 to 20)
#    0.000    1.067    1.333    6.000    5.600    2.133 
#    7.200    1.333    0.000    0.000    0.000    0.933 
#    0.000    0.000    0.000    0.000    0.000    0.000 
#
# Total GULP energy -83812.424476 kJ/mol
# GULP energy per Si atom -5587.494965 kJ/mol
# Density = 2.733929 g / cm^3
# Si number density = 27.401657 Si / 1000 Ang^3
#
#
#
# Elastic Constant Matrix: (Units=GPa)
#
#
# Indices 1 2 3 4 5 6 
#
# 1 176.7284 24.4778 19.1721 -3.7332 27.1744 -4.5236
# 2 24.4778 171.5265 34.7684 -7.7771 28.6250 14.1020
# 3 19.1721 34.7684 99.9116 -6.8277 10.6406 14.2157
# 4 -3.7332 -7.7771 -6.8277 42.5506 -6.3048 3.1776
# 5 27.1744 28.6250 10.6406 -6.3048 37.1194 -6.3351
# 6 -4.5236 14.1020 14.2157 3.1776 -6.3351 57.1193
#
#
#
# Elastic Compliance Matrix: (Units=1/GPa)
#
#
# Indices 1 2 3 4 5 6 
#
# 1 0.006436 -0.000045 -0.000796 -0.000249 -0.004450 0.000239
# 2 -0.000045 0.007244 -0.001628 0.000415 -0.005358 -0.002004
# 3 -0.000796 -0.001628 0.011395 0.001421 -0.001657 -0.002760
# 4 -0.000249 0.000415 0.001421 0.024389 0.003348 -0.001461
# 5 -0.004450 -0.005358 -0.001657 0.003348 0.036264 0.005219
# 6 0.000239 -0.002004 -0.002760 -0.001461 0.005219 0.019368
#
#
# Mechanical properties :
#
#
# Convention : Reuss Voigt Hill
#
# Bulk Modulus (GPa) = 49.66402 67.22257 58.44330
# Shear Modulus (GPa) = 42.82750 52.00774 47.41762
#
# Velocity S-wave (km/s) = 3.95771 4.36131 4.16440
# Velocity P-wave (km/s) = 6.24887 7.06731 6.67066
#
# Compressibility (1/GPa) = 0.02013530
#
# Stress axis : x y z
#
# Youngs Moduli (GPa) = 155.37145 138.04008 87.76113
#
# Poissons Ratio (x) = 0.00627 0.06989
# Poissons Ratio (y) = 0.00705 0.14288
# Poissons Ratio (z) = 0.12374 0.22474
#
# Static dielectric constant tensor:
#      x y z
#    x 2.144460 -0.015160 0.050670 
#    y -0.015160 2.106120 0.122160 
#    z 0.050670 0.122160 1.623500 
# 
# From -- ./inp_files/218461.got.cif
#   From: 2010.05.17/outbox.cif.g08.bks.cpg/sg2_110_cif.got.tgz:218461.got - 2010.06.03 11:33:40.
