data_PCOD9092957
_publ_section_title
;
Structure prediction by ZEFSAII (Michael W. Deem and Ramdas Pophale) SiO2 
 PCOD9092957
Probable space group: P -1
;
_chemical_formula_sum "Si O2"
_cell_formula_units_Z 10
_cell_length_a 9.541319
_cell_length_b 9.184333
_cell_length_c 6.827091
_cell_angle_alpha 123.908915
_cell_angle_beta 113.115197
_cell_angle_gamma 59.962090
_cell_volume 424.448119
_symmetry_space_group_name_H-M "P -1"
_symmetry_group_IT_number 2
_symmetry_cell_setting 'triclinic'
loop_
_space_group_symop_operation_xyz
x,y,z
-x,-y,-z
loop_
_atom_site_type_symbol
_atom_site_label
_atom_site_fract_x
_atom_site_fract_y
_atom_site_fract_z
Si Si1 0.421925 0.106102 0.334565
Si Si2 0.226226 0.966166 0.542801
Si Si3 0.309322 0.619361 0.018876
Si Si4 0.843078 0.629120 0.388748
Si Si5 0.161935 0.934722 0.906512
O O1 0.308998 0.311988 0.498050
O O2 0.589920 0.076129 0.296140
O O3 0.263079 0.788279 0.280924
O O4 0.290681 0.029425 0.114143
O O5 0.160422 0.171361 0.552749
O O6 0.500000 0.000000 0.500000
O O7 0.124087 0.969244 0.684212
O O8 0.206010 0.486097 0.895198
O O9 0.248377 0.719396 0.852421
O O10 0.500000 0.500000 0.000000
O O11 0.000000 0.500000 0.500000
O O12 0.000000 0.000000 0.000000
#
# Coordination Sequence:
#
# PCOD9092957 Si02
#       5
#     2   2   2   2   2
#     4  10  19  46  72  99 147 196 233 300 365 436
#     4  11  25  49  78 104 150 204 241 298 382 435
#     4  12  24  47  75 106 148 190 254 305 358 448
#     4  11  23  45  75 110 150 189 243 311 372 437
#     4  12  26  47  76 108 153 195 244 312 368 433
#
# _framework density 23.560002999999998
#
# number of rings (size 3 to 8) (size 9 to 14) (size 15 to 20)
#    0.000    0.800    6.000    3.000    0.000    1.600 
#    3.600    2.000    0.000    0.000    0.000    0.000 
#    0.000    0.000    0.000    0.000    0.000    0.000 
#
# Total GULP energy -55807.799335 kJ/mol
# GULP energy per Si atom -5580.779934 kJ/mol
# Density = 2.350638 g / cm^3
# Si number density = 23.560003 Si / 1000 Ang^3
#
#
#
# Elastic Constant Matrix: (Units=GPa)
#
#
# Indices 1 2 3 4 5 6 
#
# 1 132.8344 74.8192 81.4003 -2.0709 3.3554 -20.7521
# 2 74.8192 152.2005 89.5321 12.0910 -16.7712 -30.2777
# 3 81.4003 89.5321 174.9288 10.0473 15.7978 12.8727
# 4 -2.0709 12.0910 10.0473 48.1670 9.2788 1.3818
# 5 3.3554 -16.7712 15.7978 9.2788 49.5513 -0.7838
# 6 -20.7521 -30.2777 12.8727 1.3818 -0.7838 51.6736
#
#
#
# Elastic Compliance Matrix: (Units=1/GPa)
#
#
# Indices 1 2 3 4 5 6 
#
# 1 0.012955 -0.002590 -0.005151 0.002228 -0.000452 0.004902
# 2 -0.002590 0.016623 -0.008726 -0.004638 0.009628 0.011143
# 3 -0.005151 -0.008726 0.013996 0.000782 -0.007384 -0.010801
# 4 0.002228 -0.004638 0.000782 0.023160 -0.006350 -0.002733
# 5 -0.000452 0.009628 -0.007384 -0.006350 0.027138 0.007881
# 6 0.004902 0.011143 -0.010801 -0.002733 0.007881 0.030733
#
#
# Mechanical properties :
#
#
# Convention : Reuss Voigt Hill
#
# Bulk Modulus (GPa) = 93.97699 105.71854 99.84776
# Shear Modulus (GPa) = 31.03930 44.15919 37.59924
#
# Velocity S-wave (km/s) = 3.63362 4.33405 3.99920
# Velocity P-wave (km/s) = 7.58809 8.36748 7.98730
#
# Compressibility (1/GPa) = 0.01064090
#
# Stress axis : x y z
#
# Youngs Moduli (GPa) = 77.18741 60.15864 71.44870
#
# Poissons Ratio (x) = 0.15584 0.36801
# Poissons Ratio (y) = 0.19995 0.62343
# Poissons Ratio (z) = 0.39757 0.52492
#
# Static dielectric constant tensor:
#      x y z
#    x 4.440840 0.239260 3.007420 
#    y 0.239260 1.905260 0.278600 
#    z 3.007420 0.278600 5.722210 
# 
# From -- ./inp_files/148251.got.cif
#   From: 2010.05.17/outbox.cif.g08.bks.cpg/sg2_75_cif.got.tgz:148251.got - 2010.06.03 11:33:40.
