data_PCOD9092884
_publ_section_title
;
Structure prediction by ZEFSAII (Michael W. Deem and Ramdas Pophale) SiO2 
 PCOD9092884
Probable space group: P -1
;
_chemical_formula_sum "Si O2"
_cell_formula_units_Z 12
_cell_length_a 14.650814
_cell_length_b 15.931354
_cell_length_c 12.319789
_cell_angle_alpha 154.746523
_cell_angle_beta 150.056037
_cell_angle_gamma 24.818715
_cell_volume 497.946450
_symmetry_space_group_name_H-M "P -1"
_symmetry_group_IT_number 2
_symmetry_cell_setting 'triclinic'
loop_
_space_group_symop_operation_xyz
x,y,z
-x,-y,-z
loop_
_atom_site_type_symbol
_atom_site_label
_atom_site_fract_x
_atom_site_fract_y
_atom_site_fract_z
Si Si1 0.468052 0.015467 0.302267
Si Si2 0.272632 0.515218 0.783197
Si Si3 0.031282 0.294421 0.518035
Si Si4 0.012571 0.098677 0.877662
Si Si5 0.939572 0.369210 0.908831
Si Si6 0.334820 0.130365 0.882962
O O1 0.353333 0.243532 0.529071
O O2 0.709253 0.809404 0.359903
O O3 0.276269 0.980323 0.031710
O O4 0.551496 0.049693 0.312045
O O5 0.114473 0.650196 0.673633
O O6 0.500000 0.500000 0.000000
O O7 0.128983 0.666110 0.915684
O O8 0.949939 0.522707 0.778539
O O9 0.027589 0.094268 0.346405
O O10 0.934690 0.198147 0.791276
O O11 0.095725 0.222466 0.796165
O O12 0.716157 0.616116 0.920091
O O13 0.500000 0.000000 0.000000
#
# Coordination Sequence:
#
# PCOD9092884 Si02
#       6
#     2   2   2   2   2   2
#     4  11  24  44  70  97 137 181 219 281 338 396
#     4  12  25  45  68  99 143 178 224 284 331 399
#     4  11  25  46  67 103 139 177 224 282 334 399
#     4  12  24  44  70 103 133 182 232 264 347 405
#     4  10  23  42  70  99 136 175 222 284 329 401
#     4  10  19  43  70  94 136 177 219 280 343 384
#
# _framework density 24.098977000000001
#
# number of rings (size 3 to 8) (size 9 to 14) (size 15 to 20)
#    0.000    1.000    5.000    1.000    0.000    3.333 
#    0.000    8.333    0.000    0.000    0.000    0.000 
#    0.000    0.000    0.000    0.000    0.000    0.000 
#
# Total GULP energy -67048.764257 kJ/mol
# GULP energy per Si atom -5587.397021 kJ/mol
# Density = 2.404413 g / cm^3
# Si number density = 24.098977 Si / 1000 Ang^3
#
#
#
# Elastic Constant Matrix: (Units=GPa)
#
#
# Indices 1 2 3 4 5 6 
#
# 1 145.2134 52.3707 37.3540 1.3276 -27.9460 1.4353
# 2 52.3707 166.2802 29.1167 -23.3782 9.7753 6.3106
# 3 37.3540 29.1167 69.5042 10.1661 -3.6797 5.0980
# 4 1.3276 -23.3782 10.1661 46.3379 -2.4956 0.9921
# 5 -27.9460 9.7753 -3.6797 -2.4956 41.0115 -1.3851
# 6 1.4353 6.3106 5.0980 0.9921 -1.3851 52.8242
#
#
#
# Elastic Compliance Matrix: (Units=1/GPa)
#
#
# Indices 1 2 3 4 5 6 
#
# 1 0.010476 -0.003189 -0.003846 -0.000674 0.007535 0.000678
# 2 -0.003189 0.008426 -0.002664 0.004721 -0.004162 -0.000861
# 3 -0.003846 -0.002664 0.018399 -0.005281 -0.000699 -0.001272
# 4 -0.000674 0.004721 -0.005281 0.025122 -0.000547 -0.000522
# 5 0.007535 -0.004162 -0.000699 -0.000547 0.030454 0.001169
# 6 0.000678 -0.000861 -0.001272 -0.000522 0.001169 0.019178
#
#
# Mechanical properties :
#
#
# Convention : Reuss Voigt Hill
#
# Bulk Modulus (GPa) = 55.85707 68.74228 62.29967
# Shear Modulus (GPa) = 36.38484 45.51184 40.94834
#
# Velocity S-wave (km/s) = 3.88984 4.35045 4.12657
# Velocity P-wave (km/s) = 6.58809 7.33635 6.97227
#
# Compressibility (1/GPa) = 0.01790284
#
# Stress axis : x y z
#
# Youngs Moduli (GPa) = 95.46005 118.68087 54.35056
#
# Poissons Ratio (x) = 0.37851 0.20903
# Poissons Ratio (y) = 0.30446 0.14476
# Poissons Ratio (z) = 0.36714 0.31611
#
# Static dielectric constant tensor:
#      x y z
#    x 1.927480 0.005070 0.020380 
#    y 0.005070 1.998110 -0.013980 
#    z 0.020380 -0.013980 1.928060 
# 
# From -- ./inp_files/454225.got.cif
#   From: 2010.05.17/outbox.cif.g08.bks.cpg/sg2_228_cif.got.tgz:454225.got - 2010.06.03 11:33:40.
