data_PCOD9092788
_publ_section_title
;
Structure prediction by ZEFSAII (Michael W. Deem and Ramdas Pophale) SiO2 
 PCOD9092788
Probable space group: P -1
;
_chemical_formula_sum "Si O2"
_cell_formula_units_Z 16
_cell_length_a 16.154683
_cell_length_b 12.064824
_cell_length_c 9.175459
_cell_angle_alpha 73.945451
_cell_angle_beta 129.595106
_cell_angle_gamma 66.311371
_cell_volume 827.755380
_symmetry_space_group_name_H-M "P -1"
_symmetry_group_IT_number 2
_symmetry_cell_setting 'triclinic'
loop_
_space_group_symop_operation_xyz
x,y,z
-x,-y,-z
loop_
_atom_site_type_symbol
_atom_site_label
_atom_site_fract_x
_atom_site_fract_y
_atom_site_fract_z
Si Si1 0.964758 0.998703 0.205157
Si Si2 0.022306 0.156244 0.007129
Si Si3 0.233097 0.603593 0.789653
Si Si4 0.849853 0.693593 0.849630
Si Si5 0.674046 0.804865 0.331058
Si Si6 0.656450 0.547669 0.350579
Si Si7 0.612271 0.373380 0.812687
Si Si8 0.027865 0.547192 0.662509
O O1 0.041288 0.049569 0.197623
O O2 0.796515 0.173471 0.040840
O O3 0.105511 0.814467 0.525023
O O4 0.913564 0.957475 0.028048
O O5 0.103701 0.211885 0.109703
O O6 0.819816 0.347648 0.680802
O O7 0.333566 0.485783 0.798027
O O8 0.117249 0.593126 0.712387
O O9 0.355543 0.544029 0.077117
O O10 0.689976 0.815852 0.517439
O O11 0.000000 0.500000 0.000000
O O12 0.851400 0.628255 0.029652
O O13 0.679271 0.663683 0.361696
O O14 0.842589 0.715440 0.472135
O O15 0.500000 0.000000 0.000000
O O16 0.487698 0.638247 0.201659
O O17 0.500000 0.500000 0.500000
O O18 0.000000 0.500000 0.500000
#
# Coordination Sequence:
#
# PCOD9092788 Si02
#       8
#     2   2   2   2   2   2   2   2
#     4  10  23  40  64  98 126 171 217 269 313 389
#     4  10  19  42  69  93 130 169 223 264 322 389
#     4  11  25  43  66  96 130 175 223 260 325 398
#     4  10  21  39  71  94 122 177 221 263 325 393
#     4  11  25  41  63 100 129 166 214 281 330 379
#     4  11  22  45  64  90 137 171 213 268 339 383
#     4  12  26  40  64  94 131 171 215 272 324 379
#     4  11  21  43  71  93 125 174 222 261 322 403
#
# _framework density 19.329383
#
# number of rings (size 3 to 8) (size 9 to 14) (size 15 to 20)
#    0.000    1.250    5.000    1.500    7.000    1.000 
#    2.250    0.625    0.000    0.000    0.000    0.000 
#    0.000    0.000    0.000    0.000    0.000    0.000 
#
# Total GULP energy -89410.746468 kJ/mol
# GULP energy per Si atom -5588.171654 kJ/mol
# Density = 1.928539 g / cm^3
# Si number density = 19.329383 Si / 1000 Ang^3
#
#
#
# Elastic Constant Matrix: (Units=GPa)
#
#
# Indices 1 2 3 4 5 6 
#
# 1 112.2699 36.2788 35.7744 11.5479 -22.9583 3.4162
# 2 36.2788 79.0820 22.7219 17.3700 -20.6231 8.2892
# 3 35.7744 22.7219 95.3891 26.6227 -34.1967 -4.3586
# 4 11.5479 17.3700 26.6227 25.0147 -2.8689 -3.1185
# 5 -22.9583 -20.6231 -34.1967 -2.8689 26.0560 -5.5416
# 6 3.4162 8.2892 -4.3586 -3.1185 -5.5416 33.1345
#
#
#
# Elastic Compliance Matrix: (Units=1/GPa)
#
#
# Indices 1 2 3 4 5 6 
#
# 1 0.011678 -0.003037 -0.000692 -0.001699 0.006888 0.000457
# 2 -0.003037 0.024567 0.014772 -0.027731 0.032890 -0.000999
# 3 -0.000692 0.014772 0.045730 -0.049739 0.067538 0.009006
# 4 -0.001699 -0.027731 -0.049739 0.103685 -0.077882 -0.002697
# 5 0.006888 0.032890 0.067538 -0.077882 0.154469 0.018450
# 6 0.000457 -0.000999 0.009006 -0.002697 0.018450 0.034399
#
#
# Mechanical properties :
#
#
# Convention : Reuss Voigt Hill
#
# Bulk Modulus (GPa) = 9.60974 52.92122 31.26548
# Shear Modulus (GPa) = 12.91561 29.63876 21.27719
#
# Velocity S-wave (km/s) = 2.58773 3.92005 3.32138
# Velocity P-wave (km/s) = 3.72972 6.92294 5.56049
#
# Compressibility (1/GPa) = 0.10406112
#
# Stress axis : x y z
#
# Youngs Moduli (GPa) = 85.62804 40.70532 21.86756
#
# Poissons Ratio (x) = 0.12362 0.01513
# Poissons Ratio (y) = 0.26006 -0.32303
# Poissons Ratio (z) = 0.05925 -0.60130
#
# Static dielectric constant tensor:
#      x y z
#    x 1.669120 -0.017230 -0.016250 
#    y -0.017230 1.663440 0.010770 
#    z -0.016250 0.010770 1.682380 
# 
# From -- ./inp_files/245595.got.cif
#   From: 2010.05.17/outbox.cif.g08.bks.cpg/sg2_123_cif.got.tgz:245595.got - 2010.06.03 11:33:40.
