data_PCOD9092101
_publ_section_title
;
Structure prediction by ZEFSAII (Michael W. Deem and Ramdas Pophale) SiO2 
 PCOD9092101
Probable space group: P -1
;
_chemical_formula_sum "Si O2"
_cell_formula_units_Z 12
_cell_length_a 11.513572
_cell_length_b 13.853668
_cell_length_c 7.966156
_cell_angle_alpha 89.683333
_cell_angle_beta 109.210734
_cell_angle_gamma 29.760051
_cell_volume 466.733289
_symmetry_space_group_name_H-M "P -1"
_symmetry_group_IT_number 2
_symmetry_cell_setting 'triclinic'
loop_
_space_group_symop_operation_xyz
x,y,z
-x,-y,-z
loop_
_atom_site_type_symbol
_atom_site_label
_atom_site_fract_x
_atom_site_fract_y
_atom_site_fract_z
Si Si1 0.918482 0.112310 0.134367
Si Si2 0.674558 0.556192 0.227732
Si Si3 0.479886 0.399866 0.466432
Si Si4 0.321172 0.233675 0.750503
Si Si5 0.732745 0.945339 0.657300
Si Si6 0.873584 0.512080 0.809419
O O1 0.553629 0.352658 0.978974
O O2 0.156623 0.894094 0.383649
O O3 0.040147 0.132142 0.176964
O O4 0.000000 0.000000 0.000000
O O5 0.641128 0.554651 0.409699
O O6 0.552174 0.752767 0.131038
O O7 0.034956 0.286399 0.341876
O O8 0.500000 0.500000 0.500000
O O9 0.266445 0.495012 0.230414
O O10 0.573467 0.010282 0.741670
O O11 0.000000 0.500000 0.500000
O O12 0.172213 0.282033 0.829121
O O13 0.435957 0.209767 0.419718
O O14 0.000000 0.500000 0.000000
#
# Coordination Sequence:
#
# PCOD9092101 Si02
#       6
#     2   2   2   2   2   2
#     4   9  17  38  62  91 133 161 216 275 313 382
#     4  11  20  39  69  99 122 170 228 268 325 390
#     4  10  21  43  67  96 136 172 215 276 329 386
#     4  10  19  40  66  89 132 168 219 276 312 385
#     4  10  20  38  68  97 125 169 222 269 325 386
#     4  10  22  45  64  95 138 174 213 270 336 391
#
# _framework density 25.710616000000002
#
# number of rings (size 3 to 8) (size 9 to 14) (size 15 to 20)
#    0.000    2.000    6.667    0.500    0.000    2.667 
#   12.000    4.167    0.000    0.000    0.000    1.167 
#    0.000    0.000    0.000    0.000    0.000    0.000 
#
# Total GULP energy -67007.894908 kJ/mol
# GULP energy per Si atom -5583.991242 kJ/mol
# Density = 2.565210 g / cm^3
# Si number density = 25.710616 Si / 1000 Ang^3
#
#
#
# Elastic Constant Matrix: (Units=GPa)
#
#
# Indices 1 2 3 4 5 6 
#
# 1 135.3927 29.5414 62.2142 6.7682 40.9786 10.1045
# 2 29.5414 154.4187 35.7089 -21.4966 13.9649 -25.4153
# 3 62.2142 35.7089 120.6140 -5.0532 48.6887 -6.6432
# 4 6.7682 -21.4966 -5.0532 29.1734 6.8786 16.2867
# 5 40.9786 13.9649 48.6887 6.8786 58.1929 4.7100
# 6 10.1045 -25.4153 -6.6432 16.2867 4.7100 42.4214
#
#
#
# Elastic Compliance Matrix: (Units=1/GPa)
#
#
# Indices 1 2 3 4 5 6 
#
# 1 0.010971 -0.001627 -0.004012 -0.001879 -0.003505 -0.003106
# 2 -0.001627 0.008294 -0.000832 0.004579 -0.000979 0.003577
# 3 -0.004012 -0.000832 0.015031 0.003981 -0.010217 0.002417
# 4 -0.001879 0.004579 0.003981 0.048348 -0.007697 -0.013893
# 5 -0.003505 -0.000979 -0.010217 -0.007697 0.029481 -0.001670
# 6 -0.003106 0.003577 0.002417 -0.013893 -0.001670 0.032354
#
#
# Mechanical properties :
#
#
# Convention : Reuss Voigt Hill
#
# Bulk Modulus (GPa) = 46.83009 73.92826 60.37917
# Shear Modulus (GPa) = 30.38763 44.82162 37.60462
#
# Velocity S-wave (km/s) = 3.44162 4.17983 3.82856
# Velocity P-wave (km/s) = 5.83497 7.21880 6.56345
#
# Compressibility (1/GPa) = 0.02135379
#
# Stress axis : x y z
#
# Youngs Moduli (GPa) = 91.14884 120.56446 66.52748
#
# Poissons Ratio (x) = 0.19613 0.26693
# Poissons Ratio (y) = 0.14828 0.05538
# Poissons Ratio (z) = 0.36572 0.10035
#
# Static dielectric constant tensor:
#      x y z
#    x 2.109850 0.038910 -0.035310 
#    y 0.038910 2.019000 0.023220 
#    z -0.035310 0.023220 2.154230 
# 
# From -- ./inp_files/270337.got.cif
#   From: 2010.05.17/outbox.cif.g08.bks.cpg/sg2_136_cif.got.tgz:270337.got - 2010.06.03 11:33:40.
