data_PCOD9092482
_publ_section_title
;
Structure prediction by ZEFSAII (Michael W. Deem and Ramdas Pophale) SiO2 
 PCOD9092482
Probable space group: P -1
;
_chemical_formula_sum "Si O2"
_cell_formula_units_Z 16
_cell_length_a 8.795890
_cell_length_b 17.598464
_cell_length_c 12.612307
_cell_angle_alpha 47.506079
_cell_angle_beta 48.529215
_cell_angle_gamma 34.695391
_cell_volume 792.410014
_symmetry_space_group_name_H-M "P -1"
_symmetry_group_IT_number 2
_symmetry_cell_setting 'triclinic'
loop_
_space_group_symop_operation_xyz
x,y,z
-x,-y,-z
loop_
_atom_site_type_symbol
_atom_site_label
_atom_site_fract_x
_atom_site_fract_y
_atom_site_fract_z
Si Si1 0.359772 0.194134 0.508598
Si Si2 0.789361 0.679962 0.307285
Si Si3 0.692910 0.370091 0.958058
Si Si4 0.582304 0.142551 0.878825
Si Si5 0.198321 0.889141 0.786733
Si Si6 0.706166 0.996358 0.176568
Si Si7 0.238754 0.554244 0.499695
Si Si8 0.340476 0.700064 0.164460
O O1 0.303241 0.271909 0.573358
O O2 0.611497 0.146503 0.366398
O O3 0.078920 0.301323 0.466571
O O4 0.410602 0.060501 0.651870
O O5 0.606934 0.802824 0.187647
O O6 0.771255 0.564577 0.400627
O O7 0.086295 0.628126 0.196271
O O8 0.522078 0.371513 0.943007
O O9 0.500000 0.500000 0.000000
O O10 0.829555 0.224674 0.088879
O O11 0.514455 0.273634 0.845898
O O12 0.587831 0.061454 0.052786
O O13 0.891428 0.041076 0.785160
O O14 0.319506 0.898667 0.830232
O O15 0.032168 0.855345 0.143753
O O16 0.500000 0.500000 0.500000
O O17 0.297395 0.603144 0.324427
#
# Coordination Sequence:
#
# PCOD9092482 Si02
#       8
#     2   2   2   2   2   2   2   2
#     4  11  24  40  67  97 130 170 213 266 326 380
#     4  12  25  41  64  99 130 174 212 262 329 382
#     4  12  24  41  65  94 127 170 216 267 322 377
#     4  11  21  41  71  93 130 169 218 263 312 390
#     4  11  22  40  67  99 129 169 214 263 322 382
#     4  10  19  41  68  93 123 171 216 261 314 386
#     4  11  22  41  65  90 126 170 219 259 313 385
#     4  10  19  41  66  90 121 171 216 254 324 375
#
# _framework density 20.191566000000002
#
# number of rings (size 3 to 8) (size 9 to 14) (size 15 to 20)
#    0.000    1.000    6.250    2.250    1.750    2.500 
#    0.000    1.875    0.000    0.000    0.000    0.000 
#    0.000    0.000    0.000    0.000    0.000    0.000 
#
# Total GULP energy -89156.388373 kJ/mol
# GULP energy per Si atom -5572.274273 kJ/mol
# Density = 2.014561 g / cm^3
# Si number density = 20.191566 Si / 1000 Ang^3
#
#
#
# Elastic Constant Matrix: (Units=GPa)
#
#
# Indices 1 2 3 4 5 6 
#
# 1 94.6890 58.8866 45.2796 3.4913 0.8732 13.0936
# 2 58.8866 78.7812 53.7904 7.4675 11.4413 17.6392
# 3 45.2796 53.7904 125.7712 3.9370 -8.4792 18.1615
# 4 3.4913 7.4675 3.9370 40.2024 9.8820 2.4524
# 5 0.8732 11.4413 -8.4792 9.8820 36.9847 -10.0676
# 6 13.0936 17.6392 18.1615 2.4524 -10.0676 30.6386
#
#
#
# Elastic Compliance Matrix: (Units=1/GPa)
#
#
# Indices 1 2 3 4 5 6 
#
# 1 0.020572 -0.016460 -0.000391 -0.000152 0.005282 0.002664
# 2 -0.016460 0.036726 -0.008855 0.000566 -0.017109 -0.014528
# 3 -0.000391 -0.008855 0.012307 -0.000953 0.005812 -0.000044
# 4 -0.000152 0.000566 -0.000953 0.027392 -0.009031 -0.004857
# 5 0.005282 -0.017109 0.005812 -0.009031 0.040939 0.018322
# 6 0.002664 -0.014528 -0.000044 -0.004857 0.018322 0.046300
#
#
# Mechanical properties :
#
#
# Convention : Reuss Voigt Hill
#
# Bulk Modulus (GPa) = 54.95982 68.35051 61.65516
# Shear Modulus (GPa) = 20.68586 30.98412 25.83499
#
# Velocity S-wave (km/s) = 3.20422 3.92153 3.58088
# Velocity P-wave (km/s) = 6.40060 7.37760 6.90640
#
# Compressibility (1/GPa) = 0.01819511
#
# Stress axis : x y z
#
# Youngs Moduli (GPa) = 48.60878 27.22844 81.25676
#
# Poissons Ratio (x) = 0.44817 0.03174
# Poissons Ratio (y) = 0.80009 0.71951
# Poissons Ratio (z) = 0.01899 0.24110
#
# Static dielectric constant tensor:
#      x y z
#    x 1.783750 -0.003110 0.014380 
#    y -0.003110 1.722850 -0.049090 
#    z 0.014380 -0.049090 1.741570 
# 
# From -- ./inp_files/208326.got.cif
#   From: 2010.05.17/outbox.cif.g08.bks.cpg/sg2_105_cif.got.tgz:208326.got - 2010.06.03 11:33:40.
