data_PCOD9092612
_publ_section_title
;
Structure prediction by ZEFSAII (Michael W. Deem and Ramdas Pophale) SiO2 
 PCOD9092612
Probable space group: P -1
;
_chemical_formula_sum "Si O2"
_cell_formula_units_Z 16
_cell_length_a 18.603455
_cell_length_b 7.440823
_cell_length_c 7.649389
_cell_angle_alpha 121.165508
_cell_angle_beta 54.988767
_cell_angle_gamma 95.030373
_cell_volume 708.245075
_symmetry_space_group_name_H-M "P -1"
_symmetry_group_IT_number 2
_symmetry_cell_setting 'triclinic'
loop_
_space_group_symop_operation_xyz
x,y,z
-x,-y,-z
loop_
_atom_site_type_symbol
_atom_site_label
_atom_site_fract_x
_atom_site_fract_y
_atom_site_fract_z
Si Si1 0.518709 0.233483 0.059241
Si Si2 0.746287 0.917468 0.303919
Si Si3 0.292878 0.956937 0.169767
Si Si4 0.917926 0.545226 0.501428
Si Si5 0.952012 0.823232 0.046050
Si Si6 0.618710 0.371456 0.684724
Si Si7 0.718519 0.652813 0.897206
Si Si8 0.100435 0.015269 0.415394
O O1 0.550950 0.260387 0.827234
O O2 0.607000 0.218624 0.048822
O O3 0.432605 0.453828 0.302259
O O4 0.500000 0.000000 0.000000
O O5 0.704176 0.163810 0.408973
O O6 0.722951 0.940243 0.556578
O O7 0.856846 0.833513 0.088021
O O8 0.706218 0.759450 0.160612
O O9 0.295549 0.149148 0.126488
O O10 0.206812 0.862400 0.200088
O O11 0.824679 0.496191 0.657297
O O12 0.888862 0.800158 0.635840
O O13 0.000000 0.500000 0.500000
O O14 0.968334 0.405643 0.196168
O O15 0.918983 0.886910 0.316913
O O16 0.000000 0.000000 0.000000
O O17 0.655111 0.510729 0.848286
O O18 0.000000 0.000000 0.500000
#
# Coordination Sequence:
#
# PCOD9092612 Si02
#       8
#     2   2   2   2   2   2   2   2
#     4  10  19  41  70  95 135 169 210 278 330 383
#     4  10  22  41  62  94 132 167 222 270 322 391
#     4   9  21  40  64  88 132 169 206 276 325 371
#     4  11  21  36  59  88 122 168 212 257 321 368
#     4  11  21  37  59  85 126 169 210 269 316 375
#     4  10  22  39  70  97 125 179 212 264 343 385
#     4  11  21  41  66  92 132 170 221 271 320 394
#     4  10  22  37  59  92 126 165 214 261 312 389
#
# _framework density 22.591051
#
# number of rings (size 3 to 8) (size 9 to 14) (size 15 to 20)
#    0.000    1.750    2.500    1.875    1.750    2.000 
#    0.000    8.750    0.000    0.000    0.000    0.000 
#    0.000    0.000    0.000    0.000    0.000    0.000 
#
# Total GULP energy -89122.551972 kJ/mol
# GULP energy per Si atom -5570.159498 kJ/mol
# Density = 2.253963 g / cm^3
# Si number density = 22.591051 Si / 1000 Ang^3
#
#
#
# Elastic Constant Matrix: (Units=GPa)
#
#
# Indices 1 2 3 4 5 6 
#
# 1 139.8731 28.4436 26.7668 11.3204 -21.7683 8.6925
# 2 28.4436 92.4008 -0.2412 -1.6426 -6.6095 -0.7260
# 3 26.7668 -0.2412 37.3655 5.2034 7.4506 -2.2533
# 4 11.3204 -1.6426 5.2034 25.7354 -9.3486 0.4609
# 5 -21.7683 -6.6095 7.4506 -9.3486 31.1465 2.0262
# 6 8.6925 -0.7260 -2.2533 0.4609 2.0262 34.0690
#
#
#
# Elastic Compliance Matrix: (Units=1/GPa)
#
#
# Indices 1 2 3 4 5 6 
#
# 1 0.011700 -0.002883 -0.010923 0.000852 0.010721 -0.004418
# 2 -0.002883 0.011793 0.001847 0.001818 0.000523 0.001053
# 3 -0.010923 0.001847 0.040667 -0.010944 -0.020704 0.006895
# 4 0.000852 0.001818 -0.010944 0.047395 0.017995 -0.002614
# 5 0.010721 0.000523 -0.020704 0.017995 0.050542 -0.007343
# 6 -0.004418 0.001053 0.006895 -0.002614 -0.007343 0.031430
#
#
# Mechanical properties :
#
#
# Convention : Reuss Voigt Hill
#
# Bulk Modulus (GPa) = 24.84891 42.17530 33.51210
# Shear Modulus (GPa) = 21.65833 32.50151 27.07992
#
# Velocity S-wave (km/s) = 3.09967 3.79712 3.46598
# Velocity P-wave (km/s) = 4.88200 6.15904 5.55732
#
# Compressibility (1/GPa) = 0.04024322
#
# Stress axis : x y z
#
# Youngs Moduli (GPa) = 85.47018 84.79856 24.58977
#
# Poissons Ratio (x) = 0.24445 0.26859
# Poissons Ratio (y) = 0.24639 -0.04542
# Poissons Ratio (z) = 0.93357 -0.15664
#
# Static dielectric constant tensor:
#      x y z
#    x 1.886250 -0.059360 -0.110600 
#    y -0.059360 1.779190 -0.025260 
#    z -0.110600 -0.025260 1.903390 
# 
# From -- ./inp_files/326725.got.cif
#   From: 2010.05.17/outbox.cif.g08.bks.cpg/sg2_164_cif.got.tgz:326725.got - 2010.06.03 11:33:40.
