data_PCOD9092585
_publ_section_title
;
Structure prediction by ZEFSAII (Michael W. Deem and Ramdas Pophale) SiO2 
 PCOD9092585
Probable space group: P -1
;
_chemical_formula_sum "Si O2"
_cell_formula_units_Z 16
_cell_length_a 14.035000
_cell_length_b 5.148064
_cell_length_c 14.868219
_cell_angle_alpha 122.553089
_cell_angle_beta 137.761024
_cell_angle_gamma 57.991916
_cell_volume 592.034639
_symmetry_space_group_name_H-M "P -1"
_symmetry_group_IT_number 2
_symmetry_cell_setting 'triclinic'
loop_
_space_group_symop_operation_xyz
x,y,z
-x,-y,-z
loop_
_atom_site_type_symbol
_atom_site_label
_atom_site_fract_x
_atom_site_fract_y
_atom_site_fract_z
Si Si1 0.727300 0.423650 0.093889
Si Si2 0.759726 0.625714 0.789147
Si Si3 0.465518 0.066685 0.843638
Si Si4 0.698803 0.694267 0.411238
Si Si5 0.847289 0.209730 0.615277
Si Si6 0.152939 0.754295 0.045384
Si Si7 0.476987 0.497237 0.633340
Si Si8 0.904733 0.242511 0.366740
O O1 0.632648 0.781826 0.112482
O O2 0.828776 0.307131 0.228710
O O3 0.606809 0.212295 0.967488
O O4 0.817990 0.389894 0.059890
O O5 0.865204 0.428484 0.751061
O O6 0.822867 0.509054 0.909444
O O7 0.607174 0.514054 0.662687
O O8 0.742512 0.995638 0.828377
O O9 0.366367 0.192040 0.710545
O O10 0.506608 0.696346 0.780384
O O11 0.561386 0.802466 0.402029
O O12 0.782451 0.333232 0.375770
O O13 0.817213 0.875050 0.564389
O O14 0.688169 0.369912 0.493657
O O15 0.985587 0.101707 0.626581
O O16 0.000000 0.000000 0.000000
O O17 0.000000 0.500000 0.500000
#
# Coordination Sequence:
#
# PCOD9092585 Si02
#       8
#     2   2   2   2   2   2   2   2
#     4  10  19  41  69  92 133 182 223 285 350 408
#     4  12  27  46  72 102 140 184 239 287 337 411
#     4   9  19  39  62  99 132 169 229 281 349 410
#     4   9  20  38  66  96 135 176 224 295 340 416
#     4  10  23  41  65  95 138 183 231 283 350 405
#     4  12  27  49  71 101 144 183 235 286 342 414
#     4  11  22  40  66  99 137 175 234 286 344 409
#     4   9  19  40  65  94 134 173 228 286 347 419
#
# _framework density 27.025445000000001
#
# number of rings (size 3 to 8) (size 9 to 14) (size 15 to 20)
#    0.000    1.750    1.250    3.000    3.500    1.000 
#    6.750    3.750    0.000    0.000    0.000    0.000 
#    0.000    0.000    0.000    0.000    0.000    0.000 
#
# Total GULP energy -89419.748267 kJ/mol
# GULP energy per Si atom -5588.734267 kJ/mol
# Density = 2.696393 g / cm^3
# Si number density = 27.025445 Si / 1000 Ang^3
#
#
#
# Elastic Constant Matrix: (Units=GPa)
#
#
# Indices 1 2 3 4 5 6 
#
# 1 123.6445 10.8323 13.0767 0.0697 -11.2462 -23.8352
# 2 10.8323 48.0446 10.4467 0.3201 -3.9263 -13.5222
# 3 13.0767 10.4467 110.5245 1.0001 -9.4338 -5.4903
# 4 0.0697 0.3201 1.0001 39.9957 -4.2368 7.5810
# 5 -11.2462 -3.9263 -9.4338 -4.2368 38.0185 5.4568
# 6 -23.8352 -13.5222 -5.4903 7.5810 5.4568 36.4001
#
#
#
# Elastic Compliance Matrix: (Units=1/GPa)
#
#
# Indices 1 2 3 4 5 6 
#
# 1 0.009479 -0.000164 -0.000658 -0.000960 0.001656 0.005999
# 2 -0.000164 0.023740 -0.001730 -0.001747 0.000525 0.008736
# 3 -0.000658 -0.001730 0.009460 -0.000026 0.001962 0.000065
# 4 -0.000960 -0.001747 -0.000026 0.026801 0.003578 -0.007400
# 5 0.001656 0.000525 0.001962 0.003578 0.028221 -0.003400
# 6 0.005999 0.008736 0.000065 -0.007400 -0.003400 0.036706
#
#
# Mechanical properties :
#
#
# Convention : Reuss Voigt Hill
#
# Bulk Modulus (GPa) = 26.61301 38.99168 32.80234
# Shear Modulus (GPa) = 32.88681 39.40670 36.14676
#
# Velocity S-wave (km/s) = 3.49217 3.82269 3.66116
# Velocity P-wave (km/s) = 5.11166 5.82607 5.48052
#
# Compressibility (1/GPa) = 0.03757561
#
# Stress axis : x y z
#
# Youngs Moduli (GPa) = 105.49425 42.12220 105.70786
#
# Poissons Ratio (x) = 0.00691 0.06956
# Poissons Ratio (y) = 0.01731 0.18286
# Poissons Ratio (z) = 0.06942 0.07287
#
# Static dielectric constant tensor:
#      x y z
#    x 2.226750 0.069000 0.034740 
#    y 0.069000 2.314080 -0.033470 
#    z 0.034740 -0.033470 2.090380 
# 
# From -- ./inp_files/526009.got.cif
#   From: 2010.05.17/outbox.cif.g08.bks.cpg/sg2_264_cif.got.tgz:526009.got - 2010.06.03 11:33:40.
