data_PCOD9092092
_publ_section_title
;
Structure prediction by ZEFSAII (Michael W. Deem and Ramdas Pophale) SiO2 
 PCOD9092092
Probable space group: P -1
;
_chemical_formula_sum "Si O2"
_cell_formula_units_Z 12
_cell_length_a 12.258951
_cell_length_b 7.869076
_cell_length_c 8.326122
_cell_angle_alpha 89.349777
_cell_angle_beta 39.558208
_cell_angle_gamma 72.678261
_cell_volume 455.791056
_symmetry_space_group_name_H-M "P -1"
_symmetry_group_IT_number 2
_symmetry_cell_setting 'triclinic'
loop_
_space_group_symop_operation_xyz
x,y,z
-x,-y,-z
loop_
_atom_site_type_symbol
_atom_site_label
_atom_site_fract_x
_atom_site_fract_y
_atom_site_fract_z
Si Si1 0.049081 0.600149 0.590582
Si Si2 0.779424 0.963568 0.834080
Si Si3 0.613665 0.290440 0.801007
Si Si4 0.397854 0.399192 0.722075
Si Si5 0.953257 0.198186 0.787576
Si Si6 0.822170 0.682919 0.276503
O O1 0.174522 0.719056 0.447380
O O2 0.182355 0.420121 0.551409
O O3 0.000000 0.500000 0.500000
O O4 0.832809 0.768187 0.872015
O O5 0.915315 0.868028 0.521962
O O6 0.606976 0.132809 0.931270
O O7 0.833498 0.082366 0.901670
O O8 0.531627 0.286725 0.719837
O O9 0.500000 0.500000 0.000000
O O10 0.500000 0.500000 0.500000
O O11 0.352237 0.276237 0.642005
O O12 0.207119 0.580749 0.011240
O O13 0.101395 0.165639 0.764865
O O14 0.000000 0.500000 0.000000
#
# Coordination Sequence:
#
# PCOD9092092 Si02
#       6
#     2   2   2   2   2   2
#     4  12  21  39  70  89 121 169 215 256 302 381
#     4  11  20  39  68  98 117 160 227 256 304 370
#     4  12  22  40  67  92 131 162 206 266 314 371
#     4  11  22  38  63  96 130 169 200 255 332 369
#     4  10  19  40  66  87 125 163 213 258 297 377
#     4  10  22  39  62  91 127 169 209 248 314 379
#
# _framework density 26.327853999999999
#
# number of rings (size 3 to 8) (size 9 to 14) (size 15 to 20)
#    0.000    1.000    8.333    0.000    2.333    0.000 
#    0.000    9.167    3.667    3.000    0.000    0.000 
#    0.000    0.000    0.000    0.000    0.000    0.000 
#
# Total GULP energy -66804.371205 kJ/mol
# GULP energy per Si atom -5567.030934 kJ/mol
# Density = 2.626793 g / cm^3
# Si number density = 26.327854 Si / 1000 Ang^3
#
#
#
# Elastic Constant Matrix: (Units=GPa)
#
#
# Indices 1 2 3 4 5 6 
#
# 1 290.6693 57.5200 16.5377 7.4677 21.1988 5.4703
# 2 57.5200 114.5632 9.1023 27.8908 4.3714 -8.8416
# 3 16.5377 9.1023 68.5886 7.5437 -4.9602 -6.3799
# 4 7.4677 27.8908 7.5437 38.7603 1.8681 -2.9899
# 5 21.1988 4.3714 -4.9602 1.8681 22.7508 13.2427
# 6 5.4703 -8.8416 -6.3799 -2.9899 13.2427 41.5190
#
#
#
# Elastic Compliance Matrix: (Units=1/GPa)
#
#
# Indices 1 2 3 4 5 6 
#
# 1 0.004178 -0.002126 -0.001119 0.001143 -0.003913 0.000155
# 2 -0.002126 0.011984 -0.000047 -0.007942 -0.001217 0.002641
# 3 -0.001119 -0.000047 0.015565 -0.002899 0.004093 0.001015
# 4 0.001143 -0.007942 -0.002899 0.032113 -0.003466 0.001131
# 5 -0.003913 -0.001217 0.004093 -0.003466 0.059730 -0.018416
# 6 0.000155 0.002641 0.001015 0.001131 -0.018416 0.030739
#
#
# Mechanical properties :
#
#
# Convention : Reuss Voigt Hill
#
# Bulk Modulus (GPa) = 39.77282 71.12679 55.44981
# Shear Modulus (GPa) = 29.53825 46.65010 38.09417
#
# Velocity S-wave (km/s) = 3.35317 4.21395 3.80796
# Velocity P-wave (km/s) = 5.48919 7.12397 6.35933
#
# Compressibility (1/GPa) = 0.02514280
#
# Stress axis : x y z
#
# Youngs Moduli (GPa) = 239.36493 83.44775 64.24657
#
# Poissons Ratio (x) = 0.17738 0.07192
# Poissons Ratio (y) = 0.50880 0.00300
# Poissons Ratio (z) = 0.26796 0.00389
#
# Static dielectric constant tensor:
#      x y z
#    x 2.177170 -0.120510 -0.044550 
#    y -0.120510 2.346990 -0.162380 
#    z -0.044550 -0.162380 2.150500 
# 
# From -- ./inp_files/231834.got.cif
#   From: 2010.05.17/outbox.cif.g08.bks.cpg/sg2_116_cif.got.tgz:231834.got - 2010.06.03 11:33:40.
