data_PCOD9092232
_publ_section_title
;
Structure prediction by ZEFSAII (Michael W. Deem and Ramdas Pophale) SiO2 
 PCOD9092232
Probable space group: P -1
;
_chemical_formula_sum "Si O2"
_cell_formula_units_Z 16
_cell_length_a 11.431047
_cell_length_b 25.628369
_cell_length_c 6.920470
_cell_angle_alpha 124.557525
_cell_angle_beta 135.331370
_cell_angle_gamma 27.254004
_cell_volume 639.246835
_symmetry_space_group_name_H-M "P -1"
_symmetry_group_IT_number 2
_symmetry_cell_setting 'triclinic'
loop_
_space_group_symop_operation_xyz
x,y,z
-x,-y,-z
loop_
_atom_site_type_symbol
_atom_site_label
_atom_site_fract_x
_atom_site_fract_y
_atom_site_fract_z
Si Si1 0.850869 0.944566 0.696794
Si Si2 0.314577 0.680166 0.220811
Si Si3 0.372304 0.475285 0.389029
Si Si4 0.259995 0.277228 0.731123
Si Si5 0.481742 0.240488 0.324060
Si Si6 0.857706 0.483751 0.196377
Si Si7 0.831712 0.064759 0.673659
Si Si8 0.853136 0.826209 0.660199
O O1 0.003033 0.830858 0.706580
O O2 0.920811 0.965856 0.638575
O O3 0.497547 0.042991 0.449730
O O4 0.914034 0.970255 0.008786
O O5 0.371748 0.636678 0.409913
O O6 0.397619 0.728197 0.415435
O O7 0.555072 0.564798 0.128433
O O8 0.001926 0.773627 0.934979
O O9 0.500000 0.500000 0.500000
O O10 0.062665 0.584188 0.382593
O O11 0.257445 0.470062 0.061717
O O12 0.521484 0.184744 0.682835
O O13 0.153575 0.240302 0.581421
O O14 0.425163 0.254851 0.061013
O O15 0.710425 0.116777 0.426290
O O16 0.135322 0.345577 0.222237
O O17 0.000000 0.500000 0.500000
#
# Coordination Sequence:
#
# PCOD9092232 Si02
#       8
#     2   2   2   2   2   2   2   2
#     4   9  20  38  66  89 119 161 209 260 310 364
#     4  11  22  39  64  88 125 170 204 247 306 368
#     4  11  24  40  58  94 133 161 203 252 300 368
#     4  10  23  39  63  92 126 161 204 253 305 369
#     4  10  21  38  62  95 124 157 205 253 303 371
#     4   9  21  38  62  91 124 161 200 243 299 364
#     4  10  19  40  68  90 120 162 204 258 313 362
#     4  10  20  40  64  90 123 165 205 254 316 363
#
# _framework density 25.029454999999999
#
# number of rings (size 3 to 8) (size 9 to 14) (size 15 to 20)
#    0.000    2.000    1.250    1.500    0.000   12.500 
#    2.250    6.250    0.000    0.000    0.000    0.000 
#    0.000    0.000    0.000    0.000    0.000    0.000 
#
# Total GULP energy -89417.572077 kJ/mol
# GULP energy per Si atom -5588.598255 kJ/mol
# Density = 2.497249 g / cm^3
# Si number density = 25.029455 Si / 1000 Ang^3
#
#
#
# Elastic Constant Matrix: (Units=GPa)
#
#
# Indices 1 2 3 4 5 6 
#
# 1 46.1484 9.8351 55.4250 -15.9056 -2.6924 19.1063
# 2 9.8351 69.6859 61.7587 -31.8655 -6.2355 14.1020
# 3 55.4250 61.7587 20.8010 -59.9346 -8.0610 -33.9839
# 4 -15.9056 -31.8655 -59.9346 48.3076 4.8228 -19.4171
# 5 -2.6924 -6.2355 -8.0610 4.8228 35.1941 -9.1712
# 6 19.1063 14.1020 -33.9839 -19.4171 -9.1712 11.7118
#
#
#
# Elastic Compliance Matrix: (Units=1/GPa)
#
#
# Indices 1 2 3 4 5 6 
#
# 1 0.018655 -0.001733 0.004240 0.012788 0.002115 0.006816
# 2 -0.001733 0.020488 0.000129 0.015423 0.003119 0.006545
# 3 0.004240 0.000129 0.000302 -0.003778 -0.002907 -0.014738
# 4 0.012788 0.015423 -0.003778 0.028991 -0.002180 -0.004040
# 5 0.002115 0.003119 -0.002907 -0.002180 0.029831 0.004107
# 6 0.006816 0.006545 -0.014738 -0.004040 0.004107 0.020138
#
#
# Mechanical properties :
#
#
# Convention : Reuss Voigt Hill
#
# Bulk Modulus (GPa) = 22.36301 43.40811 32.88556
# Shear Modulus (GPa) = 39.05083 19.68380 29.36731
#
# Velocity S-wave (km/s) = 3.95422 2.80737 3.42908
# Velocity P-wave (km/s) = 5.45911 5.28099 5.37079
#
# Compressibility (1/GPa) = 0.04471670
#
# Stress axis : x y z
#
# Youngs Moduli (GPa) = 53.60450 48.80989 3316.12576
#
# Poissons Ratio (x) = 0.08459 -14.06150
# Poissons Ratio (y) = 0.09290 -0.42744
# Poissons Ratio (z) = -0.22730 -0.00629
#
# Static dielectric constant tensor:
#      x y z
#    x 2.080810 -0.054760 -0.023740 
#    y -0.054760 2.049150 0.010110 
#    z -0.023740 0.010110 1.917920 
# 
# From -- ./inp_files/85113.got.cif
#   From: 2010.05.17/outbox.cif.g08.bks.cpg/sg2_43_cif.got.tgz:85113.got - 2010.06.03 11:33:40.
