data_PCOD9092560
_publ_section_title
;
Structure prediction by ZEFSAII (Michael W. Deem and Ramdas Pophale) SiO2 
 PCOD9092560
Probable space group: P -1
;
_chemical_formula_sum "Si O2"
_cell_formula_units_Z 16
_cell_length_a 26.324303
_cell_length_b 16.393749
_cell_length_c 6.192341
_cell_angle_alpha 128.282499
_cell_angle_beta 131.637115
_cell_angle_gamma 20.220159
_cell_volume 690.213906
_symmetry_space_group_name_H-M "P -1"
_symmetry_group_IT_number 2
_symmetry_cell_setting 'triclinic'
loop_
_space_group_symop_operation_xyz
x,y,z
-x,-y,-z
loop_
_atom_site_type_symbol
_atom_site_label
_atom_site_fract_x
_atom_site_fract_y
_atom_site_fract_z
Si Si1 0.866565 0.622564 0.698618
Si Si2 0.331660 0.986472 0.918398
Si Si3 0.763535 0.118624 0.113706
Si Si4 0.521353 0.550125 0.841181
Si Si5 0.423682 0.060341 0.092879
Si Si6 0.935976 0.775524 0.671100
Si Si7 0.004039 0.877336 0.734293
Si Si8 0.266071 0.400702 0.515726
O O1 0.836671 0.554578 0.619583
O O2 0.930651 0.494268 0.438552
O O3 0.000000 0.500000 0.000000
O O4 0.716685 0.895328 0.793536
O O5 0.492899 0.705144 0.930633
O O6 0.205972 0.075391 0.627723
O O7 0.336503 0.070996 0.892681
O O8 0.618893 0.271255 0.089582
O O9 0.869959 0.034105 0.442168
O O10 0.680883 0.304440 0.005973
O O11 0.868440 0.890463 0.906762
O O12 0.500000 0.500000 0.500000
O O13 0.571491 0.833337 0.289306
O O14 0.309478 0.310012 0.249214
O O15 0.500000 0.000000 0.000000
O O16 0.986637 0.816802 0.780064
O O17 0.166079 0.636022 0.674805
O O18 0.000000 0.000000 0.000000
#
# Coordination Sequence:
#
# PCOD9092560 Si02
#       8
#     2   2   2   2   2   2   2   2
#     4   8  17  35  66  89 125 174 211 263 350 396
#     4  10  19  41  68  95 138 183 212 283 352 385
#     4  11  23  40  68  98 133 181 235 274 340 401
#     4  11  22  42  65  97 144 175 224 288 330 397
#     4  10  22  43  67  96 129 173 228 276 337 411
#     4  10  20  42  64  98 138 166 228 290 333 402
#     4  11  24  44  69  95 139 185 224 283 343 403
#     4   9  21  42  62  92 136 172 217 281 339 396
#
# _framework density 23.181218000000001
#
# number of rings (size 3 to 8) (size 9 to 14) (size 15 to 20)
#    0.000    2.000    2.500    0.000    0.000    4.500 
#    6.750    1.875    0.000    0.000    0.000    0.000 
#    0.000    0.000    0.000    0.000    0.000    0.000 
#
# Total GULP energy -89303.079649 kJ/mol
# GULP energy per Si atom -5581.442478 kJ/mol
# Density = 2.312846 g / cm^3
# Si number density = 23.181218 Si / 1000 Ang^3
#
#
#
# Elastic Constant Matrix: (Units=GPa)
#
#
# Indices 1 2 3 4 5 6 
#
# 1 73.9285 26.8351 28.8119 21.8815 10.4763 -3.7991
# 2 26.8351 110.8446 46.2853 32.1366 8.6191 6.4447
# 3 28.8119 46.2853 104.8350 34.2248 15.8497 5.2450
# 4 21.8815 32.1366 34.2248 60.4358 1.3838 -5.3630
# 5 10.4763 8.6191 15.8497 1.3838 27.2206 3.4712
# 6 -3.7991 6.4447 5.2450 -5.3630 3.4712 37.7763
#
#
#
# Elastic Compliance Matrix: (Units=1/GPa)
#
#
# Indices 1 2 3 4 5 6 
#
# 1 0.016884 -0.001964 -0.001963 -0.003648 -0.004832 0.002232
# 2 -0.001964 0.012266 -0.003303 -0.004133 -0.000694 -0.002354
# 3 -0.001963 -0.003303 0.014417 -0.005726 -0.006061 -0.001892
# 4 -0.003648 -0.004133 -0.005726 0.023571 0.004328 0.004082
# 5 -0.004832 -0.000694 -0.006061 0.004328 0.042484 -0.002815
# 6 0.002232 -0.002354 -0.001892 0.004082 -0.002815 0.028199
#
#
# Mechanical properties :
#
#
# Convention : Reuss Voigt Hill
#
# Bulk Modulus (GPa) = 34.35784 54.83032 44.59408
# Shear Modulus (GPa) = 30.86717 37.59824 34.23271
#
# Velocity S-wave (km/s) = 3.65301 4.03168 3.84701
# Velocity P-wave (km/s) = 5.71369 6.73624 6.24592
#
# Compressibility (1/GPa) = 0.02910544
#
# Stress axis : x y z
#
# Youngs Moduli (GPa) = 59.22820 81.52721 69.36170
#
# Poissons Ratio (x) = 0.16013 0.13617
# Poissons Ratio (y) = 0.11633 0.22914
# Poissons Ratio (z) = 0.11627 0.26932
#
# Static dielectric constant tensor:
#      x y z
#    x 1.864140 0.017750 -0.014280 
#    y 0.017750 1.909170 -0.006340 
#    z -0.014280 -0.006340 1.896850 
# 
# From -- ./inp_files/127539.got.cif
#   From: 2010.05.17/outbox.cif.g08.bks.cpg/sg2_64_cif.got.tgz:127539.got - 2010.06.03 11:33:40.
