data_PCOD9092313
_publ_section_title
;
Structure prediction by ZEFSAII (Michael W. Deem and Ramdas Pophale) SiO2 
 PCOD9092313
Probable space group: P -1
;
_chemical_formula_sum "Si O2"
_cell_formula_units_Z 16
_cell_length_a 16.514009
_cell_length_b 10.236170
_cell_length_c 14.122075
_cell_angle_alpha 143.952216
_cell_angle_beta 142.201672
_cell_angle_gamma 63.652511
_cell_volume 724.170852
_symmetry_space_group_name_H-M "P -1"
_symmetry_group_IT_number 2
_symmetry_cell_setting 'triclinic'
loop_
_space_group_symop_operation_xyz
x,y,z
-x,-y,-z
loop_
_atom_site_type_symbol
_atom_site_label
_atom_site_fract_x
_atom_site_fract_y
_atom_site_fract_z
Si Si1 0.530837 0.301802 0.465110
Si Si2 0.437085 0.028793 0.858764
Si Si3 0.197447 0.352252 0.945618
Si Si4 0.242198 0.995998 0.161053
Si Si5 0.602088 0.280036 0.814491
Si Si6 0.115250 0.774595 0.509957
Si Si7 0.640698 0.623298 0.328475
Si Si8 0.927478 0.595359 0.567789
O O1 0.500000 0.500000 0.500000
O O2 0.521465 0.096997 0.261779
O O3 0.389906 0.172593 0.334027
O O4 0.700317 0.457304 0.762975
O O5 0.251695 0.866655 0.612383
O O6 0.526668 0.335568 0.098218
O O7 0.500000 0.000000 0.000000
O O8 0.047631 0.355419 0.774229
O O9 0.147261 0.052648 0.743451
O O10 0.318856 0.479597 0.044829
O O11 0.255324 0.739703 0.029137
O O12 0.273585 0.157481 0.380897
O O13 0.070429 0.888150 0.900050
O O14 0.480535 0.301887 0.782400
O O15 0.500000 0.000000 0.500000
O O16 0.118028 0.593813 0.491133
O O17 0.780378 0.607769 0.401897
O O18 0.000000 0.500000 0.500000
#
# Coordination Sequence:
#
# PCOD9092313 Si02
#       8
#     2   2   2   2   2   2   2   2
#     4  12  26  42  72 101 132 174 236 287 335 419
#     4  12  23  42  67  98 133 178 229 281 340 407
#     4  11  22  44  68  99 134 184 227 280 347 410
#     4  11  23  44  70  99 134 183 225 283 351 405
#     4  10  19  40  71  94 128 178 226 271 344 409
#     4  11  24  42  71  95 141 182 225 281 349 408
#     4  11  22  42  71  96 132 180 229 281 342 404
#     4  12  26  42  65 107 141 178 228 288 343 411
#
# _framework density 22.094234
#
# number of rings (size 3 to 8) (size 9 to 14) (size 15 to 20)
#    0.000    0.750    6.250    2.625    1.750    0.500 
#    0.000    5.000    0.000    0.000    0.000    0.000 
#    0.000    0.000    0.000    0.000    0.000    0.000 
#
# Total GULP energy -89299.214835 kJ/mol
# GULP energy per Si atom -5581.200927 kJ/mol
# Density = 2.204395 g / cm^3
# Si number density = 22.094234 Si / 1000 Ang^3
#
#
#
# Elastic Constant Matrix: (Units=GPa)
#
#
# Indices 1 2 3 4 5 6 
#
# 1 72.4206 15.2458 9.0790 -8.5695 11.9231 -28.8834
# 2 15.2458 74.9511 19.4570 -2.6195 4.2116 -20.1752
# 3 9.0790 19.4570 94.6473 -11.1953 15.9670 -5.3301
# 4 -8.5695 -2.6195 -11.1953 26.0780 -9.6778 7.8001
# 5 11.9231 4.2116 15.9670 -9.6778 33.4786 -5.5083
# 6 -28.8834 -20.1752 -5.3301 7.8001 -5.5083 40.9308
#
#
#
# Elastic Compliance Matrix: (Units=1/GPa)
#
#
# Indices 1 2 3 4 5 6 
#
# 1 0.019999 -0.000148 -0.000280 0.000782 -0.004566 0.013240
# 2 -0.000148 0.016237 -0.003159 -0.002057 0.000224 0.007910
# 3 -0.000280 -0.003159 0.012364 0.003630 -0.004589 -0.001454
# 4 0.000782 -0.002057 0.003630 0.045992 0.010332 -0.007363
# 5 -0.004566 0.000224 -0.004589 0.010332 0.036518 -0.000764
# 6 0.013240 0.007910 -0.001454 -0.007363 -0.000764 0.038784
#
#
# Mechanical properties :
#
#
# Convention : Reuss Voigt Hill
#
# Bulk Modulus (GPa) = 24.13912 36.62029 30.37971
# Shear Modulus (GPa) = 26.19507 33.31331 29.75419
#
# Velocity S-wave (km/s) = 3.44700 3.88723 3.67372
# Velocity P-wave (km/s) = 5.17607 6.06284 5.63692
#
# Compressibility (1/GPa) = 0.04142653
#
# Stress axis : x y z
#
# Youngs Moduli (GPa) = 50.00222 61.58821 80.88280
#
# Poissons Ratio (x) = 0.00909 0.02261
# Poissons Ratio (y) = 0.00738 0.25553
# Poissons Ratio (z) = 0.01398 0.19457
#
# Static dielectric constant tensor:
#      x y z
#    x 1.867480 0.058730 0.060820 
#    y 0.058730 1.980040 0.023350 
#    z 0.060820 0.023350 1.834740 
# 
# From -- ./inp_files/532827.got.cif
#   From: 2010.05.17/outbox.cif.g08.bks.cpg/sg2_267_cif.got.tgz:532827.got - 2010.06.03 11:33:40.
