data_PCOD9092357
_publ_section_title
;
Structure prediction by ZEFSAII (Michael W. Deem and Ramdas Pophale) SiO2 
 PCOD9092357
Probable space group: P -1
;
_chemical_formula_sum "Si O2"
_cell_formula_units_Z 14
_cell_length_a 20.868277
_cell_length_b 7.526967
_cell_length_c 9.641645
_cell_angle_alpha 94.388441
_cell_angle_beta 42.632137
_cell_angle_gamma 126.880474
_cell_volume 606.274186
_symmetry_space_group_name_H-M "P -1"
_symmetry_group_IT_number 2
_symmetry_cell_setting 'triclinic'
loop_
_space_group_symop_operation_xyz
x,y,z
-x,-y,-z
loop_
_atom_site_type_symbol
_atom_site_label
_atom_site_fract_x
_atom_site_fract_y
_atom_site_fract_z
Si Si1 0.199899 0.231843 0.048994
Si Si2 0.807642 0.244874 0.621117
Si Si3 0.829531 0.337829 0.279912
Si Si4 0.453368 0.699467 0.165057
Si Si5 0.996041 0.245643 0.451896
Si Si6 0.484058 0.793274 0.812717
Si Si7 0.819236 0.711399 0.222910
O O1 0.053036 0.147171 0.294357
O O2 0.142100 0.984385 0.225137
O O3 0.360220 0.559204 0.876425
O O4 0.213087 0.234083 0.864441
O O5 0.821763 0.369602 0.460330
O O6 0.935533 0.281945 0.430326
O O7 0.855771 0.445368 0.682708
O O8 0.632587 0.897162 0.898644
O O9 0.807021 0.476242 0.226238
O O10 0.659721 0.979021 0.512905
O O11 0.000000 0.500000 0.000000
O O12 0.308631 0.412633 0.469737
O O13 0.484996 0.950432 0.185752
O O14 0.412144 0.622858 0.064249
O O15 0.000000 0.000000 0.000000
#
# Coordination Sequence:
#
# PCOD9092357 Si02
#       7
#     2   2   2   2   2   2   2
#     4  11  22  38  58  92 117 147 198 244 287 343
#     4  10  19  41  59  85 112 159 195 234 289 350
#     4  10  21  39  61  85 116 153 196 238 289 345
#     4   9  19  37  60  82 114 156 197 230 290 350
#     4  10  22  35  63  83 117 152 194 242 287 344
#     4   9  19  37  62  83 115 155 196 237 283 346
#     4  11  24  38  60  87 119 155 188 243 299 340
#
# _framework density 23.091861000000002
#
# number of rings (size 3 to 8) (size 9 to 14) (size 15 to 20)
#    0.000    2.000    1.429    2.571    4.000    2.286 
#    7.714    2.143    0.000    0.000    0.000    0.000 
#    0.000    0.000    0.000    0.000    0.000    0.000 
#
# Total GULP energy -78117.278549 kJ/mol
# GULP energy per Si atom -5579.805611 kJ/mol
# Density = 2.303930 g / cm^3
# Si number density = 23.091861 Si / 1000 Ang^3
#
#
#
# Elastic Constant Matrix: (Units=GPa)
#
#
# Indices 1 2 3 4 5 6 
#
# 1 62.8607 13.9370 9.3767 -1.8176 5.2008 19.8210
# 2 13.9370 33.8797 17.0534 -8.6532 1.1035 17.6066
# 3 9.3767 17.0534 138.0581 -5.9880 4.3569 22.2679
# 4 -1.8176 -8.6532 -5.9880 14.4803 -1.6806 -6.0519
# 5 5.2008 1.1035 4.3569 -1.6806 32.2846 -0.9421
# 6 19.8210 17.6066 22.2679 -6.0519 -0.9421 41.6843
#
#
#
# Elastic Compliance Matrix: (Units=1/GPa)
#
#
# Indices 1 2 3 4 5 6 
#
# 1 0.019710 -0.005065 0.000541 -0.004169 -0.003532 -0.008207
# 2 -0.005065 0.044081 -0.002301 0.019727 0.000293 -0.012110
# 3 0.000541 -0.002301 0.008126 0.000413 -0.001188 -0.003593
# 4 -0.004169 0.019727 0.000413 0.083366 0.004446 0.005633
# 5 -0.003532 0.000293 -0.001188 0.004446 0.032029 0.003560
# 6 -0.008207 -0.012110 -0.003593 0.005633 0.003560 0.035825
#
#
# Mechanical properties :
#
#
# Convention : Reuss Voigt Hill
#
# Bulk Modulus (GPa) = 17.16269 35.05920 26.11094
# Shear Modulus (GPa) = 19.51533 30.65192 25.08363
#
# Velocity S-wave (km/s) = 2.91024 3.64729 3.29941
# Velocity P-wave (km/s) = 4.32911 5.74042 5.08397
#
# Compressibility (1/GPa) = 0.05826593
#
# Stress axis : x y z
#
# Youngs Moduli (GPa) = 50.73598 22.68566 123.06480
#
# Poissons Ratio (x) = 0.11491 -0.06662
# Poissons Ratio (y) = 0.25699 0.28321
# Poissons Ratio (z) = -0.02747 0.05221
#
# Static dielectric constant tensor:
#      x y z
#    x 1.926910 -0.108060 0.039630 
#    y -0.108060 1.955010 -0.040320 
#    z 0.039630 -0.040320 1.933200 
# 
# From -- ./inp_files/167425.got.cif
#   From: 2010.05.17/outbox.cif.g08.bks.cpg/sg2_84_cif.got.tgz:167425.got - 2010.06.03 11:33:40.
