data_PCOD9092739
_publ_section_title
;
Structure prediction by ZEFSAII (Michael W. Deem and Ramdas Pophale) SiO2 
 PCOD9092739
Probable space group: P -1
;
_chemical_formula_sum "Si O2"
_cell_formula_units_Z 16
_cell_length_a 16.947761
_cell_length_b 8.877057
_cell_length_c 14.820489
_cell_angle_alpha 35.290859
_cell_angle_beta 37.714468
_cell_angle_gamma 36.559784
_cell_volume 705.371637
_symmetry_space_group_name_H-M "P -1"
_symmetry_group_IT_number 2
_symmetry_cell_setting 'triclinic'
loop_
_space_group_symop_operation_xyz
x,y,z
-x,-y,-z
loop_
_atom_site_type_symbol
_atom_site_label
_atom_site_fract_x
_atom_site_fract_y
_atom_site_fract_z
Si Si1 0.314821 0.616497 0.884732
Si Si2 0.058465 0.015381 0.699865
Si Si3 0.516540 0.150641 0.819739
Si Si4 0.580752 0.679715 0.873335
Si Si5 0.814090 0.555673 0.568113
Si Si6 0.750598 0.718056 0.351709
Si Si7 0.345790 0.608015 0.535696
Si Si8 0.018767 0.741400 0.039599
O O1 0.433104 0.481457 0.765982
O O2 0.188130 0.553963 0.987474
O O3 0.293536 0.941556 0.761426
O O4 0.342042 0.471479 0.029344
O O5 0.109736 0.228764 0.603497
O O6 0.936838 0.231542 0.636481
O O7 0.203707 0.765994 0.648095
O O8 0.988359 0.878188 0.900919
O O9 0.661446 0.142816 0.651164
O O10 0.471894 0.001343 0.850957
O O11 0.500000 0.000000 0.000000
O O12 0.694601 0.660967 0.703672
O O13 0.500000 0.500000 0.000000
O O14 0.743545 0.585923 0.519466
O O15 0.664549 0.646171 0.388048
O O16 0.917439 0.596741 0.229215
O O17 0.500000 0.500000 0.500000
O O18 0.000000 0.000000 0.000000
#
# Coordination Sequence:
#
# PCOD9092739 Si02
#       8
#     2   2   2   2   2   2   2   2
#     4  10  22  43  69  98 139 185 230 286 348 412
#     4  11  23  44  69 100 139 187 224 287 344 411
#     4  10  24  44  65  93 139 183 224 286 342 401
#     4  11  25  43  67 101 140 188 235 282 347 417
#     4  11  23  42  71 100 137 180 238 280 345 415
#     4  11  26  42  72 104 135 186 231 287 351 419
#     4  12  28  47  68 103 143 179 235 291 349 408
#     4  10  19  42  66  99 132 175 226 279 352 400
#
# _framework density 22.683078999999999
#
# number of rings (size 3 to 8) (size 9 to 14) (size 15 to 20)
#    0.000    1.250    3.750    2.250    7.000    1.500 
#    2.250    0.000    0.000    0.000    0.000    0.000 
#    0.000    0.000    0.000    0.000    0.000    0.000 
#
# Total GULP energy -89273.775408 kJ/mol
# GULP energy per Si atom -5579.610963 kJ/mol
# Density = 2.263145 g / cm^3
# Si number density = 22.683079 Si / 1000 Ang^3
#
#
#
# Elastic Constant Matrix: (Units=GPa)
#
#
# Indices 1 2 3 4 5 6 
#
# 1 129.9280 47.9612 43.3903 -4.4654 8.6348 9.6702
# 2 47.9612 88.0077 23.2980 10.6378 10.2836 19.2556
# 3 43.3903 23.2980 97.5887 14.9330 21.1287 14.1450
# 4 -4.4654 10.6378 14.9330 31.8275 6.3143 2.8506
# 5 8.6348 10.2836 21.1287 6.3143 44.5636 -5.0228
# 6 9.6702 19.2556 14.1450 2.8506 -5.0228 22.8207
#
#
#
# Elastic Compliance Matrix: (Units=1/GPa)
#
#
# Indices 1 2 3 4 5 6 
#
# 1 0.011774 -0.006622 -0.005336 0.005790 0.001349 0.003480
# 2 -0.006622 0.018939 0.002697 -0.006126 -0.005214 -0.015228
# 3 -0.005336 0.002697 0.016227 -0.006791 -0.007546 -0.010884
# 4 0.005790 -0.006126 -0.006791 0.037617 -0.001607 0.001873
# 5 0.001349 -0.005214 -0.007546 -0.001607 0.028885 0.015064
# 6 0.003480 -0.015228 -0.010884 0.001873 0.015064 0.065023
#
#
# Mechanical properties :
#
#
# Convention : Reuss Voigt Hill
#
# Bulk Modulus (GPa) = 35.19210 60.53593 47.86402
# Shear Modulus (GPa) = 24.21781 33.23401 28.72591
#
# Velocity S-wave (km/s) = 3.27105 3.83187 3.56252
# Velocity P-wave (km/s) = 5.46029 6.80612 6.17001
#
# Compressibility (1/GPa) = 0.02841547
#
# Stress axis : x y z
#
# Youngs Moduli (GPa) = 84.93644 52.80006 61.62726
#
# Poissons Ratio (x) = 0.34966 0.32885
# Poissons Ratio (y) = 0.56248 -0.16618
# Poissons Ratio (z) = 0.45323 -0.14238
#
# Static dielectric constant tensor:
#      x y z
#    x 1.862550 -0.075710 0.025890 
#    y -0.075710 2.091340 0.068900 
#    z 0.025890 0.068900 2.040810 
# 
# From -- ./inp_files/529273.got.cif
#   From: 2010.05.17/outbox.cif.g08.bks.cpg/sg2_265_cif.got.tgz:529273.got - 2010.06.03 11:33:40.
