data_PCOD9092742
_publ_section_title
;
Structure prediction by ZEFSAII (Michael W. Deem and Ramdas Pophale) SiO2 
 PCOD9092742
Probable space group: P -1
;
_chemical_formula_sum "Si O2"
_cell_formula_units_Z 16
_cell_length_a 11.556660
_cell_length_b 7.994807
_cell_length_c 14.437603
_cell_angle_alpha 132.142098
_cell_angle_beta 133.955120
_cell_angle_gamma 69.503622
_cell_volume 695.141862
_symmetry_space_group_name_H-M "P -1"
_symmetry_group_IT_number 2
_symmetry_cell_setting 'triclinic'
loop_
_space_group_symop_operation_xyz
x,y,z
-x,-y,-z
loop_
_atom_site_type_symbol
_atom_site_label
_atom_site_fract_x
_atom_site_fract_y
_atom_site_fract_z
Si Si1 0.857269 0.007274 0.996732
Si Si2 0.752186 0.446307 0.160033
Si Si3 0.872067 0.915014 0.175961
Si Si4 0.427674 0.417974 0.057114
Si Si5 0.411161 0.458503 0.337084
Si Si6 0.437529 0.199172 0.596772
Si Si7 0.928600 0.205855 0.489790
Si Si8 0.182345 0.792283 0.378087
O O1 0.929490 0.996539 0.136334
O O2 0.799808 0.246676 0.051889
O O3 0.695667 0.801528 0.821087
O O4 0.000000 0.000000 0.000000
O O5 0.604217 0.358794 0.116537
O O6 0.916419 0.582192 0.350176
O O7 0.670696 0.601960 0.102206
O O8 0.995246 0.764676 0.230768
O O9 0.865427 0.115650 0.320960
O O10 0.691405 0.756007 0.007737
O O11 0.458484 0.675864 0.212026
O O12 0.500000 0.500000 0.500000
O O13 0.546012 0.580997 0.381186
O O14 0.272067 0.612796 0.312285
O O15 0.500000 0.000000 0.500000
O O16 0.268650 0.053744 0.492749
O O17 0.807369 0.246219 0.519813
O O18 0.000000 0.000000 0.500000
#
# Coordination Sequence:
#
# PCOD9092742 Si02
#       8
#     2   2   2   2   2   2   2   2
#     4  12  29  47  66 104 142 180 229 285 350 400
#     4  11  25  42  70 102 139 183 223 283 341 408
#     4  11  24  43  72 100 136 180 227 283 341 409
#     4  11  22  43  71 100 137 179 237 276 331 414
#     4  11  26  46  62  97 141 182 229 282 342 401
#     4  10  23  42  67  99 133 185 234 272 337 409
#     4  10  19  42  67 102 129 168 230 274 343 398
#     4  10  22  42  72  97 133 183 227 280 337 411
#
# _framework density 23.016886
#
# number of rings (size 3 to 8) (size 9 to 14) (size 15 to 20)
#    0.000    1.250    3.750    2.250    7.000    2.500 
#    2.250    0.000    0.000    0.000    0.000    0.000 
#    0.000    0.000    0.000    0.000    0.000    0.000 
#
# Total GULP energy -89335.151841 kJ/mol
# GULP energy per Si atom -5583.446990 kJ/mol
# Density = 2.296450 g / cm^3
# Si number density = 23.016886 Si / 1000 Ang^3
#
#
#
# Elastic Constant Matrix: (Units=GPa)
#
#
# Indices 1 2 3 4 5 6 
#
# 1 149.3595 17.1819 36.1893 7.6578 9.1657 12.4663
# 2 17.1819 35.7677 6.3360 1.4294 7.8275 6.7570
# 3 36.1893 6.3360 119.6243 13.1369 16.6158 6.4818
# 4 7.6578 1.4294 13.1369 31.9972 12.4074 -9.1586
# 5 9.1657 7.8275 16.6158 12.4074 39.6732 4.1781
# 6 12.4663 6.7570 6.4818 -9.1586 4.1781 27.4471
#
#
#
# Elastic Compliance Matrix: (Units=1/GPa)
#
#
# Indices 1 2 3 4 5 6 
#
# 1 0.007821 -0.002855 -0.001887 -0.002087 0.000535 -0.003181
# 2 -0.002855 0.031501 0.000266 -0.000687 -0.004819 -0.006017
# 3 -0.001887 0.000266 0.009732 -0.003242 -0.002445 -0.002216
# 4 -0.002087 -0.000687 -0.003242 0.043716 -0.013649 0.018548
# 5 0.000535 -0.004819 -0.002445 -0.013649 0.032161 -0.007930
# 6 -0.003181 -0.006017 -0.002216 0.018548 -0.007930 0.047279
#
#
# Mechanical properties :
#
#
# Convention : Reuss Voigt Hill
#
# Bulk Modulus (GPa) = 24.93705 47.12956 36.03331
# Shear Modulus (GPa) = 25.70291 36.15977 30.93134
#
# Velocity S-wave (km/s) = 3.34533 3.96790 3.66984
# Velocity P-wave (km/s) = 5.07734 6.44304 5.80053
#
# Compressibility (1/GPa) = 0.04010097
#
# Stress axis : x y z
#
# Youngs Moduli (GPa) = 127.86488 31.74477 102.75210
#
# Poissons Ratio (x) = 0.09064 0.19394
# Poissons Ratio (y) = 0.36508 -0.02733
# Poissons Ratio (z) = 0.24134 -0.00844
#
# Static dielectric constant tensor:
#      x y z
#    x 1.941970 0.031770 0.021470 
#    y 0.031770 1.885360 -0.004080 
#    z 0.021470 -0.004080 1.783020 
# 
# From -- ./inp_files/516440.got.cif
#   From: 2010.05.17/outbox.cif.g08.bks.cpg/sg2_259_cif.got.tgz:516440.got - 2010.06.03 11:33:40.
