data_PCOD9092306
_publ_section_title
;
Structure prediction by ZEFSAII (Michael W. Deem and Ramdas Pophale) SiO2 
 PCOD9092306
Probable space group: P -1
;
_chemical_formula_sum "Si O2"
_cell_formula_units_Z 16
_cell_length_a 7.157884
_cell_length_b 9.591322
_cell_length_c 9.363856
_cell_angle_alpha 101.482232
_cell_angle_beta 82.015194
_cell_angle_gamma 75.460923
_cell_volume 597.610338
_symmetry_space_group_name_H-M "P -1"
_symmetry_group_IT_number 2
_symmetry_cell_setting 'triclinic'
loop_
_space_group_symop_operation_xyz
x,y,z
-x,-y,-z
loop_
_atom_site_type_symbol
_atom_site_label
_atom_site_fract_x
_atom_site_fract_y
_atom_site_fract_z
Si Si1 0.792732 0.878999 0.930866
Si Si2 0.933679 0.747152 0.616580
Si Si3 0.022718 0.560550 0.812293
Si Si4 0.235077 0.644314 0.149700
Si Si5 0.403748 0.799671 0.933279
Si Si6 0.917521 0.895693 0.379690
Si Si7 0.465160 0.419634 0.636659
Si Si8 0.651280 0.183675 0.377557
O O1 0.801895 0.879020 0.756539
O O2 0.594809 0.837424 0.983982
O O3 0.970527 0.730333 0.914188
O O4 0.770315 0.043969 0.018184
O O5 0.878997 0.773068 0.465051
O O6 0.929340 0.599807 0.669583
O O7 0.155180 0.758548 0.614713
O O8 0.250576 0.481555 0.742928
O O9 0.895573 0.467618 0.883026
O O10 0.641193 0.324682 0.989780
O O11 0.374379 0.587303 0.259329
O O12 0.084398 0.803520 0.238925
O O13 0.438445 0.761406 0.755418
O O14 0.733912 0.005970 0.343230
O O15 0.000000 0.000000 0.500000
O O16 0.500000 0.500000 0.500000
O O17 0.514699 0.251375 0.538024
#
# Coordination Sequence:
#
# PCOD9092306 Si02
#       8
#     2   2   2   2   2   2   2   2
#     4   9  23  48  73  99 148 187 244 299 366 426
#     4   9  19  43  70 100 144 182 232 305 355 424
#     4  10  25  46  74 110 145 196 241 296 368 436
#     4  12  26  46  77 104 151 196 242 298 368 433
#     4  11  25  48  76 104 141 197 243 301 365 433
#     4  10  19  40  71 105 140 186 233 302 368 410
#     4  12  24  46  73 111 149 188 246 302 361 435
#     4  11  23  43  76 106 144 186 245 304 362 434
#
# _framework density 26.773299999999999
#
# number of rings (size 3 to 8) (size 9 to 14) (size 15 to 20)
#    0.750    0.750    3.750    1.500    1.750    5.500 
#    6.750    2.500    0.000    0.000    0.000    0.000 
#    0.000    0.000    0.000    0.000    0.000    0.000 
#
# Total GULP energy -89563.653773 kJ/mol
# GULP energy per Si atom -5597.728361 kJ/mol
# Density = 2.671236 g / cm^3
# Si number density = 26.773300 Si / 1000 Ang^3
#
#
#
# Elastic Constant Matrix: (Units=GPa)
#
#
# Indices 1 2 3 4 5 6 
#
# 1 133.6124 50.0211 35.0252 5.9434 -4.0809 6.1150
# 2 50.0211 145.2880 37.9108 -0.3451 2.9678 -2.2306
# 3 35.0252 37.9108 121.9686 15.8201 -0.5342 -7.1078
# 4 5.9434 -0.3451 15.8201 51.1656 -17.4983 -8.9661
# 5 -4.0809 2.9678 -0.5342 -17.4983 31.5701 3.6044
# 6 6.1150 -2.2306 -7.1078 -8.9661 3.6044 39.7232
#
#
#
# Elastic Compliance Matrix: (Units=1/GPa)
#
#
# Indices 1 2 3 4 5 6 
#
# 1 0.009148 -0.002731 -0.001844 -0.000391 0.001432 -0.002110
# 2 -0.002731 0.008342 -0.001871 0.000818 -0.000808 0.000812
# 3 -0.001844 -0.001871 0.009799 -0.003215 -0.001836 0.001373
# 4 -0.000391 0.000818 -0.003215 0.026027 0.013770 0.004156
# 5 0.001432 -0.000808 -0.001836 0.013770 0.039662 -0.001085
# 6 -0.002110 0.000812 0.001373 0.004156 -0.001085 0.026827
#
#
# Mechanical properties :
#
#
# Convention : Reuss Voigt Hill
#
# Bulk Modulus (GPa) = 69.45913 71.86477 70.66195
# Shear Modulus (GPa) = 36.36490 43.01924 39.69207
#
# Velocity S-wave (km/s) = 3.68945 4.01284 3.85453
# Velocity P-wave (km/s) = 6.64448 6.95490 6.80146
#
# Compressibility (1/GPa) = 0.01439696
#
# Stress axis : x y z
#
# Youngs Moduli (GPa) = 109.31589 119.87190 102.05130
#
# Poissons Ratio (x) = 0.32735 0.18819
# Poissons Ratio (y) = 0.29853 0.19094
# Poissons Ratio (z) = 0.20159 0.22429
#
# Static dielectric constant tensor:
#      x y z
#    x 2.111530 -0.009560 -0.013700 
#    y -0.009560 2.187760 0.034740 
#    z -0.013700 0.034740 2.128580 
# 
# From -- ./inp_files/498206.got.cif
#   From: 2010.05.17/outbox.cif.g08.bks.cpg/sg2_250_cif.got.tgz:498206.got - 2010.06.03 11:33:40.
