data_PCOD9092680
_publ_section_title
;
Structure prediction by ZEFSAII (Michael W. Deem and Ramdas Pophale) SiO2 
 PCOD9092680
Probable space group: P -1
;
_chemical_formula_sum "Si O2"
_cell_formula_units_Z 10
_cell_length_a 6.922317
_cell_length_b 12.814371
_cell_length_c 18.425541
_cell_angle_alpha 160.047530
_cell_angle_beta 103.404172
_cell_angle_gamma 84.360903
_cell_volume 506.077958
_symmetry_space_group_name_H-M "P -1"
_symmetry_group_IT_number 2
_symmetry_cell_setting 'triclinic'
loop_
_space_group_symop_operation_xyz
x,y,z
-x,-y,-z
loop_
_atom_site_type_symbol
_atom_site_label
_atom_site_fract_x
_atom_site_fract_y
_atom_site_fract_z
Si Si1 0.351919 0.737645 0.370942
Si Si2 0.512895 0.846978 0.978065
Si Si3 0.633176 0.861558 0.719360
Si Si4 0.902903 0.907493 0.141971
Si Si5 0.644167 0.873200 0.236538
O O1 0.488136 0.520366 0.269401
O O2 0.158037 0.469005 0.136068
O O3 0.500000 0.000000 0.500000
O O4 0.283395 0.917751 0.547737
O O5 0.739688 0.019541 0.152289
O O6 0.500000 0.000000 0.000000
O O7 0.343864 0.896383 0.051452
O O8 0.500000 0.500000 0.500000
O O9 0.504632 0.975150 0.721653
O O10 0.857614 0.889669 0.724282
O O11 0.832288 0.897490 0.212636
O O12 0.500000 0.500000 0.000000
#
# Coordination Sequence:
#
# PCOD9092680 Si02
#       5
#     2   2   2   2   2
#     4  10  19  42  63  87 126 158 198 257 301 366
#     4   9  20  39  60  90 122 156 207 251 298 361
#     4  11  23  42  62  89 128 164 206 254 300 364
#     4   9  23  40  64  90 125 161 208 243 315 358
#     4  11  21  42  65  90 126 159 204 258 301 363
#
# _framework density 19.759801
#
# number of rings (size 3 to 8) (size 9 to 14) (size 15 to 20)
#    1.200    0.800    2.000    1.200    0.000    4.800 
#    7.200    2.000    0.000    0.000    0.000    0.000 
#    0.000    0.000    0.000    0.000    0.000    0.000 
#
# Total GULP energy -55749.027365 kJ/mol
# GULP energy per Si atom -5574.902736 kJ/mol
# Density = 1.971483 g / cm^3
# Si number density = 19.759801 Si / 1000 Ang^3
#
#
#
# Elastic Constant Matrix: (Units=GPa)
#
#
# Indices 1 2 3 4 5 6 
#
# 1 119.7223 49.8290 39.2310 2.6441 1.7388 46.3707
# 2 49.8290 109.7984 53.4596 -3.2614 0.8682 35.9915
# 3 39.2310 53.4596 124.0633 -2.7969 -5.8897 27.3809
# 4 2.6441 -3.2614 -2.7969 55.8021 13.4688 -12.5726
# 5 1.7388 0.8682 -5.8897 13.4688 22.2773 -1.0534
# 6 46.3707 35.9915 27.3809 -12.5726 -1.0534 31.7244
#
#
#
# Elastic Compliance Matrix: (Units=1/GPa)
#
#
# Indices 1 2 3 4 5 6 
#
# 1 0.023749 0.002433 0.000696 -0.011237 0.003023 -0.042427
# 2 0.002433 0.016312 -0.003318 -0.003933 -0.000307 -0.020768
# 3 0.000696 -0.003318 0.011096 -0.002377 0.004084 -0.007635
# 4 -0.011237 -0.003933 -0.002377 0.029638 -0.015902 0.034157
# 5 0.003023 -0.000307 0.004084 -0.015902 0.054788 -0.012079
# 6 -0.042427 -0.020768 -0.007635 0.034157 -0.012079 0.136823
#
#
# Mechanical properties :
#
#
# Convention : Reuss Voigt Hill
#
# Bulk Modulus (GPa) = 19.69341 70.95813 45.32577
# Shear Modulus (GPa) = 17.25860 36.03171 26.64515
#
# Velocity S-wave (km/s) = 2.95857 4.27486 3.67611
# Velocity P-wave (km/s) = 4.65391 7.76880 6.40364
#
# Compressibility (1/GPa) = 0.05077842
#
# Stress axis : x y z
#
# Youngs Moduli (GPa) = 42.10671 61.30375 90.12532
#
# Poissons Ratio (x) = -0.14917 -0.06268
# Poissons Ratio (y) = -0.10246 0.29905
# Poissons Ratio (z) = -0.02929 0.20342
#
# Static dielectric constant tensor:
#      x y z
#    x 1.683380 -0.012190 -0.017450 
#    y -0.012190 1.668710 -0.023810 
#    z -0.017450 -0.023810 1.738340 
# 
# From -- ./inp_files/21537.got.cif
#   From: 2010.05.17/outbox.cif.g08.bks.cpg/sg2_11_cif.got.tgz:21537.got - 2010.06.03 11:33:40.
