data_PCOD9092244
_publ_section_title
;
Structure prediction by ZEFSAII (Michael W. Deem and Ramdas Pophale) SiO2 
 PCOD9092244
Probable space group: P -1
;
_chemical_formula_sum "Si O2"
_cell_formula_units_Z 12
_cell_length_a 7.936303
_cell_length_b 8.771452
_cell_length_c 12.297780
_cell_angle_alpha 98.665299
_cell_angle_beta 45.746064
_cell_angle_gamma 116.379287
_cell_volume 532.107202
_symmetry_space_group_name_H-M "P -1"
_symmetry_group_IT_number 2
_symmetry_cell_setting 'triclinic'
loop_
_space_group_symop_operation_xyz
x,y,z
-x,-y,-z
loop_
_atom_site_type_symbol
_atom_site_label
_atom_site_fract_x
_atom_site_fract_y
_atom_site_fract_z
Si Si1 0.614598 0.188138 0.023562
Si Si2 0.246914 0.546063 0.478750
Si Si3 0.085916 0.848587 0.930365
Si Si4 0.132187 0.457003 0.178866
Si Si5 0.418575 0.918844 0.409045
Si Si6 0.214326 0.272774 0.328338
O O1 0.873983 0.222979 0.980726
O O2 0.387005 0.183367 0.205035
O O3 0.692983 0.346091 0.920508
O O4 0.500000 0.000000 0.000000
O O5 0.451473 0.743385 0.375740
O O6 0.321283 0.395787 0.399783
O O7 0.000000 0.500000 0.500000
O O8 0.136104 0.550619 0.648376
O O9 0.919134 0.685517 0.907168
O O10 0.378826 0.950378 0.754262
O O11 0.000000 0.000000 0.000000
O O12 0.246022 0.398607 0.224141
O O13 0.103615 0.857608 0.528419
O O14 0.500000 0.000000 0.500000
#
# Coordination Sequence:
#
# PCOD9092244 Si02
#       6
#     2   2   2   2   2   2
#     4  12  28  41  63  99 132 169 218 263 317 384
#     4   8  18  36  68  93 122 164 210 259 315 374
#     4  12  26  43  67  93 133 175 209 265 321 384
#     4  10  21  46  64  94 131 170 212 259 324 381
#     4  10  19  40  68  96 123 166 219 254 322 382
#     4  10  22  43  71  94 126 169 210 271 318 372
#
# _framework density 22.551845
#
# number of rings (size 3 to 8) (size 9 to 14) (size 15 to 20)
#    0.000    2.000    3.333    2.000    9.333    0.667 
#    0.000    0.833    0.000    0.000    0.000    0.000 
#    0.000    0.000    0.000    0.000    0.000    0.000 
#
# Total GULP energy -66990.185904 kJ/mol
# GULP energy per Si atom -5582.515492 kJ/mol
# Density = 2.250052 g / cm^3
# Si number density = 22.551845 Si / 1000 Ang^3
#
#
#
# Elastic Constant Matrix: (Units=GPa)
#
#
# Indices 1 2 3 4 5 6 
#
# 1 54.4836 24.7784 24.8178 12.0932 2.2264 -8.1934
# 2 24.7784 162.0313 45.2971 29.5689 -5.1234 8.9936
# 3 24.8178 45.2971 67.6863 3.1682 -2.3616 -16.3547
# 4 12.0932 29.5689 3.1682 62.0489 2.1457 0.2301
# 5 2.2264 -5.1234 -2.3616 2.1457 22.0227 10.1800
# 6 -8.1934 8.9936 -16.3547 0.2301 10.1800 23.7254
#
#
#
# Elastic Compliance Matrix: (Units=1/GPa)
#
#
# Indices 1 2 3 4 5 6 
#
# 1 0.024130 -0.002384 -0.005238 -0.003079 -0.007323 0.008798
# 2 -0.002384 0.011479 -0.010201 -0.004765 0.009858 -0.016391
# 3 -0.005238 -0.010201 0.029518 0.004682 -0.011814 0.027429
# 4 -0.003079 -0.004765 0.004682 0.018894 -0.004848 0.005867
# 5 -0.007323 0.009858 -0.011814 -0.004848 0.067717 -0.043418
# 6 0.008798 -0.016391 0.027429 0.005867 -0.043418 0.088881
#
#
# Mechanical properties :
#
#
# Convention : Reuss Voigt Hill
#
# Bulk Modulus (GPa) = 33.92029 52.66530 43.29280
# Shear Modulus (GPa) = 17.47692 34.17993 25.82842
#
# Velocity S-wave (km/s) = 2.78684 3.89731 3.38789
# Velocity P-wave (km/s) = 5.04272 6.60725 5.87728
#
# Compressibility (1/GPa) = 0.02948088
#
# Stress axis : x y z
#
# Youngs Moduli (GPa) = 41.44265 87.11493 33.87790
#
# Poissons Ratio (x) = 0.20766 0.17744
# Poissons Ratio (y) = 0.09879 0.34560
# Poissons Ratio (z) = 0.21706 0.88869
#
# Static dielectric constant tensor:
#      x y z
#    x 1.892800 -0.020160 -0.044160 
#    y -0.020160 1.906350 -0.009830 
#    z -0.044160 -0.009830 1.948910 
# 
# From -- ./inp_files/374159.got.cif
#   From: 2010.05.17/outbox.cif.g08.bks.cpg/sg2_188_cif.got.tgz:374159.got - 2010.06.03 11:33:40.
