data_PCOD9092228
_publ_section_title
;
Structure prediction by ZEFSAII (Michael W. Deem and Ramdas Pophale) SiO2 
 PCOD9092228
Probable space group: P -1
;
_chemical_formula_sum "Si O2"
_cell_formula_units_Z 15
_cell_length_a 13.650012
_cell_length_b 6.853602
_cell_length_c 12.284861
_cell_angle_alpha 47.437816
_cell_angle_beta 56.873058
_cell_angle_gamma 72.254199
_cell_volume 704.972442
_symmetry_space_group_name_H-M "P -1"
_symmetry_group_IT_number 2
_symmetry_cell_setting 'triclinic'
loop_
_space_group_symop_operation_xyz
x,y,z
-x,-y,-z
loop_
_atom_site_type_symbol
_atom_site_label
_atom_site_fract_x
_atom_site_fract_y
_atom_site_fract_z
Si Si1 0.132168 0.394507 0.059753
Si Si2 0.368307 0.734820 0.789781
Si Si3 0.860490 0.945233 0.608751
Si Si4 0.500000 0.500000 0.000000
Si Si5 0.307806 0.294463 0.365405
Si Si6 0.074991 0.258223 0.906592
Si Si7 0.543829 0.217773 0.513820
Si Si8 0.725283 0.469065 0.468690
O O1 0.171028 0.209813 0.201743
O O2 0.010757 0.506300 0.125589
O O3 0.230630 0.647013 0.890595
O O4 0.114570 0.237322 0.016001
O O5 0.412516 0.582531 0.923863
O O6 0.416925 0.044828 0.663485
O O7 0.430051 0.658813 0.667746
O O8 0.814682 0.774143 0.596559
O O9 0.791475 0.205068 0.546260
O O10 0.000000 0.000000 0.500000
O O11 0.608912 0.526159 0.835047
O O12 0.370279 0.023510 0.444452
O O13 0.291786 0.414856 0.446632
O O14 0.187905 0.345532 0.731503
O O15 0.000000 0.000000 0.000000
O O16 0.599491 0.394148 0.513182
#
# Coordination Sequence:
#
# PCOD9092228 Si02
#       8
#     2   2   2   1   2   2   2   2
#     4  11  23  44  66  92 133 174 209 270 322 377
#     4  10  19  40  68  88 125 169 213 257 322 383
#     4  11  23  41  63  92 131 175 212 261 327 379
#     4  10  20  42  62  90 124 164 208 260 322 370
#     4  10  23  39  66  88 128 166 209 270 316 384
#     4  11  26  40  65  98 131 168 219 267 317 383
#     4   9  21  41  64  91 123 168 209 265 325 375
#     4  11  23  42  63  97 126 168 222 261 321 389
#
# _framework density 21.277428
#
# number of rings (size 3 to 8) (size 9 to 14) (size 15 to 20)
#    0.000    1.600    4.000    0.000    3.733    1.600 
#    0.000   14.667    0.000    0.000    0.000    0.000 
#    0.000    0.000    0.000    0.000    0.000    0.000 
#
# Total GULP energy -83553.871428 kJ/mol
# GULP energy per Si atom -5570.258095 kJ/mol
# Density = 2.122900 g / cm^3
# Si number density = 21.277428 Si / 1000 Ang^3
#
#
#
# Elastic Constant Matrix: (Units=GPa)
#
#
# Indices 1 2 3 4 5 6 
#
# 1 122.1642 44.2246 49.6633 10.5029 -6.9930 36.3930
# 2 44.2246 126.5885 56.4180 19.3785 0.0846 50.5081
# 3 49.6633 56.4180 124.3325 26.8918 -2.1782 27.8616
# 4 10.5029 19.3785 26.8918 32.9191 7.0066 3.3229
# 5 -6.9930 0.0846 -2.1782 7.0066 56.0692 3.9446
# 6 36.3930 50.5081 27.8616 3.3229 3.9446 43.0974
#
#
#
# Elastic Compliance Matrix: (Units=1/GPa)
#
#
# Indices 1 2 3 4 5 6 
#
# 1 0.012115 0.001265 -0.002721 -0.001874 0.002343 -0.010024
# 2 0.001265 0.017481 -0.002436 -0.007216 0.002320 -0.019637
# 3 -0.002721 -0.002436 0.012532 -0.007969 0.001320 -0.002456
# 4 -0.001874 -0.007216 -0.007969 0.041880 -0.006650 0.012571
# 5 0.002343 0.002320 0.001320 -0.006650 0.019486 -0.006821
# 6 -0.010024 -0.019637 -0.002456 0.012571 -0.006821 0.055924
#
#
# Mechanical properties :
#
#
# Convention : Reuss Voigt Hill
#
# Bulk Modulus (GPa) = 29.11604 74.85525 51.98564
# Shear Modulus (GPa) = 27.98773 41.26908 34.62840
#
# Velocity S-wave (km/s) = 3.63074 4.40883 4.03857
# Velocity P-wave (km/s) = 5.59375 7.82138 6.79942
#
# Compressibility (1/GPa) = 0.03434533
#
# Stress axis : x y z
#
# Youngs Moduli (GPa) = 82.54069 57.20377 79.79594
#
# Poissons Ratio (x) = -0.07235 0.21709
# Poissons Ratio (y) = -0.10440 0.19438
# Poissons Ratio (z) = 0.22455 0.13935
#
# Static dielectric constant tensor:
#      x y z
#    x 1.792020 -0.018300 -0.017560 
#    y -0.018300 1.793150 -0.048880 
#    z -0.017560 -0.048880 1.772550 
# 
# From -- ./inp_files/364774.got.cif
#   From: 2010.05.17/outbox.cif.g08.bks.cpg/sg2_183_cif.got.tgz:364774.got - 2010.06.03 11:33:40.
