data_PCOD9092316
_publ_section_title
;
Structure prediction by ZEFSAII (Michael W. Deem and Ramdas Pophale) SiO2 
 PCOD9092316
Probable space group: P -1
;
_chemical_formula_sum "Si O2"
_cell_formula_units_Z 16
_cell_length_a 12.128208
_cell_length_b 14.824308
_cell_length_c 9.512911
_cell_angle_alpha 46.147099
_cell_angle_beta 55.309780
_cell_angle_gamma 30.970883
_cell_volume 633.264071
_symmetry_space_group_name_H-M "P -1"
_symmetry_group_IT_number 2
_symmetry_cell_setting 'triclinic'
loop_
_space_group_symop_operation_xyz
x,y,z
-x,-y,-z
loop_
_atom_site_type_symbol
_atom_site_label
_atom_site_fract_x
_atom_site_fract_y
_atom_site_fract_z
Si Si1 0.565424 0.213548 0.033386
Si Si2 0.752250 0.331894 0.472165
Si Si3 0.711104 0.787619 0.651069
Si Si4 0.901550 0.754376 0.299927
Si Si5 0.330114 0.871223 0.284636
Si Si6 0.834096 0.234167 0.837906
Si Si7 0.936893 0.716042 0.835201
Si Si8 0.306800 0.228916 0.830732
O O1 0.351962 0.303706 0.148849
O O2 0.747282 0.983997 0.204047
O O3 0.611673 0.172582 0.876486
O O4 0.609916 0.323742 0.925434
O O5 0.500000 0.500000 0.500000
O O6 0.780869 0.178006 0.541593
O O7 0.854993 0.254245 0.636549
O O8 0.838415 0.389789 0.265684
O O9 0.894738 0.665224 0.532209
O O10 0.783985 0.813428 0.704927
O O11 0.500000 0.000000 0.500000
O O12 0.789786 0.766606 0.239574
O O13 0.120558 0.672238 0.209677
O O14 0.560423 0.740832 0.327216
O O15 0.158963 0.101779 0.197432
O O16 0.000000 0.000000 0.000000
O O17 0.877904 0.637789 0.058749
O O18 0.500000 0.000000 0.000000
#
# Coordination Sequence:
#
# PCOD9092316 Si02
#       8
#     2   2   2   2   2   2   2   2
#     4   9  15  27  46  78 115 138 174 238 287 334
#     4  11  24  40  57  85 125 161 195 241 295 355
#     4  10  17  26  48  85 119 139 183 244 299 331
#     4  10  16  29  47  81 116 145 180 238 293 338
#     4  10  18  34  56  84 116 148 193 242 295 342
#     4   9  19  33  55  81 111 149 195 241 287 331
#     4  11  19  34  57  88 116 151 199 244 292 346
#     4  10  17  31  54  85 121 147 185 252 304 335
#
# _framework density 25.265920999999999
#
# number of rings (size 3 to 8) (size 9 to 14) (size 15 to 20)
#    0.000    2.000    5.000    2.625    0.000    0.000 
#    0.000    0.625    0.000    1.500    0.000    0.000 
#    0.000    0.000    0.000    0.000    0.000    0.000 
#
# Total GULP energy -89293.731709 kJ/mol
# GULP energy per Si atom -5580.858232 kJ/mol
# Density = 2.520841 g / cm^3
# Si number density = 25.265921 Si / 1000 Ang^3
#
#
#
# Elastic Constant Matrix: (Units=GPa)
#
#
# Indices 1 2 3 4 5 6 
#
# 1 163.0944 9.8410 67.3100 12.8870 -16.6242 -44.2554
# 2 9.8410 69.0143 23.5258 10.8284 -8.6395 -11.1983
# 3 67.3100 23.5258 149.1395 13.5788 -19.1922 -19.4328
# 4 12.8870 10.8284 13.5788 38.2598 -11.8294 -13.3816
# 5 -16.6242 -8.6395 -19.1922 -11.8294 49.3616 8.8496
# 6 -44.2554 -11.1983 -19.4328 -13.3816 8.8496 29.1321
#
#
#
# Elastic Compliance Matrix: (Units=1/GPa)
#
#
# Indices 1 2 3 4 5 6 
#
# 1 0.012312 0.002052 -0.003714 0.003158 0.000537 0.018302
# 2 0.002052 0.016510 -0.002354 -0.001861 0.001013 0.006731
# 3 -0.003714 -0.002354 0.008871 -0.001296 0.001793 -0.001769
# 4 0.003158 -0.001861 -0.001296 0.033655 0.005236 0.017086
# 5 0.000537 0.001013 0.001793 0.005236 0.022957 -0.002167
# 6 0.018302 0.006731 -0.001769 0.017086 -0.002167 0.072043
#
#
# Mechanical properties :
#
#
# Convention : Reuss Voigt Hill
#
# Bulk Modulus (GPa) = 33.71356 64.73354 49.22355
# Shear Modulus (GPa) = 27.13458 42.05546 34.59502
#
# Velocity S-wave (km/s) = 3.28069 4.08427 3.70433
# Velocity P-wave (km/s) = 5.26526 6.92230 6.14985
#
# Compressibility (1/GPa) = 0.02966166
#
# Stress axis : x y z
#
# Youngs Moduli (GPa) = 81.22318 60.56758 112.72997
#
# Poissons Ratio (x) = -0.12428 0.41867
# Poissons Ratio (y) = -0.16666 0.26533
# Poissons Ratio (z) = 0.30166 0.14255
#
# Static dielectric constant tensor:
#      x y z
#    x 2.229790 0.085850 -0.154750 
#    y 0.085850 2.349280 -0.058480 
#    z -0.154750 -0.058480 2.090650 
# 
# From -- ./inp_files/277561.got.cif
#   From: 2010.05.17/outbox.cif.g08.bks.cpg/sg2_139_cif.got.tgz:277561.got - 2010.06.03 11:33:40.
