data_PCOD9092782
_publ_section_title
;
Structure prediction by ZEFSAII (Michael W. Deem and Ramdas Pophale) SiO2 
 PCOD9092782
Probable space group: P -1
;
_chemical_formula_sum "Si O2"
_cell_formula_units_Z 12
_cell_length_a 7.572452
_cell_length_b 13.672945
_cell_length_c 10.738739
_cell_angle_alpha 145.071438
_cell_angle_beta 58.897475
_cell_angle_gamma 106.776767
_cell_volume 524.053179
_symmetry_space_group_name_H-M "P -1"
_symmetry_group_IT_number 2
_symmetry_cell_setting 'triclinic'
loop_
_space_group_symop_operation_xyz
x,y,z
-x,-y,-z
loop_
_atom_site_type_symbol
_atom_site_label
_atom_site_fract_x
_atom_site_fract_y
_atom_site_fract_z
Si Si1 0.085083 0.439698 0.768367
Si Si2 0.654719 0.009610 0.339103
Si Si3 0.089322 0.737516 0.887215
Si Si4 0.327144 0.598385 0.266720
Si Si5 0.720275 0.680423 0.811898
Si Si6 0.460561 0.204596 0.263069
O O1 0.126030 0.608257 0.857085
O O2 0.301270 0.279241 0.512835
O O3 0.901392 0.385950 0.699313
O O4 0.000000 0.500000 0.000000
O O5 0.500000 0.000000 0.500000
O O6 0.642959 0.209427 0.516647
O O7 0.606236 0.878975 0.114762
O O8 0.905909 0.914837 0.178873
O O9 0.305791 0.766021 0.786724
O O10 0.965275 0.665723 0.746904
O O11 0.352036 0.465821 0.235526
O O12 0.500000 0.500000 0.000000
O O13 0.664183 0.682990 0.691844
O O14 0.500000 0.000000 0.000000
#
# Coordination Sequence:
#
# PCOD9092782 Si02
#       6
#     2   2   2   2   2   2
#     4  11  26  47  69 107 145 188 246 302 357 433
#     4  10  19  42  69 106 146 185 243 293 354 433
#     4   9  23  46  69 103 144 185 238 297 360 421
#     4  11  21  42  71 104 140 193 236 294 371 420
#     4   9  24  44  70 104 142 187 243 292 357 430
#     4  12  26  48  71 109 144 194 243 296 368 429
#
# _framework density 22.898439
#
# number of rings (size 3 to 8) (size 9 to 14) (size 15 to 20)
#    1.000    0.667    1.667    1.500    2.333    6.000 
#    6.000    2.500    0.000    0.000    0.000    0.000 
#    0.000    0.000    0.000    0.000    0.000    0.000 
#
# Total GULP energy -67140.853934 kJ/mol
# GULP energy per Si atom -5595.071161 kJ/mol
# Density = 2.284632 g / cm^3
# Si number density = 22.898439 Si / 1000 Ang^3
#
#
#
# Elastic Constant Matrix: (Units=GPa)
#
#
# Indices 1 2 3 4 5 6 
#
# 1 93.3424 48.6605 41.5729 -10.2117 -16.6500 8.1566
# 2 48.6605 138.2286 90.2001 12.8192 0.3259 15.7642
# 3 41.5729 90.2001 190.8780 -0.0381 -14.4123 7.5959
# 4 -10.2117 12.8192 -0.0381 56.2429 6.2573 -3.5158
# 5 -16.6500 0.3259 -14.4123 6.2573 39.2438 -9.0886
# 6 8.1566 15.7642 7.5959 -3.5158 -9.0886 38.7614
#
#
#
# Elastic Compliance Matrix: (Units=1/GPa)
#
#
# Indices 1 2 3 4 5 6 
#
# 1 0.015104 -0.005601 -0.000221 0.003402 0.006032 0.000866
# 2 -0.005601 0.013669 -0.005424 -0.003884 -0.004983 -0.004839
# 3 -0.000221 -0.005424 0.008025 0.000951 0.003092 0.001491
# 4 0.003402 -0.003884 0.000951 0.019510 -0.000761 0.002269
# 5 0.006032 -0.004983 0.003092 -0.000761 0.031044 0.007362
# 6 0.000866 -0.004839 0.001491 0.002269 0.007362 0.029224
#
#
# Mechanical properties :
#
#
# Convention : Reuss Voigt Hill
#
# Bulk Modulus (GPa) = 69.90447 87.03509 78.46978
# Shear Modulus (GPa) = 34.76138 42.98397 38.87268
#
# Velocity S-wave (km/s) = 3.90047 4.33732 4.12468
# Velocity P-wave (km/s) = 7.13296 7.94826 7.55162
#
# Compressibility (1/GPa) = 0.01430524
#
# Stress axis : x y z
#
# Youngs Moduli (GPa) = 66.20697 73.15589 124.61700
#
# Poissons Ratio (x) = 0.40977 0.02755
# Poissons Ratio (y) = 0.37084 0.67593
# Poissons Ratio (z) = 0.01464 0.39680
#
# Static dielectric constant tensor:
#      x y z
#    x 1.885960 -0.019890 -0.005780 
#    y -0.019890 1.811300 0.007050 
#    z -0.005780 0.007050 1.900280 
# 
# From -- ./inp_files/399885.got.cif
#   From: 2010.05.17/outbox.cif.g08.bks.cpg/sg2_200_cif.got.tgz:399885.got - 2010.06.03 11:33:40.
