data_PCOD9092845
_publ_section_title
;
Structure prediction by ZEFSAII (Michael W. Deem and Ramdas Pophale) SiO2 
 PCOD9092845
Probable space group: P -1
;
_chemical_formula_sum "Si O2"
_cell_formula_units_Z 14
_cell_length_a 12.017108
_cell_length_b 8.566132
_cell_length_c 15.981207
_cell_angle_alpha 73.429401
_cell_angle_beta 67.048696
_cell_angle_gamma 131.514445
_cell_volume 697.693949
_symmetry_space_group_name_H-M "P -1"
_symmetry_group_IT_number 2
_symmetry_cell_setting 'triclinic'
loop_
_space_group_symop_operation_xyz
x,y,z
-x,-y,-z
loop_
_atom_site_type_symbol
_atom_site_label
_atom_site_fract_x
_atom_site_fract_y
_atom_site_fract_z
Si Si1 0.261424 0.709610 0.879996
Si Si2 0.004274 0.321587 0.561818
Si Si3 0.530596 0.973324 0.400181
Si Si4 0.393987 0.403868 0.159191
Si Si5 0.814766 0.711767 0.934418
Si Si6 0.658581 0.456884 0.682915
Si Si7 0.355565 0.239721 0.654442
O O1 0.340183 0.765051 0.751379
O O2 0.479495 0.086255 0.792333
O O3 0.247841 0.531804 0.965417
O O4 0.000000 0.500000 0.000000
O O5 0.245992 0.600302 0.509489
O O6 0.075782 0.290529 0.467716
O O7 0.000000 0.500000 0.500000
O O8 0.765436 0.953750 0.731337
O O9 0.688191 0.992382 0.336807
O O10 0.500000 0.000000 0.500000
O O11 0.316803 0.408850 0.097550
O O12 0.330761 0.443572 0.248251
O O13 0.688280 0.704348 0.027537
O O14 0.110155 0.049937 0.780337
O O15 0.527515 0.416415 0.658273
O O16 0.500000 0.500000 0.500000
#
# Coordination Sequence:
#
# PCOD9092845 Si02
#       7
#     2   2   2   2   2   2   2
#     4  10  19  43  63  89 128 161 210 263 319 364
#     4  10  21  42  63  87 131 166 205 262 318 376
#     4  10  22  39  64  95 115 159 217 259 305 375
#     4  11  24  39  59  97 127 164 215 253 326 382
#     4  11  22  41  61  85 134 169 203 271 317 380
#     4  10  22  39  63  91 121 166 216 260 311 381
#     4  10  21  40  60  86 123 164 208 265 316 363
#
# _framework density 20.066103999999999
#
# number of rings (size 3 to 8) (size 9 to 14) (size 15 to 20)
#    0.000    2.000    2.857    3.857    0.000    4.571 
#    7.714    0.000    0.000    0.000    0.000    0.000 
#    0.000    0.000    0.000    0.000    0.000    0.000 
#
# Total GULP energy -78051.119335 kJ/mol
# GULP energy per Si atom -5575.079952 kJ/mol
# Density = 2.002043 g / cm^3
# Si number density = 20.066104 Si / 1000 Ang^3
#
#
#
# Elastic Constant Matrix: (Units=GPa)
#
#
# Indices 1 2 3 4 5 6 
#
# 1 111.5248 3.1631 45.0337 12.5929 3.3293 -3.2255
# 2 3.1631 45.3868 20.9571 31.4035 3.7712 -4.1263
# 3 45.0337 20.9571 134.1274 12.4931 6.3353 -1.2094
# 4 12.5929 31.4035 12.4931 34.5478 -1.9848 -3.2558
# 5 3.3293 3.7712 6.3353 -1.9848 52.6721 1.2783
# 6 -3.2255 -4.1263 -1.2094 -3.2558 1.2783 7.7897
#
#
#
# Elastic Compliance Matrix: (Units=1/GPa)
#
#
# Indices 1 2 3 4 5 6 
#
# 1 0.011820 0.009053 -0.004285 -0.010614 -0.001397 0.004817
# 2 0.009053 0.071765 -0.007727 -0.064786 -0.007580 0.014730
# 3 -0.004285 -0.007727 0.009631 0.004879 -0.000094 -0.002317
# 4 -0.010614 -0.064786 0.004879 0.090261 0.008162 -0.001570
# 5 -0.001397 -0.007580 -0.000094 0.008162 0.020044 -0.004486
# 6 0.004817 0.014730 -0.002317 -0.001570 -0.004486 0.137893
#
#
# Mechanical properties :
#
#
# Convention : Reuss Voigt Hill
#
# Bulk Modulus (GPa) = 11.45525 47.70518 29.58022
# Shear Modulus (GPa) = 13.28265 33.79426 23.53845
#
# Velocity S-wave (km/s) = 2.57562 4.10829 3.42869
# Velocity P-wave (km/s) = 3.81657 6.80659 5.51797
#
# Compressibility (1/GPa) = 0.08729623
#
# Stress axis : x y z
#
# Youngs Moduli (GPa) = 84.60532 13.93433 103.83458
#
# Poissons Ratio (x) = -0.12614 0.44492
# Poissons Ratio (y) = -0.76590 0.80236
# Poissons Ratio (z) = 0.36252 0.10767
#
# Static dielectric constant tensor:
#      x y z
#    x 1.744690 -0.025980 -0.002430 
#    y -0.025980 1.714100 -0.025510 
#    z -0.002430 -0.025510 1.804430 
# 
# From -- ./inp_files/199015.got.cif
#   From: 2010.05.17/outbox.cif.g08.bks.cpg/sg2_100_cif.got.tgz:199015.got - 2010.06.03 11:33:40.
