data_PCOD9092214
_publ_section_title
;
Structure prediction by ZEFSAII (Michael W. Deem and Ramdas Pophale) SiO2 
 PCOD9092214
Probable space group: P -1
;
_chemical_formula_sum "Si O2"
_cell_formula_units_Z 16
_cell_length_a 5.243514
_cell_length_b 18.464884
_cell_length_c 11.581752
_cell_angle_alpha 140.529946
_cell_angle_beta 106.245759
_cell_angle_gamma 67.590931
_cell_volume 658.788192
_symmetry_space_group_name_H-M "P -1"
_symmetry_group_IT_number 2
_symmetry_cell_setting 'triclinic'
loop_
_space_group_symop_operation_xyz
x,y,z
-x,-y,-z
loop_
_atom_site_type_symbol
_atom_site_label
_atom_site_fract_x
_atom_site_fract_y
_atom_site_fract_z
Si Si1 0.715983 0.417640 0.182852
Si Si2 0.940845 0.264127 0.467609
Si Si3 0.885163 0.093343 0.432326
Si Si4 0.702095 0.920619 0.336478
Si Si5 0.058045 0.495930 0.138029
Si Si6 0.195844 0.011516 0.144935
Si Si7 0.488267 0.234145 0.047468
Si Si8 0.409115 0.397560 0.426996
O O1 0.387744 0.458194 0.157483
O O2 0.717693 0.298628 0.109753
O O3 0.768422 0.526390 0.400131
O O4 0.897963 0.415910 0.089863
O O5 0.807081 0.212174 0.495872
O O6 0.180969 0.152105 0.311940
O O7 0.045639 0.370988 0.660490
O O8 0.690534 0.310186 0.404385
O O9 0.018279 0.115421 0.597998
O O10 0.079992 0.008505 0.257637
O O11 0.688166 0.015578 0.349738
O O12 0.500000 0.000000 0.500000
O O13 0.634715 0.808002 0.134944
O O14 0.000000 0.500000 0.000000
O O15 0.421592 0.886517 0.015362
O O16 0.000000 0.000000 0.000000
O O17 0.298657 0.327216 0.227176
O O18 0.500000 0.500000 0.500000
#
# Coordination Sequence:
#
# PCOD9092214 Si02
#       8
#     2   2   2   2   2   2   2   2
#     4  10  25  44  71 102 138 184 236 295 348 408
#     4   9  20  41  63  95 140 176 224 291 349 408
#     4   9  22  39  59  95 135 173 219 277 341 405
#     4  11  21  39  61  92 136 175 222 273 339 416
#     4  11  24  47  70 102 137 188 239 287 349 418
#     4  10  19  40  67  97 135 176 222 285 352 416
#     4  11  21  40  68 102 134 183 234 280 356 427
#     4   9  19  42  66  97 138 177 235 290 347 416
#
# _framework density 24.287015
#
# number of rings (size 3 to 8) (size 9 to 14) (size 15 to 20)
#    0.750    1.250    2.500    0.375    1.750    2.000 
#   11.250   16.875    0.000    0.000    0.000    0.000 
#    0.000    0.000    0.000    0.000    0.000    0.000 
#
# Total GULP energy -89153.826694 kJ/mol
# GULP energy per Si atom -5572.114168 kJ/mol
# Density = 2.423174 g / cm^3
# Si number density = 24.287015 Si / 1000 Ang^3
#
#
#
# Elastic Constant Matrix: (Units=GPa)
#
#
# Indices 1 2 3 4 5 6 
#
# 1 64.2547 28.8737 35.8631 6.1441 1.2511 13.1652
# 2 28.8737 134.3815 38.6267 6.6212 4.1788 -3.3018
# 3 35.8631 38.6267 187.1730 4.8743 15.7101 -7.1873
# 4 6.1441 6.6212 4.8743 46.1128 -5.8423 -4.4317
# 5 1.2511 4.1788 15.7101 -5.8423 30.2286 4.4326
# 6 13.1652 -3.3018 -7.1873 -4.4317 4.4326 34.9049
#
#
#
# Elastic Compliance Matrix: (Units=1/GPa)
#
#
# Indices 1 2 3 4 5 6 
#
# 1 0.021668 -0.003730 -0.003919 -0.002565 0.002625 -0.009991
# 2 -0.003730 0.008607 -0.000883 -0.000570 -0.000994 0.002093
# 3 -0.003919 -0.000883 0.006718 -0.000223 -0.003723 0.003222
# 4 -0.002565 -0.000570 -0.000223 0.022986 0.004268 0.003244
# 5 0.002625 -0.000994 -0.003723 0.004268 0.036746 -0.005975
# 6 -0.009991 0.002093 0.003222 0.003244 -0.005975 0.034450
#
#
# Mechanical properties :
#
#
# Convention : Reuss Voigt Hill
#
# Bulk Modulus (GPa) = 50.17846 65.83735 58.00791
# Shear Modulus (GPa) = 32.28292 41.07898 36.68095
#
# Velocity S-wave (km/s) = 3.64981 4.11712 3.89049
# Velocity P-wave (km/s) = 6.20217 7.05463 6.64209
#
# Compressibility (1/GPa) = 0.01992887
#
# Stress axis : x y z
#
# Youngs Moduli (GPa) = 46.15148 116.18265 148.85869
#
# Poissons Ratio (x) = 0.43334 0.58339
# Poissons Ratio (y) = 0.17214 0.13144
# Poissons Ratio (z) = 0.18087 0.10258
#
# Static dielectric constant tensor:
#      x y z
#    x 2.469240 -0.144190 0.470630 
#    y -0.144190 1.984180 -0.078800 
#    z 0.470630 -0.078800 2.445620 
# 
# From -- ./inp_files/369172.got.cif
#   From: 2010.05.17/outbox.cif.g08.bks.cpg/sg2_185_cif.got.tgz:369172.got - 2010.06.03 11:33:40.
