data_PCOD9092158
_publ_section_title
;
Structure prediction by ZEFSAII (Michael W. Deem and Ramdas Pophale) SiO2 
 PCOD9092158
Probable space group: P -1
;
_chemical_formula_sum "Si O2"
_cell_formula_units_Z 16
_cell_length_a 15.072368
_cell_length_b 23.527013
_cell_length_c 17.425677
_cell_angle_alpha 18.159524
_cell_angle_beta 154.307966
_cell_angle_gamma 160.296366
_cell_volume 648.038473
_symmetry_space_group_name_H-M "P -1"
_symmetry_group_IT_number 2
_symmetry_cell_setting 'triclinic'
loop_
_space_group_symop_operation_xyz
x,y,z
-x,-y,-z
loop_
_atom_site_type_symbol
_atom_site_label
_atom_site_fract_x
_atom_site_fract_y
_atom_site_fract_z
Si Si1 0.548580 0.192113 0.567175
Si Si2 0.941210 0.572714 0.593968
Si Si3 0.710908 0.686562 0.024193
Si Si4 0.501812 0.679832 0.322014
Si Si5 0.063370 0.793632 0.028057
Si Si6 0.654722 0.347104 0.102762
Si Si7 0.809793 0.087890 0.787711
Si Si8 0.913254 0.310456 0.107609
O O1 0.602370 0.434981 0.296019
O O2 0.745738 0.211397 0.758283
O O3 0.661380 0.174787 0.598506
O O4 0.249601 0.956052 0.647782
O O5 0.645805 0.442921 0.556484
O O6 0.967568 0.372253 0.850023
O O7 0.147583 0.708952 0.650335
O O8 0.024623 0.742874 0.370765
O O9 0.799401 0.704688 0.982015
O O10 0.990397 0.883797 0.031158
O O11 0.495826 0.701348 0.871718
O O12 0.500000 0.500000 0.500000
O O13 0.309645 0.711217 0.087699
O O14 0.777681 0.936626 0.217394
O O15 0.418314 0.169577 0.088979
O O16 0.843974 0.586817 0.893041
O O17 0.000000 0.500000 0.000000
#
# Coordination Sequence:
#
# PCOD9092158 Si02
#       8
#     2   2   2   2   2   2   2   2
#     4  10  19  40  67  85 115 162 209 240 290 361
#     4  11  22  41  60  85 128 161 192 244 312 355
#     4  11  22  39  64  93 116 155 214 244 286 355
#     4  10  24  40  62  91 117 157 209 243 293 362
#     4  10  20  41  63  86 122 162 197 246 297 356
#     4  11  25  37  57  96 123 155 198 252 304 347
#     4  11  20  40  65  84 119 164 201 245 299 354
#     4  10  21  42  62  83 124 159 192 248 305 345
#
# _framework density 24.689893000000001
#
# number of rings (size 3 to 8) (size 9 to 14) (size 15 to 20)
#    0.000    1.500    3.750    1.875    1.750    2.000 
#    2.250    0.000    0.000    0.000    0.000    0.000 
#    0.000    0.000    0.000    0.000    0.000    0.000 
#
# Total GULP energy -89476.402471 kJ/mol
# GULP energy per Si atom -5592.275154 kJ/mol
# Density = 2.463370 g / cm^3
# Si number density = 24.689893 Si / 1000 Ang^3
#
#
#
# Elastic Constant Matrix: (Units=GPa)
#
#
# Indices 1 2 3 4 5 6 
#
# 1 86.3216 34.2505 2.4847 -18.4454 -13.9248 17.5940
# 2 34.2505 107.4501 29.3080 -27.2174 -6.9558 15.2138
# 3 2.4847 29.3080 37.8616 -19.8786 -6.2790 12.2700
# 4 -18.4454 -27.2174 -19.8786 35.1050 2.3197 -10.4704
# 5 -13.9248 -6.9558 -6.2790 2.3197 33.7681 -9.1304
# 6 17.5940 15.2138 12.2700 -10.4704 -9.1304 35.3865
#
#
#
# Elastic Compliance Matrix: (Units=1/GPa)
#
#
# Indices 1 2 3 4 5 6 
#
# 1 0.017240 -0.004785 0.010143 0.008954 0.005803 -0.005885
# 2 -0.004785 0.014061 -0.009003 0.003419 -0.000924 0.000229
# 3 0.010143 -0.009003 0.048957 0.022746 0.007291 -0.009537
# 4 0.008954 0.003419 0.022746 0.048990 0.005855 0.002198
# 5 0.005803 -0.000924 0.007291 0.005855 0.034273 0.005559
# 6 -0.005885 0.000229 -0.009537 0.002198 0.005559 0.036478
#
#
# Mechanical properties :
#
#
# Convention : Reuss Voigt Hill
#
# Bulk Modulus (GPa) = 13.70441 40.41331 27.05886
# Shear Modulus (GPa) = 21.58768 31.89124 26.73946
#
# Velocity S-wave (km/s) = 2.96015 3.59788 3.29449
# Velocity P-wave (km/s) = 4.15283 5.80203 5.04527
#
# Compressibility (1/GPa) = 0.07296921
#
# Stress axis : x y z
#
# Youngs Moduli (GPa) = 58.00429 71.11649 20.42589
#
# Poissons Ratio (x) = 0.34031 -0.20718
# Poissons Ratio (y) = 0.27756 0.18389
# Poissons Ratio (z) = -0.58835 0.64026
#
# Static dielectric constant tensor:
#      x y z
#    x 2.018550 -0.044250 0.011050 
#    y -0.044250 1.954460 -0.021060 
#    z 0.011050 -0.021060 1.949950 
# 
# From -- ./inp_files/188538.got.cif
#   From: 2010.05.17/outbox.cif.g08.bks.cpg/sg2_95_cif.got.tgz:188538.got - 2010.06.03 11:33:40.
