data_PCOD9092155
_publ_section_title
;
Structure prediction by ZEFSAII (Michael W. Deem and Ramdas Pophale) SiO2 
 PCOD9092155
Probable space group: P -1
;
_chemical_formula_sum "Si O2"
_cell_formula_units_Z 16
_cell_length_a 13.133202
_cell_length_b 9.191376
_cell_length_c 15.603870
_cell_angle_alpha 48.570083
_cell_angle_beta 38.027734
_cell_angle_gamma 68.300787
_cell_volume 821.871581
_symmetry_space_group_name_H-M "P -1"
_symmetry_group_IT_number 2
_symmetry_cell_setting 'triclinic'
loop_
_space_group_symop_operation_xyz
x,y,z
-x,-y,-z
loop_
_atom_site_type_symbol
_atom_site_label
_atom_site_fract_x
_atom_site_fract_y
_atom_site_fract_z
Si Si1 0.040532 0.795859 0.441149
Si Si2 0.137286 0.389611 0.919389
Si Si3 0.241106 0.668330 0.584120
Si Si4 0.260475 0.514173 0.451950
Si Si5 0.879800 0.750598 0.732069
Si Si6 0.938634 0.927750 0.276625
Si Si7 0.404887 0.524512 0.844233
Si Si8 0.577667 0.980726 0.548885
O O1 0.150673 0.643420 0.431220
O O2 0.877618 0.701716 0.651181
O O3 0.012058 0.850717 0.342215
O O4 0.125464 0.019418 0.341344
O O5 0.183162 0.471131 0.761315
O O6 0.296961 0.477792 0.845045
O O7 0.000000 0.500000 0.000000
O O8 0.063799 0.141975 0.072147
O O9 0.319817 0.623415 0.460701
O O10 0.064588 0.728746 0.654580
O O11 0.385686 0.841235 0.475111
O O12 0.138916 0.280509 0.645221
O O13 0.414516 0.511111 0.287171
O O14 0.720671 0.610695 0.947955
O O15 0.770909 0.979523 0.400775
O O16 0.457392 0.760030 0.746648
O O17 0.500000 0.000000 0.500000
#
# Coordination Sequence:
#
# PCOD9092155 Si02
#       8
#     2   2   2   2   2   2   2   2
#     4  10  19  40  67  83 120 160 205 245 296 350
#     4  12  19  36  68  87 117 158 207 246 283 360
#     4  11  21  41  62  91 121 161 200 242 300 359
#     4  10  26  38  58  90 129 159 190 252 310 348
#     4  10  20  37  69  91 111 158 213 247 282 361
#     4  11  21  40  62  91 117 164 202 238 304 365
#     4  11  21  38  57  95 121 152 202 248 303 352
#     4  11  20  35  61  87 120 156 197 247 299 350
#
# _framework density 19.467763999999999
#
# number of rings (size 3 to 8) (size 9 to 14) (size 15 to 20)
#    0.000    1.250    6.250    0.375    0.000    1.500 
#    0.000    5.000    0.000    0.000    0.000    0.000 
#    0.000    0.000    0.000    0.000    0.000    0.000 
#
# Total GULP energy -89202.752463 kJ/mol
# GULP energy per Si atom -5575.172029 kJ/mol
# Density = 1.942345 g / cm^3
# Si number density = 19.467764 Si / 1000 Ang^3
#
#
#
# Elastic Constant Matrix: (Units=GPa)
#
#
# Indices 1 2 3 4 5 6 
#
# 1 51.3664 38.5278 28.9402 -16.5777 13.2548 3.3672
# 2 38.5278 85.1547 43.4531 -17.3581 3.3022 9.7946
# 3 28.9402 43.4531 110.9847 -15.9710 14.8076 0.6033
# 4 -16.5777 -17.3581 -15.9710 26.7422 2.5692 -3.2457
# 5 13.2548 3.3022 14.8076 2.5692 28.7355 -5.1321
# 6 3.3672 9.7946 0.6033 -3.2457 -5.1321 24.3523
#
#
#
# Elastic Compliance Matrix: (Units=1/GPa)
#
#
# Indices 1 2 3 4 5 6 
#
# 1 0.040598 -0.013759 -0.000095 0.017797 -0.018993 -0.001708
# 2 -0.013759 0.021252 -0.005326 0.000911 0.005638 -0.005204
# 3 -0.000095 -0.005326 0.012602 0.004737 -0.006047 0.001200
# 4 0.017797 0.000911 0.004737 0.053437 -0.015365 0.000940
# 5 -0.018993 0.005638 -0.006047 -0.015365 0.048971 0.008781
# 6 -0.001708 -0.005204 0.001200 0.000940 0.008781 0.045339
#
#
# Mechanical properties :
#
#
# Convention : Reuss Voigt Hill
#
# Bulk Modulus (GPa) = 27.70649 52.14980 39.92814
# Shear Modulus (GPa) = 18.34252 25.07164 21.70708
#
# Velocity S-wave (km/s) = 3.07286 3.59256 3.34282
# Velocity P-wave (km/s) = 5.18197 6.63736 5.95430
#
# Compressibility (1/GPa) = 0.03609263
#
# Stress axis : x y z
#
# Youngs Moduli (GPa) = 24.63147 47.05474 79.35170
#
# Poissons Ratio (x) = 0.64745 0.00753
# Poissons Ratio (y) = 0.33891 0.42259
# Poissons Ratio (z) = 0.00234 0.25059
#
# Static dielectric constant tensor:
#      x y z
#    x 1.608570 -0.029460 -0.020010 
#    y -0.029460 1.690270 -0.028630 
#    z -0.020010 -0.028630 1.697540 
# 
# From -- ./inp_files/237108.got.cif
#   From: 2010.05.17/outbox.cif.g08.bks.cpg/sg2_119_cif.got.tgz:237108.got - 2010.06.03 11:33:40.
