data_PCOD9092969
_publ_section_title
;
Structure prediction by ZEFSAII (Michael W. Deem and Ramdas Pophale) SiO2 
 PCOD9092969
Probable space group: P -1
;
_chemical_formula_sum "Si O2"
_cell_formula_units_Z 16
_cell_length_a 15.562609
_cell_length_b 11.439454
_cell_length_c 15.359507
_cell_angle_alpha 39.150557
_cell_angle_beta 46.351258
_cell_angle_gamma 34.796530
_cell_volume 974.308558
_symmetry_space_group_name_H-M "P -1"
_symmetry_group_IT_number 2
_symmetry_cell_setting 'triclinic'
loop_
_space_group_symop_operation_xyz
x,y,z
-x,-y,-z
loop_
_atom_site_type_symbol
_atom_site_label
_atom_site_fract_x
_atom_site_fract_y
_atom_site_fract_z
Si Si1 0.744007 0.777021 0.704177
Si Si2 0.749370 0.690126 0.342203
Si Si3 0.558843 0.819842 0.664068
Si Si4 0.497209 0.324453 0.543546
Si Si5 0.022667 0.637508 0.477034
Si Si6 0.606363 0.183775 0.357071
Si Si7 0.055793 0.036873 0.804563
Si Si8 0.986954 0.308130 0.879253
O O1 0.671278 0.692369 0.739852
O O2 0.873660 0.765949 0.568001
O O3 0.833684 0.579799 0.829407
O O4 0.609490 0.053101 0.657831
O O5 0.669280 0.602835 0.396188
O O6 0.835991 0.532608 0.459168
O O7 0.872073 0.692359 0.204006
O O8 0.607844 0.958995 0.312253
O O9 0.527662 0.685568 0.696654
O O10 0.621268 0.947047 0.501421
O O11 0.500000 0.500000 0.500000
O O12 0.557066 0.309464 0.412301
O O13 0.000000 0.500000 0.500000
O O14 0.025925 0.815215 0.311843
O O15 0.764225 0.107938 0.255534
O O16 0.010548 0.206624 0.822092
O O17 0.021181 0.860849 0.956218
#
# Coordination Sequence:
#
# PCOD9092969 Si02
#       8
#     2   2   2   2   2   2   2   2
#     4   9  18  30  51  74 102 130 166 200 255 296
#     4   9  18  31  52  76 104 126 164 204 258 298
#     4   9  15  26  50  73  98 128 160 199 258 295
#     4  10  21  34  55  75  94 128 177 226 245 272
#     4  11  16  27  51  79 101 130 163 198 247 301
#     4   9  16  27  49  72  96 128 161 206 241 294
#     4  11  18  29  48  77 116 128 161 189 249 321
#     4  10  20  29  47  79 109 140 149 193 253 314
#
# _framework density 16.421901999999999
#
# number of rings (size 3 to 8) (size 9 to 14) (size 15 to 20)
#    0.000    2.500    6.250    0.000    3.500    0.000 
#    0.000    3.125   11.000    1.500    0.000    0.000 
#    0.000    0.000    0.000    0.000    0.000    0.000 
#
# Total GULP energy -89069.389975 kJ/mol
# GULP energy per Si atom -5566.836873 kJ/mol
# Density = 1.638453 g / cm^3
# Si number density = 16.421902 Si / 1000 Ang^3
#
#
#
# Elastic Constant Matrix: (Units=GPa)
#
#
# Indices 1 2 3 4 5 6 
#
# 1 105.0991 52.0677 36.1693 -3.1367 -14.0326 -4.8406
# 2 52.0677 58.3297 26.5773 -4.1341 -5.9653 -10.1752
# 3 36.1693 26.5773 96.5261 -5.3460 -7.7801 -12.1473
# 4 -3.1367 -4.1341 -5.3460 16.0535 -3.9534 -1.7352
# 5 -14.0326 -5.9653 -7.7801 -3.9534 13.5595 1.4913
# 6 -4.8406 -10.1752 -12.1473 -1.7352 1.4913 33.6875
#
#
#
# Elastic Compliance Matrix: (Units=1/GPa)
#
#
# Indices 1 2 3 4 5 6 
#
# 1 0.019714 -0.015618 -0.002326 0.001939 0.013114 -0.003204
# 2 -0.015618 0.033601 -0.002349 0.005115 -0.002053 0.007412
# 3 -0.002326 -0.002349 0.013022 0.004922 0.005062 0.003681
# 4 0.001939 0.005115 0.004922 0.073117 0.027723 0.006137
# 5 0.013114 -0.002053 0.005062 0.027723 0.097382 0.000207
# 6 -0.003204 0.007412 0.003681 0.006137 0.000207 0.033098
#
#
# Mechanical properties :
#
#
# Convention : Reuss Voigt Hill
#
# Bulk Modulus (GPa) = 38.83196 54.39818 46.61507
# Shear Modulus (GPa) = 15.66890 22.33614 19.00252
#
# Velocity S-wave (km/s) = 3.09228 3.69201 3.40537
# Velocity P-wave (km/s) = 6.03716 7.16742 6.62643
#
# Compressibility (1/GPa) = 0.02575198
#
# Stress axis : x y z
#
# Youngs Moduli (GPa) = 50.72545 29.76066 76.79416
#
# Poissons Ratio (x) = 0.46481 0.17859
# Poissons Ratio (y) = 0.79225 0.18037
# Poissons Ratio (z) = 0.11796 0.06990
#
# Static dielectric constant tensor:
#      x y z
#    x 1.584640 -0.025400 0.023010 
#    y -0.025400 1.586140 -0.006230 
#    z 0.023010 -0.006230 1.574640 
# 
# From -- ./inp_files/530969.got.cif
#   From: 2010.05.17/outbox.cif.g08.bks.cpg/sg2_266_cif.got.tgz:530969.got - 2010.06.03 11:33:40.
