data_PCOD9092213
_publ_section_title
;
Structure prediction by ZEFSAII (Michael W. Deem and Ramdas Pophale) SiO2 
 PCOD9092213
Probable space group: P -1
;
_chemical_formula_sum "Si O2"
_cell_formula_units_Z 15
_cell_length_a 12.066356
_cell_length_b 17.515413
_cell_length_c 8.123825
_cell_angle_alpha 138.109724
_cell_angle_beta 42.432976
_cell_angle_gamma 141.425519
_cell_volume 662.696186
_symmetry_space_group_name_H-M "P -1"
_symmetry_group_IT_number 2
_symmetry_cell_setting 'triclinic'
loop_
_space_group_symop_operation_xyz
x,y,z
-x,-y,-z
loop_
_atom_site_type_symbol
_atom_site_label
_atom_site_fract_x
_atom_site_fract_y
_atom_site_fract_z
Si Si1 0.393676 0.352158 0.553231
Si Si2 0.147323 0.670550 0.287240
Si Si3 0.285146 0.945742 0.705348
Si Si4 0.000000 0.000000 0.000000
Si Si5 0.489870 0.351173 0.083924
Si Si6 0.722468 0.807123 0.246826
Si Si7 0.599431 0.122747 0.211475
Si Si8 0.808601 0.392043 0.230138
O O1 0.365737 0.306904 0.319266
O O2 0.388739 0.487203 0.782325
O O3 0.273687 0.251083 0.670085
O O4 0.613585 0.392848 0.414186
O O5 0.146542 0.804684 0.539886
O O6 0.974390 0.536482 0.339658
O O7 0.351561 0.692475 0.155522
O O8 0.133216 0.642864 0.063918
O O9 0.294094 0.916698 0.837079
O O10 0.500000 0.000000 0.500000
O O11 0.218146 0.044595 0.881910
O O12 0.076754 0.079220 0.864220
O O13 0.370052 0.307722 0.977023
O O14 0.574529 0.859673 0.509137
O O15 0.752797 0.267179 0.205458
O O16 0.500000 0.000000 0.000000
#
# Coordination Sequence:
#
# PCOD9092213 Si02
#       8
#     2   2   2   1   2   2   2   2
#     4   9  21  38  65  98 138 175 223 284 352 427
#     4  10  20  39  66  92 135 172 226 284 347 413
#     4  12  24  46  69  95 138 186 227 291 347 418
#     4  12  28  42  70 104 132 184 244 280 352 420
#     4  10  19  40  67  97 134 183 218 284 363 418
#     4  11  23  44  63  99 135 182 236 290 347 425
#     4  11  23  44  72  94 137 190 235 290 361 417
#     4   9  21  37  63 101 127 177 223 282 348 417
#
# _framework density 22.634809000000001
#
# number of rings (size 3 to 8) (size 9 to 14) (size 15 to 20)
#    0.000    1.600    2.667    1.200    1.867    3.733 
#    0.000    2.667    0.000    0.000    0.000    0.000 
#    0.000    0.000    0.000    0.000    0.000    0.000 
#
# Total GULP energy -83583.968806 kJ/mol
# GULP energy per Si atom -5572.264587 kJ/mol
# Density = 2.258329 g / cm^3
# Si number density = 22.634809 Si / 1000 Ang^3
#
#
#
# Elastic Constant Matrix: (Units=GPa)
#
#
# Indices 1 2 3 4 5 6 
#
# 1 67.7435 12.2103 9.3948 -5.8977 0.2452 -21.6394
# 2 12.2103 120.8858 20.4830 -19.9885 23.3593 -13.3217
# 3 9.3948 20.4830 52.3900 0.4201 15.5271 -3.1481
# 4 -5.8977 -19.9885 0.4201 35.9448 -0.9148 9.4938
# 5 0.2452 23.3593 15.5271 -0.9148 29.5756 2.4109
# 6 -21.6394 -13.3217 -3.1481 9.4938 2.4109 38.7028
#
#
#
# Elastic Compliance Matrix: (Units=1/GPa)
#
#
# Indices 1 2 3 4 5 6 
#
# 1 0.018370 -0.000430 -0.002797 0.000246 0.000866 0.009781
# 2 -0.000430 0.011372 -0.001861 0.005354 -0.008056 0.002711
# 3 -0.002797 -0.001861 0.023681 -0.002312 -0.011091 0.000980
# 4 0.000246 0.005354 -0.002312 0.032429 -0.001519 -0.006068
# 5 0.000866 -0.008056 -0.011091 -0.001519 0.046408 -0.005709
# 6 0.009781 0.002711 0.000980 -0.006068 -0.005709 0.034163
#
#
# Mechanical properties :
#
#
# Convention : Reuss Voigt Hill
#
# Bulk Modulus (GPa) = 23.12367 36.13282 29.62824
# Shear Modulus (GPa) = 26.17585 34.10672 30.14128
#
# Velocity S-wave (km/s) = 3.40434 3.88600 3.65312
# Velocity P-wave (km/s) = 5.06862 6.01105 5.55983
#
# Compressibility (1/GPa) = 0.04324573
#
# Stress axis : x y z
#
# Youngs Moduli (GPa) = 54.43783 87.93622 42.22753
#
# Poissons Ratio (x) = 0.03785 0.11810
# Poissons Ratio (y) = 0.02343 0.07860
# Poissons Ratio (z) = 0.15225 0.16367
#
# Static dielectric constant tensor:
#      x y z
#    x 1.904470 -0.068950 -0.068920 
#    y -0.068950 1.977870 0.066750 
#    z -0.068920 0.066750 1.969080 
# 
# From -- ./inp_files/280043.got.cif
#   From: 2010.05.17/outbox.cif.g08.bks.cpg/sg2_141_cif.got.tgz:280043.got - 2010.06.03 11:33:40.
