data_PCOD9092265
_publ_section_title
;
Structure prediction by ZEFSAII (Michael W. Deem and Ramdas Pophale) SiO2 
 PCOD9092265
Probable space group: P -1
;
_chemical_formula_sum "Si O2"
_cell_formula_units_Z 14
_cell_length_a 17.413033
_cell_length_b 8.824785
_cell_length_c 20.729836
_cell_angle_alpha 35.892434
_cell_angle_beta 161.317580
_cell_angle_gamma 143.353581
_cell_volume 587.791147
_symmetry_space_group_name_H-M "P -1"
_symmetry_group_IT_number 2
_symmetry_cell_setting 'triclinic'
loop_
_space_group_symop_operation_xyz
x,y,z
-x,-y,-z
loop_
_atom_site_type_symbol
_atom_site_label
_atom_site_fract_x
_atom_site_fract_y
_atom_site_fract_z
Si Si1 0.941916 0.846206 0.440780
Si Si2 0.939386 0.913299 0.056006
Si Si3 0.288718 0.640962 0.308829
Si Si4 0.487146 0.531021 0.804512
Si Si5 0.643738 0.008395 0.532456
Si Si6 0.259178 0.442444 0.787929
Si Si7 0.976848 0.901045 0.716098
O O1 0.649103 0.753187 0.230311
O O2 0.061483 0.582931 0.618389
O O3 0.055639 0.023486 0.409902
O O4 0.000000 0.000000 0.500000
O O5 0.767177 0.624573 0.017799
O O6 0.762222 0.122398 0.858442
O O7 0.162258 0.964885 0.265163
O O8 0.000000 0.000000 0.000000
O O9 0.500000 0.500000 0.500000
O O10 0.047324 0.414092 0.195282
O O11 0.409332 0.769341 0.427395
O O12 0.455546 0.727389 0.653280
O O13 0.324289 0.565353 0.726531
O O14 0.783370 0.956706 0.596090
O O15 0.197604 0.128239 0.836216
O O16 0.500000 0.500000 0.000000
#
# Coordination Sequence:
#
# PCOD9092265 Si02
#       7
#     2   2   2   2   2   2   2
#     4  11  23  40  66  99 129 166 211 272 330 370
#     4  11  25  41  65 100 131 166 221 273 324 380
#     4   9  22  40  64  95 127 169 217 267 318 386
#     4  10  21  42  68  92 135 178 214 252 333 400
#     4  10  19  40  69  88 128 174 217 255 319 389
#     4  11  21  41  70  98 124 175 221 258 318 398
#     4  10  19  41  62  89 128 172 209 252 314 400
#
# _framework density 23.817983000000002
#
# number of rings (size 3 to 8) (size 9 to 14) (size 15 to 20)
#    0.000    1.714    2.857    1.714    0.000    6.857 
#    5.143    1.429    0.000    0.000    0.000    0.000 
#    0.000    0.000    0.000    0.000    0.000    0.000 
#
# Total GULP energy -77997.110595 kJ/mol
# GULP energy per Si atom -5571.222185 kJ/mol
# Density = 2.376377 g / cm^3
# Si number density = 23.817983 Si / 1000 Ang^3
#
#
#
# Elastic Constant Matrix: (Units=GPa)
#
#
# Indices 1 2 3 4 5 6 
#
# 1 110.2809 50.2910 20.1278 19.1712 -16.0405 -22.6994
# 2 50.2910 144.8688 47.8071 50.2259 -16.9133 -7.5730
# 3 20.1278 47.8071 108.6306 29.4644 -35.3745 -25.7019
# 4 19.1712 50.2259 29.4644 41.9146 -11.8026 -6.2358
# 5 -16.0405 -16.9133 -35.3745 -11.8026 31.3466 6.6656
# 6 -22.6994 -7.5730 -25.7019 -6.2358 6.6656 29.7592
#
#
#
# Elastic Compliance Matrix: (Units=1/GPa)
#
#
# Indices 1 2 3 4 5 6 
#
# 1 0.013970 -0.004960 0.004803 0.000023 0.007372 0.011896
# 2 -0.004960 0.013888 -0.004053 -0.013346 -0.003414 -0.005781
# 3 0.004803 -0.004053 0.021361 -0.004573 0.019296 0.015801
# 4 0.000023 -0.013346 -0.004573 0.044375 0.004136 0.001044
# 5 0.007372 -0.003414 0.019296 0.004136 0.055047 0.009957
# 6 0.011896 -0.005781 0.015801 0.001044 0.009957 0.052841
#
#
# Mechanical properties :
#
#
# Convention : Reuss Voigt Hill
#
# Bulk Modulus (GPa) = 24.50948 66.69245 45.60096
# Shear Modulus (GPa) = 22.37115 36.97438 29.67276
#
# Velocity S-wave (km/s) = 3.06805 3.94429 3.53344
# Velocity P-wave (km/s) = 4.78155 6.98605 5.98616
#
# Compressibility (1/GPa) = 0.04080054
#
# Stress axis : x y z
#
# Youngs Moduli (GPa) = 71.58297 72.00211 46.81329
#
# Poissons Ratio (x) = 0.35715 -0.22486
# Poissons Ratio (y) = 0.35507 0.18972
# Poissons Ratio (z) = -0.34384 0.29180
#
# Static dielectric constant tensor:
#      x y z
#    x 1.979470 0.041150 0.094900 
#    y 0.041150 2.061820 0.008350 
#    z 0.094900 0.008350 1.982470 
# 
# From -- ./inp_files/599411.got.cif
#   From: 2010.05.17/outbox.cif.g08.bks.cpg/sg2_300_cif.got.tgz:599411.got - 2010.06.03 11:33:40.
