data_PCOD9092817
_publ_section_title
;
Structure prediction by ZEFSAII (Michael W. Deem and Ramdas Pophale) SiO2 
 PCOD9092817
Probable space group: P -1
;
_chemical_formula_sum "Si O2"
_cell_formula_units_Z 16
_cell_length_a 7.691883
_cell_length_b 7.443750
_cell_length_c 18.422417
_cell_angle_alpha 68.415525
_cell_angle_beta 106.186930
_cell_angle_gamma 57.905842
_cell_volume 663.510327
_symmetry_space_group_name_H-M "P -1"
_symmetry_group_IT_number 2
_symmetry_cell_setting 'triclinic'
loop_
_space_group_symop_operation_xyz
x,y,z
-x,-y,-z
loop_
_atom_site_type_symbol
_atom_site_label
_atom_site_fract_x
_atom_site_fract_y
_atom_site_fract_z
Si Si1 0.508526 0.372207 0.803118
Si Si2 0.648390 0.890482 0.456352
Si Si3 0.947184 0.219061 0.409802
Si Si4 0.240899 0.357221 0.996249
Si Si5 0.339631 0.786079 0.396856
Si Si6 0.684483 0.641753 0.760183
Si Si7 0.879092 0.897946 0.815638
Si Si8 0.247979 0.202137 0.865935
O O1 0.596921 0.520516 0.814039
O O2 0.754505 0.070615 0.848758
O O3 0.340569 0.348028 0.833186
O O4 0.335222 0.533687 0.687217
O O5 0.938100 0.689785 0.545407
O O6 0.566396 0.769185 0.419763
O O7 0.500000 0.000000 0.500000
O O8 0.537998 0.144864 0.355722
O O9 0.122693 0.038445 0.387209
O O10 0.000000 0.000000 0.500000
O O11 0.235087 0.206390 0.951612
O O12 0.167409 0.617593 0.912180
O O13 0.000000 0.500000 0.000000
O O14 0.534168 0.106510 0.093684
O O15 0.500000 0.500000 0.500000
O O16 0.187619 0.898831 0.286039
O O17 0.949486 0.398126 0.782956
O O18 0.751638 0.788884 0.789942
#
# Coordination Sequence:
#
# PCOD9092817 Si02
#       8
#     2   2   2   2   2   2   2   2
#     4  12  22  41  68  95 131 176 221 270 331 394
#     4   9  18  35  57  80 125 168 209 268 319 380
#     4  11  20  35  58  89 122 168 218 260 326 385
#     4  10  19  42  71  96 136 171 215 279 337 390
#     4  10  21  38  59  90 126 168 214 271 323 386
#     4  10  22  42  63  94 135 170 221 272 329 393
#     4  10  22  41  64  91 134 167 212 276 324 387
#     4  10  22  40  71  96 130 180 211 276 343 386
#
# _framework density 24.114170999999999
#
# number of rings (size 3 to 8) (size 9 to 14) (size 15 to 20)
#    0.000    1.750    2.500    3.750    1.750    0.000 
#    2.250   10.625    0.000    0.000    0.000    0.000 
#    0.000    0.000    0.000    0.000    0.000    0.000 
#
# Total GULP energy -89143.352216 kJ/mol
# GULP energy per Si atom -5571.459514 kJ/mol
# Density = 2.405929 g / cm^3
# Si number density = 24.114171 Si / 1000 Ang^3
#
#
#
# Elastic Constant Matrix: (Units=GPa)
#
#
# Indices 1 2 3 4 5 6 
#
# 1 73.6573 10.0112 12.5837 -8.3424 -17.9506 5.7756
# 2 10.0112 71.7870 14.8756 -12.1771 -3.9193 -20.8416
# 3 12.5837 14.8756 95.7947 -26.5454 -22.2182 1.3767
# 4 -8.3424 -12.1771 -26.5454 41.8306 -8.9594 -2.5610
# 5 -17.9506 -3.9193 -22.2182 -8.9594 24.3579 -0.2603
# 6 5.7756 -20.8416 1.3767 -2.5610 -0.2603 33.5944
#
#
#
# Elastic Compliance Matrix: (Units=1/GPa)
#
#
# Indices 1 2 3 4 5 6 
#
# 1 0.021239 -0.001684 0.008141 0.014722 0.028183 -0.003689
# 2 -0.001684 0.019358 0.000132 0.007195 0.004779 0.012879
# 3 0.008141 0.000132 0.025775 0.026422 0.039249 -0.000055
# 4 0.014722 0.007195 0.026422 0.058404 0.057651 0.005749
# 5 0.028183 0.004779 0.039249 0.057651 0.119619 0.001833
# 6 -0.003689 0.012879 -0.000055 0.005749 0.001833 0.038846
#
#
# Mechanical properties :
#
#
# Convention : Reuss Voigt Hill
#
# Bulk Modulus (GPa) = 12.57067 35.13111 23.85089
# Shear Modulus (GPa) = 16.85886 33.54114 25.20000
#
# Velocity S-wave (km/s) = 2.64697 3.73356 3.23620
# Velocity P-wave (km/s) = 3.81657 5.76075 4.88633
#
# Compressibility (1/GPa) = 0.07955023
#
# Stress axis : x y z
#
# Youngs Moduli (GPa) = 47.08225 51.65792 38.79758
#
# Poissons Ratio (x) = 0.08699 -0.31584
# Poissons Ratio (y) = 0.07929 -0.00513
# Poissons Ratio (z) = -0.38328 -0.00684
#
# Static dielectric constant tensor:
#      x y z
#    x 1.983110 0.016210 -0.029950 
#    y 0.016210 1.940670 -0.018030 
#    z -0.029950 -0.018030 2.064060 
# 
# From -- ./inp_files/587313.got.cif
#   From: 2010.05.17/outbox.cif.g08.bks.cpg/sg2_294_cif.got.tgz:587313.got - 2010.06.03 11:33:40.
