data_PCOD9092057
_publ_section_title
;
Structure prediction by ZEFSAII (Michael W. Deem and Ramdas Pophale) SiO2 
 PCOD9092057
Probable space group: P -1
;
_chemical_formula_sum "Si O2"
_cell_formula_units_Z 16
_cell_length_a 22.726364
_cell_length_b 8.778481
_cell_length_c 7.884025
_cell_angle_alpha 129.962694
_cell_angle_beta 146.515734
_cell_angle_gamma 58.625256
_cell_volume 664.694507
_symmetry_space_group_name_H-M "P -1"
_symmetry_group_IT_number 2
_symmetry_cell_setting 'triclinic'
loop_
_space_group_symop_operation_xyz
x,y,z
-x,-y,-z
loop_
_atom_site_type_symbol
_atom_site_label
_atom_site_fract_x
_atom_site_fract_y
_atom_site_fract_z
Si Si1 0.748561 0.685168 0.191720
Si Si2 0.413078 0.393240 0.832566
Si Si3 0.890603 0.502984 0.123124
Si Si4 0.768764 0.362089 0.311525
Si Si5 0.966642 0.215306 0.523838
Si Si6 0.397950 0.958932 0.347862
Si Si7 0.481400 0.210920 0.199126
Si Si8 0.891239 0.075296 0.876791
O O1 0.800739 0.608456 0.090219
O O2 0.755302 0.502215 0.209056
O O3 0.814802 0.881092 0.553877
O O4 0.629482 0.762259 0.950630
O O5 0.303911 0.509133 0.648536
O O6 0.382078 0.170167 0.544284
O O7 0.500000 0.500000 0.000000
O O8 0.472653 0.369036 0.140477
O O9 0.000000 0.500000 0.500000
O O10 0.931720 0.640700 0.167697
O O11 0.858799 0.274684 0.842080
O O12 0.892000 0.314602 0.552968
O O13 0.711729 0.143695 0.049229
O O14 0.903482 0.162969 0.158958
O O15 0.000000 0.000000 0.500000
O O16 0.430315 0.795305 0.448868
O O17 0.500000 0.000000 0.500000
O O18 0.500000 0.000000 0.000000
O O19 0.000000 0.000000 0.000000
#
# Coordination Sequence:
#
# PCOD9092057 Si02
#       8
#     2   2   2   2   2   2   2   2
#     4  11  21  39  70  95 126 171 217 265 323 388
#     4  10  21  42  64  91 130 171 214 278 323 380
#     4  10  19  40  65  93 127 164 213 260 318 389
#     4  11  23  40  69  91 132 173 218 263 337 383
#     4  11  24  42  66  96 136 167 215 271 325 390
#     4  11  23  44  67  92 133 178 215 273 335 384
#     4   9  23  39  65  97 129 165 226 263 320 398
#     4  11  20  40  71  89 124 172 212 260 328 383
#
# _framework density 24.071207000000001
#
# number of rings (size 3 to 8) (size 9 to 14) (size 15 to 20)
#    0.000    1.500    6.250    0.000    5.250    3.000 
#    0.000    3.750    8.250    0.000    0.000    0.000 
#    0.000    0.000    0.000    0.000    0.000    0.000 
#
# Total GULP energy -89329.437974 kJ/mol
# GULP energy per Si atom -5583.089873 kJ/mol
# Density = 2.401642 g / cm^3
# Si number density = 24.071207 Si / 1000 Ang^3
#
#
#
# Elastic Constant Matrix: (Units=GPa)
#
#
# Indices 1 2 3 4 5 6 
#
# 1 141.4989 58.4378 39.7501 10.9480 28.1257 -26.6336
# 2 58.4378 157.9477 33.8719 32.0849 16.2461 -20.6763
# 3 39.7501 33.8719 70.2168 35.8345 17.1815 2.5029
# 4 10.9480 32.0849 35.8345 47.5063 2.2816 9.3364
# 5 28.1257 16.2461 17.1815 2.2816 37.0845 -0.0760
# 6 -26.6336 -20.6763 2.5029 9.3364 -0.0760 52.8732
#
#
#
# Elastic Compliance Matrix: (Units=1/GPa)
#
#
# Indices 1 2 3 4 5 6 
#
# 1 0.011246 -0.002375 -0.005346 0.002396 -0.005150 0.004559
# 2 -0.002375 0.009097 0.000832 -0.006814 -0.002143 0.003522
# 3 -0.005346 0.000832 0.030057 -0.021576 -0.008908 0.000007
# 4 0.002396 -0.006814 -0.021576 0.042524 0.008531 -0.007933
# 5 -0.005150 -0.002143 -0.008908 0.008531 0.035404 -0.004466
# 6 0.004559 0.003522 0.000007 -0.007933 -0.004466 0.023981
#
#
# Mechanical properties :
#
#
# Convention : Reuss Voigt Hill
#
# Bulk Modulus (GPa) = 27.30497 70.42033 48.86265
# Shear Modulus (GPa) = 28.04365 43.33305 35.68835
#
# Velocity S-wave (km/s) = 3.41695 4.24748 3.85465
# Velocity P-wave (km/s) = 5.18994 7.30571 6.33675
#
# Compressibility (1/GPa) = 0.03662338
#
# Stress axis : x y z
#
# Youngs Moduli (GPa) = 88.91936 109.92757 33.26979
#
# Poissons Ratio (x) = 0.26103 0.17786
# Poissons Ratio (y) = 0.21115 -0.02769
# Poissons Ratio (z) = 0.47537 -0.09149
#
# Static dielectric constant tensor:
#      x y z
#    x 1.964210 0.037410 -0.026920 
#    y 0.037410 1.850490 -0.000840 
#    z -0.026920 -0.000840 1.972430 
# 
# From -- ./inp_files/343083.got.cif
#   From: 2010.05.17/outbox.cif.g08.bks.cpg/sg2_172_cif.got.tgz:343083.got - 2010.06.03 11:33:40.
