data_PCOD9092174
_publ_section_title
;
Structure prediction by ZEFSAII (Michael W. Deem and Ramdas Pophale) SiO2 
 PCOD9092174
Probable space group: P -1
;
_chemical_formula_sum "Si O2"
_cell_formula_units_Z 14
_cell_length_a 18.465543
_cell_length_b 19.491849
_cell_length_c 8.435655
_cell_angle_alpha 144.847607
_cell_angle_beta 144.843300
_cell_angle_gamma 22.595376
_cell_volume 644.104258
_symmetry_space_group_name_H-M "P -1"
_symmetry_group_IT_number 2
_symmetry_cell_setting 'triclinic'
loop_
_space_group_symop_operation_xyz
x,y,z
-x,-y,-z
loop_
_atom_site_type_symbol
_atom_site_label
_atom_site_fract_x
_atom_site_fract_y
_atom_site_fract_z
Si Si1 0.857983 0.562764 0.724394
Si Si2 0.341200 0.877856 0.151221
Si Si3 0.916771 0.285840 0.122555
Si Si4 0.554767 0.947512 0.813694
Si Si5 0.222957 0.816352 0.111298
Si Si6 0.377234 0.468707 0.218397
Si Si7 0.526110 0.733914 0.696008
O O1 0.945806 0.395217 0.456897
O O2 0.775579 0.734750 0.801829
O O3 0.666157 0.652312 0.641339
O O4 0.000000 0.500000 0.000000
O O5 0.419342 0.945138 0.490302
O O6 0.339158 0.772579 0.079104
O O7 0.487722 0.727618 0.996354
O O8 0.120006 0.066265 0.056915
O O9 0.783531 0.307963 0.052333
O O10 0.810939 0.375215 0.933700
O O11 0.500000 0.000000 0.000000
O O12 0.517532 0.108895 0.997535
O O13 0.320723 0.829120 0.445261
O O14 0.000000 0.000000 0.000000
O O15 0.500000 0.500000 0.500000
O O16 0.356243 0.438766 0.302902
#
# Coordination Sequence:
#
# PCOD9092174 Si02
#       7
#     2   2   2   2   2   2   2
#     4  11  23  41  70 101 126 170 232 287 324 389
#     4  11  23  44  67  96 133 175 220 280 330 390
#     4  11  23  43  67  97 134 171 229 273 330 392
#     4  10  19  40  67  90 130 164 221 277 328 371
#     4  10  21  38  68  99 123 170 228 274 326 382
#     4  12  26  44  63  96 144 181 214 264 336 411
#     4  11  23  42  65  98 135 177 215 273 339 392
#
# _framework density 21.735612
#
# number of rings (size 3 to 8) (size 9 to 14) (size 15 to 20)
#    0.000    1.143    5.714    1.714    4.000    2.286 
#    2.571    1.429    0.000    0.000    0.000    0.000 
#    0.000    0.000    0.000    0.000    0.000    0.000 
#
# Total GULP energy -78135.939543 kJ/mol
# GULP energy per Si atom -5581.138539 kJ/mol
# Density = 2.168614 g / cm^3
# Si number density = 21.735612 Si / 1000 Ang^3
#
#
#
# Elastic Constant Matrix: (Units=GPa)
#
#
# Indices 1 2 3 4 5 6 
#
# 1 28.5533 16.2937 -10.4070 -9.8498 -3.2704 24.8536
# 2 16.2937 122.3924 22.7375 -22.7711 1.0310 22.1497
# 3 -10.4070 22.7375 89.7752 -23.6685 4.9915 1.8627
# 4 -9.8498 -22.7711 -23.6685 39.8909 2.7929 -2.4979
# 5 -3.2704 1.0310 4.9915 2.7929 21.9640 0.2062
# 6 24.8536 22.1497 1.8627 -2.4979 0.2062 35.4795
#
#
#
# Elastic Compliance Matrix: (Units=1/GPa)
#
#
# Indices 1 2 3 4 5 6 
#
# 1 0.173125 0.002667 0.036451 0.057546 0.011187 -0.120867
# 2 0.002667 0.010453 -0.000607 0.005811 -0.000620 -0.007949
# 3 0.036451 -0.000607 0.021374 0.019898 -0.001698 -0.024867
# 4 0.057546 0.005811 0.019898 0.051985 -0.002449 -0.041309
# 5 0.011187 -0.000620 -0.001698 -0.002449 0.047994 -0.007811
# 6 -0.120867 -0.007949 -0.024867 -0.041309 -0.007811 0.116259
#
#
# Mechanical properties :
#
#
# Convention : Reuss Voigt Hill
#
# Bulk Modulus (GPa) = 3.54643 33.10768 18.32705
# Shear Modulus (GPa) = 11.41135 33.60668 22.50901
#
# Velocity S-wave (km/s) = 2.29379 3.93639 3.22154
# Velocity P-wave (km/s) = 2.94117 5.99377 4.72100
#
# Compressibility (1/GPa) = 0.28197361
#
# Stress axis : x y z
#
# Youngs Moduli (GPa) = 5.77619 95.66491 46.78479
#
# Poissons Ratio (x) = -0.25510 -1.70536
# Poissons Ratio (y) = -0.01540 0.02840
# Poissons Ratio (z) = -0.21055 0.05806
#
# Static dielectric constant tensor:
#      x y z
#    x 1.808640 0.017280 0.034710 
#    y 0.017280 1.826680 0.004220 
#    z 0.034710 0.004220 1.773820 
# 
# From -- ./inp_files/253372.got.cif
#   From: 2010.05.17/outbox.cif.g08.bks.cpg/sg2_127_cif.got.tgz:253372.got - 2010.06.03 11:33:40.
