data_PCOD9092922
_publ_section_title
;
Structure prediction by ZEFSAII (Michael W. Deem and Ramdas Pophale) SiO2 
 PCOD9092922
Probable space group: P -1
;
_chemical_formula_sum "Si O2"
_cell_formula_units_Z 14
_cell_length_a 11.357389
_cell_length_b 12.350359
_cell_length_c 14.027533
_cell_angle_alpha 150.094967
_cell_angle_beta 46.678472
_cell_angle_gamma 132.700631
_cell_volume 694.543035
_symmetry_space_group_name_H-M "P -1"
_symmetry_group_IT_number 2
_symmetry_cell_setting 'triclinic'
loop_
_space_group_symop_operation_xyz
x,y,z
-x,-y,-z
loop_
_atom_site_type_symbol
_atom_site_label
_atom_site_fract_x
_atom_site_fract_y
_atom_site_fract_z
Si Si1 0.447399 0.479802 0.622626
Si Si2 0.979927 0.720228 0.732550
Si Si3 0.386723 0.291661 0.131139
Si Si4 0.371078 0.966954 0.260459
Si Si5 0.144977 0.695024 0.019744
Si Si6 0.030423 0.185102 0.976819
Si Si7 0.630159 0.464664 0.978195
O O1 0.500000 0.500000 0.500000
O O2 0.606763 0.619377 0.698523
O O3 0.293581 0.587445 0.817142
O O4 0.393101 0.216592 0.471921
O O5 0.784174 0.722376 0.837929
O O6 0.000000 0.500000 0.500000
O O7 0.034835 0.741351 0.828771
O O8 0.062235 0.942370 0.797658
O O9 0.535528 0.473321 0.137005
O O10 0.456344 0.069231 0.910703
O O11 0.227090 0.874636 0.192292
O O12 0.341902 0.786338 0.224524
O O13 0.000000 0.500000 0.000000
O O14 0.080588 0.807567 0.049216
O O15 0.200547 0.359540 0.993118
O O16 0.500000 0.500000 0.000000
#
# Coordination Sequence:
#
# PCOD9092922 Si02
#       7
#     2   2   2   2   2   2   2
#     4  11  25  39  66  97 125 171 219 257 319 392
#     4  11  26  41  62  97 129 167 215 263 321 388
#     4   9  22  42  63  90 130 160 214 260 317 374
#     4   9  22  41  63  93 129 161 217 264 312 381
#     4  11  23  43  65  95 133 167 211 268 329 377
#     4  11  23  43  65  91 130 167 209 270 325 373
#     4  10  19  44  67  86 121 174 206 260 322 369
#
# _framework density 20.157138
#
# number of rings (size 3 to 8) (size 9 to 14) (size 15 to 20)
#    0.857    0.857    2.857    0.000    6.000    4.000 
#    5.143    1.429    0.000    0.000    0.000    0.000 
#    0.000    0.000    0.000    0.000    0.000    0.000 
#
# Total GULP energy -78044.584239 kJ/mol
# GULP energy per Si atom -5574.613160 kJ/mol
# Density = 2.011126 g / cm^3
# Si number density = 20.157138 Si / 1000 Ang^3
#
#
#
# Elastic Constant Matrix: (Units=GPa)
#
#
# Indices 1 2 3 4 5 6 
#
# 1 95.4417 -13.2065 -5.6646 -0.3123 -6.9166 -15.3705
# 2 -13.2065 64.2163 -7.2260 11.6514 -12.6276 -3.3716
# 3 -5.6646 -7.2260 50.3180 17.2761 5.4771 2.9426
# 4 -0.3123 11.6514 17.2761 28.5445 -4.0405 2.3504
# 5 -6.9166 -12.6276 5.4771 -4.0405 17.9075 -4.3018
# 6 -15.3705 -3.3716 2.9426 2.3504 -4.3018 33.6497
#
#
#
# Elastic Compliance Matrix: (Units=1/GPa)
#
#
# Indices 1 2 3 4 5 6 
#
# 1 0.013393 0.005786 0.001588 -0.002400 0.010153 0.008024
# 2 0.005786 0.022897 0.005549 -0.010981 0.015949 0.007258
# 3 0.001588 0.005549 0.029203 -0.021174 -0.009423 -0.000998
# 4 -0.002400 -0.010981 -0.021174 0.053855 0.009255 -0.002924
# 5 0.010153 0.015949 -0.009423 0.009255 0.079978 0.016638
# 6 0.008024 0.007258 -0.000998 -0.002924 0.016638 0.036529
#
#
# Mechanical properties :
#
#
# Convention : Reuss Voigt Hill
#
# Bulk Modulus (GPa) = 10.94798 17.53129 14.23963
# Shear Modulus (GPa) = 20.79403 31.75856 26.27630
#
# Velocity S-wave (km/s) = 3.21533 3.97363 3.61442
# Velocity P-wave (km/s) = 4.38493 5.45611 4.94958
#
# Compressibility (1/GPa) = 0.09134103
#
# Stress axis : x y z
#
# Youngs Moduli (GPa) = 74.66712 43.67449 34.24270
#
# Poissons Ratio (x) = -0.25272 -0.05439
# Poissons Ratio (y) = -0.43206 -0.19003
# Poissons Ratio (z) = -0.11860 -0.24237
#
# Static dielectric constant tensor:
#      x y z
#    x 1.819690 -0.028780 0.030040 
#    y -0.028780 1.757320 -0.004980 
#    z 0.030040 -0.004980 1.710590 
# 
# From -- ./inp_files/518353.got.cif
#   From: 2010.05.17/outbox.cif.g08.bks.cpg/sg2_260_cif.got.tgz:518353.got - 2010.06.03 11:33:40.
