data_PCOD9092103
_publ_section_title
;
Structure prediction by ZEFSAII (Michael W. Deem and Ramdas Pophale) SiO2 
 PCOD9092103
Probable space group: P -1
;
_chemical_formula_sum "Si O2"
_cell_formula_units_Z 10
_cell_length_a 9.317962
_cell_length_b 9.072632
_cell_length_c 7.806650
_cell_angle_alpha 125.589990
_cell_angle_beta 48.397709
_cell_angle_gamma 107.028377
_cell_volume 396.537071
_symmetry_space_group_name_H-M "P -1"
_symmetry_group_IT_number 2
_symmetry_cell_setting 'triclinic'
loop_
_space_group_symop_operation_xyz
x,y,z
-x,-y,-z
loop_
_atom_site_type_symbol
_atom_site_label
_atom_site_fract_x
_atom_site_fract_y
_atom_site_fract_z
Si Si1 0.352657 0.617982 0.568716
Si Si2 0.568146 0.940386 0.593108
Si Si3 0.063858 0.447754 0.215313
Si Si4 0.630815 0.706312 0.897864
Si Si5 0.915328 0.811594 0.441764
O O1 0.500000 0.500000 0.500000
O O2 0.120667 0.627731 0.770908
O O3 0.400583 0.495977 0.274788
O O4 0.405313 0.817807 0.687062
O O5 0.500000 0.000000 0.500000
O O6 0.774641 0.821761 0.395317
O O7 0.550970 0.133570 0.837541
O O8 0.075364 0.631030 0.221258
O O9 0.000000 0.500000 0.500000
O O10 0.259677 0.316946 0.021334
O O11 0.768553 0.782966 0.696554
O O12 0.000000 0.000000 0.500000
#
# Coordination Sequence:
#
# PCOD9092103 Si02
#       5
#     2   2   2   2   2
#     4  10  19  40  66  90 125 162 210 254 304 376
#     4  12  26  40  63  98 124 164 215 253 303 374
#     4   8  18  38  64  87 123 166 199 251 314 363
#     4  10  23  44  67  87 127 173 199 253 322 359
#     4  10  21  41  65  93 127 159 206 264 308 366
#
# _framework density 25.218323999999999
#
# number of rings (size 3 to 8) (size 9 to 14) (size 15 to 20)
#    0.000    2.400    4.000    0.600    8.400    1.600 
#    0.000    1.000    0.000    0.000    0.000    0.000 
#    0.000    0.000    0.000    0.000    0.000    0.000 
#
# Total GULP energy -55776.416938 kJ/mol
# GULP energy per Si atom -5577.641694 kJ/mol
# Density = 2.516093 g / cm^3
# Si number density = 25.218324 Si / 1000 Ang^3
#
#
#
# Elastic Constant Matrix: (Units=GPa)
#
#
# Indices 1 2 3 4 5 6 
#
# 1 205.6220 53.8005 20.9681 1.0444 -0.2913 -23.9946
# 2 53.8005 87.1386 4.5598 12.9211 -7.8793 -0.4975
# 3 20.9681 4.5598 71.3382 15.9748 -10.6767 -10.4439
# 4 1.0444 12.9211 15.9748 29.1465 -7.9323 2.4041
# 5 -0.2913 -7.8793 -10.6767 -7.9323 37.4627 8.1532
# 6 -23.9946 -0.4975 -10.4439 2.4041 8.1532 61.6719
#
#
#
# Elastic Compliance Matrix: (Units=1/GPa)
#
#
# Indices 1 2 3 4 5 6 
#
# 1 0.006446 -0.004320 -0.002000 0.002201 -0.001450 0.002240
# 2 -0.004320 0.015290 0.002044 -0.006937 0.002575 -0.001281
# 3 -0.002000 0.002044 0.017411 -0.009789 0.002826 0.002195
# 4 0.002201 -0.006937 -0.009789 0.044567 0.005940 -0.003380
# 5 -0.001450 0.002575 0.002826 0.005940 0.030221 -0.004292
# 6 0.002240 -0.001281 0.002195 -0.003380 -0.004292 0.018147
#
#
# Mechanical properties :
#
#
# Convention : Reuss Voigt Hill
#
# Bulk Modulus (GPa) = 32.68568 58.08395 45.38481
# Shear Modulus (GPa) = 33.14930 44.64090 38.89510
#
# Velocity S-wave (km/s) = 3.62953 4.21191 3.93152
# Velocity P-wave (km/s) = 5.52755 6.83638 6.21651
#
# Compressibility (1/GPa) = 0.03059444
#
# Stress axis : x y z
#
# Youngs Moduli (GPa) = 155.14268 65.40128 57.43347
#
# Poissons Ratio (x) = 0.28251 0.11489
# Poissons Ratio (y) = 0.67016 -0.11737
# Poissons Ratio (z) = 0.31034 -0.13365
#
# Static dielectric constant tensor:
#      x y z
#    x 2.012550 0.004880 0.005720 
#    y 0.004880 1.897210 -0.062060 
#    z 0.005720 -0.062060 2.118650 
# 
# From -- ./inp_files/144067.got.cif
#   From: 2010.05.17/outbox.cif.g08.bks.cpg/sg2_73_cif.got.tgz:144067.got - 2010.06.03 11:33:40.
