data_PCOD9092045
_publ_section_title
;
Structure prediction by ZEFSAII (Michael W. Deem and Ramdas Pophale) SiO2 
 PCOD9092045
Probable space group: P -1
;
_chemical_formula_sum "Si O2"
_cell_formula_units_Z 16
_cell_length_a 9.469821
_cell_length_b 8.631889
_cell_length_c 18.536641
_cell_angle_alpha 118.658138
_cell_angle_beta 140.358456
_cell_angle_gamma 48.430480
_cell_volume 721.667105
_symmetry_space_group_name_H-M "P -1"
_symmetry_group_IT_number 2
_symmetry_cell_setting 'triclinic'
loop_
_space_group_symop_operation_xyz
x,y,z
-x,-y,-z
loop_
_atom_site_type_symbol
_atom_site_label
_atom_site_fract_x
_atom_site_fract_y
_atom_site_fract_z
Si Si1 0.482782 0.411495 0.050390
Si Si2 0.757332 0.730229 0.973051
Si Si3 0.430716 0.689946 0.711304
Si Si4 0.011438 0.679723 0.705623
Si Si5 0.446863 0.327394 0.410506
Si Si6 0.118859 0.854789 0.083810
Si Si7 0.179378 0.096152 0.456030
Si Si8 0.423594 0.314754 0.682906
O O1 0.354834 0.278288 0.994367
O O2 0.306412 0.621201 0.074383
O O3 0.779965 0.287926 0.165120
O O4 0.500000 0.500000 0.000000
O O5 0.547208 0.767394 0.836675
O O6 0.000000 0.500000 0.000000
O O7 0.883481 0.867932 0.039617
O O8 0.511120 0.703871 0.665435
O O9 0.520076 0.452004 0.711576
O O10 0.118970 0.814606 0.619943
O O11 0.839229 0.625328 0.674208
O O12 0.830729 0.875791 0.627579
O O13 0.195576 0.478796 0.683186
O O14 0.500000 0.500000 0.500000
O O15 0.645280 0.124321 0.488324
O O16 0.329039 0.870719 0.218848
O O17 0.000000 0.000000 0.000000
O O18 0.284739 0.236705 0.558918
#
# Coordination Sequence:
#
# PCOD9092045 Si02
#       8
#     2   2   2   2   2   2   2   2
#     4  10  21  39  65  91 122 166 206 260 321 364
#     4  10  19  40  65  91 125 162 212 252 313 370
#     4  11  21  40  66  92 122 165 207 260 308 373
#     4  10  21  40  59  89 129 159 203 260 316 368
#     4  12  26  39  58  94 127 159 207 261 313 376
#     4  10  22  38  62  95 127 162 216 257 299 377
#     4  11  22  41  64  88 122 169 208 248 317 378
#     4  10  20  40  64  89 122 167 207 253 311 377
#
# _framework density 22.170885999999999
#
# number of rings (size 3 to 8) (size 9 to 14) (size 15 to 20)
#    0.000    1.500    5.000    3.750    5.250    0.000 
#    2.250    0.625    0.000    0.000    0.000    0.000 
#    0.000    0.000    0.000    0.000    0.000    0.000 
#
# Total GULP energy -89389.403346 kJ/mol
# GULP energy per Si atom -5586.837709 kJ/mol
# Density = 2.212042 g / cm^3
# Si number density = 22.170886 Si / 1000 Ang^3
#
#
#
# Elastic Constant Matrix: (Units=GPa)
#
#
# Indices 1 2 3 4 5 6 
#
# 1 191.5453 13.7943 50.8272 -0.7146 6.6103 24.3661
# 2 13.7943 48.6598 20.5612 -7.9798 3.3312 8.0870
# 3 50.8272 20.5612 131.0368 -13.6894 9.4914 6.8324
# 4 -0.7146 -7.9798 -13.6894 29.2260 2.8355 -0.0439
# 5 6.6103 3.3312 9.4914 2.8355 36.7371 0.4045
# 6 24.3661 8.0870 6.8324 -0.0439 0.4045 19.6399
#
#
#
# Elastic Compliance Matrix: (Units=1/GPa)
#
#
# Indices 1 2 3 4 5 6 
#
# 1 0.006820 0.000236 -0.002329 -0.000823 -0.000498 -0.007740
# 2 0.000236 0.024195 -0.002693 0.005517 -0.001864 -0.009268
# 3 -0.002329 -0.002693 0.009471 0.003848 -0.002089 0.000755
# 4 -0.000823 0.005517 0.003848 0.037913 -0.004246 -0.002417
# 5 -0.000498 -0.001864 -0.002089 -0.004246 0.028330 0.001520
# 6 -0.007740 -0.009268 0.000755 -0.002417 0.001520 0.064036
#
#
# Mechanical properties :
#
#
# Convention : Reuss Voigt Hill
#
# Bulk Modulus (GPa) = 32.34757 60.17858 46.26308
# Shear Modulus (GPa) = 26.22708 36.19123 31.20916
#
# Velocity S-wave (km/s) = 3.44314 4.04465 3.75596
# Velocity P-wave (km/s) = 5.51622 7.00102 6.30250
#
# Compressibility (1/GPa) = 0.03091422
#
# Stress axis : x y z
#
# Youngs Moduli (GPa) = 146.61850 41.33146 105.58183
#
# Poissons Ratio (x) = -0.00976 0.24589
# Poissons Ratio (y) = -0.03463 0.28437
# Poissons Ratio (z) = 0.34146 0.11132
#
# Static dielectric constant tensor:
#      x y z
#    x 2.056540 0.064270 -0.219880 
#    y 0.064270 1.869340 -0.061680 
#    z -0.219880 -0.061680 1.995140 
# 
# From -- ./inp_files/557340.got.cif
#   From: 2010.05.17/outbox.cif.g08.bks.cpg/sg2_279_cif.got.tgz:557340.got - 2010.06.03 11:33:40.
