data_PCOD9092312
_publ_section_title
;
Structure prediction by ZEFSAII (Michael W. Deem and Ramdas Pophale) SiO2 
 PCOD9092312
Probable space group: P -1
;
_chemical_formula_sum "Si O2"
_cell_formula_units_Z 16
_cell_length_a 11.545059
_cell_length_b 10.009055
_cell_length_c 12.329365
_cell_angle_alpha 105.852519
_cell_angle_beta 36.532049
_cell_angle_gamma 82.087334
_cell_volume 637.709172
_symmetry_space_group_name_H-M "P -1"
_symmetry_group_IT_number 2
_symmetry_cell_setting 'triclinic'
loop_
_space_group_symop_operation_xyz
x,y,z
-x,-y,-z
loop_
_atom_site_type_symbol
_atom_site_label
_atom_site_fract_x
_atom_site_fract_y
_atom_site_fract_z
Si Si1 0.025042 0.037151 0.803546
Si Si2 0.673393 0.820395 0.453240
Si Si3 0.200954 0.844088 0.233888
Si Si4 0.736707 0.742568 0.832606
Si Si5 0.749476 0.355654 0.213879
Si Si6 0.968522 0.662888 0.416123
Si Si7 0.236422 0.190638 0.943156
Si Si8 0.540173 0.680126 0.329411
O O1 0.181063 0.111048 0.687372
O O2 0.880440 0.086105 0.811472
O O3 0.241781 0.824285 0.603354
O O4 0.833776 0.164481 0.071133
O O5 0.799576 0.724016 0.449942
O O6 0.659965 0.710243 0.347405
O O7 0.400207 0.999207 0.722666
O O8 0.171046 0.692144 0.245020
O O9 0.467598 0.792155 0.040818
O O10 0.000000 0.000000 0.500000
O O11 0.812754 0.771227 0.665729
O O12 0.919092 0.535722 0.683267
O O13 0.761592 0.834010 0.935841
O O14 0.500000 0.500000 0.500000
O O15 0.677675 0.471922 0.183877
O O16 0.973194 0.313763 0.109476
O O17 0.383620 0.268115 0.822832
#
# Coordination Sequence:
#
# PCOD9092312 Si02
#       8
#     2   2   2   2   2   2   2   2
#     4  10  22  43  65  99 134 169 222 280 326 400
#     4  10  19  40  71  93 128 169 222 276 330 393
#     4  11  24  44  68  98 134 179 231 276 343 401
#     4  11  24  44  66  98 136 176 228 278 335 401
#     4  12  26  41  62 103 137 172 217 267 342 404
#     4  10  24  42  66  99 132 178 226 281 336 398
#     4  11  22  42  69  96 126 171 223 269 330 403
#     4  11  21  41  71  93 129 175 219 271 336 390
#
# _framework density 25.089805999999999
#
# number of rings (size 3 to 8) (size 9 to 14) (size 15 to 20)
#    0.000    1.250    2.500    4.500    3.500    5.500 
#    9.000    0.000    0.000    0.000    0.000    0.000 
#    0.000    0.000    0.000    0.000    0.000    0.000 
#
# Total GULP energy -89652.613139 kJ/mol
# GULP energy per Si atom -5603.288321 kJ/mol
# Density = 2.503270 g / cm^3
# Si number density = 25.089806 Si / 1000 Ang^3
#
#
#
# Elastic Constant Matrix: (Units=GPa)
#
#
# Indices 1 2 3 4 5 6 
#
# 1 102.8813 16.3096 40.8583 -6.0004 3.7703 -44.6642
# 2 16.3096 108.0881 22.1888 -7.0995 -15.4429 -11.2245
# 3 40.8583 22.1888 134.7445 2.1013 -7.2752 -17.6492
# 4 -6.0004 -7.0995 2.1013 40.3190 -10.4085 -0.4854
# 5 3.7703 -15.4429 -7.2752 -10.4085 41.7106 1.0367
# 6 -44.6642 -11.2245 -17.6492 -0.4854 1.0367 33.7240
#
#
#
# Elastic Compliance Matrix: (Units=1/GPa)
#
#
# Indices 1 2 3 4 5 6 
#
# 1 0.025235 0.000084 -0.003729 0.003628 -0.002781 0.031636
# 2 0.000084 0.010627 -0.001202 0.003124 0.004424 0.002928
# 3 -0.003729 -0.001202 0.008721 -0.000920 0.001204 -0.000824
# 4 0.003628 0.003124 -0.000920 0.027944 0.007504 0.005534
# 5 -0.002781 0.004424 0.001204 0.007504 0.028005 -0.002334
# 6 0.031636 0.002928 -0.000824 0.005534 -0.002334 0.072245
#
#
# Mechanical properties :
#
#
# Convention : Reuss Voigt Hill
#
# Bulk Modulus (GPa) = 28.66145 56.04746 42.35445
# Shear Modulus (GPa) = 25.75983 40.90789 33.33386
#
# Velocity S-wave (km/s) = 3.20770 4.04227 3.64893
# Velocity P-wave (km/s) = 5.01672 6.64634 5.88818
#
# Compressibility (1/GPa) = 0.03489007
#
# Stress axis : x y z
#
# Youngs Moduli (GPa) = 39.62740 94.09912 114.66036
#
# Poissons Ratio (x) = -0.00788 0.42755
# Poissons Ratio (y) = -0.00332 0.13779
# Poissons Ratio (z) = 0.14776 0.11308
#
# Static dielectric constant tensor:
#      x y z
#    x 1.931340 0.019790 0.054620 
#    y 0.019790 2.054390 -0.056450 
#    z 0.054620 -0.056450 2.047050 
# 
# From -- ./inp_files/397146.got.cif
#   From: 2010.05.17/outbox.cif.g08.bks.cpg/sg2_199_cif.got.tgz:397146.got - 2010.06.03 11:33:40.
