data_PCOD9092789
_publ_section_title
;
Structure prediction by ZEFSAII (Michael W. Deem and Ramdas Pophale) SiO2 
 PCOD9092789
Probable space group: P -1
;
_chemical_formula_sum "Si O2"
_cell_formula_units_Z 15
_cell_length_a 9.093679
_cell_length_b 10.365737
_cell_length_c 16.744759
_cell_angle_alpha 149.116902
_cell_angle_beta 40.245445
_cell_angle_gamma 130.400594
_cell_volume 523.311156
_symmetry_space_group_name_H-M "P -1"
_symmetry_group_IT_number 2
_symmetry_cell_setting 'triclinic'
loop_
_space_group_symop_operation_xyz
x,y,z
-x,-y,-z
loop_
_atom_site_type_symbol
_atom_site_label
_atom_site_fract_x
_atom_site_fract_y
_atom_site_fract_z
Si Si1 0.479028 0.523244 0.772631
Si Si2 0.301296 0.778815 0.824385
Si Si3 0.655122 0.066077 0.659371
Si Si4 0.223377 0.625595 0.083326
Si Si5 0.000000 0.500000 0.500000
Si Si6 0.132001 0.039352 0.828188
Si Si7 0.194474 0.029657 0.621841
Si Si8 0.208439 0.347120 0.507626
O O1 0.334658 0.645272 0.825431
O O2 0.737366 0.560508 0.666763
O O3 0.393455 0.234819 0.657377
O O4 0.417062 0.642010 0.945625
O O5 0.225249 0.596650 0.687454
O O6 0.565764 0.800460 0.700767
O O7 0.096751 0.980667 0.035115
O O8 0.687074 0.297532 0.827182
O O9 0.389590 0.982760 0.721579
O O10 0.731711 0.123618 0.568515
O O11 0.817853 0.846507 0.510799
O O12 0.023853 0.806764 0.229134
O O13 0.145966 0.338471 0.964840
O O14 0.929398 0.570488 0.469081
O O15 0.122244 0.908634 0.673964
#
# Coordination Sequence:
#
# PCOD9092789 Si02
#       8
#     2   2   2   2   1   2   2   2
#     4  10  19  42  69  95 125 176 224 265 324 400
#     4  10  19  42  73  89 128 178 229 258 333 403
#     4  12  25  40  61 105 140 165 222 279 325 384
#     4  11  22  41  67  96 138 178 216 268 329 388
#     4  10  24  42  72  96 128 174 226 278 334 388
#     4  11  22  41  69  97 134 182 215 266 330 403
#     4  11  21  44  67  94 134 178 222 267 325 391
#     4  10  23  43  67  99 127 177 220 282 324 392
#
# _framework density 28.663634999999999
#
# number of rings (size 3 to 8) (size 9 to 14) (size 15 to 20)
#    0.000    1.333    4.000    2.000    1.867    0.533 
#   12.000    4.000    0.000    0.000    0.000    0.000 
#    0.000    0.000    0.000    0.000    0.000    0.000 
#
# Total GULP energy -83854.677976 kJ/mol
# GULP energy per Si atom -5590.311865 kJ/mol
# Density = 2.859840 g / cm^3
# Si number density = 28.663635 Si / 1000 Ang^3
#
#
#
# Elastic Constant Matrix: (Units=GPa)
#
#
# Indices 1 2 3 4 5 6 
#
# 1 225.4175 45.1998 80.6341 -10.6266 5.2490 -26.0177
# 2 45.1998 80.0840 52.9540 -31.8898 -16.6201 -15.5323
# 3 80.6341 52.9540 190.2695 -43.7135 18.1871 2.3515
# 4 -10.6266 -31.8898 -43.7135 42.3148 -6.2822 -21.9823
# 5 5.2490 -16.6201 18.1871 -6.2822 63.5525 -1.1428
# 6 -26.0177 -15.5323 2.3515 -21.9823 -1.1428 47.9208
#
#
#
# Elastic Compliance Matrix: (Units=1/GPa)
#
#
# Indices 1 2 3 4 5 6 
#
# 1 0.005811 -0.002381 -0.002181 -0.001833 -0.000630 0.001634
# 2 -0.002381 0.058740 -0.001664 0.072326 0.024111 0.051580
# 3 -0.002181 -0.001664 0.008486 0.007273 -0.001944 0.001150
# 4 -0.001833 0.072326 0.007273 0.133608 0.031705 0.084135
# 5 -0.000630 0.024111 -0.001944 0.031705 0.026192 0.022736
# 6 0.001634 0.051580 0.001150 0.084135 0.022736 0.077554
#
#
# Mechanical properties :
#
#
# Convention : Reuss Voigt Hill
#
# Bulk Modulus (GPa) = 16.50621 94.81631 55.66126
# Shear Modulus (GPa) = 14.57569 51.88986 33.23277
#
# Velocity S-wave (km/s) = 2.25746 4.25938 3.40870
# Velocity P-wave (km/s) = 3.54484 7.57235 5.91213
#
# Compressibility (1/GPa) = 0.06058325
#
# Stress axis : x y z
#
# Youngs Moduli (GPa) = 172.09666 17.02417 117.84623
#
# Poissons Ratio (x) = 0.04054 0.25700
# Poissons Ratio (y) = 0.40983 0.19613
# Poissons Ratio (z) = 0.37531 0.02833
#
# Static dielectric constant tensor:
#      x y z
#    x 2.229070 0.118970 -0.017780 
#    y 0.118970 2.430510 0.027090 
#    z -0.017780 0.027090 2.174750 
# 
# From -- ./inp_files/325993.got.cif
#   From: 2010.05.17/outbox.cif.g08.bks.cpg/sg2_163_cif.got.tgz:325993.got - 2010.06.03 11:33:40.
