data_PCOD9092134
_publ_section_title
;
Structure prediction by ZEFSAII (Michael W. Deem and Ramdas Pophale) SiO2 
 PCOD9092134
Probable space group: P -1
;
_chemical_formula_sum "Si O2"
_cell_formula_units_Z 12
_cell_length_a 8.364152
_cell_length_b 8.544478
_cell_length_c 14.091424
_cell_angle_alpha 45.416398
_cell_angle_beta 123.520550
_cell_angle_gamma 129.055330
_cell_volume 545.865873
_symmetry_space_group_name_H-M "P -1"
_symmetry_group_IT_number 2
_symmetry_cell_setting 'triclinic'
loop_
_space_group_symop_operation_xyz
x,y,z
-x,-y,-z
loop_
_atom_site_type_symbol
_atom_site_label
_atom_site_fract_x
_atom_site_fract_y
_atom_site_fract_z
Si Si1 0.367308 0.416181 0.896205
Si Si2 0.076712 0.874798 0.827378
Si Si3 0.969389 0.399474 0.876696
Si Si4 0.557272 0.101584 0.344063
Si Si5 0.143000 0.779326 0.448274
Si Si6 0.468200 0.976826 0.147387
O O1 0.462504 0.640873 0.760489
O O2 0.132290 0.384991 0.858161
O O3 0.500000 0.500000 0.000000
O O4 0.391477 0.170447 0.992863
O O5 0.016713 0.663462 0.819098
O O6 0.327365 0.008281 0.845821
O O7 0.006378 0.745037 0.960989
O O8 0.976424 0.061305 0.694328
O O9 0.732777 0.272372 0.816817
O O10 0.777439 0.154052 0.445427
O O11 0.365575 0.881656 0.422181
O O12 0.539186 0.048549 0.248949
O O13 0.000000 0.500000 0.500000
#
# Coordination Sequence:
#
# PCOD9092134 Si02
#       6
#     2   2   2   2   2   2
#     4  10  19  40  66  95 129 162 209 262 316 373
#     4  11  24  42  62 100 131 161 214 263 321 371
#     4  11  23  39  68  98 132 164 202 271 325 370
#     4  10  24  44  64  94 125 169 221 257 306 385
#     4  11  27  45  67  87 128 178 214 259 313 383
#     4  11  23  39  68 101 126 166 209 266 320 378
#
# _framework density 21.983422000000001
#
# number of rings (size 3 to 8) (size 9 to 14) (size 15 to 20)
#    0.000    1.333    3.333    3.000    7.000    3.333 
#    0.000    1.667    0.000    0.000    0.000    0.000 
#    0.000    0.000    0.000    0.000    0.000    0.000 
#
# Total GULP energy -67064.932917 kJ/mol
# GULP energy per Si atom -5588.744410 kJ/mol
# Density = 2.193339 g / cm^3
# Si number density = 21.983422 Si / 1000 Ang^3
#
#
#
# Elastic Constant Matrix: (Units=GPa)
#
#
# Indices 1 2 3 4 5 6 
#
# 1 59.2301 50.2926 41.1268 12.5464 4.7535 20.6485
# 2 50.2926 158.3382 58.1697 16.5560 5.7915 24.7094
# 3 41.1268 58.1697 72.9222 -35.0322 -5.7453 -13.6273
# 4 12.5464 16.5560 -35.0322 -8.6522 -9.1923 -22.4150
# 5 4.7535 5.7915 -5.7453 -9.1923 30.0115 -0.4228
# 6 20.6485 24.7094 -13.6273 -22.4150 -0.4228 32.6765
#
#
#
# Elastic Compliance Matrix: (Units=1/GPa)
#
#
# Indices 1 2 3 4 5 6 
#
# 1 0.020886 -0.008002 0.000167 0.011091 0.001673 0.000552
# 2 -0.008002 0.008492 -0.000401 0.003443 0.000618 0.000838
# 3 0.000167 -0.000401 0.006908 -0.012174 -0.002430 -0.005304
# 4 0.011091 0.003443 -0.012174 -0.000040 -0.004972 -0.014781
# 5 0.001673 0.000618 -0.002430 -0.004972 0.030870 -0.005549
# 6 0.000552 0.000838 -0.005304 -0.014781 -0.005549 0.017198
#
#
# Mechanical properties :
#
#
# Convention : Reuss Voigt Hill
#
# Bulk Modulus (GPa) = 50.47385 65.51874 57.99630
# Shear Modulus (GPa) = 46.55883 20.20059 33.37971
#
# Velocity S-wave (km/s) = 4.60706 3.03463 3.90090
# Velocity P-wave (km/s) = 7.16309 6.49207 6.83582
#
# Compressibility (1/GPa) = 0.01981224
#
# Stress axis : x y z
#
# Youngs Moduli (GPa) = 47.87838 117.76441 144.75822
#
# Poissons Ratio (x) = 0.94240 -0.02417
# Poissons Ratio (y) = 0.38314 0.05810
# Poissons Ratio (z) = -0.00799 0.04727
#
# Static dielectric constant tensor:
#      x y z
#    x 1.839230 -0.037620 -0.022660 
#    y -0.037620 1.869120 -0.004180 
#    z -0.022660 -0.004180 1.837700 
# 
# From -- ./inp_files/165243.got.cif
#   From: 2010.05.17/outbox.cif.g08.bks.cpg/sg2_83_cif.got.tgz:165243.got - 2010.06.03 11:33:40.
