data_PCOD9092266
_publ_section_title
;
Structure prediction by ZEFSAII (Michael W. Deem and Ramdas Pophale) SiO2 
 PCOD9092266
Probable space group: P -1
;
_chemical_formula_sum "Si O2"
_cell_formula_units_Z 12
_cell_length_a 5.113817
_cell_length_b 14.485845
_cell_length_c 11.782191
_cell_angle_alpha 141.744938
_cell_angle_beta 118.240835
_cell_angle_gamma 64.462368
_cell_volume 473.235529
_symmetry_space_group_name_H-M "P -1"
_symmetry_group_IT_number 2
_symmetry_cell_setting 'triclinic'
loop_
_space_group_symop_operation_xyz
x,y,z
-x,-y,-z
loop_
_atom_site_type_symbol
_atom_site_label
_atom_site_fract_x
_atom_site_fract_y
_atom_site_fract_z
Si Si1 0.224494 0.880702 0.569457
Si Si2 0.223374 0.090852 0.962358
Si Si3 0.453718 0.403385 0.058551
Si Si4 0.800672 0.295084 0.818100
Si Si5 0.438130 0.638557 0.703365
Si Si6 0.889688 0.833000 0.666514
O O1 0.192647 0.850038 0.401186
O O2 0.981163 0.810103 0.529855
O O3 0.555923 0.805991 0.596888
O O4 0.228447 0.044129 0.784730
O O5 0.940508 0.008939 0.866234
O O6 0.288293 0.259064 0.151649
O O7 0.500000 0.000000 0.000000
O O8 0.659833 0.293358 0.911805
O O9 0.125942 0.349649 0.942020
O O10 0.408477 0.571074 0.159834
O O11 0.579861 0.405651 0.212400
O O12 0.500000 0.500000 0.500000
O O13 0.133681 0.733851 0.693122
#
# Coordination Sequence:
#
# PCOD9092266 Si02
#       6
#     2   2   2   2   2   2
#     4  10  19  40  69  90 118 172 211 241 310 381
#     4   8  20  39  61  95 126 166 199 255 309 383
#     4  10  23  39  61  90 126 161 211 252 308 367
#     4  10  21  42  63  85 124 171 204 252 306 372
#     4  11  22  41  64  98 129 160 207 266 314 361
#     4   9  21  38  67  91 130 158 201 253 317 371
#
# _framework density 25.35735
#
# number of rings (size 3 to 8) (size 9 to 14) (size 15 to 20)
#    1.000    1.333    0.000    2.000    0.000    6.667 
#    3.000    4.167    0.000    0.000    0.000    0.000 
#    0.000    0.000    0.000    0.000    0.000    0.000 
#
# Total GULP energy -67138.796892 kJ/mol
# GULP energy per Si atom -5594.899741 kJ/mol
# Density = 2.529964 g / cm^3
# Si number density = 25.357350 Si / 1000 Ang^3
#
#
#
# Elastic Constant Matrix: (Units=GPa)
#
#
# Indices 1 2 3 4 5 6 
#
# 1 96.7812 11.5036 28.6649 -8.3220 -24.1987 9.6235
# 2 11.5036 96.9895 61.8523 -14.8983 -23.9386 5.7685
# 3 28.6649 61.8523 193.8532 -25.4166 -40.8172 5.3160
# 4 -8.3220 -14.8983 -25.4166 44.2687 9.7644 -11.4365
# 5 -24.1987 -23.9386 -40.8172 9.7644 31.2855 -14.5106
# 6 9.6235 5.7685 5.3160 -11.4365 -14.5106 27.4846
#
#
#
# Elastic Compliance Matrix: (Units=1/GPa)
#
#
# Indices 1 2 3 4 5 6 
#
# 1 0.012977 0.001262 0.000240 0.000838 0.011870 0.001761
# 2 0.001262 0.014239 -0.002600 0.002259 0.009075 0.002804
# 3 0.000240 -0.002600 0.008552 0.003175 0.011154 0.006018
# 4 0.000838 0.002259 0.003175 0.027658 0.003422 0.011934
# 5 0.011870 0.009075 0.011154 0.003422 0.077367 0.034052
# 6 0.001761 0.002804 0.006018 0.011934 0.034052 0.056958
#
#
# Mechanical properties :
#
#
# Convention : Reuss Voigt Hill
#
# Bulk Modulus (GPa) = 29.78717 65.74060 47.76389
# Shear Modulus (GPa) = 23.68114 39.64796 31.66455
#
# Velocity S-wave (km/s) = 3.05929 3.95849 3.53757
# Velocity P-wave (km/s) = 4.92458 6.84652 5.96348
#
# Compressibility (1/GPa) = 0.03357150
#
# Stress axis : x y z
#
# Youngs Moduli (GPa) = 77.06144 70.23168 116.92528
#
# Poissons Ratio (x) = -0.08863 -0.02801
# Poissons Ratio (y) = -0.09725 0.30396
# Poissons Ratio (z) = -0.01846 0.18258
#
# Static dielectric constant tensor:
#      x y z
#    x 1.987650 -0.023010 -0.061050 
#    y -0.023010 2.058760 0.007970 
#    z -0.061050 0.007970 2.001010 
# 
# From -- ./inp_files/366512.got.cif
#   From: 2010.05.17/outbox.cif.g08.bks.cpg/sg2_184_cif.got.tgz:366512.got - 2010.06.03 11:33:40.
