data_PCOD9092934
_publ_section_title
;
Structure prediction by ZEFSAII (Michael W. Deem and Ramdas Pophale) SiO2 
 PCOD9092934
Probable space group: P -1
;
_chemical_formula_sum "Si O2"
_cell_formula_units_Z 16
_cell_length_a 5.666004
_cell_length_b 17.668948
_cell_length_c 8.889754
_cell_angle_alpha 119.263162
_cell_angle_beta 75.179950
_cell_angle_gamma 116.784823
_cell_volume 692.374785
_symmetry_space_group_name_H-M "P -1"
_symmetry_group_IT_number 2
_symmetry_cell_setting 'triclinic'
loop_
_space_group_symop_operation_xyz
x,y,z
-x,-y,-z
loop_
_atom_site_type_symbol
_atom_site_label
_atom_site_fract_x
_atom_site_fract_y
_atom_site_fract_z
Si Si1 0.060064 0.485319 0.805033
Si Si2 0.577375 0.076362 0.694937
Si Si3 0.930335 0.803839 0.431578
Si Si4 0.314444 0.667000 0.739441
Si Si5 0.703620 0.936355 0.732733
Si Si6 0.115869 0.786440 0.714330
Si Si7 0.481622 0.384222 0.645944
Si Si8 0.256626 0.134008 0.024603
O O1 0.773449 0.432501 0.719500
O O2 0.194539 0.585034 0.797166
O O3 0.276754 0.436903 0.726852
O O4 0.000000 0.500000 0.000000
O O5 0.812130 0.169216 0.686581
O O6 0.500000 0.000000 0.500000
O O7 0.682950 0.029514 0.765290
O O8 0.331672 0.094875 0.822859
O O9 0.876554 0.898334 0.560011
O O10 0.673977 0.714999 0.338671
O O11 0.982211 0.775790 0.564082
O O12 0.097655 0.691720 0.704675
O O13 0.465665 0.635379 0.554334
O O14 0.503437 0.766018 0.878589
O O15 0.415231 0.852817 0.693425
O O16 0.773803 0.934423 0.893974
O O17 0.996440 0.839698 0.899841
#
# Coordination Sequence:
#
# PCOD9092934 Si02
#       8
#     2   2   2   2   2   2   2   2
#     4  12  30  49  75 117 153 188 242 314 372 447
#     4  12  25  43  67 105 145 191 246 305 378 438
#     4  11  23  43  72 104 142 190 245 311 367 439
#     4  11  24  47  74 107 138 195 249 295 369 444
#     4  10  21  45  67  95 140 187 242 303 362 438
#     4  10  19  44  71 100 142 185 248 300 363 437
#     4  12  25  49  82 104 150 202 246 301 369 451
#     4  10  24  43  71  99 144 190 241 309 361 444
#
# _framework density 23.108868999999999
#
# number of rings (size 3 to 8) (size 9 to 14) (size 15 to 20)
#    0.000    1.000    5.000    2.625    3.500    0.500 
#    9.000    0.000    0.000    0.000    0.000    0.000 
#    0.000    0.000    0.000    0.000    0.000    0.000 
#
# Total GULP energy -89519.540575 kJ/mol
# GULP energy per Si atom -5594.971286 kJ/mol
# Density = 2.305627 g / cm^3
# Si number density = 23.108869 Si / 1000 Ang^3
#
#
#
# Elastic Constant Matrix: (Units=GPa)
#
#
# Indices 1 2 3 4 5 6 
#
# 1 107.4918 27.3520 44.7595 4.8447 -17.1465 -6.8889
# 2 27.3520 121.7790 43.9253 -13.1988 -0.1907 -4.3639
# 3 44.7595 43.9253 124.0622 -11.0667 -26.1136 -14.3078
# 4 4.8447 -13.1988 -11.0667 29.7677 14.3571 -4.5213
# 5 -17.1465 -0.1907 -26.1136 14.3571 45.7697 19.2337
# 6 -6.8889 -4.3639 -14.3078 -4.5213 19.2337 23.0746
#
#
#
# Elastic Compliance Matrix: (Units=1/GPa)
#
#
# Indices 1 2 3 4 5 6 
#
# 1 0.013244 -0.003334 -0.003532 -0.011812 0.010980 -0.010333
# 2 -0.003334 0.011672 -0.002975 0.011654 -0.011154 0.010948
# 3 -0.003532 -0.002975 0.011676 0.002793 0.002858 0.003787
# 4 -0.011812 0.011654 0.002793 0.074368 -0.049877 0.056556
# 5 0.010980 -0.011154 0.002858 -0.049877 0.070896 -0.065928
# 6 -0.010333 0.010948 0.003787 0.056556 -0.065928 0.110707
#
#
# Mechanical properties :
#
#
# Convention : Reuss Voigt Hill
#
# Bulk Modulus (GPa) = 59.14076 65.04516 62.09296
# Shear Modulus (GPa) = 15.72916 35.54215 25.63565
#
# Velocity S-wave (km/s) = 2.61177 3.92603 3.33429
# Velocity P-wave (km/s) = 5.89431 6.98283 6.46153
#
# Compressibility (1/GPa) = 0.01690881
#
# Stress axis : x y z
#
# Youngs Moduli (GPa) = 75.50792 85.67845 85.64811
#
# Poissons Ratio (x) = 0.28565 0.30250
# Poissons Ratio (y) = 0.25174 0.25482
# Poissons Ratio (z) = 0.26669 0.25491
#
# Static dielectric constant tensor:
#      x y z
#    x 1.925540 0.011060 0.028430 
#    y 0.011060 1.830210 0.046470 
#    z 0.028430 0.046470 1.860980 
# 
# From -- ./inp_files/37863.got.cif
#   From: 2010.05.17/outbox.cif.g08.bks.cpg/sg2_19_cif.got.tgz:37863.got - 2010.06.03 11:33:40.
