data_PCOD9092108
_publ_section_title
;
Structure prediction by ZEFSAII (Michael W. Deem and Ramdas Pophale) SiO2 
 PCOD9092108
Probable space group: P -1
;
_chemical_formula_sum "Si O2"
_cell_formula_units_Z 16
_cell_length_a 19.743401
_cell_length_b 17.013045
_cell_length_c 13.108455
_cell_angle_alpha 156.819273
_cell_angle_beta 24.696765
_cell_angle_gamma 151.133576
_cell_volume 701.784152
_symmetry_space_group_name_H-M "P -1"
_symmetry_group_IT_number 2
_symmetry_cell_setting 'triclinic'
loop_
_space_group_symop_operation_xyz
x,y,z
-x,-y,-z
loop_
_atom_site_type_symbol
_atom_site_label
_atom_site_fract_x
_atom_site_fract_y
_atom_site_fract_z
Si Si1 0.209318 0.595465 0.416820
Si Si2 0.426971 0.042936 0.428473
Si Si3 0.252856 0.068213 0.217185
Si Si4 0.165220 0.649712 0.319180
Si Si5 0.384170 0.515390 0.284452
Si Si6 0.681987 0.956081 0.126926
Si Si7 0.311084 0.505482 0.743901
Si Si8 0.826380 0.352040 0.090249
O O1 0.245903 0.579133 0.227414
O O2 0.333545 0.550543 0.279548
O O3 0.212857 0.838382 0.716642
O O4 0.031434 0.440196 0.501268
O O5 0.242616 0.896819 0.499925
O O6 0.510276 0.004951 0.377710
O O7 0.461304 0.288397 0.663539
O O8 0.552187 0.956375 0.078522
O O9 0.230703 0.275212 0.541682
O O10 0.219211 0.059366 0.132156
O O11 0.153615 0.872440 0.179587
O O12 0.222905 0.559949 0.030326
O O13 0.245749 0.566789 0.612328
O O14 0.366566 0.273147 0.035072
O O15 0.500000 0.500000 0.500000
O O16 0.294976 0.648797 0.840968
O O17 0.000000 0.500000 0.000000
#
# Coordination Sequence:
#
# PCOD9092108 Si02
#       8
#     2   2   2   2   2   2   2   2
#     4  10  23  42  65  88 132 167 212 264 310 399
#     4   8  18  38  61  87 123 159 206 258 313 376
#     4   9  20  39  62  94 123 161 211 270 315 375
#     4  11  23  43  61  91 132 177 202 252 339 376
#     4  10  19  40  66  91 121 161 220 269 310 365
#     4   9  18  39  67  90 121 158 219 267 314 366
#     4  12  23  40  65  92 136 164 208 265 320 396
#     4  11  22  37  64  95 127 164 212 264 323 381
#
# _framework density 22.799033000000001
#
# number of rings (size 3 to 8) (size 9 to 14) (size 15 to 20)
#    0.750    1.250    3.750    0.750    0.000    4.000 
#    0.000    7.500    0.000    0.000    0.000    0.000 
#    0.000    0.000    0.000    0.000    0.000    0.000 
#
# Total GULP energy -89319.848264 kJ/mol
# GULP energy per Si atom -5582.490517 kJ/mol
# Density = 2.274714 g / cm^3
# Si number density = 22.799033 Si / 1000 Ang^3
#
#
#
# Elastic Constant Matrix: (Units=GPa)
#
#
# Indices 1 2 3 4 5 6 
#
# 1 80.1613 30.5468 15.6162 15.0902 9.3267 -13.3519
# 2 30.5468 182.1447 34.8702 26.9160 1.5320 2.4829
# 3 15.6162 34.8702 75.1309 24.1039 27.6084 -8.4405
# 4 15.0902 26.9160 24.1039 43.5341 -3.4845 -4.2403
# 5 9.3267 1.5320 27.6084 -3.4845 34.1738 -4.6581
# 6 -13.3519 2.4829 -8.4405 -4.2403 -4.6581 47.1944
#
#
#
# Elastic Compliance Matrix: (Units=1/GPa)
#
#
# Indices 1 2 3 4 5 6 
#
# 1 0.015157 -0.002173 0.001998 -0.005105 -0.005664 0.003742
# 2 -0.002173 0.006705 -0.003302 -0.001495 0.002612 -0.001435
# 3 0.001998 -0.003302 0.029479 -0.016836 -0.025662 0.001966
# 4 -0.005105 -0.001495 -0.016836 0.036574 0.018896 0.000775
# 5 -0.005664 0.002612 -0.025662 0.018896 0.053437 0.000643
# 6 0.003742 -0.001435 0.001966 0.000775 0.000643 0.022808
#
#
# Mechanical properties :
#
#
# Convention : Reuss Voigt Hill
#
# Bulk Modulus (GPa) = 22.52913 55.50039 39.01476
# Shear Modulus (GPa) = 26.89463 42.07402 34.48432
#
# Velocity S-wave (km/s) = 3.43831 4.30051 3.89335
# Velocity P-wave (km/s) = 5.06614 7.00395 6.11233
#
# Compressibility (1/GPa) = 0.04438699
#
# Stress axis : x y z
#
# Youngs Moduli (GPa) = 65.97547 149.13778 33.92199
#
# Poissons Ratio (x) = 0.32413 -0.06777
# Poissons Ratio (y) = 0.14339 0.11200
# Poissons Ratio (z) = -0.13180 0.49241
#
# Static dielectric constant tensor:
#      x y z
#    x 1.921660 0.019980 0.006390 
#    y 0.019980 1.855770 -0.030840 
#    z 0.006390 -0.030840 1.890230 
# 
# From -- ./inp_files/471779.got.cif
#   From: 2010.05.17/outbox.cif.g08.bks.cpg/sg2_236_cif.got.tgz:471779.got - 2010.06.03 11:33:40.
