data_PCOD9092162
_publ_section_title
;
Structure prediction by ZEFSAII (Michael W. Deem and Ramdas Pophale) SiO2 
 PCOD9092162
Probable space group: P -1
;
_chemical_formula_sum "Si O2"
_cell_formula_units_Z 16
_cell_length_a 16.842754
_cell_length_b 6.580610
_cell_length_c 24.815099
_cell_angle_alpha 83.850729
_cell_angle_beta 159.291860
_cell_angle_gamma 85.121569
_cell_volume 821.856316
_symmetry_space_group_name_H-M "P -1"
_symmetry_group_IT_number 2
_symmetry_cell_setting 'triclinic'
loop_
_space_group_symop_operation_xyz
x,y,z
-x,-y,-z
loop_
_atom_site_type_symbol
_atom_site_label
_atom_site_fract_x
_atom_site_fract_y
_atom_site_fract_z
Si Si1 0.595706 0.240064 0.091604
Si Si2 0.514228 0.982282 0.242937
Si Si3 0.070885 0.803852 0.595984
Si Si4 0.523360 0.700259 0.159895
Si Si5 0.806011 0.920699 0.141425
Si Si6 0.860399 0.462224 0.029777
Si Si7 0.182405 0.655060 0.284976
Si Si8 0.952134 0.058323 0.030768
O O1 0.713550 0.216009 0.226016
O O2 0.830882 0.020007 0.212045
O O3 0.500000 0.500000 0.000000
O O4 0.335756 0.224535 0.932264
O O5 0.540189 0.897976 0.199962
O O6 0.799898 0.877194 0.451430
O O7 0.353462 0.865099 0.164444
O O8 0.340577 0.269322 0.127173
O O9 0.199855 0.543812 0.658864
O O10 0.000000 0.000000 0.500000
O O11 0.309330 0.632965 0.045434
O O12 0.422530 0.826493 0.035640
O O13 0.029476 0.793395 0.239895
O O14 0.992035 0.270518 0.070339
O O15 0.064173 0.491000 0.195785
O O16 0.500000 0.500000 0.500000
O O17 0.098239 0.845824 0.175534
O O18 0.000000 0.000000 0.000000
#
# Coordination Sequence:
#
# PCOD9092162 Si02
#       8
#     2   2   2   2   2   2   2   2
#     4  11  25  42  64  93 132 178 209 264 329 388
#     4  10  21  36  59  96 124 165 208 260 321 378
#     4  12  22  37  64  98 127 168 216 257 320 389
#     4  11  19  38  66  91 128 171 210 261 311 395
#     4  11  22  44  65  89 133 174 219 259 327 395
#     4  10  19  40  67  87 126 172 206 258 334 381
#     4  11  24  43  67  97 123 169 223 273 322 389
#     4  10  23  45  64  93 125 165 213 268 332 382
#
# _framework density 19.468122999999999
#
# number of rings (size 3 to 8) (size 9 to 14) (size 15 to 20)
#    0.000    1.250    6.250    1.875    0.000    2.500 
#    6.750    0.000    0.000    0.000    0.000    0.000 
#    0.000    0.000    0.000    0.000    0.000    0.000 
#
# Total GULP energy -89081.764414 kJ/mol
# GULP energy per Si atom -5567.610276 kJ/mol
# Density = 1.942381 g / cm^3
# Si number density = 19.468123 Si / 1000 Ang^3
#
#
#
# Elastic Constant Matrix: (Units=GPa)
#
#
# Indices 1 2 3 4 5 6 
#
# 1 97.5212 39.8048 25.9914 -5.1413 4.2892 -21.3595
# 2 39.8048 125.8982 36.6438 -1.4195 0.0166 -16.2106
# 3 25.9914 36.6438 86.7361 -3.4525 15.5260 -2.7354
# 4 -5.1413 -1.4195 -3.4525 23.7480 2.0837 1.7912
# 5 4.2892 0.0166 15.5260 2.0837 22.7703 1.2801
# 6 -21.3595 -16.2106 -2.7354 1.7912 1.2801 28.7586
#
#
#
# Elastic Compliance Matrix: (Units=1/GPa)
#
#
# Indices 1 2 3 4 5 6 
#
# 1 0.014048 -0.002579 -0.002474 0.002015 -0.001631 0.008691
# 2 -0.002579 0.010393 -0.004123 -0.001079 0.003193 0.003476
# 3 -0.002474 -0.004123 0.015922 0.002630 -0.010496 -0.002343
# 4 0.002015 -0.001079 0.002630 0.043494 -0.006080 -0.001300
# 5 -0.001631 0.003193 -0.010496 -0.006080 0.052067 -0.002349
# 6 0.008691 0.003476 -0.002343 -0.001300 -0.002349 0.043149
#
#
# Mechanical properties :
#
#
# Convention : Reuss Voigt Hill
#
# Bulk Modulus (GPa) = 45.43105 57.22617 51.32861
# Shear Modulus (GPa) = 24.41847 28.90307 26.66077
#
# Velocity S-wave (km/s) = 3.54542 3.85728 3.70463
# Velocity P-wave (km/s) = 6.33615 7.02116 6.68743
#
# Compressibility (1/GPa) = 0.02201138
#
# Stress axis : x y z
#
# Youngs Moduli (GPa) = 71.18503 96.21495 62.80633
#
# Poissons Ratio (x) = 0.24818 0.15536
# Poissons Ratio (y) = 0.18362 0.25894
# Poissons Ratio (z) = 0.17609 0.39668
#
# Static dielectric constant tensor:
#      x y z
#    x 1.839380 -0.052460 0.010310 
#    y -0.052460 1.718560 0.010680 
#    z 0.010310 0.010680 1.700110 
# 
# From -- ./inp_files/620086.got.cif
#   From: 2010.05.17/outbox.cif.g08.bks.cpg/sg2_311_cif.got.tgz:620086.got - 2010.06.03 11:33:40.
