data_PCOD9092850
_publ_section_title
;
Structure prediction by ZEFSAII (Michael W. Deem and Ramdas Pophale) SiO2 
 PCOD9092850
Probable space group: P -1
;
_chemical_formula_sum "Si O2"
_cell_formula_units_Z 16
_cell_length_a 12.034702
_cell_length_b 10.251035
_cell_length_c 9.098545
_cell_angle_alpha 89.368812
_cell_angle_beta 105.168296
_cell_angle_gamma 143.527920
_cell_volume 603.842496
_symmetry_space_group_name_H-M "P -1"
_symmetry_group_IT_number 2
_symmetry_cell_setting 'triclinic'
loop_
_space_group_symop_operation_xyz
x,y,z
-x,-y,-z
loop_
_atom_site_type_symbol
_atom_site_label
_atom_site_fract_x
_atom_site_fract_y
_atom_site_fract_z
Si Si1 0.207766 0.757374 0.489952
Si Si2 0.259814 0.435948 0.130103
Si Si3 0.312355 0.069061 0.883132
Si Si4 0.665177 0.183494 0.183773
Si Si5 0.430821 0.307996 0.198536
Si Si6 0.456805 0.254142 0.541678
Si Si7 0.203740 0.190057 0.661101
Si Si8 0.994175 0.382065 0.876434
O O1 0.372997 0.839307 0.654996
O O2 0.000000 0.500000 0.500000
O O3 0.177014 0.732601 0.302542
O O4 0.299606 0.990775 0.534154
O O5 0.465766 0.691471 0.120013
O O6 0.289618 0.306615 0.131322
O O7 0.311220 0.534474 0.313949
O O8 0.056303 0.307459 0.988218
O O9 0.175128 0.060214 0.782624
O O10 0.219650 0.848228 0.796656
O O11 0.357480 0.124039 0.068927
O O12 0.812591 0.430958 0.170541
O O13 0.500000 0.000000 0.000000
O O14 0.436679 0.261050 0.364511
O O15 0.666834 0.568534 0.232862
O O16 0.366621 0.293771 0.594499
O O17 0.000000 0.000000 0.500000
O O18 0.000000 0.500000 0.000000
#
# Coordination Sequence:
#
# PCOD9092850 Si02
#       8
#     2   2   2   2   2   2   2   2
#     4  10  22  41  63  90 123 167 213 267 319 372
#     4  10  19  43  65  87 129 173 206 256 320 395
#     4  10  20  39  65  91 126 164 225 250 305 406
#     4  11  20  45  67  86 121 177 217 260 316 386
#     4  10  22  39  66  99 124 170 216 260 319 384
#     4  10  20  42  63  91 130 167 213 262 321 387
#     4  10  20  39  63  91 130 165 212 261 319 382
#     4  11  25  41  63  94 131 159 217 276 326 368
#
# _framework density 26.496974999999999
#
# number of rings (size 3 to 8) (size 9 to 14) (size 15 to 20)
#    0.000    2.000    3.750    3.000    1.750    2.000 
#    6.750    2.500    0.000    0.000    0.000    0.000 
#    0.000    0.000    0.000    0.000    0.000    0.000 
#
# Total GULP energy -89087.105894 kJ/mol
# GULP energy per Si atom -5567.944118 kJ/mol
# Density = 2.643667 g / cm^3
# Si number density = 26.496975 Si / 1000 Ang^3
#
#
#
# Elastic Constant Matrix: (Units=GPa)
#
#
# Indices 1 2 3 4 5 6 
#
# 1 71.3576 25.1063 37.6113 0.8197 2.5894 -15.1486
# 2 25.1063 98.5181 9.2793 -1.3906 10.1279 -8.1029
# 3 37.6113 9.2793 252.8297 -18.1517 0.1438 2.0956
# 4 0.8197 -1.3906 -18.1517 41.2804 -8.5407 6.6432
# 5 2.5894 10.1279 0.1438 -8.5407 33.0159 12.9333
# 6 -15.1486 -8.1029 2.0956 6.6432 12.9333 32.1742
#
#
#
# Elastic Compliance Matrix: (Units=1/GPa)
#
#
# Indices 1 2 3 4 5 6 
#
# 1 0.019875 -0.003057 -0.003339 -0.005471 -0.007019 0.012756
# 2 -0.003057 0.011781 -0.000100 -0.001300 -0.005242 0.003910
# 3 -0.003339 -0.000100 0.004716 0.003233 0.002511 -0.003581
# 4 -0.005471 -0.001300 0.003233 0.031339 0.015044 -0.015632
# 5 -0.007019 -0.005242 0.002511 0.015044 0.046788 -0.026702
# 6 0.012756 0.003910 -0.003581 -0.015632 -0.026702 0.052266
#
#
# Mechanical properties :
#
#
# Convention : Reuss Voigt Hill
#
# Bulk Modulus (GPa) = 42.77288 62.96659 52.86973
# Shear Modulus (GPa) = 26.65953 44.67468 35.66711
#
# Velocity S-wave (km/s) = 3.17540 4.11058 3.67288
# Velocity P-wave (km/s) = 5.44260 6.80768 6.16305
#
# Compressibility (1/GPa) = 0.02337930
#
# Stress axis : x y z
#
# Youngs Moduli (GPa) = 50.31461 84.88272 212.04596
#
# Poissons Ratio (x) = 0.25948 0.70801
# Poissons Ratio (y) = 0.15381 0.02129
# Poissons Ratio (z) = 0.16800 0.00852
#
# Static dielectric constant tensor:
#      x y z
#    x 2.194280 0.111700 0.082340 
#    y 0.111700 2.417700 0.054980 
#    z 0.082340 0.054980 2.316390 
# 
# From -- ./inp_files/307407.got.cif
#   From: 2010.05.17/outbox.cif.g08.bks.cpg/sg2_154_cif.got.tgz:307407.got - 2010.06.03 11:33:40.
