data_PCOD9092711
_publ_section_title
;
Structure prediction by ZEFSAII (Michael W. Deem and Ramdas Pophale) SiO2 
 PCOD9092711
Probable space group: P -1
;
_chemical_formula_sum "Si O2"
_cell_formula_units_Z 16
_cell_length_a 8.883613
_cell_length_b 9.763053
_cell_length_c 10.636956
_cell_angle_alpha 93.152782
_cell_angle_beta 101.066561
_cell_angle_gamma 43.958184
_cell_volume 623.766640
_symmetry_space_group_name_H-M "P -1"
_symmetry_group_IT_number 2
_symmetry_cell_setting 'triclinic'
loop_
_space_group_symop_operation_xyz
x,y,z
-x,-y,-z
loop_
_atom_site_type_symbol
_atom_site_label
_atom_site_fract_x
_atom_site_fract_y
_atom_site_fract_z
Si Si1 0.951743 0.952363 0.186462
Si Si2 0.768113 0.004184 0.896940
Si Si3 0.567936 0.867902 0.326239
Si Si4 0.152010 0.532109 0.904823
Si Si5 0.804467 0.914559 0.528032
Si Si6 0.295028 0.519849 0.668580
Si Si7 0.390426 0.741709 0.635262
Si Si8 0.157549 0.517378 0.191494
O O1 0.059018 0.732755 0.210314
O O2 0.789630 0.110443 0.276763
O O3 0.797286 0.045455 0.041715
O O4 0.149530 0.931730 0.183842
O O5 0.946927 0.767941 0.903918
O O6 0.531288 0.093750 0.825932
O O7 0.739443 0.873969 0.389126
O O8 0.661082 0.662073 0.377202
O O9 0.350297 0.039523 0.383063
O O10 0.303180 0.504362 0.821254
O O11 0.040378 0.465438 0.830023
O O12 0.241583 0.454085 0.055953
O O13 0.051816 0.722893 0.595847
O O14 0.732642 0.116538 0.498019
O O15 0.440712 0.547584 0.639143
O O16 0.630183 0.653169 0.696982
#
# Coordination Sequence:
#
# PCOD9092711 Si02
#       8
#     2   2   2   2   2   2   2   2
#     4  10  22  39  64  97 133 170 201 266 319 381
#     4  10  19  42  65  92 136 166 209 259 325 376
#     4  11  24  42  68  93 121 177 214 265 319 378
#     4  10  21  43  63  92 137 165 207 268 314 375
#     4  11  26  45  63  93 132 165 219 272 312 370
#     4  12  25  42  69  95 126 172 216 266 317 377
#     4  12  25  41  68  99 128 169 216 260 316 391
#     4  10  24  40  62  97 133 169 205 262 320 377
#
# _framework density 25.650618000000001
#
# number of rings (size 3 to 8) (size 9 to 14) (size 15 to 20)
#    0.000    1.250    2.500    2.250    5.250    2.000 
#    0.000    2.500    0.000    0.000    0.000    0.000 
#    0.000    0.000    0.000    0.000    0.000    0.000 
#
# Total GULP energy -89629.374233 kJ/mol
# GULP energy per Si atom -5601.835890 kJ/mol
# Density = 2.559224 g / cm^3
# Si number density = 25.650618 Si / 1000 Ang^3
#
#
#
# Elastic Constant Matrix: (Units=GPa)
#
#
# Indices 1 2 3 4 5 6 
#
# 1 60.9120 17.7141 16.9114 11.1852 -3.6133 11.6601
# 2 17.7141 96.6956 -0.4589 -4.2324 2.4321 17.6918
# 3 16.9114 -0.4589 84.1674 -8.6866 -0.1296 -13.0338
# 4 11.1852 -4.2324 -8.6866 24.0421 3.8499 -0.7546
# 5 -3.6133 2.4321 -0.1296 3.8499 34.2408 -2.3849
# 6 11.6601 17.6918 -13.0338 -0.7546 -2.3849 44.8295
#
#
#
# Elastic Compliance Matrix: (Units=1/GPa)
#
#
# Indices 1 2 3 4 5 6 
#
# 1 0.024064 -0.003955 -0.007520 -0.015475 0.004049 -0.006930
# 2 -0.003955 0.011954 0.000773 0.004435 -0.002006 -0.003496
# 3 -0.007520 0.000773 0.015345 0.009604 -0.001439 0.006198
# 4 -0.015475 0.004435 0.009604 0.054443 -0.007645 0.005577
# 5 0.004049 -0.002006 -0.001439 -0.007645 0.030686 0.000824
# 6 -0.006930 -0.003496 0.006198 0.005577 0.000824 0.027428
#
#
# Mechanical properties :
#
#
# Convention : Reuss Voigt Hill
#
# Bulk Modulus (GPa) = 33.38043 34.45646 33.91845
# Shear Modulus (GPa) = 25.60011 34.46305 30.03158
#
# Velocity S-wave (km/s) = 3.16259 3.66943 3.42540
# Velocity P-wave (km/s) = 5.13592 5.60492 5.37554
#
# Compressibility (1/GPa) = 0.02995767
#
# Stress axis : x y z
#
# Youngs Moduli (GPa) = 41.55654 83.65221 65.16757
#
# Poissons Ratio (x) = 0.33087 0.49009
# Poissons Ratio (y) = 0.16437 -0.05039
# Poissons Ratio (z) = 0.31253 -0.06468
#
# Static dielectric constant tensor:
#      x y z
#    x 2.036390 0.037810 0.011710 
#    y 0.037810 1.988130 0.051880 
#    z 0.011710 0.051880 2.047270 
# 
# From -- ./inp_files/245955.got.cif
#   From: 2010.05.17/outbox.cif.g08.bks.cpg/sg2_123_cif.got.tgz:245955.got - 2010.06.03 11:33:40.
