data_PCOD9092058
_publ_section_title
;
Structure prediction by ZEFSAII (Michael W. Deem and Ramdas Pophale) SiO2 
 PCOD9092058
Probable space group: P -1
;
_chemical_formula_sum "Si O2"
_cell_formula_units_Z 16
_cell_length_a 6.506438
_cell_length_b 8.888177
_cell_length_c 16.106243
_cell_angle_alpha 112.739313
_cell_angle_beta 100.916058
_cell_angle_gamma 95.031853
_cell_volume 830.067177
_symmetry_space_group_name_H-M "P -1"
_symmetry_group_IT_number 2
_symmetry_cell_setting 'triclinic'
loop_
_space_group_symop_operation_xyz
x,y,z
-x,-y,-z
loop_
_atom_site_type_symbol
_atom_site_label
_atom_site_fract_x
_atom_site_fract_y
_atom_site_fract_z
Si Si1 0.769048 0.221667 0.299670
Si Si2 0.850469 0.621311 0.549855
Si Si3 0.481395 0.876719 0.160315
Si Si4 0.190885 0.071048 0.090814
Si Si5 0.490616 0.506181 0.625198
Si Si6 0.956371 0.361413 0.175465
Si Si7 0.490748 0.711336 0.953734
Si Si8 0.637687 0.425024 0.798996
O O1 0.597955 0.320100 0.348873
O O2 0.847236 0.339786 0.251951
O O3 0.978639 0.223939 0.372028
O O4 0.657203 0.039841 0.224894
O O5 0.711506 0.538322 0.599093
O O6 0.677678 0.628909 0.466523
O O7 0.000000 0.500000 0.500000
O O8 0.435900 0.756668 0.209401
O O9 0.266287 0.942659 0.131360
O O10 0.541601 0.770935 0.063788
O O11 0.396928 0.142476 0.066915
O O12 0.110510 0.225044 0.159876
O O13 0.000000 0.000000 0.000000
O O14 0.521380 0.456600 0.711374
O O15 0.761900 0.319251 0.087316
O O16 0.112164 0.526981 0.194369
O O17 0.582291 0.552707 0.892838
#
# Coordination Sequence:
#
# PCOD9092058 Si02
#       8
#     2   2   2   2   2   2   2   2
#     4  11  20  38  64  92 116 157 209 248 291 359
#     4   9  20  36  70  95 114 150 206 248 297 367
#     4  12  24  39  57  92 129 161 204 256 305 345
#     4  11  21  36  58  82 113 160 213 256 289 338
#     4  10  19  40  65  94 119 154 201 250 301 366
#     4  11  20  38  61  80 118 162 208 245 294 353
#     4  11  22  42  59  82 123 173 212 244 289 364
#     4  11  24  39  59  90 129 162 198 254 309 361
#
# _framework density 19.275549000000002
#
# number of rings (size 3 to 8) (size 9 to 14) (size 15 to 20)
#    0.000    1.250    5.000    2.250    0.000    0.500 
#    4.500    0.625    0.000    6.750    0.000    0.000 
#    0.000    0.000    0.000    0.000    0.000    0.000 
#
# Total GULP energy -89270.592210 kJ/mol
# GULP energy per Si atom -5579.412013 kJ/mol
# Density = 1.923168 g / cm^3
# Si number density = 19.275549 Si / 1000 Ang^3
#
#
#
# Elastic Constant Matrix: (Units=GPa)
#
#
# Indices 1 2 3 4 5 6 
#
# 1 107.1733 40.9632 44.7482 1.2420 12.0624 21.6359
# 2 40.9632 79.0051 36.6972 -6.7512 11.5360 15.5985
# 3 44.7482 36.6972 101.7487 7.0171 20.3719 18.3068
# 4 1.2420 -6.7512 7.0171 13.8705 8.2489 2.0083
# 5 12.0624 11.5360 20.3719 8.2489 49.8493 5.8841
# 6 21.6359 15.5985 18.3068 2.0083 5.8841 15.3917
#
#
#
# Elastic Compliance Matrix: (Units=1/GPa)
#
#
# Indices 1 2 3 4 5 6 
#
# 1 0.014585 -0.003581 -0.002666 0.000313 -0.000043 -0.013726
# 2 -0.003581 0.020684 -0.004196 0.016301 -0.003519 -0.011719
# 3 -0.002666 -0.004196 0.014885 -0.006753 -0.002417 -0.007898
# 4 0.000313 0.016301 -0.006753 0.094529 -0.014893 -0.015568
# 5 -0.000043 -0.003519 -0.002417 -0.014893 0.024444 -0.000900
# 6 -0.013726 -0.011719 -0.007898 -0.015568 -0.000900 0.107911
#
#
# Mechanical properties :
#
#
# Convention : Reuss Voigt Hill
#
# Bulk Modulus (GPa) = 34.16809 59.19381 46.68095
# Shear Modulus (GPa) = 16.25073 26.85685 21.55379
#
# Velocity S-wave (km/s) = 2.90672 3.73676 3.34757
# Velocity P-wave (km/s) = 5.38795 7.02807 6.26194
#
# Compressibility (1/GPa) = 0.02926707
#
# Stress axis : x y z
#
# Youngs Moduli (GPa) = 68.56541 48.34770 67.18226
#
# Poissons Ratio (x) = 0.17311 0.17913
# Poissons Ratio (y) = 0.24550 0.28191
# Poissons Ratio (z) = 0.18281 0.20288
#
# Static dielectric constant tensor:
#      x y z
#    x 1.704670 0.004420 0.010280 
#    y 0.004420 1.652120 0.025210 
#    z 0.010280 0.025210 1.741240 
# 
# From -- ./inp_files/55355.got.cif
#   From: 2010.05.17/outbox.cif.g08.bks.cpg/sg2_28_cif.got.tgz:55355.got - 2010.06.03 11:33:40.
