data_PCOD9092200
_publ_section_title
;
Structure prediction by ZEFSAII (Michael W. Deem and Ramdas Pophale) SiO2 
 PCOD9092200
Probable space group: P -1
;
_chemical_formula_sum "Si O2"
_cell_formula_units_Z 14
_cell_length_a 5.783241
_cell_length_b 9.163855
_cell_length_c 23.516709
_cell_angle_alpha 33.132958
_cell_angle_beta 113.191103
_cell_angle_gamma 123.947422
_cell_volume 557.557707
_symmetry_space_group_name_H-M "P -1"
_symmetry_group_IT_number 2
_symmetry_cell_setting 'triclinic'
loop_
_space_group_symop_operation_xyz
x,y,z
-x,-y,-z
loop_
_atom_site_type_symbol
_atom_site_label
_atom_site_fract_x
_atom_site_fract_y
_atom_site_fract_z
Si Si1 0.197053 0.851547 0.916275
Si Si2 0.997313 0.795888 0.294564
Si Si3 0.587669 0.269791 0.351074
Si Si4 0.301576 0.247363 0.433095
Si Si5 0.286063 0.253977 0.014418
Si Si6 0.327989 0.295062 0.603477
Si Si7 0.628984 0.270897 0.223507
O O1 0.174380 0.027944 0.801607
O O2 0.520004 0.902404 0.937433
O O3 0.000000 0.500000 0.000000
O O4 0.017260 0.919466 0.926321
O O5 0.865114 0.503989 0.336296
O O6 0.923270 0.698231 0.385272
O O7 0.317385 0.048539 0.241924
O O8 0.343042 0.294748 0.354871
O O9 0.605682 0.340225 0.264239
O O10 0.527253 0.927219 0.468171
O O11 0.420755 0.560090 0.373396
O O12 0.000000 0.000000 0.500000
O O13 0.243576 0.439382 0.898004
O O14 0.500000 0.500000 0.000000
O O15 0.500000 0.500000 0.500000
O O16 0.227532 0.950085 0.692261
#
# Coordination Sequence:
#
# PCOD9092200 Si02
#       7
#     2   2   2   2   2   2   2
#     4  10  19  40  67  95 132 176 221 275 346 398
#     4  11  24  40  66  91 132 170 216 275 337 393
#     4  10  24  41  59  95 125 167 222 266 326 402
#     4  10  21  43  59  82 134 168 208 279 328 377
#     4  10  20  38  68  98 131 176 220 282 340 397
#     4  11  23  38  61  95 122 168 220 263 324 404
#     4  12  23  39  69  93 128 171 223 268 333 400
#
# _framework density 25.109508000000002
#
# number of rings (size 3 to 8) (size 9 to 14) (size 15 to 20)
#    0.000    1.429    4.286    2.571    2.000    0.571 
#    0.000    1.429    0.000    0.000    0.000    0.000 
#    0.000    0.000    0.000    0.000    0.000    0.000 
#
# Total GULP energy -78097.128054 kJ/mol
# GULP energy per Si atom -5578.366290 kJ/mol
# Density = 2.505236 g / cm^3
# Si number density = 25.109508 Si / 1000 Ang^3
#
#
#
# Elastic Constant Matrix: (Units=GPa)
#
#
# Indices 1 2 3 4 5 6 
#
# 1 103.9184 38.1867 25.5362 8.7375 -22.0890 -2.1977
# 2 38.1867 86.8404 34.3380 12.5640 -11.6275 -18.7633
# 3 25.5362 34.3380 134.4567 21.2427 -15.3923 -23.5009
# 4 8.7375 12.5640 21.2427 37.1566 -12.3829 -14.6610
# 5 -22.0890 -11.6275 -15.3923 -12.3829 40.7979 4.9396
# 6 -2.1977 -18.7633 -23.5009 -14.6610 4.9396 29.0732
#
#
#
# Elastic Compliance Matrix: (Units=1/GPa)
#
#
# Indices 1 2 3 4 5 6 
#
# 1 0.013030 -0.005467 -0.001189 -0.000586 0.005442 -0.004725
# 2 -0.005467 0.016490 -0.001621 0.000230 0.000106 0.009016
# 3 -0.001189 -0.001621 0.009464 -0.002118 0.001187 0.005244
# 4 -0.000586 0.000230 -0.002118 0.037160 0.008325 0.015716
# 5 0.005442 0.000106 0.001187 0.008325 0.030405 0.000472
# 6 -0.004725 0.009016 0.005244 0.015716 0.000472 0.051942
#
#
# Mechanical properties :
#
#
# Convention : Reuss Voigt Hill
#
# Bulk Modulus (GPa) = 44.58238 57.92637 51.25438
# Shear Modulus (GPa) = 27.39397 36.54919 31.97158
#
# Velocity S-wave (km/s) = 3.30658 3.81936 3.57218
# Velocity P-wave (km/s) = 5.68961 6.52454 6.12133
#
# Compressibility (1/GPa) = 0.02243039
#
# Stress axis : x y z
#
# Youngs Moduli (GPa) = 76.74459 60.64457 105.66054
#
# Poissons Ratio (x) = 0.33155 0.12559
# Poissons Ratio (y) = 0.41957 0.17128
# Poissons Ratio (z) = 0.09122 0.09831
#
# Static dielectric constant tensor:
#      x y z
#    x 2.518630 -0.246820 0.292240 
#    y -0.246820 2.092610 -0.190130 
#    z 0.292240 -0.190130 2.412490 
# 
# From -- ./inp_files/39035.got.cif
#   From: 2010.05.17/outbox.cif.g08.bks.cpg/sg2_20_cif.got.tgz:39035.got - 2010.06.03 11:33:40.
