data_PCOD9092191
_publ_section_title
;
Structure prediction by ZEFSAII (Michael W. Deem and Ramdas Pophale) SiO2 
 PCOD9092191
Probable space group: P -1
;
_chemical_formula_sum "Si O2"
_cell_formula_units_Z 15
_cell_length_a 15.416295
_cell_length_b 11.289055
_cell_length_c 22.624931
_cell_angle_alpha 22.198765
_cell_angle_beta 25.321800
_cell_angle_gamma 37.988847
_cell_volume 606.590713
_symmetry_space_group_name_H-M "P -1"
_symmetry_group_IT_number 2
_symmetry_cell_setting 'triclinic'
loop_
_space_group_symop_operation_xyz
x,y,z
-x,-y,-z
loop_
_atom_site_type_symbol
_atom_site_label
_atom_site_fract_x
_atom_site_fract_y
_atom_site_fract_z
Si Si1 0.261670 0.325374 0.895043
Si Si2 0.125644 0.538662 0.594962
Si Si3 0.580907 0.401720 0.211471
Si Si4 0.439459 0.141677 0.078989
Si Si5 0.631372 0.749952 0.755355
Si Si6 0.905998 0.670220 0.425641
Si Si7 0.458661 0.177754 0.586939
Si Si8 0.000000 0.000000 0.500000
O O1 0.296970 0.565219 0.817944
O O2 0.329214 0.541984 0.695099
O O3 0.434451 0.119704 0.888517
O O4 0.041480 0.049118 0.162667
O O5 0.085436 0.457003 0.588608
O O6 0.271288 0.343796 0.623558
O O7 0.944860 0.577502 0.730897
O O8 0.248622 0.947074 0.331439
O O9 0.660725 0.749348 0.967135
O O10 0.336851 0.364759 0.394329
O O11 0.597947 0.106627 0.296667
O O12 0.603180 0.482360 0.843380
O O13 0.864083 0.942374 0.544915
O O14 0.512292 0.012471 0.688654
O O15 0.500000 0.500000 0.000000
O O16 0.000000 0.500000 0.500000
#
# Coordination Sequence:
#
# PCOD9092191 Si02
#       8
#     2   2   2   2   2   2   2   1
#     4  11  21  39  62  98 143 178 219 276 332 407
#     4  11  24  45  69 101 139 181 237 285 340 408
#     4  11  21  40  65  98 143 184 221 267 346 416
#     4  10  19  40  67  93 135 185 219 275 340 407
#     4  11  24  48  72  95 128 179 233 291 353 404
#     4  12  23  37  70 105 140 184 229 276 332 414
#     4  10  25  45  67  99 144 180 223 291 352 407
#     4  12  26  46  74 100 128 174 244 292 336 418
#
# _framework density 24.728372
#
# number of rings (size 3 to 8) (size 9 to 14) (size 15 to 20)
#    0.000    1.067    5.333    2.400    1.867    1.067 
#    2.400    0.667    0.000    0.000    0.000    0.000 
#    0.000    0.000    0.000    0.000    0.000    0.000 
#
# Total GULP energy -83716.226373 kJ/mol
# GULP energy per Si atom -5581.081758 kJ/mol
# Density = 2.467209 g / cm^3
# Si number density = 24.728372 Si / 1000 Ang^3
#
#
#
# Elastic Constant Matrix: (Units=GPa)
#
#
# Indices 1 2 3 4 5 6 
#
# 1 124.2463 53.5936 40.9004 -15.8097 -1.8541 -23.0340
# 2 53.5936 141.0667 26.6970 -23.1434 -5.2597 -20.9160
# 3 40.9004 26.6970 110.3047 -2.0682 10.1170 -23.7468
# 4 -15.8097 -23.1434 -2.0682 27.5501 -8.2524 10.7769
# 5 -1.8541 -5.2597 10.1170 -8.2524 52.5218 -9.1689
# 6 -23.0340 -20.9160 -23.7468 10.7769 -9.1689 32.7389
#
#
#
# Elastic Compliance Matrix: (Units=1/GPa)
#
#
# Indices 1 2 3 4 5 6 
#
# 1 0.011209 -0.002594 -0.002855 0.003165 0.001816 0.003625
# 2 -0.002594 0.009759 -0.001029 0.006512 0.002495 0.002218
# 3 -0.002855 -0.001029 0.011999 -0.004999 -0.002060 0.007105
# 4 0.003165 0.006512 -0.004999 0.050004 0.007562 -0.011581
# 5 0.001816 0.002495 -0.002060 0.007562 0.021811 0.004996
# 6 0.003625 0.002218 0.007105 -0.011581 0.004996 0.044877
#
#
# Mechanical properties :
#
#
# Convention : Reuss Voigt Hill
#
# Bulk Modulus (GPa) = 49.97493 68.66663 59.32078
# Shear Modulus (GPa) = 29.53568 39.52394 34.52981
#
# Velocity S-wave (km/s) = 3.45977 4.00224 3.74085
# Velocity P-wave (km/s) = 6.01776 7.01327 6.53450
#
# Compressibility (1/GPa) = 0.02001003
#
# Stress axis : x y z
#
# Youngs Moduli (GPa) = 89.21268 102.46578 83.34364
#
# Poissons Ratio (x) = 0.26576 0.23798
# Poissons Ratio (y) = 0.23139 0.08580
# Poissons Ratio (z) = 0.25474 0.10548
#
# Static dielectric constant tensor:
#      x y z
#    x 2.096000 0.026200 -0.022550 
#    y 0.026200 2.236710 0.091440 
#    z -0.022550 0.091440 2.018830 
# 
# From -- ./inp_files/611900.got.cif
#   From: 2010.05.17/outbox.cif.g08.bks.cpg/sg2_306_cif.got.tgz:611900.got - 2010.06.03 11:33:40.
