data_PCOD9092932
_publ_section_title
;
Structure prediction by ZEFSAII (Michael W. Deem and Ramdas Pophale) SiO2 
 PCOD9092932
Probable space group: P -1
;
_chemical_formula_sum "Si O2"
_cell_formula_units_Z 16
_cell_length_a 10.345357
_cell_length_b 9.500097
_cell_length_c 15.675634
_cell_angle_alpha 131.660302
_cell_angle_beta 146.355244
_cell_angle_gamma 51.494962
_cell_volume 628.725023
_symmetry_space_group_name_H-M "P -1"
_symmetry_group_IT_number 2
_symmetry_cell_setting 'triclinic'
loop_
_space_group_symop_operation_xyz
x,y,z
-x,-y,-z
loop_
_atom_site_type_symbol
_atom_site_label
_atom_site_fract_x
_atom_site_fract_y
_atom_site_fract_z
Si Si1 0.471868 0.797542 0.862718
Si Si2 0.466613 0.078673 0.758585
Si Si3 0.681390 0.293547 0.638480
Si Si4 0.196291 0.823923 0.156676
Si Si5 0.852239 0.745047 0.631191
Si Si6 0.060047 0.121555 0.449076
Si Si7 0.364258 0.643480 0.915064
Si Si8 0.255577 0.304156 0.194980
O O1 0.459420 0.650176 0.873827
O O2 0.674041 0.726131 0.877986
O O3 0.221906 0.834290 0.689884
O O4 0.500000 0.000000 0.000000
O O5 0.577134 0.167873 0.773418
O O6 0.188273 0.143533 0.618062
O O7 0.555678 0.851872 0.715961
O O8 0.587302 0.156058 0.937678
O O9 0.761974 0.296874 0.783157
O O10 0.398777 0.299235 0.494636
O O11 0.736219 0.477521 0.693041
O O12 0.827208 0.096029 0.602978
O O13 0.126966 0.041498 0.239342
O O14 0.999704 0.756165 0.961807
O O15 0.868160 0.753022 0.540461
O O16 0.090730 0.621727 0.748536
O O17 0.500000 0.500000 0.000000
#
# Coordination Sequence:
#
# PCOD9092932 Si02
#       8
#     2   2   2   2   2   2   2   2
#     4  11  23  49  67  93 142 190 221 272 351 419
#     4  12  23  44  68 100 134 180 231 280 345 396
#     4  11  22  41  68 109 131 173 238 284 339 399
#     4  11  21  43  71  96 134 182 229 276 341 412
#     4  10  19  44  69  96 132 182 222 279 339 409
#     4  10  22  42  75  94 137 187 225 273 344 420
#     4  11  26  43  70  99 133 180 239 275 334 413
#     4  12  26  40  68 105 143 178 224 288 348 396
#
# _framework density 25.448328
#
# number of rings (size 3 to 8) (size 9 to 14) (size 15 to 20)
#    0.000    1.000    5.000    3.000    1.750    2.000 
#    2.250    2.500    0.000    0.000    0.000    0.000 
#    0.000    0.000    0.000    0.000    0.000    0.000 
#
# Total GULP energy -89634.063343 kJ/mol
# GULP energy per Si atom -5602.128959 kJ/mol
# Density = 2.539041 g / cm^3
# Si number density = 25.448328 Si / 1000 Ang^3
#
#
#
# Elastic Constant Matrix: (Units=GPa)
#
#
# Indices 1 2 3 4 5 6 
#
# 1 47.8362 1.3845 3.4244 -10.2252 1.9615 3.3586
# 2 1.3845 136.7299 45.6374 -13.4226 9.0175 16.0658
# 3 3.4244 45.6374 104.8117 -33.6905 18.8744 11.1177
# 4 -10.2252 -13.4226 -33.6905 43.7908 3.3103 -6.1565
# 5 1.9615 9.0175 18.8744 3.3103 32.5144 0.6922
# 6 3.3586 16.0658 11.1177 -6.1565 0.6922 22.5679
#
#
#
# Elastic Compliance Matrix: (Units=1/GPa)
#
#
# Indices 1 2 3 4 5 6 
#
# 1 0.022555 0.000223 0.002313 0.007002 -0.003422 -0.002640
# 2 0.000223 0.009032 -0.003558 -0.000578 -0.000291 -0.004859
# 3 0.002313 -0.003558 0.017476 0.013352 -0.010605 -0.002453
# 4 0.007002 -0.000578 0.013352 0.035865 -0.011726 0.002936
# 5 -0.003422 -0.000291 -0.010605 -0.011726 0.038359 0.001565
# 6 -0.002640 -0.004859 -0.002453 0.002936 0.001565 0.050124
#
#
# Mechanical properties :
#
#
# Convention : Reuss Voigt Hill
#
# Bulk Modulus (GPa) = 21.26816 43.36338 32.31577
# Shear Modulus (GPa) = 26.16028 35.70341 30.93184
#
# Velocity S-wave (km/s) = 3.20969 3.74970 3.49015
# Velocity P-wave (km/s) = 4.70230 5.98529 5.38216
#
# Compressibility (1/GPa) = 0.04701864
#
# Stress axis : x y z
#
# Youngs Moduli (GPa) = 44.33615 110.71163 57.22036
#
# Poissons Ratio (x) = -0.02467 -0.13235
# Poissons Ratio (y) = -0.00988 0.20361
# Poissons Ratio (z) = -0.10255 0.39394
#
# Static dielectric constant tensor:
#      x y z
#    x 1.999160 -0.029840 -0.073680 
#    y -0.029840 2.031110 0.071870 
#    z -0.073680 0.071870 2.041990 
# 
# From -- ./inp_files/567003.got.cif
#   From: 2010.05.17/outbox.cif.g08.bks.cpg/sg2_284_cif.got.tgz:567003.got - 2010.06.03 11:33:40.
