data_PCOD9092860
_publ_section_title
;
Structure prediction by ZEFSAII (Michael W. Deem and Ramdas Pophale) SiO2 
 PCOD9092860
Probable space group: P -1
;
_chemical_formula_sum "Si O2"
_cell_formula_units_Z 16
_cell_length_a 17.895971
_cell_length_b 9.569943
_cell_length_c 18.440855
_cell_angle_alpha 142.634516
_cell_angle_beta 153.637865
_cell_angle_gamma 30.195914
_cell_volume 702.411817
_symmetry_space_group_name_H-M "P -1"
_symmetry_group_IT_number 2
_symmetry_cell_setting 'triclinic'
loop_
_space_group_symop_operation_xyz
x,y,z
-x,-y,-z
loop_
_atom_site_type_symbol
_atom_site_label
_atom_site_fract_x
_atom_site_fract_y
_atom_site_fract_z
Si Si1 0.426487 0.945502 0.807946
Si Si2 0.778677 0.112436 0.941912
Si Si3 0.866616 0.035262 0.329141
Si Si4 0.253256 0.699173 0.440743
Si Si5 0.810959 0.371123 0.929648
Si Si6 0.693761 0.630405 0.354026
Si Si7 0.306745 0.497533 0.854715
Si Si8 0.673843 0.149253 0.590242
O O1 0.335018 0.845887 0.624338
O O2 0.662319 0.696838 0.918925
O O3 0.310570 0.981264 0.796950
O O4 0.384347 0.235016 0.865558
O O5 0.780429 0.287926 0.948357
O O6 0.552300 0.191737 0.787478
O O7 0.830720 0.221543 0.103632
O O8 0.949037 0.790095 0.942030
O O9 0.028578 0.810943 0.320176
O O10 0.772884 0.342518 0.343563
O O11 0.000000 0.000000 0.500000
O O12 0.426651 0.370324 0.463293
O O13 0.251140 0.786108 0.391874
O O14 0.740621 0.228940 0.753143
O O15 0.775362 0.551518 0.310264
O O16 0.743979 0.831356 0.518300
O O17 0.500000 0.500000 0.000000
#
# Coordination Sequence:
#
# PCOD9092860 Si02
#       8
#     2   2   2   2   2   2   2   2
#     4  10  19  43  66  92 131 174 214 273 327 381
#     4  10  23  44  59  95 134 173 220 260 325 393
#     4  10  22  39  62  98 135 164 214 268 326 395
#     4   9  20  39  62 101 133 163 213 269 337 387
#     4  10  22  41  66  93 132 176 217 265 325 394
#     4  11  22  43  67  98 131 170 217 275 326 383
#     4  10  23  42  67  91 128 173 221 267 320 386
#     4  10  21  39  71  95 133 169 212 276 328 383
#
# _framework density 22.778659000000001
#
# number of rings (size 3 to 8) (size 9 to 14) (size 15 to 20)
#    0.000    2.000    2.500    0.000    1.750    3.500 
#    4.500    2.500    0.000    0.000    0.000    0.000 
#    0.000    0.000    0.000    0.000    0.000    0.000 
#
# Total GULP energy -89481.236320 kJ/mol
# GULP energy per Si atom -5592.577270 kJ/mol
# Density = 2.272681 g / cm^3
# Si number density = 22.778659 Si / 1000 Ang^3
#
#
#
# Elastic Constant Matrix: (Units=GPa)
#
#
# Indices 1 2 3 4 5 6 
#
# 1 122.1302 52.8025 25.5379 2.2073 -3.3306 -13.5474
# 2 52.8025 95.1145 19.6247 -0.0189 17.1809 7.7349
# 3 25.5379 19.6247 59.8415 -2.3676 -12.3120 -10.3616
# 4 2.2073 -0.0189 -2.3676 33.2192 -13.1496 0.0662
# 5 -3.3306 17.1809 -12.3120 -13.1496 22.3968 -1.6354
# 6 -13.5474 7.7349 -10.3616 0.0662 -1.6354 37.0797
#
#
#
# Elastic Compliance Matrix: (Units=1/GPa)
#
#
# Indices 1 2 3 4 5 6 
#
# 1 0.014613 -0.013354 0.004221 0.007073 0.019632 0.010158
# 2 -0.013354 0.033196 -0.020255 -0.021291 -0.052527 -0.019743
# 3 0.004221 -0.020255 0.035853 0.022079 0.050149 0.017959
# 4 0.007073 -0.021291 0.022079 0.056421 0.063809 0.015909
# 5 0.019632 -0.052527 0.050149 0.063809 0.155734 0.038898
# 6 0.010158 -0.019743 0.017959 0.015909 0.038898 0.041504
#
#
# Mechanical properties :
#
#
# Convention : Reuss Voigt Hill
#
# Bulk Modulus (GPa) = 40.18496 52.55737 46.37116
# Shear Modulus (GPa) = 12.36419 30.48054 21.42236
#
# Velocity S-wave (km/s) = 2.33233 3.66200 3.07002
# Velocity P-wave (km/s) = 4.99328 6.40340 5.74179
#
# Compressibility (1/GPa) = 0.02488493
#
# Stress axis : x y z
#
# Youngs Moduli (GPa) = 68.43066 30.12427 27.89170
#
# Poissons Ratio (x) = 0.40229 -0.11773
# Poissons Ratio (y) = 0.91384 0.56495
# Poissons Ratio (z) = -0.28884 0.61017
#
# Static dielectric constant tensor:
#      x y z
#    x 1.820730 -0.045670 -0.003220 
#    y -0.045670 1.793270 -0.026320 
#    z -0.003220 -0.026320 1.870810 
# 
# From -- ./inp_files/562652.got.cif
#   From: 2010.05.17/outbox.cif.g08.bks.cpg/sg2_282_cif.got.tgz:562652.got - 2010.06.03 11:33:40.
