data_PCOD9092151
_publ_section_title
;
Structure prediction by ZEFSAII (Michael W. Deem and Ramdas Pophale) SiO2 
 PCOD9092151
Probable space group: P -1
;
_chemical_formula_sum "Si O2"
_cell_formula_units_Z 14
_cell_length_a 9.693762
_cell_length_b 11.016616
_cell_length_c 8.575639
_cell_angle_alpha 109.783155
_cell_angle_beta 48.059980
_cell_angle_gamma 123.143971
_cell_volume 569.853266
_symmetry_space_group_name_H-M "P -1"
_symmetry_group_IT_number 2
_symmetry_cell_setting 'triclinic'
loop_
_space_group_symop_operation_xyz
x,y,z
-x,-y,-z
loop_
_atom_site_type_symbol
_atom_site_label
_atom_site_fract_x
_atom_site_fract_y
_atom_site_fract_z
Si Si1 0.557803 0.381606 0.486283
Si Si2 0.892083 0.873596 0.225957
Si Si3 0.705914 0.622172 0.710605
Si Si4 0.293769 0.647615 0.953888
Si Si5 0.876540 0.151123 0.683375
Si Si6 0.050792 0.339221 0.147130
Si Si7 0.728307 0.081632 0.430802
O O1 0.500000 0.500000 0.500000
O O2 0.641438 0.460852 0.622191
O O3 0.703209 0.360344 0.239417
O O4 0.837552 0.248493 0.365043
O O5 0.652790 0.766162 0.406497
O O6 0.050283 0.927252 0.275971
O O7 0.870847 0.008881 0.230149
O O8 0.947679 0.766527 0.035863
O O9 0.517509 0.662333 0.845301
O O10 0.774126 0.637942 0.844723
O O11 0.906846 0.728339 0.503341
O O12 0.243453 0.772708 0.105900
O O13 0.123178 0.497390 0.091047
O O14 0.738311 0.068608 0.603858
O O15 0.500000 0.000000 0.500000
#
# Coordination Sequence:
#
# PCOD9092151 Si02
#       7
#     2   2   2   2   2   2   2
#     4  10  19  40  67 105 137 176 216 288 345 399
#     4  12  23  46  72  97 147 180 230 284 342 416
#     4  10  21  41  65 107 144 173 220 287 351 403
#     4  11  22  41  73 108 137 171 233 282 353 416
#     4  11  25  45  73 103 135 186 229 290 346 401
#     4  11  24  43  71 102 140 187 222 285 356 404
#     4  11  29  49  66  98 139 191 238 280 335 417
#
# _framework density 24.567727999999999
#
# number of rings (size 3 to 8) (size 9 to 14) (size 15 to 20)
#    0.000    1.143    5.714    1.286    2.000    6.857 
#    0.000    1.429    0.000    0.000    0.000    0.000 
#    0.000    0.000    0.000    0.000    0.000    0.000 
#
# Total GULP energy -78390.596634 kJ/mol
# GULP energy per Si atom -5599.328331 kJ/mol
# Density = 2.451181 g / cm^3
# Si number density = 24.567728 Si / 1000 Ang^3
#
#
#
# Elastic Constant Matrix: (Units=GPa)
#
#
# Indices 1 2 3 4 5 6 
#
# 1 165.3989 22.4147 37.3350 7.5968 0.6857 31.3209
# 2 22.4147 62.2196 1.2930 6.1056 -9.2150 3.6859
# 3 37.3350 1.2930 88.8258 24.2313 -12.3367 8.9736
# 4 7.5968 6.1056 24.2313 41.6724 2.8615 -1.9012
# 5 0.6857 -9.2150 -12.3367 2.8615 37.8415 5.7057
# 6 31.3209 3.6859 8.9736 -1.9012 5.7057 35.8248
#
#
#
# Elastic Compliance Matrix: (Units=1/GPa)
#
#
# Indices 1 2 3 4 5 6 
#
# 1 0.008221 -0.002734 -0.003080 0.000487 -0.000958 -0.005957
# 2 -0.002734 0.018428 0.003109 -0.004497 0.006116 -0.001497
# 3 -0.003080 0.003109 0.016734 -0.010308 0.007587 -0.003574
# 4 0.000487 -0.004497 -0.010308 0.031338 -0.007664 0.005503
# 5 -0.000958 0.006116 0.007587 -0.007664 0.032072 -0.007207
# 6 -0.005957 -0.001497 -0.003574 0.005503 -0.007207 0.035611
#
#
# Mechanical properties :
#
#
# Convention : Reuss Voigt Hill
#
# Bulk Modulus (GPa) = 26.33467 48.72553 37.53010
# Shear Modulus (GPa) = 31.15773 40.09452 35.62613
#
# Velocity S-wave (km/s) = 3.56510 4.04418 3.81217
# Velocity P-wave (km/s) = 5.26204 6.45627 5.88950
#
# Compressibility (1/GPa) = 0.03797275
#
# Stress axis : x y z
#
# Youngs Moduli (GPa) = 121.63461 54.26395 59.75823
#
# Poissons Ratio (x) = 0.14838 0.18404
# Poissons Ratio (y) = 0.33260 -0.18577
# Poissons Ratio (z) = 0.37461 -0.16869
#
# Static dielectric constant tensor:
#      x y z
#    x 1.973460 -0.001070 0.017810 
#    y -0.001070 1.957820 0.003640 
#    z 0.017810 0.003640 1.967220 
# 
# From -- ./inp_files/171947.got.cif
#   From: 2010.05.17/outbox.cif.g08.bks.cpg/sg2_86_cif.got.tgz:171947.got - 2010.06.03 11:33:40.
