data_PCOD9092025
_publ_section_title
;
Structure prediction by ZEFSAII (Michael W. Deem and Ramdas Pophale) SiO2 
 PCOD9092025
Probable space group: P -1
;
_chemical_formula_sum "Si O2"
_cell_formula_units_Z 13
_cell_length_a 7.785529
_cell_length_b 12.302639
_cell_length_c 11.689170
_cell_angle_alpha 128.770747
_cell_angle_beta 39.020375
_cell_angle_gamma 110.928136
_cell_volume 530.172885
_symmetry_space_group_name_H-M "P -1"
_symmetry_group_IT_number 2
_symmetry_cell_setting 'triclinic'
loop_
_space_group_symop_operation_xyz
x,y,z
-x,-y,-z
loop_
_atom_site_type_symbol
_atom_site_label
_atom_site_fract_x
_atom_site_fract_y
_atom_site_fract_z
Si Si1 0.494320 0.587529 0.680797
Si Si2 0.000000 0.500000 0.000000
Si Si3 0.929067 0.325416 0.321401
Si Si4 0.478825 0.182320 0.349736
Si Si5 0.128799 0.828023 0.321029
Si Si6 0.581424 0.891131 0.989355
Si Si7 0.606318 0.635555 0.079658
O O1 0.500000 0.500000 0.500000
O O2 0.214654 0.578014 0.880132
O O3 0.761032 0.488523 0.543776
O O4 0.514482 0.740528 0.725260
O O5 0.261068 0.408476 0.894198
O O6 0.694440 0.241573 0.352663
O O7 0.120686 0.223595 0.247786
O O8 0.147001 0.334245 0.110734
O O9 0.145654 0.234487 0.593791
O O10 0.578651 0.009196 0.171066
O O11 0.351258 0.806730 0.088671
O O12 0.322984 0.766445 0.289657
O O13 0.000000 0.000000 0.500000
O O14 0.500000 0.000000 0.000000
O O15 0.500000 0.500000 0.000000
#
# Coordination Sequence:
#
# PCOD9092025 Si02
#       7
#     2   1   2   2   2   2   2
#     4  10  21  39  65  95 133 164 224 273 325 399
#     4  12  24  42  70 102 134 180 224 270 348 402
#     4  10  21  42  63  89 136 173 214 284 333 391
#     4  10  19  40  65  87 126 178 211 264 344 385
#     4   9  21  39  63  88 132 172 211 275 335 385
#     4  10  22  39  60  93 130 168 225 272 328 405
#     4  11  23  41  68  98 135 174 226 280 332 398
#
# _framework density 24.520303999999999
#
# number of rings (size 3 to 8) (size 9 to 14) (size 15 to 20)
#    0.000    1.846    3.077    1.385    2.154    4.923 
#    0.000    3.077    0.000    0.000    0.000    0.000 
#    0.000    0.000    0.000    0.000    0.000    0.000 
#
# Total GULP energy -72400.343988 kJ/mol
# GULP energy per Si atom -5569.257230 kJ/mol
# Density = 2.446449 g / cm^3
# Si number density = 24.520304 Si / 1000 Ang^3
#
#
#
# Elastic Constant Matrix: (Units=GPa)
#
#
# Indices 1 2 3 4 5 6 
#
# 1 129.2982 61.0100 50.9432 0.0614 -49.6343 -11.1027
# 2 61.0100 159.3753 66.4297 -9.5077 -26.2553 0.4082
# 3 50.9432 66.4297 123.5575 -13.8032 -49.4255 2.4433
# 4 0.0614 -9.5077 -13.8032 70.5522 -6.9650 -11.6781
# 5 -49.6343 -26.2553 -49.4255 -6.9650 47.7882 8.5699
# 6 -11.1027 0.4082 2.4433 -11.6781 8.5699 51.6556
#
#
#
# Elastic Compliance Matrix: (Units=1/GPa)
#
#
# Indices 1 2 3 4 5 6 
#
# 1 0.014802 -0.004031 0.002622 0.001668 0.015968 0.000817
# 2 -0.004031 0.009191 -0.005056 -0.000183 -0.004391 -0.000013
# 3 0.002622 -0.005056 0.018244 0.004428 0.019920 -0.002563
# 4 0.001668 -0.000183 0.004428 0.016226 0.008134 0.002469
# 5 0.015968 -0.004391 0.019920 0.008134 0.057824 -0.005230
# 6 0.000817 -0.000013 -0.002563 0.002469 -0.005230 0.021082
#
#
# Mechanical properties :
#
#
# Convention : Reuss Voigt Hill
#
# Bulk Modulus (GPa) = 34.12162 85.44407 59.78285
# Shear Modulus (GPa) = 31.23668 49.58907 40.41288
#
# Velocity S-wave (km/s) = 3.57306 4.50195 4.06413
# Velocity P-wave (km/s) = 5.56491 7.87054 6.81592
#
# Compressibility (1/GPa) = 0.02930693
#
# Stress axis : x y z
#
# Youngs Moduli (GPa) = 67.55782 108.80382 54.81136
#
# Poissons Ratio (x) = 0.43863 -0.14372
# Poissons Ratio (y) = 0.27235 0.27712
# Poissons Ratio (z) = -0.17714 0.55010
#
# Static dielectric constant tensor:
#      x y z
#    x 11.338010 7.558150 9.193640 
#    y 7.558150 8.115880 7.505550 
#    z 9.193640 7.505550 11.080880 
# 
# From -- ./inp_files/165215.got.cif
#   From: 2010.05.17/outbox.cif.g08.bks.cpg/sg2_83_cif.got.tgz:165215.got - 2010.06.03 11:33:40.
