data_PCOD9092778
_publ_section_title
;
Structure prediction by ZEFSAII (Michael W. Deem and Ramdas Pophale) SiO2 
 PCOD9092778
Probable space group: P -1
;
_chemical_formula_sum "Si O2"
_cell_formula_units_Z 16
_cell_length_a 8.020889
_cell_length_b 12.172060
_cell_length_c 8.919464
_cell_angle_alpha 88.729518
_cell_angle_beta 109.110355
_cell_angle_gamma 122.752959
_cell_volume 678.720591
_symmetry_space_group_name_H-M "P -1"
_symmetry_group_IT_number 2
_symmetry_cell_setting 'triclinic'
loop_
_space_group_symop_operation_xyz
x,y,z
-x,-y,-z
loop_
_atom_site_type_symbol
_atom_site_label
_atom_site_fract_x
_atom_site_fract_y
_atom_site_fract_z
Si Si1 0.716365 0.463060 0.436589
Si Si2 0.511665 0.168755 0.397452
Si Si3 0.241106 0.049397 0.043483
Si Si4 0.218168 0.142345 0.575299
Si Si5 0.537360 0.268966 0.919890
Si Si6 0.680947 0.523676 0.765717
Si Si7 0.122400 0.784659 0.863037
Si Si8 0.941708 0.253696 0.511557
O O1 0.652713 0.319798 0.372294
O O2 0.728236 0.477363 0.622041
O O3 0.522760 0.473165 0.328622
O O4 0.931901 0.588828 0.427063
O O5 0.345030 0.170903 0.457491
O O6 0.706779 0.163128 0.520275
O O7 0.372688 0.065180 0.230532
O O8 0.366267 0.196955 0.004865
O O9 0.221033 0.934854 0.938115
O O10 0.000000 0.000000 0.000000
O O11 0.396335 0.170227 0.745379
O O12 0.124393 0.226962 0.595240
O O13 0.000000 0.000000 0.500000
O O14 0.625877 0.415936 0.881315
O O15 0.728891 0.258639 0.027337
O O16 0.883783 0.672414 0.852894
O O17 0.105984 0.778081 0.678546
#
# Coordination Sequence:
#
# PCOD9092778 Si02
#       8
#     2   2   2   2   2   2   2   2
#     4  10  19  42  69 102 137 177 230 283 361 411
#     4  12  24  44  71 101 135 187 235 276 350 428
#     4  12  26  46  69  99 142 192 228 283 360 426
#     4  12  26  45  70 101 142 180 234 294 345 407
#     4  12  23  45  70 107 135 178 242 291 344 410
#     4  10  20  41  74 100 136 187 229 289 353 415
#     4  11  24  44  71  99 143 186 230 281 360 422
#     4  11  23  44  73 101 134 188 232 277 352 427
#
# _framework density 23.573765999999999
#
# number of rings (size 3 to 8) (size 9 to 14) (size 15 to 20)
#    0.000    0.750    3.750    5.625    1.750    0.500 
#    2.250    2.500    0.000    0.000    0.000    0.000 
#    0.000    0.000    0.000    0.000    0.000    0.000 
#
# Total GULP energy -89435.098665 kJ/mol
# GULP energy per Si atom -5589.693667 kJ/mol
# Density = 2.352011 g / cm^3
# Si number density = 23.573766 Si / 1000 Ang^3
#
#
#
# Elastic Constant Matrix: (Units=GPa)
#
#
# Indices 1 2 3 4 5 6 
#
# 1 83.3368 30.2524 -6.7533 2.2051 16.4500 24.9380
# 2 30.2524 95.7226 9.9734 6.2446 6.1970 24.5988
# 3 -6.7533 9.9734 45.7031 15.1365 22.2929 -2.0925
# 4 2.2051 6.2446 15.1365 43.3377 -1.0866 9.7653
# 5 16.4500 6.1970 22.2929 -1.0866 28.8195 14.9438
# 6 24.9380 24.5988 -2.0925 9.7653 14.9438 40.0551
#
#
#
# Elastic Compliance Matrix: (Units=1/GPa)
#
#
# Indices 1 2 3 4 5 6 
#
# 1 0.023915 -0.010945 0.034686 -0.016293 -0.046503 0.014965
# 2 -0.010945 0.020773 -0.034264 0.016951 0.043490 -0.028091
# 3 0.034686 -0.034264 0.152774 -0.075911 -0.182156 0.093894
# 4 -0.016293 0.016951 -0.075911 0.062779 0.095311 -0.055096
# 5 -0.046503 0.043490 -0.182156 0.095311 0.263107 -0.128669
# 6 0.014965 -0.028091 0.093894 -0.055096 -0.128669 0.099242
#
#
# Mechanical properties :
#
#
# Convention : Reuss Voigt Hill
#
# Bulk Modulus (GPa) = 5.66836 32.41195 19.04016
# Shear Modulus (GPa) = 7.11803 35.19512 21.15657
#
# Velocity S-wave (km/s) = 1.73955 3.86810 2.99902
# Velocity P-wave (km/s) = 2.53859 5.80763 4.48180
#
# Compressibility (1/GPa) = 0.17641777
#
# Stress axis : x y z
#
# Youngs Moduli (GPa) = 41.81393 48.13844 6.54561
#
# Poissons Ratio (x) = 0.52686 -0.22704
# Poissons Ratio (y) = 0.45764 0.22428
# Poissons Ratio (z) = -1.45036 1.64942
#
# Static dielectric constant tensor:
#      x y z
#    x 1.924060 -0.021600 -0.079970 
#    y -0.021600 1.943160 -0.038970 
#    z -0.079970 -0.038970 1.871920 
# 
# From -- ./inp_files/202116.got.cif
#   From: 2010.05.17/outbox.cif.g08.bks.cpg/sg2_102_cif.got.tgz:202116.got - 2010.06.03 11:33:40.
