data_PCOD9092550
_publ_section_title
;
Structure prediction by ZEFSAII (Michael W. Deem and Ramdas Pophale) SiO2 
 PCOD9092550
Probable space group: P -1
;
_chemical_formula_sum "Si O2"
_cell_formula_units_Z 16
_cell_length_a 9.275816
_cell_length_b 20.103991
_cell_length_c 24.963846
_cell_angle_alpha 18.797810
_cell_angle_beta 29.806795
_cell_angle_gamma 38.040326
_cell_volume 728.811069
_symmetry_space_group_name_H-M "P -1"
_symmetry_group_IT_number 2
_symmetry_cell_setting 'triclinic'
loop_
_space_group_symop_operation_xyz
x,y,z
-x,-y,-z
loop_
_atom_site_type_symbol
_atom_site_label
_atom_site_fract_x
_atom_site_fract_y
_atom_site_fract_z
Si Si1 0.213241 0.421055 0.866759
Si Si2 0.705063 0.485176 0.572530
Si Si3 0.221146 0.169732 0.160694
Si Si4 0.536141 0.287722 0.177502
Si Si5 0.291849 0.663461 0.429123
Si Si6 0.747313 0.766470 0.575361
Si Si7 0.750612 0.172905 0.395060
Si Si8 0.321239 0.077461 0.812268
O O1 0.431137 0.399822 0.764662
O O2 0.226093 0.670187 0.682157
O O3 0.302136 0.339480 0.957912
O O4 0.884469 0.291309 0.059361
O O5 0.727990 0.336625 0.627751
O O6 0.676361 0.713087 0.383396
O O7 0.000000 0.500000 0.500000
O O8 0.052054 0.241088 0.211393
O O9 0.513231 0.083989 0.148058
O O10 0.965626 0.981478 0.361679
O O11 0.443883 0.305265 0.255738
O O12 0.329045 0.078817 0.377874
O O13 0.500000 0.500000 0.000000
O O14 0.500000 0.500000 0.500000
O O15 0.472330 0.871586 0.240337
O O16 0.968904 0.622050 0.592421
O O17 0.525412 0.801421 0.573635
O O18 0.000000 0.000000 0.000000
#
# Coordination Sequence:
#
# PCOD9092550 Si02
#       8
#     2   2   2   2   2   2   2   2
#     4  12  24  41  67  98 132 171 219 271 339 388
#     4  11  24  44  63  98 139 169 222 286 331 390
#     4  10  20  40  66  93 130 173 222 272 322 406
#     4  11  25  41  64  99 134 169 208 276 340 384
#     4   9  21  40  67  92 124 180 218 266 326 386
#     4  10  19  41  68  92 127 169 226 266 320 407
#     4  11  22  43  65  97 129 171 222 261 330 406
#     4  10  22  43  66  95 128 177 231 271 321 400
#
# _framework density 21.953564
#
# number of rings (size 3 to 8) (size 9 to 14) (size 15 to 20)
#    0.000    1.500    2.500    2.625    7.000    1.500 
#    2.250    3.125    0.000    0.000    0.000    0.000 
#    0.000    0.000    0.000    0.000    0.000    0.000 
#
# Total GULP energy -89390.134764 kJ/mol
# GULP energy per Si atom -5586.883423 kJ/mol
# Density = 2.190360 g / cm^3
# Si number density = 21.953564 Si / 1000 Ang^3
#
#
#
# Elastic Constant Matrix: (Units=GPa)
#
#
# Indices 1 2 3 4 5 6 
#
# 1 60.3628 13.5735 18.8844 12.3280 -1.8312 2.7785
# 2 13.5735 104.7764 29.6168 36.7864 -2.5691 -3.7776
# 3 18.8844 29.6168 113.2244 22.5707 8.1670 -1.6653
# 4 12.3280 36.7864 22.5707 52.7803 -4.7924 1.0262
# 5 -1.8312 -2.5691 8.1670 -4.7924 23.4911 -1.9601
# 6 2.7785 -3.7776 -1.6653 1.0262 -1.9601 40.9710
#
#
#
# Elastic Compliance Matrix: (Units=1/GPa)
#
#
# Indices 1 2 3 4 5 6 
#
# 1 0.018122 -0.000797 -0.002456 -0.002460 0.001572 -0.001265
# 2 -0.000797 0.013053 -0.001655 -0.008196 0.000387 0.001414
# 3 -0.002456 -0.001655 0.010672 -0.003272 -0.004725 0.000304
# 4 -0.002460 -0.008196 -0.003272 0.027154 0.005494 -0.001139
# 5 0.001572 0.000387 -0.004725 0.005494 0.045646 0.001783
# 6 -0.001265 0.001414 0.000304 -0.001139 0.001783 0.024750
#
#
# Mechanical properties :
#
#
# Convention : Reuss Voigt Hill
#
# Bulk Modulus (GPa) = 31.21804 44.72369 37.97087
# Shear Modulus (GPa) = 31.27151 37.86773 34.56962
#
# Velocity S-wave (km/s) = 3.77827 4.15770 3.97252
# Velocity P-wave (km/s) = 5.76929 6.59278 6.19473
#
# Compressibility (1/GPa) = 0.03203276
#
# Stress axis : x y z
#
# Youngs Moduli (GPa) = 55.18061 76.60905 93.70409
#
# Poissons Ratio (x) = 0.06105 0.23011
# Poissons Ratio (y) = 0.04398 0.15505
# Poissons Ratio (z) = 0.13551 0.12676
#
# Static dielectric constant tensor:
#      x y z
#    x 1.832060 0.045910 -0.011890 
#    y 0.045910 2.007340 -0.058810 
#    z -0.011890 -0.058810 1.821530 
# 
# From -- ./inp_files/608626.got.cif
#   From: 2010.05.17/outbox.cif.g08.bks.cpg/sg2_305_cif.got.tgz:608626.got - 2010.06.03 11:33:40.
