data_PCOD9092594
_publ_section_title
;
Structure prediction by ZEFSAII (Michael W. Deem and Ramdas Pophale) SiO2 
 PCOD9092594
Probable space group: P -1
;
_chemical_formula_sum "Si O2"
_cell_formula_units_Z 16
_cell_length_a 14.935321
_cell_length_b 20.166968
_cell_length_c 9.395696
_cell_angle_alpha 133.254866
_cell_angle_beta 137.200216
_cell_angle_gamma 19.291624
_cell_volume 634.913146
_symmetry_space_group_name_H-M "P -1"
_symmetry_group_IT_number 2
_symmetry_cell_setting 'triclinic'
loop_
_space_group_symop_operation_xyz
x,y,z
-x,-y,-z
loop_
_atom_site_type_symbol
_atom_site_label
_atom_site_fract_x
_atom_site_fract_y
_atom_site_fract_z
Si Si1 0.356307 0.009458 0.749918
Si Si2 0.055144 0.437729 0.311453
Si Si3 0.896112 0.990773 0.988139
Si Si4 0.375438 0.441028 0.098966
Si Si5 0.622910 0.585623 0.630190
Si Si6 0.313775 0.602378 0.792527
Si Si7 0.197676 0.997442 0.796007
Si Si8 0.787441 0.732027 0.200871
O O1 0.126352 0.100088 0.721023
O O2 0.604953 0.783973 0.661486
O O3 0.250827 0.135071 0.677622
O O4 0.500000 0.000000 0.000000
O O5 0.889231 0.618902 0.296393
O O6 0.000000 0.500000 0.500000
O O7 0.925261 0.416444 0.097074
O O8 0.582381 0.225584 0.998345
O O9 0.990715 0.911863 0.149788
O O10 0.993368 0.837650 0.801611
O O11 0.000000 0.000000 0.000000
O O12 0.392297 0.459976 0.309503
O O13 0.516682 0.434676 0.168591
O O14 0.677750 0.499523 0.422475
O O15 0.332075 0.822094 0.634483
O O16 0.910942 0.467434 0.827991
O O17 0.500000 0.500000 0.000000
O O18 0.481251 0.877385 0.011489
#
# Coordination Sequence:
#
# PCOD9092594 Si02
#       8
#     2   2   2   2   2   2   2   2
#     4  10  23  38  65 107 137 178 228 270 345 419
#     4  12  25  42  69 103 143 179 221 283 352 406
#     4   9  20  41  66  91 130 181 225 276 340 398
#     4  10  22  45  68  89 132 183 225 270 339 407
#     4  11  21  41  71  90 133 180 222 275 341 407
#     4  11  26  41  61  98 130 172 230 284 332 400
#     4  10  19  41  69  96 135 179 226 278 341 408
#     4  11  22  41  67 104 138 172 224 283 340 408
#
# _framework density 25.200296999999999
#
# number of rings (size 3 to 8) (size 9 to 14) (size 15 to 20)
#    0.000    1.500    3.750    2.250    1.750    4.500 
#    0.000    5.000    0.000    0.000    0.000    0.000 
#    0.000    0.000    0.000    0.000    0.000    0.000 
#
# Total GULP energy -89109.447658 kJ/mol
# GULP energy per Si atom -5569.340479 kJ/mol
# Density = 2.514294 g / cm^3
# Si number density = 25.200297 Si / 1000 Ang^3
#
#
#
# Elastic Constant Matrix: (Units=GPa)
#
#
# Indices 1 2 3 4 5 6 
#
# 1 123.4619 21.3171 30.8916 3.2249 -20.3644 11.3331
# 2 21.3171 101.2187 36.1864 12.0759 -8.6321 13.9632
# 3 30.8916 36.1864 125.8644 28.4359 -10.7453 3.2797
# 4 3.2249 12.0759 28.4359 36.8298 -6.0436 -1.5094
# 5 -20.3644 -8.6321 -10.7453 -6.0436 32.2054 0.9879
# 6 11.3331 13.9632 3.2797 -1.5094 0.9879 43.4264
#
#
#
# Elastic Compliance Matrix: (Units=1/GPa)
#
#
# Indices 1 2 3 4 5 6 
#
# 1 0.009853 -0.000756 -0.002066 0.001832 0.005751 -0.002240
# 2 -0.000756 0.011785 -0.002597 -0.001672 0.001608 -0.003491
# 3 -0.002066 -0.002597 0.010861 -0.007302 0.000242 0.000294
# 4 0.001832 -0.001672 -0.007302 0.034002 0.004603 0.001688
# 5 0.005751 0.001608 0.000242 0.004603 0.036146 -0.002698
# 6 -0.002240 -0.003491 0.000294 0.001688 -0.002698 0.024832
#
#
# Mechanical properties :
#
#
# Convention : Reuss Voigt Hill
#
# Bulk Modulus (GPa) = 46.16029 58.59281 52.37655
# Shear Modulus (GPa) = 34.35545 39.96898 37.16222
#
# Velocity S-wave (km/s) = 3.69629 3.98685 3.84431
# Velocity P-wave (km/s) = 6.04763 6.67043 6.36665
#
# Compressibility (1/GPa) = 0.02166364
#
# Stress axis : x y z
#
# Youngs Moduli (GPa) = 101.48812 84.85127 92.07032
#
# Poissons Ratio (x) = 0.06413 0.19018
# Poissons Ratio (y) = 0.07671 0.23909
# Poissons Ratio (z) = 0.20963 0.22034
#
# Static dielectric constant tensor:
#      x y z
#    x 2.120650 0.019260 0.010150 
#    y 0.019260 2.105920 -0.066130 
#    z 0.010150 -0.066130 2.017670 
# 
# From -- ./inp_files/319488.got.cif
#   From: 2010.05.17/outbox.cif.g08.bks.cpg/sg2_160_cif.got.tgz:319488.got - 2010.06.03 11:33:40.
