data_PCOD9092544
_publ_section_title
;
Structure prediction by ZEFSAII (Michael W. Deem and Ramdas Pophale) SiO2 
 PCOD9092544
Probable space group: P -1
;
_chemical_formula_sum "Si O2"
_cell_formula_units_Z 16
_cell_length_a 6.768330
_cell_length_b 9.295423
_cell_length_c 16.091791
_cell_angle_alpha 35.013049
_cell_angle_beta 76.111977
_cell_angle_gamma 70.921312
_cell_volume 548.258060
_symmetry_space_group_name_H-M "P -1"
_symmetry_group_IT_number 2
_symmetry_cell_setting 'triclinic'
loop_
_space_group_symop_operation_xyz
x,y,z
-x,-y,-z
loop_
_atom_site_type_symbol
_atom_site_label
_atom_site_fract_x
_atom_site_fract_y
_atom_site_fract_z
Si Si1 0.606219 0.103264 0.058223
Si Si2 0.814325 0.020659 0.914489
Si Si3 0.589274 0.325835 0.241307
Si Si4 0.358534 0.402052 0.393211
Si Si5 0.008845 0.281099 0.397540
Si Si6 0.796104 0.432879 0.506661
Si Si7 0.602409 0.949201 0.740065
Si Si8 0.976553 0.525136 0.876968
O O1 0.594851 0.014908 0.195198
O O2 0.794122 0.991275 0.030070
O O3 0.404582 0.024339 0.077189
O O4 0.552556 0.409390 0.907904
O O5 0.981108 0.782321 0.971634
O O6 0.789553 0.313866 0.750390
O O7 0.548926 0.352763 0.332234
O O8 0.488459 0.106803 0.314000
O O9 0.823401 0.350558 0.184978
O O10 0.383824 0.413103 0.484718
O O11 0.211157 0.219869 0.465537
O O12 0.831937 0.449555 0.396188
O O13 0.046619 0.427422 0.242101
O O14 0.000000 0.000000 0.500000
O O15 0.000000 0.500000 0.500000
O O16 0.748966 0.148123 0.646921
O O17 0.772292 0.681586 0.869676
#
# Coordination Sequence:
#
# PCOD9092544 Si02
#       8
#     2   2   2   2   2   2   2   2
#     4   9  19  37  64  93 140 172 203 262 329 400
#     4   9  19  37  63 101 132 165 209 265 332 396
#     4  10  22  40  65  97 132 170 214 261 330 397
#     4  10  19  41  68  90 129 179 204 267 341 375
#     4  11  21  42  63  91 130 174 223 269 320 378
#     4  10  22  38  70  90 121 178 226 261 316 385
#     4  12  21  42  67  95 131 178 208 266 334 371
#     4  11  24  39  67  99 135 165 220 268 320 396
#
# _framework density 29.183337000000002
#
# number of rings (size 3 to 8) (size 9 to 14) (size 15 to 20)
#    0.000    1.750    3.750    1.125    0.000    2.500 
#    0.000    5.625    0.000    0.000    0.000    0.000 
#    0.000    0.000    0.000    0.000    0.000    0.000 
#
# Total GULP energy -89592.060469 kJ/mol
# GULP energy per Si atom -5599.503779 kJ/mol
# Density = 2.911691 g / cm^3
# Si number density = 29.183337 Si / 1000 Ang^3
#
#
#
# Elastic Constant Matrix: (Units=GPa)
#
#
# Indices 1 2 3 4 5 6 
#
# 1 119.6466 61.0416 32.5110 -20.5967 -20.4393 5.3282
# 2 61.0416 206.6085 68.6795 14.7051 -11.6756 22.7845
# 3 32.5110 68.6795 94.0764 10.3731 -14.5218 9.8340
# 4 -20.5967 14.7051 10.3731 74.3919 6.1699 -2.5730
# 5 -20.4393 -11.6756 -14.5218 6.1699 46.1914 -7.3242
# 6 5.3282 22.7845 9.8340 -2.5730 -7.3242 62.4649
#
#
#
# Elastic Compliance Matrix: (Units=1/GPa)
#
#
# Indices 1 2 3 4 5 6 
#
# 1 0.011578 -0.003005 -0.001794 0.003797 0.003443 0.000951
# 2 -0.003005 0.007376 -0.004080 -0.001720 -0.000829 -0.001960
# 3 -0.001794 -0.004080 0.014976 -0.002050 0.003087 -0.000439
# 4 0.003797 -0.001720 -0.002050 0.015262 -0.001262 0.001107
# 5 0.003443 -0.000829 0.003087 -0.001262 0.024473 0.002340
# 6 0.000951 -0.001960 -0.000439 0.001107 0.002340 0.017032
#
#
# Mechanical properties :
#
#
# Convention : Reuss Voigt Hill
#
# Bulk Modulus (GPa) = 61.83084 82.75510 72.29297
# Shear Modulus (GPa) = 43.91919 53.81626 48.86773
#
# Velocity S-wave (km/s) = 3.88357 4.29893 4.09651
# Velocity P-wave (km/s) = 6.42981 7.28420 6.87030
#
# Compressibility (1/GPa) = 0.01617316
#
# Stress axis : x y z
#
# Youngs Moduli (GPa) = 86.37113 135.58161 66.77189
#
# Poissons Ratio (x) = 0.40740 0.11979
# Poissons Ratio (y) = 0.25953 0.27240
# Poissons Ratio (z) = 0.15495 0.55311
#
# Static dielectric constant tensor:
#      x y z
#    x 2.353920 -0.001030 0.048890 
#    y -0.001030 2.250520 -0.031410 
#    z 0.048890 -0.031410 2.312260 
# 
# From -- ./inp_files/556761.got.cif
#   From: 2010.05.17/outbox.cif.g08.bks.cpg/sg2_279_cif.got.tgz:556761.got - 2010.06.03 11:33:40.
