data_PCOD9092740
_publ_section_title
;
Structure prediction by ZEFSAII (Michael W. Deem and Ramdas Pophale) SiO2 
 PCOD9092740
Probable space group: P -1
;
_chemical_formula_sum "Si O2"
_cell_formula_units_Z 14
_cell_length_a 12.446889
_cell_length_b 11.404190
_cell_length_c 15.427805
_cell_angle_alpha 129.249772
_cell_angle_beta 27.306989
_cell_angle_gamma 143.840911
_cell_volume 562.997968
_symmetry_space_group_name_H-M "P -1"
_symmetry_group_IT_number 2
_symmetry_cell_setting 'triclinic'
loop_
_space_group_symop_operation_xyz
x,y,z
-x,-y,-z
loop_
_atom_site_type_symbol
_atom_site_label
_atom_site_fract_x
_atom_site_fract_y
_atom_site_fract_z
Si Si1 0.806537 0.793753 0.984350
Si Si2 0.867163 0.111773 0.391050
Si Si3 0.282443 0.577282 0.766928
Si Si4 0.654546 0.010888 0.759137
Si Si5 0.972319 0.143099 0.778939
Si Si6 0.118048 0.641272 0.375215
Si Si7 0.162957 0.683264 0.718406
O O1 0.990123 0.849324 0.787934
O O2 0.846538 0.649112 0.934971
O O3 0.450616 0.697301 0.175692
O O4 0.000000 0.000000 0.000000
O O5 0.983008 0.322399 0.446397
O O6 0.477932 0.928852 0.593368
O O7 0.970340 0.006782 0.318857
O O8 0.595769 0.809699 0.682238
O O9 0.197835 0.603999 0.744701
O O10 0.274964 0.391993 0.689052
O O11 0.000000 0.500000 0.000000
O O12 0.833976 0.109215 0.766989
O O13 0.807850 0.178628 0.653139
O O14 0.299613 0.925169 0.990032
O O15 0.872082 0.434959 0.397278
#
# Coordination Sequence:
#
# PCOD9092740 Si02
#       7
#     2   2   2   2   2   2   2
#     4  12  26  51  78  98 141 191 234 297 357 415
#     4  12  27  47  72 107 143 187 234 295 354 418
#     4  10  21  39  69 101 138 183 229 281 346 415
#     4  10  19  42  67 100 139 187 228 283 342 418
#     4  10  22  39  70  99 141 183 234 278 348 416
#     4  12  25  48  72 104 145 183 240 287 355 423
#     4  12  26  47  71 109 143 183 241 295 349 419
#
# _framework density 24.866876000000001
#
# number of rings (size 3 to 8) (size 9 to 14) (size 15 to 20)
#    0.000    0.857    5.714    0.857    2.000    2.857 
#    2.571    0.000    0.000    0.000    0.000    0.000 
#    0.000    0.000    0.000    0.000    0.000    0.000 
#
# Total GULP energy -78455.201121 kJ/mol
# GULP energy per Si atom -5603.942937 kJ/mol
# Density = 2.481028 g / cm^3
# Si number density = 24.866876 Si / 1000 Ang^3
#
#
#
# Elastic Constant Matrix: (Units=GPa)
#
#
# Indices 1 2 3 4 5 6 
#
# 1 77.4305 14.1407 29.4951 8.8137 25.9329 0.2166
# 2 14.1407 128.4603 6.8315 32.5477 8.0640 16.0326
# 3 29.4951 6.8315 94.0644 24.3983 14.2492 -10.7493
# 4 8.8137 32.5477 24.3983 40.9186 -2.7549 8.9234
# 5 25.9329 8.0640 14.2492 -2.7549 41.4356 12.1972
# 6 0.2166 16.0326 -10.7493 8.9234 12.1972 38.6928
#
#
#
# Elastic Compliance Matrix: (Units=1/GPa)
#
#
# Indices 1 2 3 4 5 6 
#
# 1 0.018408 -0.000749 -0.002511 -0.003571 -0.011956 0.004102
# 2 -0.000749 0.010419 0.002328 -0.009581 -0.002830 -0.000564
# 3 -0.002511 0.002328 0.017503 -0.014532 -0.008823 0.010045
# 4 -0.003571 -0.009581 -0.014532 0.046120 0.016874 -0.016002
# 5 -0.011956 -0.002830 -0.008823 0.016874 0.041695 -0.018247
# 6 0.004102 -0.000564 0.010045 -0.016002 -0.018247 0.038289
#
#
# Mechanical properties :
#
#
# Convention : Reuss Voigt Hill
#
# Bulk Modulus (GPa) = 22.49023 44.54330 33.51676
# Shear Modulus (GPa) = 26.43818 40.84191 33.64004
#
# Velocity S-wave (km/s) = 3.26419 4.05708 3.68204
# Velocity P-wave (km/s) = 4.82395 6.31649 5.61999
#
# Compressibility (1/GPa) = 0.04446375
#
# Stress axis : x y z
#
# Youngs Moduli (GPa) = 54.32528 95.97905 57.13259
#
# Poissons Ratio (x) = 0.07193 0.14348
# Poissons Ratio (y) = 0.04071 -0.13299
# Poissons Ratio (z) = 0.13643 -0.22341
#
# Static dielectric constant tensor:
#      x y z
#    x 1.958030 -0.004890 -0.004160 
#    y -0.004890 1.951550 0.013090 
#    z -0.004160 0.013090 2.006800 
# 
# From -- ./inp_files/519099.got.cif
#   From: 2010.05.17/outbox.cif.g08.bks.cpg/sg2_260_cif.got.tgz:519099.got - 2010.06.03 11:33:40.
