data_PCOD9092026
_publ_section_title
;
Structure prediction by ZEFSAII (Michael W. Deem and Ramdas Pophale) SiO2 
 PCOD9092026
Probable space group: P -1
;
_chemical_formula_sum "Si O2"
_cell_formula_units_Z 16
_cell_length_a 9.585142
_cell_length_b 8.913638
_cell_length_c 20.672772
_cell_angle_alpha 112.800117
_cell_angle_beta 145.766082
_cell_angle_gamma 43.261892
_cell_volume 565.806973
_symmetry_space_group_name_H-M "P -1"
_symmetry_group_IT_number 2
_symmetry_cell_setting 'triclinic'
loop_
_space_group_symop_operation_xyz
x,y,z
-x,-y,-z
loop_
_atom_site_type_symbol
_atom_site_label
_atom_site_fract_x
_atom_site_fract_y
_atom_site_fract_z
Si Si1 0.048853 0.475499 0.853923
Si Si2 0.281357 0.748181 0.799506
Si Si3 0.705337 0.344965 0.356281
Si Si4 0.843015 0.693358 0.665151
Si Si5 0.571236 0.145697 0.686628
Si Si6 0.840388 0.917875 0.892868
Si Si7 0.608639 0.988490 0.143045
Si Si8 0.455395 0.452123 0.545386
O O1 0.414322 0.160222 0.934146
O O2 0.691695 0.566204 0.769589
O O3 0.915098 0.576695 0.743764
O O4 0.129108 0.614896 0.935246
O O5 0.154547 0.797224 0.682893
O O6 0.249726 0.574150 0.778050
O O7 0.586719 0.742457 0.910524
O O8 0.994997 0.954861 0.782218
O O9 0.647001 0.570717 0.359992
O O10 0.820366 0.301771 0.470127
O O11 0.715889 0.637441 0.550425
O O12 0.495477 0.010714 0.598056
O O13 0.633216 0.071890 0.772225
O O14 0.542088 0.989407 0.841530
O O15 0.000000 0.000000 0.000000
O O16 0.085614 0.780199 0.293505
O O17 0.500000 0.500000 0.500000
#
# Coordination Sequence:
#
# PCOD9092026 Si02
#       8
#     2   2   2   2   2   2   2   2
#     4  10  19  40  65  87 132 158 201 262 305 372
#     4  10  21  37  61  89 125 170 203 247 315 358
#     4  11  20  36  64  89 128 169 205 251 304 364
#     4   9  19  37  58  89 131 167 199 253 294 363
#     4   9  22  40  61  88 131 160 196 270 309 356
#     4  11  25  44  68  95 117 159 218 260 318 386
#     4  11  22  39  67  87 127 171 200 257 317 356
#     4  11  20  36  64  95 130 168 213 247 295 373
#
# _framework density 28.278195
#
# number of rings (size 3 to 8) (size 9 to 14) (size 15 to 20)
#    0.750    1.000    6.250    0.000    1.750    3.000 
#    0.000    6.875    0.000    0.000    0.000    0.000 
#    0.000    0.000    0.000    0.000    0.000    0.000 
#
# Total GULP energy -89195.363681 kJ/mol
# GULP energy per Si atom -5574.710230 kJ/mol
# Density = 2.821383 g / cm^3
# Si number density = 28.278195 Si / 1000 Ang^3
#
#
#
# Elastic Constant Matrix: (Units=GPa)
#
#
# Indices 1 2 3 4 5 6 
#
# 1 199.4886 26.2583 33.3427 8.6185 5.1346 6.2848
# 2 26.2583 143.7597 42.3338 45.0585 4.9625 -3.2404
# 3 33.3427 42.3338 151.6778 57.2743 -4.1993 -13.9248
# 4 8.6185 45.0585 57.2743 58.0400 -1.0435 -3.5512
# 5 5.1346 4.9625 -4.1993 -1.0435 29.3498 14.2031
# 6 6.2848 -3.2404 -13.9248 -3.5512 14.2031 53.7327
#
#
#
# Elastic Compliance Matrix: (Units=1/GPa)
#
#
# Indices 1 2 3 4 5 6 
#
# 1 0.005377 -0.000973 -0.001536 0.001411 -0.000534 -0.000851
# 2 -0.000973 0.009490 0.000491 -0.007692 -0.002047 0.000846
# 3 -0.001536 0.000491 0.011182 -0.011042 0.000278 0.002304
# 4 0.001411 -0.007692 -0.011042 0.033814 0.001472 -0.001645
# 5 -0.000534 -0.002047 0.000278 0.001472 0.039619 -0.010364
# 6 -0.000851 0.000846 0.002304 -0.001645 -0.010364 0.021989
#
#
# Mechanical properties :
#
#
# Convention : Reuss Voigt Hill
#
# Bulk Modulus (GPa) = 45.42812 77.64398 61.53605
# Shear Modulus (GPa) = 37.63776 54.42391 46.03083
#
# Velocity S-wave (km/s) = 3.65222 4.39177 4.03896
# Velocity P-wave (km/s) = 5.82104 7.29614 6.59993
#
# Compressibility (1/GPa) = 0.02201280
#
# Stress axis : x y z
#
# Youngs Moduli (GPa) = 185.96866 105.37478 89.42740
#
# Poissons Ratio (x) = 0.10251 0.13739
# Poissons Ratio (y) = 0.18091 -0.04389
# Poissons Ratio (z) = 0.28571 -0.05172
#
# Static dielectric constant tensor:
#      x y z
#    x 2.180710 0.074190 0.037190 
#    y 0.074190 2.423770 -0.097200 
#    z 0.037190 -0.097200 2.362870 
# 
# From -- ./inp_files/587487.got.cif
#   From: 2010.05.17/outbox.cif.g08.bks.cpg/sg2_294_cif.got.tgz:587487.got - 2010.06.03 11:33:40.
