data_PCOD9092029
_publ_section_title
;
Structure prediction by ZEFSAII (Michael W. Deem and Ramdas Pophale) SiO2 
 PCOD9092029
Probable space group: P -1
;
_chemical_formula_sum "Si O2"
_cell_formula_units_Z 16
_cell_length_a 11.993871
_cell_length_b 15.738427
_cell_length_c 15.382425
_cell_angle_alpha 36.642089
_cell_angle_beta 123.505986
_cell_angle_gamma 148.967105
_cell_volume 802.066757
_symmetry_space_group_name_H-M "P -1"
_symmetry_group_IT_number 2
_symmetry_cell_setting 'triclinic'
loop_
_space_group_symop_operation_xyz
x,y,z
-x,-y,-z
loop_
_atom_site_type_symbol
_atom_site_label
_atom_site_fract_x
_atom_site_fract_y
_atom_site_fract_z
Si Si1 0.879223 0.030781 0.515725
Si Si2 0.625286 0.963436 0.611247
Si Si3 0.203680 0.795932 0.321251
Si Si4 0.316612 0.431731 0.255947
Si Si5 0.865690 0.993922 0.006890
Si Si6 0.290992 0.431264 0.954170
Si Si7 0.690548 0.080364 0.256329
Si Si8 0.096621 0.434318 0.027122
O O1 0.734924 0.985631 0.414396
O O2 0.157506 0.269981 0.407514
O O3 0.830553 0.080193 0.540528
O O4 0.768842 0.774098 0.674717
O O5 0.414438 0.660850 0.760298
O O6 0.500000 0.000000 0.500000
O O7 0.713727 0.058879 0.670630
O O8 0.149089 0.872379 0.165296
O O9 0.000000 0.500000 0.500000
O O10 0.420729 0.895017 0.293853
O O11 0.223340 0.495000 0.120546
O O12 0.602592 0.702631 0.159605
O O13 0.043549 0.163005 0.025897
O O14 0.000000 0.000000 0.000000
O O15 0.500000 0.500000 0.000000
O O16 0.215425 0.442444 1.000000
O O17 0.814879 0.165357 0.146786
O O18 0.838063 0.345007 0.142681
#
# Coordination Sequence:
#
# PCOD9092029 Si02
#       8
#     2   2   2   2   2   2   2   2
#     4  10  21  37  66  93 124 172 200 251 301 377
#     4  12  21  39  64  91 124 163 210 246 305 371
#     4  12  25  41  60  95 127 163 203 262 314 362
#     4  10  21  40  64  92 127 160 210 248 314 363
#     4  12  25  41  63  92 127 162 206 265 311 362
#     4  12  24  41  66  90 120 163 213 258 308 374
#     4  10  20  38  65  86 124 159 209 245 310 369
#     4  10  19  40  65  89 115 167 207 253 302 375
#
# _framework density 19.948464999999999
#
# number of rings (size 3 to 8) (size 9 to 14) (size 15 to 20)
#    0.000    1.000    3.750    3.750    1.750    0.000 
#    2.250    0.625    0.000    3.750    0.000    0.000 
#    0.000    0.000    0.000    0.000    0.000    0.000 
#
# Total GULP energy -89262.454392 kJ/mol
# GULP energy per Si atom -5578.903400 kJ/mol
# Density = 1.990306 g / cm^3
# Si number density = 19.948465 Si / 1000 Ang^3
#
#
#
# Elastic Constant Matrix: (Units=GPa)
#
#
# Indices 1 2 3 4 5 6 
#
# 1 150.1746 28.1975 42.6968 -10.8077 -20.7874 23.7282
# 2 28.1975 66.5554 28.5503 -18.8408 -8.1575 19.1062
# 3 42.6968 28.5503 96.9328 -19.6051 -2.5414 22.8832
# 4 -10.8077 -18.8408 -19.6051 33.3758 12.5362 -4.0132
# 5 -20.7874 -8.1575 -2.5414 12.5362 43.8980 0.2676
# 6 23.7282 19.1062 22.8832 -4.0132 0.2676 34.4732
#
#
#
# Elastic Compliance Matrix: (Units=1/GPa)
#
#
# Indices 1 2 3 4 5 6 
#
# 1 0.008758 -0.001417 -0.002809 -0.001627 0.004208 -0.003600
# 2 -0.001417 0.021641 -0.001756 0.009446 0.000605 -0.008758
# 3 -0.002809 -0.001756 0.014892 0.007163 -0.002803 -0.006122
# 4 -0.001627 0.009446 0.007163 0.042543 -0.010726 -0.003834
# 5 0.004208 0.000605 -0.002803 -0.010726 0.027803 -0.002836
# 6 -0.003600 -0.008758 -0.006122 -0.003834 -0.002836 0.039980
#
#
# Mechanical properties :
#
#
# Convention : Reuss Voigt Hill
#
# Bulk Modulus (GPa) = 30.00634 56.95022 43.47828
# Shear Modulus (GPa) = 27.98150 36.63062 32.30606
#
# Velocity S-wave (km/s) = 3.74931 4.28981 4.02864
# Velocity P-wave (km/s) = 5.81530 7.29022 6.59413
#
# Compressibility (1/GPa) = 0.03332629
#
# Stress axis : x y z
#
# Youngs Moduli (GPa) = 114.18329 46.20857 67.15151
#
# Poissons Ratio (x) = 0.06547 0.18865
# Poissons Ratio (y) = 0.16177 0.11792
# Poissons Ratio (z) = 0.32077 0.08115
#
# Static dielectric constant tensor:
#      x y z
#    x 1.790810 0.030000 -0.061370 
#    y 0.030000 1.638450 0.005880 
#    z -0.061370 0.005880 1.774620 
# 
# From -- ./inp_files/190169.got.cif
#   From: 2010.05.17/outbox.cif.g08.bks.cpg/sg2_96_cif.got.tgz:190169.got - 2010.06.03 11:33:40.
