data_PCOD9092684
_publ_section_title
;
Structure prediction by ZEFSAII (Michael W. Deem and Ramdas Pophale) SiO2 
 PCOD9092684
Probable space group: P -1
;
_chemical_formula_sum "Si O2"
_cell_formula_units_Z 16
_cell_length_a 19.659596
_cell_length_b 11.837101
_cell_length_c 17.750850
_cell_angle_alpha 151.803471
_cell_angle_beta 22.442003
_cell_angle_gamma 141.917932
_cell_volume 736.417809
_symmetry_space_group_name_H-M "P -1"
_symmetry_group_IT_number 2
_symmetry_cell_setting 'triclinic'
loop_
_space_group_symop_operation_xyz
x,y,z
-x,-y,-z
loop_
_atom_site_type_symbol
_atom_site_label
_atom_site_fract_x
_atom_site_fract_y
_atom_site_fract_z
Si Si1 0.518054 0.889429 0.555046
Si Si2 0.753583 0.321313 0.554737
Si Si3 0.802558 0.594879 0.193444
Si Si4 0.606339 0.136844 0.848692
Si Si5 0.820470 0.636661 0.367711
Si Si6 0.345827 0.577402 0.445244
Si Si7 0.306931 0.134276 0.044580
Si Si8 0.916782 0.118376 0.409225
O O1 0.640218 0.671029 0.346876
O O2 0.449272 0.793336 0.491932
O O3 0.631248 0.110300 0.562228
O O4 0.351863 0.990709 0.837888
O O5 0.781147 0.355775 0.457878
O O6 0.663242 0.587311 0.829601
O O7 0.913456 0.245300 0.405715
O O8 0.755466 0.544029 0.298448
O O9 0.890913 0.841993 0.258407
O O10 0.962773 0.398922 0.882732
O O11 0.742285 0.224899 0.699861
O O12 0.727681 0.914545 0.634994
O O13 0.498147 0.351735 0.133943
O O14 0.451088 0.028182 0.897154
O O15 0.763031 0.491412 0.411692
O O16 0.099173 0.136353 0.276634
#
# Coordination Sequence:
#
# PCOD9092684 Si02
#       8
#     2   2   2   2   2   2   2   2
#     4  11  21  41  60  95 122 164 211 255 309 361
#     4  10  22  41  61  91 130 161 202 265 304 361
#     4   9  20  39  66  88 127 159 206 271 289 363
#     4  10  22  43  63  92 130 160 203 267 295 368
#     4  10  19  42  63  88 125 165 205 254 314 354
#     4  11  24  37  63  92 130 168 198 248 324 371
#     4  11  20  38  71  93 114 166 214 252 303 371
#     4  10  20  40  66  95 119 162 218 246 309 363
#
# _framework density 21.726797000000001
#
# number of rings (size 3 to 8) (size 9 to 14) (size 15 to 20)
#    0.000    1.750    3.750    2.250    1.750    0.500 
#   11.250    6.250    0.000    0.000    0.000    0.000 
#    0.000    0.000    0.000    0.000    0.000    0.000 
#
# Total GULP energy -89318.963168 kJ/mol
# GULP energy per Si atom -5582.435198 kJ/mol
# Density = 2.167735 g / cm^3
# Si number density = 21.726797 Si / 1000 Ang^3
#
#
#
# Elastic Constant Matrix: (Units=GPa)
#
#
# Indices 1 2 3 4 5 6 
#
# 1 88.6374 35.4345 39.8830 -12.6022 1.8126 -18.3659
# 2 35.4345 55.2931 21.0104 -6.3807 2.3904 -16.6865
# 3 39.8830 21.0104 83.3231 -9.2994 1.6011 -1.2679
# 4 -12.6022 -6.3807 -9.2994 26.3495 5.0983 -2.4940
# 5 1.8126 2.3904 1.6011 5.0983 31.3807 5.4412
# 6 -18.3659 -16.6865 -1.2679 -2.4940 5.4412 37.9243
#
#
#
# Elastic Compliance Matrix: (Units=1/GPa)
#
#
# Indices 1 2 3 4 5 6 
#
# 1 0.019489 -0.007018 -0.006693 0.006394 -0.002486 0.006904
# 2 -0.007018 0.027021 -0.002822 0.003779 -0.003714 0.009178
# 3 -0.006693 -0.002822 0.016003 0.001349 0.000241 -0.003893
# 4 0.006394 0.003779 0.001349 0.045134 -0.009646 0.009156
# 5 -0.002486 -0.003714 0.000241 -0.009646 0.035328 -0.008533
# 6 0.006904 0.009178 -0.003893 0.009156 -0.008533 0.035446
#
#
# Mechanical properties :
#
#
# Convention : Reuss Voigt Hill
#
# Bulk Modulus (GPa) = 33.95667 46.65660 40.30663
# Shear Modulus (GPa) = 22.59360 27.85927 25.22644
#
# Velocity S-wave (km/s) = 3.22824 3.58474 3.41115
# Velocity P-wave (km/s) = 5.43675 6.21729 5.84007
#
# Compressibility (1/GPa) = 0.02944930
#
# Stress axis : x y z
#
# Youngs Moduli (GPa) = 51.31053 37.00780 62.48813
#
# Poissons Ratio (x) = 0.25971 0.41821
# Poissons Ratio (y) = 0.36009 0.17632
# Poissons Ratio (z) = 0.34340 0.10443
#
# Static dielectric constant tensor:
#      x y z
#    x 1.799550 -0.031760 -0.019180 
#    y -0.031760 1.832730 0.019230 
#    z -0.019180 0.019230 1.780210 
# 
# From -- ./inp_files/578011.got.cif
#   From: 2010.05.17/outbox.cif.g08.bks.cpg/sg2_290_cif.got.tgz:578011.got - 2010.06.03 11:33:40.
