data_PCOD9092561
_publ_section_title
;
Structure prediction by ZEFSAII (Michael W. Deem and Ramdas Pophale) SiO2 
 PCOD9092561
Probable space group: P -1
;
_chemical_formula_sum "Si O2"
_cell_formula_units_Z 16
_cell_length_a 13.980953
_cell_length_b 9.447943
_cell_length_c 8.771413
_cell_angle_alpha 49.631189
_cell_angle_beta 80.340027
_cell_angle_gamma 103.529973
_cell_volume 774.402807
_symmetry_space_group_name_H-M "P -1"
_symmetry_group_IT_number 2
_symmetry_cell_setting 'triclinic'
loop_
_space_group_symop_operation_xyz
x,y,z
-x,-y,-z
loop_
_atom_site_type_symbol
_atom_site_label
_atom_site_fract_x
_atom_site_fract_y
_atom_site_fract_z
Si Si1 0.717951 0.688293 0.481352
Si Si2 0.246817 0.889801 0.916852
Si Si3 0.068126 0.183083 0.471255
Si Si4 0.356943 0.903410 0.170799
Si Si5 0.185785 0.524751 0.630969
Si Si6 0.123509 0.540045 0.970756
Si Si7 0.972659 0.179656 0.811750
Si Si8 0.509807 0.335443 0.731961
O O1 0.823898 0.798913 0.484066
O O2 0.756408 0.594210 0.392742
O O3 0.607511 0.495818 0.702485
O O4 0.689476 0.868261 0.307937
O O5 0.203054 0.764689 0.860431
O O6 0.315299 0.830014 0.059765
O O7 0.141452 0.858882 0.064112
O O8 0.985325 0.169192 0.636043
O O9 0.112683 0.390609 0.216900
O O10 0.000000 0.000000 0.500000
O O11 0.253591 0.767561 0.399801
O O12 0.443362 0.816301 0.248986
O O13 0.407134 0.155301 0.975553
O O14 0.172673 0.495646 0.835345
O O15 0.063482 0.406933 0.681381
O O16 0.000000 0.500000 0.000000
O O17 0.000000 0.000000 0.000000
O O18 0.500000 0.500000 0.500000
#
# Coordination Sequence:
#
# PCOD9092561 Si02
#       8
#     2   2   2   2   2   2   2   2
#     4  10  21  40  66  88 122 167 213 255 317 380
#     4  12  21  36  61  94 123 167 207 262 317 371
#     4  11  23  38  57  88 127 173 209 250 310 381
#     4  10  23  37  66  96 122 161 214 272 324 372
#     4  10  21  40  55  88 130 172 211 252 310 382
#     4  12  24  35  54  88 130 171 208 257 308 366
#     4  11  20  36  60  87 128 172 214 250 308 385
#     4  10  19  41  68  96 118 158 220 273 320 380
#
# _framework density 20.661080999999999
#
# number of rings (size 3 to 8) (size 9 to 14) (size 15 to 20)
#    0.000    1.250    5.000    3.750    1.750    1.000 
#    0.000    0.000    0.000   12.750    0.000    0.000 
#    0.000    0.000    0.000    0.000    0.000    0.000 
#
# Total GULP energy -89200.224156 kJ/mol
# GULP energy per Si atom -5575.014010 kJ/mol
# Density = 2.061406 g / cm^3
# Si number density = 20.661081 Si / 1000 Ang^3
#
#
#
# Elastic Constant Matrix: (Units=GPa)
#
#
# Indices 1 2 3 4 5 6 
#
# 1 64.0538 15.7624 22.5517 -10.0504 10.2165 8.0472
# 2 15.7624 106.6372 40.5222 6.8852 -7.9100 16.3334
# 3 22.5517 40.5222 123.6084 -16.5776 -1.8163 -2.3057
# 4 -10.0504 6.8852 -16.5776 42.8439 10.4683 -0.2997
# 5 10.2165 -7.9100 -1.8163 10.4683 39.8735 -14.7829
# 6 8.0472 16.3334 -2.3057 -0.2997 -14.7829 16.4540
#
#
#
# Elastic Compliance Matrix: (Units=1/GPa)
#
#
# Indices 1 2 3 4 5 6 
#
# 1 0.026202 0.000903 -0.004788 0.009203 -0.021650 -0.033665
# 2 0.000903 0.014240 -0.005708 -0.003512 -0.003702 -0.018767
# 3 -0.004788 -0.005708 0.011597 0.003138 0.005085 0.014259
# 4 0.009203 -0.003512 0.003138 0.031246 -0.016670 -0.014982
# 5 -0.021650 -0.003702 0.005085 -0.016670 0.059888 0.068478
# 6 -0.033665 -0.018767 0.014259 -0.014982 0.068478 0.159118
#
#
# Mechanical properties :
#
#
# Convention : Reuss Voigt Hill
#
# Bulk Modulus (GPa) = 30.44045 50.21911 40.32978
# Shear Modulus (GPa) = 15.04080 34.19849 24.61965
#
# Velocity S-wave (km/s) = 2.70103 4.07284 3.45569
# Velocity P-wave (km/s) = 4.94901 6.81735 5.95689
#
# Compressibility (1/GPa) = 0.03285102
#
# Stress axis : x y z
#
# Youngs Moduli (GPa) = 38.16489 70.22441 86.23169
#
# Poissons Ratio (x) = -0.06340 0.41290
# Poissons Ratio (y) = -0.03446 0.49225
# Poissons Ratio (z) = 0.18274 0.40087
#
# Static dielectric constant tensor:
#      x y z
#    x 1.729640 -0.294080 0.160240 
#    y -0.294080 0.899870 0.339980 
#    z 0.160240 0.339980 1.624760 
# 
# From -- ./inp_files/297415.got.cif
#   From: 2010.05.17/outbox.cif.g08.bks.cpg/sg2_149_cif.got.tgz:297415.got - 2010.06.03 11:33:40.
