data_PCOD9092107
_publ_section_title
;
Structure prediction by ZEFSAII (Michael W. Deem and Ramdas Pophale) SiO2 
 PCOD9092107
Probable space group: P -1
;
_chemical_formula_sum "Si O2"
_cell_formula_units_Z 16
_cell_length_a 11.252363
_cell_length_b 10.045649
_cell_length_c 7.478302
_cell_angle_alpha 131.759469
_cell_angle_beta 81.034307
_cell_angle_gamma 94.472066
_cell_volume 622.482483
_symmetry_space_group_name_H-M "P -1"
_symmetry_group_IT_number 2
_symmetry_cell_setting 'triclinic'
loop_
_space_group_symop_operation_xyz
x,y,z
-x,-y,-z
loop_
_atom_site_type_symbol
_atom_site_label
_atom_site_fract_x
_atom_site_fract_y
_atom_site_fract_z
Si Si1 0.655380 0.278574 0.796828
Si Si2 0.896193 0.072033 0.459203
Si Si3 0.335386 0.097829 0.113075
Si Si4 0.018907 0.179116 0.039297
Si Si5 0.779079 0.383663 0.199084
Si Si6 0.097514 0.290966 0.450016
Si Si7 0.526931 0.161811 0.402342
Si Si8 0.368832 0.490034 0.319612
O O1 0.550697 0.175979 0.622975
O O2 0.661504 0.456650 0.830502
O O3 0.772576 0.152895 0.626641
O O4 0.671629 0.333802 0.047547
O O5 0.969032 0.229938 0.491694
O O6 0.000000 0.000000 0.500000
O O7 0.880474 0.896117 0.186106
O O8 0.201801 0.137419 0.254552
O O9 0.415719 0.073909 0.252551
O O10 0.376208 0.280805 0.170408
O O11 0.362558 0.938694 0.823168
O O12 0.068585 0.335306 0.288640
O O13 0.890807 0.242040 0.046828
O O14 0.000000 0.000000 0.000000
O O15 0.844201 0.568472 0.307387
O O16 0.730389 0.426454 0.446286
O O17 0.522620 0.374632 0.547489
#
# Coordination Sequence:
#
# PCOD9092107 Si02
#       8
#     2   2   2   2   2   2   2   2
#     4  10  22  39  59  91 122 161 210 245 311 371
#     4  11  21  38  56  86 120 161 196 254 304 357
#     4  10  19  40  66  91 118 165 203 257 307 362
#     4  10  20  35  59  82 115 161 203 242 303 366
#     4  11  21  40  58  88 126 161 197 259 309 355
#     4  10  23  36  59  88 117 157 209 247 301 374
#     4   9  21  38  68  89 121 160 209 250 310 370
#     4   9  21  38  64  88 124 160 203 252 309 363
#
# _framework density 25.703536
#
# number of rings (size 3 to 8) (size 9 to 14) (size 15 to 20)
#    0.750    1.250    1.250    3.000    3.500    1.500 
#    6.750    2.500    0.000    2.250    0.000    0.000 
#    0.000    0.000    0.000    0.000    0.000    0.000 
#
# Total GULP energy -89173.431436 kJ/mol
# GULP energy per Si atom -5573.339465 kJ/mol
# Density = 2.564503 g / cm^3
# Si number density = 25.703536 Si / 1000 Ang^3
#
#
#
# Elastic Constant Matrix: (Units=GPa)
#
#
# Indices 1 2 3 4 5 6 
#
# 1 51.8120 14.2282 36.4939 -0.9268 12.7125 -13.5603
# 2 14.2282 70.2201 38.2694 5.3401 20.3714 -17.8696
# 3 36.4939 38.2694 127.2519 23.0697 17.5260 -8.9725
# 4 -0.9268 5.3401 23.0697 36.5081 -12.8454 10.3195
# 5 12.7125 20.3714 17.5260 -12.8454 53.3155 0.6128
# 6 -13.5603 -17.8696 -8.9725 10.3195 0.6128 32.1814
#
#
#
# Elastic Compliance Matrix: (Units=1/GPa)
#
#
# Indices 1 2 3 4 5 6 
#
# 1 0.028025 0.002896 -0.007234 -0.000418 -0.005645 0.011642
# 2 0.002896 0.023879 -0.003451 -0.009996 -0.011283 0.016938
# 3 -0.007234 -0.003451 0.013499 -0.010174 -0.003870 0.002135
# 4 -0.000418 -0.009996 -0.010174 0.049057 0.019366 -0.024663
# 5 -0.005645 -0.011283 -0.003870 0.019366 0.030541 -0.016514
# 6 0.011642 0.016938 0.002135 -0.024663 -0.016514 0.054203
#
#
# Mechanical properties :
#
#
# Convention : Reuss Voigt Hill
#
# Bulk Modulus (GPa) = 20.07066 47.47410 33.77238
# Shear Modulus (GPa) = 21.60855 35.08716 28.34786
#
# Velocity S-wave (km/s) = 2.90260 3.69870 3.32456
# Velocity P-wave (km/s) = 4.36565 6.06221 5.28249
#
# Compressibility (1/GPa) = 0.04982398
#
# Stress axis : x y z
#
# Youngs Moduli (GPa) = 35.68241 41.87818 74.08024
#
# Poissons Ratio (x) = -0.12128 0.53589
# Poissons Ratio (y) = -0.10334 0.25568
# Poissons Ratio (z) = 0.25812 0.14454
#
# Static dielectric constant tensor:
#      x y z
#    x 2.028470 -0.010350 0.030580 
#    y -0.010350 2.054750 -0.056070 
#    z 0.030580 -0.056070 2.125170 
# 
# From -- ./inp_files/306025.got.cif
#   From: 2010.05.17/outbox.cif.g08.bks.cpg/sg2_154_cif.got.tgz:306025.got - 2010.06.03 11:33:40.
