data_PCOD9092741
_publ_section_title
;
Structure prediction by ZEFSAII (Michael W. Deem and Ramdas Pophale) SiO2 
 PCOD9092741
Probable space group: P -1
;
_chemical_formula_sum "Si O2"
_cell_formula_units_Z 14
_cell_length_a 9.041950
_cell_length_b 13.734290
_cell_length_c 11.281230
_cell_angle_alpha 149.840948
_cell_angle_beta 68.098896
_cell_angle_gamma 111.004327
_cell_volume 651.104376
_symmetry_space_group_name_H-M "P -1"
_symmetry_group_IT_number 2
_symmetry_cell_setting 'triclinic'
loop_
_space_group_symop_operation_xyz
x,y,z
-x,-y,-z
loop_
_atom_site_type_symbol
_atom_site_label
_atom_site_fract_x
_atom_site_fract_y
_atom_site_fract_z
Si Si1 0.552490 0.743731 0.511085
Si Si2 0.623775 0.544939 0.902089
Si Si3 0.554324 0.099262 0.710651
Si Si4 0.460212 0.270640 0.238744
Si Si5 0.090539 0.213304 0.210469
Si Si6 0.265468 0.633138 0.919587
Si Si7 0.033682 0.457067 0.245630
O O1 0.406187 0.609501 0.357806
O O2 0.521254 0.819483 0.731507
O O3 0.688656 0.589270 0.311547
O O4 0.578854 0.918856 0.597861
O O5 0.805548 0.534089 0.869650
O O6 0.500000 0.500000 0.000000
O O7 0.584782 0.751778 0.078071
O O8 0.500000 0.000000 0.500000
O O9 0.712583 0.247399 0.838785
O O10 0.500000 0.500000 0.500000
O O11 0.280085 0.219806 0.192908
O O12 0.596484 0.252862 0.082325
O O13 0.063874 0.324231 0.211474
O O14 0.013496 0.339406 0.470139
O O15 0.000000 0.000000 0.000000
O O16 0.107055 0.630152 0.888091
#
# Coordination Sequence:
#
# PCOD9092741 Si02
#       7
#     2   2   2   2   2   2   2
#     4  10  21  40  70  92 130 177 230 282 337 420
#     4  11  24  45  69  92 132 190 238 285 350 403
#     4  11  23  43  69  94 126 181 243 287 334 408
#     4  10  19  42  67 101 140 180 221 275 353 431
#     4  11  24  41  68 108 149 182 222 282 359 428
#     4  10  23  40  70 102 135 178 225 285 361 418
#     4  11  24  43  66 103 146 176 230 292 350 426
#
# _framework density 21.501930000000002
#
# number of rings (size 3 to 8) (size 9 to 14) (size 15 to 20)
#    0.000    1.429    4.286    2.571    4.000    2.857 
#    0.000    3.571    0.000    0.000    0.000    0.000 
#    0.000    0.000    0.000    0.000    0.000    0.000 
#
# Total GULP energy -78085.370682 kJ/mol
# GULP energy per Si atom -5577.526477 kJ/mol
# Density = 2.145299 g / cm^3
# Si number density = 21.501930 Si / 1000 Ang^3
#
#
#
# Elastic Constant Matrix: (Units=GPa)
#
#
# Indices 1 2 3 4 5 6 
#
# 1 204.5469 62.3390 61.1075 -6.4400 23.9370 10.0646
# 2 62.3390 113.5800 41.4882 0.3579 -4.1737 -14.1502
# 3 61.1075 41.4882 120.0209 7.9868 31.5482 4.6675
# 4 -6.4400 0.3579 7.9868 28.6122 -3.9443 2.9906
# 5 23.9370 -4.1737 31.5482 -3.9443 34.9981 -5.0111
# 6 10.0646 -14.1502 4.6675 2.9906 -5.0111 37.9186
#
#
#
# Elastic Compliance Matrix: (Units=1/GPa)
#
#
# Indices 1 2 3 4 5 6 
#
# 1 0.007388 -0.004553 -0.000702 0.001631 -0.005412 -0.004418
# 2 -0.004553 0.015388 -0.006752 0.001420 0.012531 0.009326
# 3 -0.000702 -0.006752 0.015928 -0.006134 -0.016227 -0.005955
# 4 0.001631 0.001420 -0.006134 0.038325 0.008757 -0.001013
# 5 -0.005412 0.012531 -0.016227 0.008757 0.051419 0.014215
# 6 -0.004418 0.009326 -0.005955 -0.001013 0.014215 0.033716
#
#
# Mechanical properties :
#
#
# Convention : Reuss Voigt Hill
#
# Bulk Modulus (GPa) = 68.07146 85.33524 76.70335
# Shear Modulus (GPa) = 26.16764 38.51997 32.34381
#
# Velocity S-wave (km/s) = 3.49232 4.23716 3.88265
# Velocity P-wave (km/s) = 6.92739 7.98195 7.47329
#
# Compressibility (1/GPa) = 0.01469044
#
# Stress axis : x y z
#
# Youngs Moduli (GPa) = 135.34985 64.98779 62.78056
#
# Poissons Ratio (x) = 0.29589 0.04407
# Poissons Ratio (y) = 0.61626 0.42389
# Poissons Ratio (z) = 0.09501 0.43879
#
# Static dielectric constant tensor:
#      x y z
#    x 1.795820 -0.027620 0.029000 
#    y -0.027620 1.873070 -0.035400 
#    z 0.029000 -0.035400 1.917530 
# 
# From -- ./inp_files/399956.got.cif
#   From: 2010.05.17/outbox.cif.g08.bks.cpg/sg2_200_cif.got.tgz:399956.got - 2010.06.03 11:33:40.
