data_PCOD9092696
_publ_section_title
;
Structure prediction by ZEFSAII (Michael W. Deem and Ramdas Pophale) SiO2 
 PCOD9092696
Probable space group: P -1
;
_chemical_formula_sum "Si O2"
_cell_formula_units_Z 16
_cell_length_a 21.435892
_cell_length_b 14.406488
_cell_length_c 8.596212
_cell_angle_alpha 138.668735
_cell_angle_beta 34.626301
_cell_angle_gamma 145.584422
_cell_volume 830.809217
_symmetry_space_group_name_H-M "P -1"
_symmetry_group_IT_number 2
_symmetry_cell_setting 'triclinic'
loop_
_space_group_symop_operation_xyz
x,y,z
-x,-y,-z
loop_
_atom_site_type_symbol
_atom_site_label
_atom_site_fract_x
_atom_site_fract_y
_atom_site_fract_z
Si Si1 0.105938 0.139302 0.342773
Si Si2 0.079207 0.520595 0.017681
Si Si3 0.780728 0.968147 0.306082
Si Si4 0.285292 0.442304 0.570691
Si Si5 0.041461 0.803606 0.535117
Si Si6 0.882784 0.336160 0.440617
Si Si7 0.778175 0.557409 0.933986
Si Si8 0.439265 0.401917 0.665812
O O1 0.222241 0.276111 0.386548
O O2 0.027196 0.204801 0.494999
O O3 0.158312 0.076651 0.018420
O O4 0.000000 0.000000 0.500000
O O5 0.104667 0.694267 0.253048
O O6 0.970079 0.358991 0.139930
O O7 0.215085 0.530967 0.752955
O O8 0.000000 0.500000 0.000000
O O9 0.638338 0.801463 0.426086
O O10 0.859127 0.014050 0.366722
O O11 0.807293 0.148686 0.427974
O O12 0.441808 0.530299 0.371908
O O13 0.244822 0.422657 0.812454
O O14 0.922425 0.710925 0.784995
O O15 0.780385 0.391316 0.694256
O O16 0.000000 0.500000 0.500000
O O17 0.675902 0.563353 0.037346
O O18 0.500000 0.500000 0.500000
#
# Coordination Sequence:
#
# PCOD9092696 Si02
#       8
#     2   2   2   2   2   2   2   2
#     4  12  25  34  62  98 129 156 202 277 329 366
#     4  11  20  37  62  95 125 158 206 262 331 368
#     4  12  23  41  62  98 128 163 220 257 319 376
#     4  11  22  41  60  89 129 164 211 252 314 377
#     4  11  21  36  65  94 119 161 208 275 317 365
#     4  11  20  37  68  91 120 162 202 275 326 356
#     4  10  19  42  64  93 120 167 214 257 314 376
#     4  10  25  41  65  88 127 182 212 252 301 390
#
# _framework density 19.258333
#
# number of rings (size 3 to 8) (size 9 to 14) (size 15 to 20)
#    0.000    1.000    6.250    1.875    3.500    0.500 
#    0.000    5.625    0.000    1.500    0.000    0.000 
#    0.000    0.000    0.000    0.000    0.000    0.000 
#
# Total GULP energy -89079.991700 kJ/mol
# GULP energy per Si atom -5567.499481 kJ/mol
# Density = 1.921450 g / cm^3
# Si number density = 19.258333 Si / 1000 Ang^3
#
#
#
# Elastic Constant Matrix: (Units=GPa)
#
#
# Indices 1 2 3 4 5 6 
#
# 1 115.6985 57.0185 24.8928 5.8789 -22.4790 22.6632
# 2 57.0185 135.0313 26.6761 10.8802 -8.4563 14.0470
# 3 24.8928 26.6761 60.9348 18.0234 -11.0477 19.3467
# 4 5.8789 10.8802 18.0234 20.9795 -5.9745 -0.0470
# 5 -22.4790 -8.4563 -11.0477 -5.9745 30.2210 -4.4420
# 6 22.6632 14.0470 19.3467 -0.0470 -4.4420 44.9977
#
#
#
# Elastic Compliance Matrix: (Units=1/GPa)
#
#
# Indices 1 2 3 4 5 6 
#
# 1 0.013469 -0.004673 -0.001371 0.002110 0.008048 -0.003939
# 2 -0.004673 0.009866 -0.001940 -0.002702 -0.001972 -0.000090
# 3 -0.001371 -0.001940 0.028222 -0.022072 0.002836 -0.010581
# 4 0.002110 -0.002702 -0.022072 0.069744 0.008023 0.010135
# 5 0.008048 -0.001972 0.002836 0.008023 0.041059 -0.000596
# 6 -0.003939 -0.000090 -0.010581 0.010135 -0.000596 0.028736
#
#
# Mechanical properties :
#
#
# Convention : Reuss Voigt Hill
#
# Bulk Modulus (GPa) = 28.09806 58.75993 43.42900
# Shear Modulus (GPa) = 22.83863 32.77812 27.80837
#
# Velocity S-wave (km/s) = 3.44744 4.13003 3.80408
# Velocity P-wave (km/s) = 5.51980 7.30209 6.47259
#
# Compressibility (1/GPa) = 0.03558964
#
# Stress axis : x y z
#
# Youngs Moduli (GPa) = 74.24483 101.36177 35.43302
#
# Poissons Ratio (x) = 0.47365 0.04858
# Poissons Ratio (y) = 0.34693 0.06873
# Poissons Ratio (z) = 0.10179 0.19662
#
# Static dielectric constant tensor:
#      x y z
#    x 1.758870 -0.023210 -0.003040 
#    y -0.023210 1.682840 0.015040 
#    z -0.003040 0.015040 1.759050 
# 
# From -- ./inp_files/347386.got.cif
#   From: 2010.05.17/outbox.cif.g08.bks.cpg/sg2_174_cif.got.tgz:347386.got - 2010.06.03 11:33:40.
