data_PCOD9092660
_publ_section_title
;
Structure prediction by ZEFSAII (Michael W. Deem and Ramdas Pophale) SiO2 
 PCOD9092660
Probable space group: P -1
;
_chemical_formula_sum "Si O2"
_cell_formula_units_Z 16
_cell_length_a 6.844414
_cell_length_b 13.044336
_cell_length_c 8.694960
_cell_angle_alpha 126.961695
_cell_angle_beta 108.963297
_cell_angle_gamma 85.133997
_cell_volume 580.309259
_symmetry_space_group_name_H-M "P -1"
_symmetry_group_IT_number 2
_symmetry_cell_setting 'triclinic'
loop_
_space_group_symop_operation_xyz
x,y,z
-x,-y,-z
loop_
_atom_site_type_symbol
_atom_site_label
_atom_site_fract_x
_atom_site_fract_y
_atom_site_fract_z
Si Si1 0.458819 0.409918 0.757317
Si Si2 0.146580 0.240535 0.699679
Si Si3 0.273716 0.905864 0.529171
Si Si4 0.878163 0.441258 0.689107
Si Si5 0.629566 0.920415 0.842595
Si Si6 0.363695 0.867409 0.178071
Si Si7 0.785881 0.709885 0.881634
Si Si8 0.681986 0.380637 0.275827
O O1 0.673867 0.421483 0.729511
O O2 0.347183 0.272036 0.668941
O O3 0.302950 0.480200 0.675781
O O4 0.500000 0.500000 0.000000
O O5 0.964950 0.122721 0.502961
O O6 0.040062 0.369884 0.757769
O O7 0.398637 0.052384 0.677199
O O8 0.194050 0.245131 0.896438
O O9 0.431866 0.846475 0.629850
O O10 0.271291 0.848997 0.306355
O O11 0.926052 0.595281 0.802192
O O12 0.833862 0.375705 0.452145
O O13 0.781451 0.832430 0.880134
O O14 0.741485 0.026512 0.849134
O O15 0.500000 0.000000 0.000000
O O16 0.335350 0.737683 0.955434
O O17 0.551102 0.638788 0.730086
#
# Coordination Sequence:
#
# PCOD9092660 Si02
#       8
#     2   2   2   2   2   2   2   2
#     4  11  24  44  71 107 145 196 237 294 376 442
#     4  12  25  42  76 111 149 193 240 310 365 442
#     4   9  22  42  71 107 143 194 248 303 361 439
#     4  11  26  45  71 108 153 190 244 303 368 439
#     4  10  19  41  74  99 143 196 242 302 370 426
#     4   9  21  43  74 102 139 200 246 291 374 426
#     4  11  21  39  66 104 145 190 237 298 367 434
#     4  11  22  44  72 101 147 197 241 300 369 441
#
# _framework density 27.571504999999998
#
# number of rings (size 3 to 8) (size 9 to 14) (size 15 to 20)
#    0.750    0.750    3.750    2.625    1.750    0.500 
#    0.000    4.375    0.000    0.750    0.000    0.000 
#    0.000    0.000    0.000    0.000    0.000    0.000 
#
# Total GULP energy -89592.105018 kJ/mol
# GULP energy per Si atom -5599.506564 kJ/mol
# Density = 2.750875 g / cm^3
# Si number density = 27.571505 Si / 1000 Ang^3
#
#
#
# Elastic Constant Matrix: (Units=GPa)
#
#
# Indices 1 2 3 4 5 6 
#
# 1 116.5943 26.8184 48.0621 4.9662 21.0746 23.4681
# 2 26.8184 168.9286 36.6971 -20.2610 -2.9265 3.5626
# 3 48.0621 36.6971 144.0766 -16.1969 -15.3660 0.6223
# 4 4.9662 -20.2610 -16.1969 54.9326 -0.4529 1.8249
# 5 21.0746 -2.9265 -15.3660 -0.4529 47.0358 9.8042
# 6 23.4681 3.5626 0.6223 1.8249 9.8042 41.5562
#
#
#
# Elastic Compliance Matrix: (Units=1/GPa)
#
#
# Indices 1 2 3 4 5 6 
#
# 1 0.013537 -0.001390 -0.005203 -0.003135 -0.006687 -0.005732
# 2 -0.001390 0.006624 -0.000879 0.002318 0.000782 -0.000056
# 3 -0.005203 -0.000879 0.009787 0.003024 0.005188 0.001510
# 4 -0.003135 0.002318 0.003024 0.020257 0.002734 -0.000008
# 5 -0.006687 0.000782 0.005188 0.002734 0.026602 -0.002765
# 6 -0.005732 -0.000056 0.001510 -0.000008 -0.002765 0.027936
#
#
# Mechanical properties :
#
#
# Convention : Reuss Voigt Hill
#
# Bulk Modulus (GPa) = 66.64699 72.52830 69.58765
# Shear Modulus (GPa) = 40.09986 49.90638 45.00312
#
# Velocity S-wave (km/s) = 3.81779 4.25911 4.04447
# Velocity P-wave (km/s) = 6.60749 7.10980 6.86324
#
# Compressibility (1/GPa) = 0.01500443
#
# Stress axis : x y z
#
# Youngs Moduli (GPa) = 73.87142 150.96488 102.17599
#
# Poissons Ratio (x) = 0.20982 0.53158
# Poissons Ratio (y) = 0.10267 0.08985
# Poissons Ratio (z) = 0.38432 0.13276
#
# Static dielectric constant tensor:
#      x y z
#    x 2.210840 -0.034410 0.018200 
#    y -0.034410 2.236970 0.039160 
#    z 0.018200 0.039160 2.092260 
# 
# From -- ./inp_files/190352.got.cif
#   From: 2010.05.17/outbox.cif.g08.bks.cpg/sg2_96_cif.got.tgz:190352.got - 2010.06.03 11:33:40.
