data_PCOD9092580
_publ_section_title
;
Structure prediction by ZEFSAII (Michael W. Deem and Ramdas Pophale) SiO2 
 PCOD9092580
Probable space group: P -1
;
_chemical_formula_sum "Si O2"
_cell_formula_units_Z 14
_cell_length_a 14.517459
_cell_length_b 14.628191
_cell_length_c 5.723756
_cell_angle_alpha 110.167753
_cell_angle_beta 76.008989
_cell_angle_gamma 150.728678
_cell_volume 553.258937
_symmetry_space_group_name_H-M "P -1"
_symmetry_group_IT_number 2
_symmetry_cell_setting 'triclinic'
loop_
_space_group_symop_operation_xyz
x,y,z
-x,-y,-z
loop_
_atom_site_type_symbol
_atom_site_label
_atom_site_fract_x
_atom_site_fract_y
_atom_site_fract_z
Si Si1 0.936648 0.714499 0.824158
Si Si2 0.633211 0.344222 0.946943
Si Si3 0.617164 0.763116 0.641531
Si Si4 0.339051 0.382141 0.195676
Si Si5 0.418444 0.847354 0.587345
Si Si6 0.231367 0.910209 0.180408
Si Si7 0.908776 0.519776 0.299028
O O1 0.779488 0.558597 0.983420
O O2 0.876413 0.770964 0.854384
O O3 0.892464 0.602705 0.539752
O O4 0.126888 0.840963 0.938304
O O5 0.565104 0.233276 0.657315
O O6 0.473704 0.249349 0.116247
O O7 0.767967 0.392838 0.052918
O O8 0.450324 0.570536 0.417296
O O9 0.689223 0.733216 0.711561
O O10 0.755176 0.965981 0.614203
O O11 0.500000 0.500000 0.000000
O O12 0.196111 0.655714 0.630960
O O13 0.500000 0.000000 0.500000
O O14 0.561507 0.954606 0.808122
O O15 0.108982 0.721283 0.233352
#
# Coordination Sequence:
#
# PCOD9092580 Si02
#       7
#     2   2   2   2   2   2   2
#     4  10  21  40  63  96 130 172 215 263 320 377
#     4  10  19  41  69  89 128 176 208 258 325 383
#     4  11  22  38  65  97 127 173 223 254 319 382
#     4  11  22  37  67  97 131 172 222 269 307 372
#     4  11  25  44  70  99 124 166 220 269 323 391
#     4  11  25  40  68  95 130 174 211 263 334 388
#     4  10  22  43  67  92 132 171 212 262 327 387
#
# _framework density 25.304607000000001
#
# number of rings (size 3 to 8) (size 9 to 14) (size 15 to 20)
#    0.000    1.429    4.286    0.857    2.000    1.714 
#    0.000    7.857    0.000    0.000    0.000    0.000 
#    0.000    0.000    0.000    0.000    0.000    0.000 
#
# Total GULP energy -77942.391905 kJ/mol
# GULP energy per Si atom -5567.313708 kJ/mol
# Density = 2.524701 g / cm^3
# Si number density = 25.304607 Si / 1000 Ang^3
#
#
#
# Elastic Constant Matrix: (Units=GPa)
#
#
# Indices 1 2 3 4 5 6 
#
# 1 106.7571 43.9687 38.6397 21.8392 12.5939 -13.2345
# 2 43.9687 148.0343 9.9518 10.6776 3.9929 -13.7142
# 3 38.6397 9.9518 68.8298 7.4932 5.2939 17.0381
# 4 21.8392 10.6776 7.4932 19.7262 2.3207 -0.6711
# 5 12.5939 3.9929 5.2939 2.3207 29.4918 -3.3589
# 6 -13.2345 -13.7142 17.0381 -0.6711 -3.3589 41.4041
#
#
#
# Elastic Compliance Matrix: (Units=1/GPa)
#
#
# Indices 1 2 3 4 5 6 
#
# 1 0.018892 -0.002933 -0.010505 -0.014609 -0.003626 0.008859
# 2 -0.002933 0.007825 0.000206 -0.001062 0.000420 0.001587
# 3 -0.010505 0.000206 0.023478 0.002325 -0.001423 -0.013029
# 4 -0.014609 -0.001062 0.002325 0.066372 0.000186 -0.004887
# 5 -0.003626 0.000420 -0.001423 0.000186 0.035923 0.002483
# 6 0.008859 0.001587 -0.013029 -0.004887 0.002483 0.032993
#
#
# Mechanical properties :
#
#
# Convention : Reuss Voigt Hill
#
# Bulk Modulus (GPa) = 42.14119 56.52685 49.33402
# Shear Modulus (GPa) = 22.74211 33.52849 28.13530
#
# Velocity S-wave (km/s) = 3.00114 3.64400 3.33808
# Velocity P-wave (km/s) = 5.35713 6.33183 5.86476
#
# Compressibility (1/GPa) = 0.02372975
#
# Stress axis : x y z
#
# Youngs Moduli (GPa) = 52.93308 127.80058 42.59363
#
# Poissons Ratio (x) = 0.37480 0.44745
# Poissons Ratio (y) = 0.15523 -0.00876
# Poissons Ratio (z) = 0.55607 -0.02627
#
# Static dielectric constant tensor:
#      x y z
#    x 2.086700 -0.065540 0.080260 
#    y -0.065540 2.169350 -0.022510 
#    z 0.080260 -0.022510 1.994010 
# 
# From -- ./inp_files/47000.got.cif
#   From: 2010.05.17/outbox.cif.g08.bks.cpg/sg2_24_cif.got.tgz:47000.got - 2010.06.03 11:33:40.
