data_PCOD9092906
_publ_section_title
;
Structure prediction by ZEFSAII (Michael W. Deem and Ramdas Pophale) SiO2 
 PCOD9092906
Probable space group: P -1
;
_chemical_formula_sum "Si O2"
_cell_formula_units_Z 16
_cell_length_a 23.459093
_cell_length_b 8.540883
_cell_length_c 9.359385
_cell_angle_alpha 130.127003
_cell_angle_beta 130.895666
_cell_angle_gamma 30.861595
_cell_volume 710.488500
_symmetry_space_group_name_H-M "P -1"
_symmetry_group_IT_number 2
_symmetry_cell_setting 'triclinic'
loop_
_space_group_symop_operation_xyz
x,y,z
-x,-y,-z
loop_
_atom_site_type_symbol
_atom_site_label
_atom_site_fract_x
_atom_site_fract_y
_atom_site_fract_z
Si Si1 0.128277 0.684360 0.810122
Si Si2 0.870288 0.845104 0.998332
Si Si3 0.355494 0.016727 0.917936
Si Si4 0.078296 0.145817 0.374327
Si Si5 0.806282 0.762452 0.573758
Si Si6 0.513795 0.895718 0.300949
Si Si7 0.749661 0.188486 0.297314
Si Si8 0.546350 0.197076 0.334534
O O1 0.244844 0.380996 0.907910
O O2 0.121461 0.567059 0.579683
O O3 0.015461 0.836586 0.798764
O O4 0.132252 0.915382 0.919877
O O5 0.818157 0.962963 0.140462
O O6 0.808110 0.810874 0.772008
O O7 0.000000 0.500000 0.000000
O O8 0.308082 0.884778 0.760627
O O9 0.456808 0.826035 0.853994
O O10 0.415802 0.935341 0.119930
O O11 0.155743 0.097697 0.352556
O O12 0.000000 0.500000 0.500000
O O13 0.161008 0.903947 0.496137
O O14 0.680987 0.941757 0.435114
O O15 0.643895 0.548718 0.291218
O O16 0.500000 0.000000 0.500000
O O17 0.492538 0.122894 0.289394
O O18 0.500000 0.500000 0.500000
#
# Coordination Sequence:
#
# PCOD9092906 Si02
#       8
#     2   2   2   2   2   2   2   2
#     4  10  23  46  75  98 140 190 236 292 348 430
#     4  12  28  42  68 110 145 185 235 294 364 418
#     4  11  24  47  73  99 138 191 238 284 359 431
#     4  10  19  43  74  98 134 184 238 282 349 423
#     4  10  23  43  70 101 135 184 240 282 353 427
#     4  12  29  44  71 111 140 183 236 301 368 414
#     4  12  24  46  72 101 148 178 230 308 353 416
#     4  11  24  44  71  98 135 190 234 287 348 430
#
# _framework density 22.519717
#
# number of rings (size 3 to 8) (size 9 to 14) (size 15 to 20)
#    0.000    1.000    3.750    4.500    5.250    3.500 
#    0.000    0.000    0.000    0.000    0.000    0.000 
#    0.000    0.000    0.000    0.000    0.000    0.000 
#
# Total GULP energy -89367.894179 kJ/mol
# GULP energy per Si atom -5585.493386 kJ/mol
# Density = 2.246846 g / cm^3
# Si number density = 22.519717 Si / 1000 Ang^3
#
#
#
# Elastic Constant Matrix: (Units=GPa)
#
#
# Indices 1 2 3 4 5 6 
#
# 1 36.9557 -15.6714 6.2145 8.6594 -1.0875 -4.3351
# 2 -15.6714 74.8533 28.9252 0.5698 6.5829 4.9749
# 3 6.2145 28.9252 110.7144 10.1339 -25.3339 -10.0079
# 4 8.6594 0.5698 10.1339 25.3842 4.4109 7.6743
# 5 -1.0875 6.5829 -25.3339 4.4109 27.6522 4.2519
# 6 -4.3351 4.9749 -10.0079 7.6743 4.2519 33.6498
#
#
#
# Elastic Compliance Matrix: (Units=1/GPa)
#
#
# Indices 1 2 3 4 5 6 
#
# 1 0.034464 0.008362 -0.003099 -0.011893 -0.002392 0.005297
# 2 0.008362 0.020161 -0.009471 0.003962 -0.013171 -0.003960
# 3 -0.003099 -0.009471 0.017620 -0.010992 0.019054 0.006341
# 4 -0.011893 0.003962 -0.010992 0.055647 -0.017926 -0.015813
# 5 -0.002392 -0.013171 0.019054 -0.017926 0.058913 0.003950
# 6 0.005297 -0.003960 0.006341 -0.015813 0.003950 0.035979
#
#
# Mechanical properties :
#
#
# Convention : Reuss Voigt Hill
#
# Bulk Modulus (GPa) = 15.66684 29.05111 22.35897
# Shear Modulus (GPa) = 19.80378 30.87424 25.33901
#
# Velocity S-wave (km/s) = 2.96868 3.70670 3.35803
# Velocity P-wave (km/s) = 4.32698 5.58997 4.99853
#
# Compressibility (1/GPa) = 0.06382909
#
# Stress axis : x y z
#
# Youngs Moduli (GPa) = 29.01555 49.60006 56.75417
#
# Poissons Ratio (x) = -0.41475 0.17588
# Poissons Ratio (y) = -0.24262 0.53752
# Poissons Ratio (z) = 0.08992 0.46976
#
# Static dielectric constant tensor:
#      x y z
#    x 1.875680 0.008190 -0.089670 
#    y 0.008190 1.820400 0.014050 
#    z -0.089670 0.014050 2.005150 
# 
# From -- ./inp_files/352443.got.cif
#   From: 2010.05.17/outbox.cif.g08.bks.cpg/sg2_177_cif.got.tgz:352443.got - 2010.06.03 11:33:40.
