data_PCOD9092578
_publ_section_title
;
Structure prediction by ZEFSAII (Michael W. Deem and Ramdas Pophale) SiO2 
 PCOD9092578
Probable space group: P -1
;
_chemical_formula_sum "Si O2"
_cell_formula_units_Z 16
_cell_length_a 24.173334
_cell_length_b 7.823569
_cell_length_c 9.341239
_cell_angle_alpha 47.183462
_cell_angle_beta 32.823446
_cell_angle_gamma 56.222120
_cell_volume 701.925231
_symmetry_space_group_name_H-M "P -1"
_symmetry_group_IT_number 2
_symmetry_cell_setting 'triclinic'
loop_
_space_group_symop_operation_xyz
x,y,z
-x,-y,-z
loop_
_atom_site_type_symbol
_atom_site_label
_atom_site_fract_x
_atom_site_fract_y
_atom_site_fract_z
Si Si1 0.547952 0.940021 0.779225
Si Si2 0.525886 0.237032 0.391961
Si Si3 0.082415 0.371652 0.799796
Si Si4 0.249035 0.855590 0.717023
Si Si5 0.617286 0.423230 0.635920
Si Si6 0.055269 0.611035 0.175218
Si Si7 0.753156 0.265653 0.888436
Si Si8 0.805554 0.741875 0.108220
O O1 0.531651 0.158445 0.587703
O O2 0.670280 0.929891 0.540059
O O3 0.475029 0.726132 0.002197
O O4 0.500000 0.000000 0.000000
O O5 0.441936 0.416781 0.436704
O O6 0.500000 0.000000 0.500000
O O7 0.639763 0.319144 0.055352
O O8 0.166848 0.563224 0.457655
O O9 0.136066 0.213330 0.892858
O O10 0.024316 0.300711 0.820333
O O11 0.000000 0.500000 0.000000
O O12 0.312890 0.742783 0.514270
O O13 0.134196 0.822802 0.925867
O O14 0.243079 0.710205 0.961050
O O15 0.700510 0.587220 0.442842
O O16 0.000000 0.500000 0.500000
O O17 0.121084 0.407375 0.070313
O O18 0.778044 0.993999 0.961996
#
# Coordination Sequence:
#
# PCOD9092578 Si02
#       8
#     2   2   2   2   2   2   2   2
#     4   9  21  38  60  90 131 164 207 260 301 372
#     4  11  23  38  63  96 126 171 212 247 314 377
#     4  10  23  41  66  91 122 165 212 262 323 366
#     4   9  20  39  63  93 127 168 208 257 313 373
#     4  10  21  41  66  91 134 173 205 253 316 374
#     4  10  19  41  69  87 121 166 211 265 315 374
#     4  11  22  40  63  94 133 157 213 265 305 381
#     4  10  23  39  66  95 125 166 208 256 325 369
#
# _framework density 22.794450000000001
#
# number of rings (size 3 to 8) (size 9 to 14) (size 15 to 20)
#    0.000    2.000    2.500    0.000    1.750    9.000 
#    0.000    1.875    5.500    0.000    0.000    0.000 
#    0.000    0.000    0.000    0.000    0.000    0.000 
#
# Total GULP energy -89263.140750 kJ/mol
# GULP energy per Si atom -5578.946297 kJ/mol
# Density = 2.274257 g / cm^3
# Si number density = 22.794450 Si / 1000 Ang^3
#
#
#
# Elastic Constant Matrix: (Units=GPa)
#
#
# Indices 1 2 3 4 5 6 
#
# 1 145.2513 30.8499 61.0367 7.6915 -27.2310 6.2879
# 2 30.8499 44.0472 17.1657 0.3497 -9.0004 3.5040
# 3 61.0367 17.1657 157.4336 5.1590 -24.8174 6.1225
# 4 7.6915 0.3497 5.1590 20.7101 0.6210 -3.6454
# 5 -27.2310 -9.0004 -24.8174 0.6210 44.5341 1.4200
# 6 6.2879 3.5040 6.1225 -3.6454 1.4200 33.2528
#
#
#
# Elastic Compliance Matrix: (Units=1/GPa)
#
#
# Indices 1 2 3 4 5 6 
#
# 1 0.009980 -0.005090 -0.002561 -0.003342 0.003738 -0.001405
# 2 -0.005090 0.027058 -0.000628 0.001225 0.002044 -0.001726
# 3 -0.002561 -0.000628 0.007941 -0.001307 0.002788 -0.001174
# 4 -0.003342 0.001225 -0.001307 0.051077 -0.003444 0.006490
# 5 0.003738 0.002044 0.002788 -0.003444 0.026850 -0.002960
# 6 -0.001405 -0.001726 -0.001174 0.006490 -0.002960 0.031574
#
#
# Mechanical properties :
#
#
# Convention : Reuss Voigt Hill
#
# Bulk Modulus (GPa) = 35.18345 62.75961 48.97153
# Shear Modulus (GPa) = 27.69894 35.54472 31.62183
#
# Velocity S-wave (km/s) = 3.48970 3.95316 3.72863
# Velocity P-wave (km/s) = 5.63080 6.95911 6.32989
#
# Compressibility (1/GPa) = 0.02842245
#
# Stress axis : x y z
#
# Youngs Moduli (GPa) = 100.19554 36.95798 125.92549
#
# Poissons Ratio (x) = 0.18811 0.32249
# Poissons Ratio (y) = 0.50999 0.07903
# Poissons Ratio (z) = 0.25660 0.02320
#
# Static dielectric constant tensor:
#      x y z
#    x 1.813220 -0.065280 -0.018330 
#    y -0.065280 1.799670 0.014870 
#    z -0.018330 0.014870 1.824380 
# 
# From -- ./inp_files/352015.got.cif
#   From: 2010.05.17/outbox.cif.g08.bks.cpg/sg2_177_cif.got.tgz:352015.got - 2010.06.03 11:33:40.
