data_PCOD9092053
_publ_section_title
;
Structure prediction by ZEFSAII (Michael W. Deem and Ramdas Pophale) SiO2 
 PCOD9092053
Probable space group: P -1
;
_chemical_formula_sum "Si O2"
_cell_formula_units_Z 16
_cell_length_a 8.307975
_cell_length_b 9.988785
_cell_length_c 16.130876
_cell_angle_alpha 55.534354
_cell_angle_beta 46.848729
_cell_angle_gamma 44.051803
_cell_volume 671.708498
_symmetry_space_group_name_H-M "P -1"
_symmetry_group_IT_number 2
_symmetry_cell_setting 'triclinic'
loop_
_space_group_symop_operation_xyz
x,y,z
-x,-y,-z
loop_
_atom_site_type_symbol
_atom_site_label
_atom_site_fract_x
_atom_site_fract_y
_atom_site_fract_z
Si Si1 0.907388 0.217566 0.150894
Si Si2 0.185864 0.626138 0.043984
Si Si3 0.363200 0.224882 0.062592
Si Si4 0.582484 0.145120 0.392828
Si Si5 0.454299 0.667916 0.188948
Si Si6 0.887451 0.498741 0.629222
Si Si7 0.396455 0.139841 0.784995
Si Si8 0.559591 0.659752 0.448554
O O1 0.852664 0.083482 0.274038
O O2 0.699002 0.441518 0.174707
O O3 0.193460 0.172444 0.084558
O O4 0.857548 0.230620 0.066263
O O5 0.168047 0.447071 0.082182
O O6 0.922693 0.753477 0.147232
O O7 0.500000 0.500000 0.000000
O O8 0.484875 0.077139 0.147497
O O9 0.565487 0.230591 0.927131
O O10 0.371875 0.286646 0.347532
O O11 0.553676 0.259639 0.447941
O O12 0.500000 0.000000 0.500000
O O13 0.206909 0.647590 0.290750
O O14 0.525605 0.760906 0.205264
O O15 0.000000 0.500000 0.500000
O O16 0.123286 0.448020 0.623497
O O17 0.522330 0.167724 0.648339
O O18 0.500000 0.500000 0.500000
#
# Coordination Sequence:
#
# PCOD9092053 Si02
#       8
#     2   2   2   2   2   2   2   2
#     4  10  20  42  68  90 131 179 227 270 334 413
#     4  11  25  42  64  98 138 176 212 281 352 399
#     4  11  23  41  65 100 126 178 229 270 335 410
#     4  10  23  43  67  98 129 177 236 278 328 406
#     4  10  19  40  65  92 131 175 227 271 333 413
#     4   9  20  40  66  87 126 184 219 266 328 405
#     4  12  24  41  68 100 135 172 224 284 345 399
#     4  11  25  44  65  97 136 179 225 279 350 401
#
# _framework density 23.819859000000001
#
# number of rings (size 3 to 8) (size 9 to 14) (size 15 to 20)
#    0.000    1.500    2.500    3.375    5.250    4.500 
#    0.000    1.250    0.000    0.000    0.000    0.000 
#    0.000    0.000    0.000    0.000    0.000    0.000 
#
# Total GULP energy -89353.538015 kJ/mol
# GULP energy per Si atom -5584.596126 kJ/mol
# Density = 2.376564 g / cm^3
# Si number density = 23.819859 Si / 1000 Ang^3
#
#
#
# Elastic Constant Matrix: (Units=GPa)
#
#
# Indices 1 2 3 4 5 6 
#
# 1 87.3210 11.4074 44.9309 -3.0840 -19.5249 -19.8081
# 2 11.4074 56.5203 30.7142 -23.2759 -5.6186 -0.9835
# 3 44.9309 30.7142 209.9234 -19.8786 -11.3379 -15.8579
# 4 -3.0840 -23.2759 -19.8786 32.6819 -3.6788 1.2637
# 5 -19.5249 -5.6186 -11.3379 -3.6788 46.7444 -1.9688
# 6 -19.8081 -0.9835 -15.8579 1.2637 -1.9688 30.1750
#
#
#
# Elastic Compliance Matrix: (Units=1/GPa)
#
#
# Indices 1 2 3 4 5 6 
#
# 1 0.016544 -0.001505 -0.002256 -0.000533 0.006565 0.010076
# 2 -0.001505 0.026855 -0.001799 0.018350 0.003540 -0.001596
# 3 -0.002256 -0.001799 0.005842 0.002057 0.000483 0.001476
# 4 -0.000533 0.018350 0.002057 0.045556 0.006059 -0.000184
# 5 0.006565 0.003540 0.000483 0.006059 0.025411 0.006083
# 6 0.010076 -0.001596 0.001476 -0.000184 0.006083 0.040883
#
#
# Mechanical properties :
#
#
# Convention : Reuss Voigt Hill
#
# Bulk Modulus (GPa) = 26.23148 58.65219 42.44183
# Shear Modulus (GPa) = 27.03917 39.70107 33.37012
#
# Velocity S-wave (km/s) = 3.37286 4.08698 3.74697
# Velocity P-wave (km/s) = 5.11904 6.85185 6.04783
#
# Compressibility (1/GPa) = 0.03812213
#
# Stress axis : x y z
#
# Youngs Moduli (GPa) = 60.44485 37.23716 171.17646
#
# Poissons Ratio (x) = 0.05604 0.38609
# Poissons Ratio (y) = 0.09097 0.30790
# Poissons Ratio (z) = 0.13634 0.06698
#
# Static dielectric constant tensor:
#      x y z
#    x 1.972190 -0.057080 -0.027350 
#    y -0.057080 2.038240 0.037030 
#    z -0.027350 0.037030 1.936110 
# 
# From -- ./inp_files/559634.got.cif
#   From: 2010.05.17/outbox.cif.g08.bks.cpg/sg2_280_cif.got.tgz:559634.got - 2010.06.03 11:33:40.
