data_PCOD9092870
_publ_section_title
;
Structure prediction by ZEFSAII (Michael W. Deem and Ramdas Pophale) SiO2 
 PCOD9092870
Probable space group: P -1
;
_chemical_formula_sum "Si O2"
_cell_formula_units_Z 16
_cell_length_a 8.515828
_cell_length_b 14.740828
_cell_length_c 12.496440
_cell_angle_alpha 149.842878
_cell_angle_beta 107.364203
_cell_angle_gamma 84.638544
_cell_volume 706.434110
_symmetry_space_group_name_H-M "P -1"
_symmetry_group_IT_number 2
_symmetry_cell_setting 'triclinic'
loop_
_space_group_symop_operation_xyz
x,y,z
-x,-y,-z
loop_
_atom_site_type_symbol
_atom_site_label
_atom_site_fract_x
_atom_site_fract_y
_atom_site_fract_z
Si Si1 0.271882 0.401967 0.272773
Si Si2 0.190492 0.659029 0.676002
Si Si3 0.255238 0.188049 0.494277
Si Si4 0.954907 0.355440 0.003259
Si Si5 0.527264 0.560351 0.860939
Si Si6 0.154932 0.333576 0.825902
Si Si7 0.089336 0.984276 0.889166
Si Si8 0.634263 0.142224 0.864729
O O1 0.301561 0.547915 0.525515
O O2 0.413554 0.458284 0.265719
O O3 0.094812 0.400528 0.173602
O O4 0.228090 0.186916 0.088929
O O5 0.169045 0.817680 0.752551
O O6 0.000000 0.500000 0.500000
O O7 0.274978 0.767524 0.912414
O O8 0.339009 0.405324 0.689841
O O9 0.070117 0.078510 0.290233
O O10 0.389058 0.080730 0.376389
O O11 0.215624 0.199187 0.622219
O O12 0.026890 0.254880 0.820036
O O13 0.933588 0.545506 0.141619
O O14 0.770938 0.230059 0.886808
O O15 0.667021 0.531592 0.942971
O O16 0.522285 0.774942 0.093710
O O17 0.000000 0.000000 0.000000
#
# Coordination Sequence:
#
# PCOD9092870 Si02
#       8
#     2   2   2   2   2   2   2   2
#     4  11  24  44  67  99 133 171 216 280 321 385
#     4  12  21  39  70  97 127 174 217 270 324 383
#     4  12  23  42  69  97 129 179 214 270 330 389
#     4  10  19  43  67  99 126 164 229 269 313 388
#     4  11  27  46  62  97 141 172 214 271 337 385
#     4  10  23  41  71  94 132 176 219 270 328 384
#     4  12  22  41  70 101 125 168 228 266 319 392
#     4  12  24  40  66  96 133 171 223 264 325 398
#
# _framework density 22.648962999999998
#
# number of rings (size 3 to 8) (size 9 to 14) (size 15 to 20)
#    0.000    0.750    6.250    1.875    0.000    2.500 
#    0.000    1.250    0.000    0.000    0.000    0.000 
#    0.000    0.000    0.000    0.000    0.000    0.000 
#
# Total GULP energy -89493.699500 kJ/mol
# GULP energy per Si atom -5593.356219 kJ/mol
# Density = 2.259741 g / cm^3
# Si number density = 22.648963 Si / 1000 Ang^3
#
#
#
# Elastic Constant Matrix: (Units=GPa)
#
#
# Indices 1 2 3 4 5 6 
#
# 1 59.1297 8.6728 25.4238 -9.3228 -23.7523 10.9004
# 2 8.6728 75.8766 41.3963 -3.1909 -8.2128 -2.0993
# 3 25.4238 41.3963 106.7719 -6.6940 -30.6231 12.6007
# 4 -9.3228 -3.1909 -6.6940 39.0786 1.6667 -16.8336
# 5 -23.7523 -8.2128 -30.6231 1.6667 32.1151 -6.2418
# 6 10.9004 -2.0993 12.6007 -16.8336 -6.2418 44.7914
#
#
#
# Elastic Compliance Matrix: (Units=1/GPa)
#
#
# Indices 1 2 3 4 5 6 
#
# 1 0.025265 -0.000785 -0.000104 0.004298 0.017761 -0.002065
# 2 -0.000785 0.017275 -0.007633 0.001458 -0.002877 0.003295
# 3 -0.000104 -0.007633 0.016478 0.000312 0.013079 -0.003028
# 4 0.004298 0.001458 0.000312 0.031506 0.004429 0.011392
# 5 0.017761 -0.002877 0.013079 0.004429 0.056040 0.001337
# 6 -0.002065 0.003295 -0.003028 0.011392 0.001337 0.028302
#
#
# Mechanical properties :
#
#
# Convention : Reuss Voigt Hill
#
# Bulk Modulus (GPa) = 23.82475 43.64044 33.73260
# Shear Modulus (GPa) = 24.28348 34.28269 29.28309
#
# Velocity S-wave (km/s) = 3.27795 3.89479 3.59961
# Velocity P-wave (km/s) = 4.98684 6.28776 5.67470
#
# Compressibility (1/GPa) = 0.04197315
#
# Stress axis : x y z
#
# Youngs Moduli (GPa) = 39.58025 57.88873 60.68702
#
# Poissons Ratio (x) = 0.04543 0.00633
# Poissons Ratio (y) = 0.03106 0.46323
# Poissons Ratio (z) = 0.00413 0.44187
#
# Static dielectric constant tensor:
#      x y z
#    x 1.864520 -0.063690 -0.036280 
#    y -0.063690 1.837770 0.013200 
#    z -0.036280 0.013200 1.844630 
# 
# From -- ./inp_files/400112.got.cif
#   From: 2010.05.17/outbox.cif.g08.bks.cpg/sg2_201_cif.got.tgz:400112.got - 2010.06.03 11:33:40.
