data_PCOD9092248
_publ_section_title
;
Structure prediction by ZEFSAII (Michael W. Deem and Ramdas Pophale) SiO2 
 PCOD9092248
Probable space group: P -1
;
_chemical_formula_sum "Si O2"
_cell_formula_units_Z 16
_cell_length_a 14.165283
_cell_length_b 13.029133
_cell_length_c 8.961715
_cell_angle_alpha 110.920076
_cell_angle_beta 30.868928
_cell_angle_gamma 122.372227
_cell_volume 696.392547
_symmetry_space_group_name_H-M "P -1"
_symmetry_group_IT_number 2
_symmetry_cell_setting 'triclinic'
loop_
_space_group_symop_operation_xyz
x,y,z
-x,-y,-z
loop_
_atom_site_type_symbol
_atom_site_label
_atom_site_fract_x
_atom_site_fract_y
_atom_site_fract_z
Si Si1 0.119621 0.662229 0.035366
Si Si2 0.267755 0.698530 0.151941
Si Si3 0.081031 0.032542 0.237352
Si Si4 0.690521 0.423858 0.516453
Si Si5 0.894629 0.772483 0.201928
Si Si6 0.450772 0.830044 0.242464
Si Si7 0.035394 0.790888 0.702502
Si Si8 0.473098 0.543666 0.724178
O O1 0.247164 0.747111 0.043380
O O2 0.905991 0.547308 0.329996
O O3 0.055004 0.731661 0.036047
O O4 0.252259 0.608902 0.741077
O O5 0.462015 0.800323 0.037109
O O6 0.074977 0.688375 0.507734
O O7 0.287503 0.575069 0.027725
O O8 0.030403 0.136307 0.288184
O O9 0.329740 0.080801 0.935314
O O10 0.000000 0.000000 0.500000
O O11 0.971051 0.913545 0.217248
O O12 0.632624 0.306069 0.637912
O O13 0.506486 0.458800 0.758016
O O14 0.676656 0.679805 0.524761
O O15 0.882911 0.748895 0.028488
O O16 0.266782 0.868937 0.507811
O O17 0.500000 0.500000 0.500000
#
# Coordination Sequence:
#
# PCOD9092248 Si02
#       8
#     2   2   2   2   2   2   2   2
#     4  10  19  40  68  96 141 184 220 285 346 409
#     4  10  22  42  64 102 139 181 234 281 341 414
#     4  12  26  48  75  99 138 187 233 299 346 411
#     4  10  21  40  65  98 140 180 230 281 344 416
#     4  11  24  46  70 102 141 180 238 285 349 418
#     4  10  25  46  66 106 138 178 241 280 350 413
#     4  10  25  47  69 105 141 178 232 292 352 411
#     4  11  23  40  69 103 137 184 229 281 345 419
#
# _framework density 22.975546999999999
#
# number of rings (size 3 to 8) (size 9 to 14) (size 15 to 20)
#    0.750    0.750    2.500    1.875    1.750    3.000 
#    4.500    0.000    0.000    0.000    0.000    0.000 
#    0.000    0.000    0.000    0.000    0.000    0.000 
#
# Total GULP energy -89295.604451 kJ/mol
# GULP energy per Si atom -5580.975278 kJ/mol
# Density = 2.292325 g / cm^3
# Si number density = 22.975547 Si / 1000 Ang^3
#
#
#
# Elastic Constant Matrix: (Units=GPa)
#
#
# Indices 1 2 3 4 5 6 
#
# 1 116.7156 17.2126 23.5133 -10.6263 8.4009 -9.4521
# 2 17.2126 45.2717 19.1005 5.7931 1.2661 5.5556
# 3 23.5133 19.1005 51.6505 9.9242 -2.3159 -8.4760
# 4 -10.6263 5.7931 9.9242 28.9714 4.9941 5.4868
# 5 8.4009 1.2661 -2.3159 4.9941 26.0347 5.0120
# 6 -9.4521 5.5556 -8.4760 5.4868 5.0120 33.2342
#
#
#
# Elastic Compliance Matrix: (Units=1/GPa)
#
#
# Indices 1 2 3 4 5 6 
#
# 1 0.011330 -0.003074 -0.005324 0.007197 -0.005757 0.002058
# 2 -0.003074 0.028761 -0.010145 -0.001988 0.000619 -0.008035
# 3 -0.005324 -0.010145 0.029723 -0.012776 0.005567 0.009032
# 4 0.007197 -0.001988 -0.012776 0.045046 -0.010713 -0.006701
# 5 -0.005757 0.000619 0.005567 -0.010713 0.043780 -0.005155
# 6 0.002058 -0.008035 0.009032 -0.006701 -0.005155 0.036205
#
#
# Mechanical properties :
#
#
# Convention : Reuss Voigt Hill
#
# Bulk Modulus (GPa) = 30.55557 37.03230 33.79393
# Shear Modulus (GPa) = 20.58951 27.90216 24.24584
#
# Velocity S-wave (km/s) = 2.99682 3.48865 3.25204
# Velocity P-wave (km/s) = 5.03017 5.69040 5.37044
#
# Compressibility (1/GPa) = 0.03272726
#
# Stress axis : x y z
#
# Youngs Moduli (GPa) = 88.26075 34.76927 33.64385
#
# Poissons Ratio (x) = 0.10688 0.17913
# Poissons Ratio (y) = 0.27131 0.34133
# Poissons Ratio (z) = 0.46993 0.35274
#
# Static dielectric constant tensor:
#      x y z
#    x 1.888940 0.006300 -0.040040 
#    y 0.006300 1.857420 0.009370 
#    z -0.040040 0.009370 1.891790 
# 
# From -- ./inp_files/313639.got.cif
#   From: 2010.05.17/outbox.cif.g08.bks.cpg/sg2_157_cif.got.tgz:313639.got - 2010.06.03 11:33:40.
