data_PCOD9092872
_publ_section_title
;
Structure prediction by ZEFSAII (Michael W. Deem and Ramdas Pophale) SiO2 
 PCOD9092872
Probable space group: P -1
;
_chemical_formula_sum "Si O2"
_cell_formula_units_Z 14
_cell_length_a 15.381366
_cell_length_b 8.670795
_cell_length_c 14.239430
_cell_angle_alpha 46.755673
_cell_angle_beta 133.864691
_cell_angle_gamma 149.897908
_cell_volume 667.191051
_symmetry_space_group_name_H-M "P -1"
_symmetry_group_IT_number 2
_symmetry_cell_setting 'triclinic'
loop_
_space_group_symop_operation_xyz
x,y,z
-x,-y,-z
loop_
_atom_site_type_symbol
_atom_site_label
_atom_site_fract_x
_atom_site_fract_y
_atom_site_fract_z
Si Si1 0.206919 0.701519 0.058932
Si Si2 0.551392 0.678367 0.132426
Si Si3 0.643304 0.371966 0.435373
Si Si4 0.158063 0.362983 0.332373
Si Si5 0.017616 0.744541 0.463021
Si Si6 0.831641 0.185019 0.267700
Si Si7 0.831477 0.629518 0.017899
O O1 0.255793 0.649864 0.214245
O O2 0.204463 0.527918 0.044544
O O3 0.000000 0.500000 0.000000
O O4 0.326653 0.061676 0.968583
O O5 0.569668 0.462485 0.274427
O O6 0.348461 0.480266 0.044539
O O7 0.637963 0.913571 0.188268
O O8 0.716592 0.528309 0.529484
O O9 0.822759 0.527155 0.453450
O O10 0.500000 0.000000 0.500000
O O11 0.979165 0.245630 0.291433
O O12 0.085863 0.063319 0.345678
O O13 0.159117 0.887345 0.591912
O O14 0.000000 0.500000 0.500000
O O15 0.876934 0.489599 0.175742
O O16 0.000000 0.000000 0.000000
#
# Coordination Sequence:
#
# PCOD9092872 Si02
#       7
#     2   2   2   2   2   2   2
#     4  11  21  41  71  97 129 174 226 269 338 398
#     4  11  22  45  68  93 134 179 225 266 337 403
#     4  11  24  44  68  97 135 181 219 270 339 404
#     4  11  21  43  72  96 133 176 221 273 337 402
#     4  11  23  41  70 100 133 172 224 279 331 401
#     4  10  19  43  68  91 131 182 217 266 345 395
#     4  11  26  41  66  95 135 178 228 278 333 396
#
# _framework density 20.983495000000001
#
# number of rings (size 3 to 8) (size 9 to 14) (size 15 to 20)
#    0.000    1.143    5.714    2.571    6.000    0.000 
#    5.143    2.857    0.000    0.000    0.000    0.000 
#    0.000    0.000    0.000    0.000    0.000    0.000 
#
# Total GULP energy -78039.659958 kJ/mol
# GULP energy per Si atom -5574.261426 kJ/mol
# Density = 2.093574 g / cm^3
# Si number density = 20.983495 Si / 1000 Ang^3
#
#
#
# Elastic Constant Matrix: (Units=GPa)
#
#
# Indices 1 2 3 4 5 6 
#
# 1 52.5348 26.4751 46.2802 -10.8186 4.4091 2.1535
# 2 26.4751 136.8968 50.2536 -32.0543 18.6559 5.1796
# 3 46.2802 50.2536 131.6212 -35.2332 8.9091 -0.6098
# 4 -10.8186 -32.0543 -35.2332 36.7629 -1.2544 5.4069
# 5 4.4091 18.6559 8.9091 -1.2544 29.0008 -5.5546
# 6 2.1535 5.1796 -0.6098 5.4069 -5.5546 24.5009
#
#
#
# Elastic Compliance Matrix: (Units=1/GPa)
#
#
# Indices 1 2 3 4 5 6 
#
# 1 0.028427 -0.002522 -0.009848 -0.003046 -0.000105 -0.001562
# 2 -0.002522 0.011421 -0.000479 0.009380 -0.007558 -0.005988
# 3 -0.009848 -0.000479 0.014189 0.010425 -0.002394 -0.001523
# 4 -0.003046 0.009380 0.010425 0.046180 -0.009416 -0.013782
# 5 -0.000105 -0.007558 -0.002394 -0.009416 0.042215 0.013196
# 6 -0.001562 -0.005988 -0.001523 -0.013782 0.013196 0.048213
#
#
# Mechanical properties :
#
#
# Convention : Reuss Voigt Hill
#
# Bulk Modulus (GPa) = 35.28760 63.00785 49.14773
# Shear Modulus (GPa) = 22.14440 31.25585 26.70012
#
# Velocity S-wave (km/s) = 3.25210 3.86365 3.57099
# Velocity P-wave (km/s) = 5.56371 7.07080 6.36204
#
# Compressibility (1/GPa) = 0.02833857
#
# Stress axis : x y z
#
# Youngs Moduli (GPa) = 35.17760 87.55623 70.47814
#
# Poissons Ratio (x) = 0.22085 0.69406
# Poissons Ratio (y) = 0.08873 0.03377
# Poissons Ratio (z) = 0.34642 0.04195
#
# Static dielectric constant tensor:
#      x y z
#    x 1.780620 -0.048080 0.033210 
#    y -0.048080 1.858780 -0.206400 
#    z 0.033210 -0.206400 2.094540 
# 
# From -- ./inp_files/181927.got.cif
#   From: 2010.05.17/outbox.cif.g08.bks.cpg/sg2_91_cif.got.tgz:181927.got - 2010.06.03 11:33:40.
