data_PCOD9092186
_publ_section_title
;
Structure prediction by ZEFSAII (Michael W. Deem and Ramdas Pophale) SiO2 
 PCOD9092186
Probable space group: P -1
;
_chemical_formula_sum "Si O2"
_cell_formula_units_Z 12
_cell_length_a 8.926400
_cell_length_b 14.856945
_cell_length_c 9.106793
_cell_angle_alpha 54.129555
_cell_angle_beta 119.769373
_cell_angle_gamma 141.512947
_cell_volume 607.351266
_symmetry_space_group_name_H-M "P -1"
_symmetry_group_IT_number 2
_symmetry_cell_setting 'triclinic'
loop_
_space_group_symop_operation_xyz
x,y,z
-x,-y,-z
loop_
_atom_site_type_symbol
_atom_site_label
_atom_site_fract_x
_atom_site_fract_y
_atom_site_fract_z
Si Si1 0.925577 0.075763 0.304312
Si Si2 0.148087 0.968861 0.024151
Si Si3 0.946804 0.634535 0.288471
Si Si4 0.449089 0.383421 0.208023
Si Si5 0.605190 0.099318 0.304354
Si Si6 0.797647 0.368142 0.317173
O O1 0.729973 0.058727 0.312151
O O2 0.173927 0.257535 0.238594
O O3 0.830698 0.001349 0.167655
O O4 0.000000 0.000000 0.500000
O O5 0.011011 0.788989 0.140712
O O6 0.396513 0.060568 0.142706
O O7 0.000000 0.000000 0.000000
O O8 0.661675 0.497632 0.322291
O O9 0.954427 0.552296 0.231839
O O10 0.119114 0.662923 0.469610
O O11 0.527095 0.297281 0.265894
O O12 0.500000 0.500000 0.000000
O O13 0.795243 0.281202 0.267423
O O14 0.500000 0.000000 0.500000
#
# Coordination Sequence:
#
# PCOD9092186 Si02
#       6
#     2   2   2   2   2   2
#     4  12  26  42  66 104 137 180 229 283 336 410
#     4  12  24  43  70 101 134 182 228 281 344 405
#     4   9  20  38  71  90 132 176 222 265 350 392
#     4  10  19  40  67  92 132 175 220 274 337 394
#     4  12  24  41  68  96 141 177 229 277 342 400
#     4   9  19  38  66  96 122 183 214 274 336 401
#
# _framework density 19.757921
#
# number of rings (size 3 to 8) (size 9 to 14) (size 15 to 20)
#    1.000    0.333    3.333    3.500    0.000    0.000 
#    0.000    4.167    3.667    0.000    0.000    0.000 
#    0.000    0.000    0.000    0.000    0.000    0.000 
#
# Total GULP energy -66860.661264 kJ/mol
# GULP energy per Si atom -5571.721772 kJ/mol
# Density = 1.971295 g / cm^3
# Si number density = 19.757921 Si / 1000 Ang^3
#
#
#
# Elastic Constant Matrix: (Units=GPa)
#
#
# Indices 1 2 3 4 5 6 
#
# 1 160.2483 39.6307 79.4914 22.7283 13.0167 -16.2749
# 2 39.6307 100.8543 48.4678 16.5187 3.6106 -21.7678
# 3 79.4914 48.4678 124.3599 18.4703 17.5065 -2.8890
# 4 22.7283 16.5187 18.4703 37.9802 -1.3104 4.8336
# 5 13.0167 3.6106 17.5065 -1.3104 33.0785 1.0131
# 6 -16.2749 -21.7678 -2.8890 4.8336 1.0131 45.1259
#
#
#
# Elastic Compliance Matrix: (Units=1/GPa)
#
#
# Indices 1 2 3 4 5 6 
#
# 1 0.010031 0.000305 -0.005687 -0.003902 -0.001243 0.003847
# 2 0.000305 0.014611 -0.005051 -0.004999 0.000535 0.007358
# 3 -0.005687 -0.005051 0.014411 -0.001149 -0.004781 -0.003335
# 4 -0.003902 -0.004999 -0.001149 0.032493 0.004205 -0.007467
# 5 -0.001243 0.000535 -0.004781 0.004205 0.033411 -0.001697
# 6 0.003847 0.007358 -0.003335 -0.007467 -0.001697 0.027721
#
#
# Mechanical properties :
#
#
# Convention : Reuss Voigt Hill
#
# Bulk Modulus (GPa) = 54.98520 80.07135 67.52828
# Shear Modulus (GPa) = 31.32717 37.76176 34.54446
#
# Velocity S-wave (km/s) = 3.98622 4.37649 4.18591
# Velocity P-wave (km/s) = 7.00546 8.13342 7.59042
#
# Compressibility (1/GPa) = 0.01818671
#
# Stress axis : x y z
#
# Youngs Moduli (GPa) = 99.69169 68.44366 69.39099
#
# Poissons Ratio (x) = -0.02089 0.39461
# Poissons Ratio (y) = -0.03043 0.35052
# Poissons Ratio (z) = 0.56692 0.34573
#
# Static dielectric constant tensor:
#      x y z
#    x 1.707600 0.001520 0.008230 
#    y 0.001520 1.754650 -0.011240 
#    z 0.008230 -0.011240 1.701370 
# 
# From -- ./inp_files/195909.got.cif
#   From: 2010.05.17/outbox.cif.g08.bks.cpg/sg2_98_cif.got.tgz:195909.got - 2010.06.03 11:33:40.
