data_PCOD9092102
_publ_section_title
;
Structure prediction by ZEFSAII (Michael W. Deem and Ramdas Pophale) SiO2 
 PCOD9092102
Probable space group: P -1
;
_chemical_formula_sum "Si O2"
_cell_formula_units_Z 16
_cell_length_a 11.614646
_cell_length_b 19.224897
_cell_length_c 8.635622
_cell_angle_alpha 139.744779
_cell_angle_beta 38.232318
_cell_angle_gamma 144.488808
_cell_volume 650.761600
_symmetry_space_group_name_H-M "P -1"
_symmetry_group_IT_number 2
_symmetry_cell_setting 'triclinic'
loop_
_space_group_symop_operation_xyz
x,y,z
-x,-y,-z
loop_
_atom_site_type_symbol
_atom_site_label
_atom_site_fract_x
_atom_site_fract_y
_atom_site_fract_z
Si Si1 0.507221 0.560679 0.258473
Si Si2 0.866538 0.266065 0.219363
Si Si3 0.355360 0.324412 0.194350
Si Si4 0.453192 0.792744 0.988618
Si Si5 0.909727 0.295870 0.582491
Si Si6 0.084028 0.565027 0.793046
Si Si7 0.720090 0.003353 0.817399
Si Si8 0.362881 0.203262 0.651470
O O1 0.520790 0.473859 0.228182
O O2 0.267842 0.537331 0.498636
O O3 0.651126 0.709525 0.319066
O O4 0.500000 0.500000 0.000000
O O5 0.930978 0.279963 0.351856
O O6 0.004434 0.393179 0.186335
O O7 0.616353 0.237207 0.436719
O O8 0.876547 0.149957 0.943188
O O9 0.441787 0.279128 0.165453
O O10 0.119993 0.304393 0.450901
O O11 0.329171 0.243188 0.926034
O O12 0.237167 0.695431 0.948223
O O13 0.636903 0.910123 0.895388
O O14 0.326470 0.817973 0.300634
O O15 0.914575 0.428987 0.817412
O O16 0.778566 0.941276 0.509253
O O17 0.500000 0.000000 0.000000
#
# Coordination Sequence:
#
# PCOD9092102 Si02
#       8
#     2   2   2   2   2   2   2   2
#     4   8  15  30  57  84 119 154 200 245 293 364
#     4  10  19  40  66  90 118 169 218 253 304 369
#     4  10  22  38  61  94 130 164 199 257 320 372
#     4  12  22  40  66  92 130 165 204 259 318 371
#     4  11  24  39  61  99 132 157 203 256 326 377
#     4  10  20  38  62  93 129 162 207 258 308 377
#     4  10  20  39  70  88 116 170 223 256 300 369
#     4   9  16  38  62  87 118 164 215 252 294 369
#
# _framework density 24.586577999999999
#
# number of rings (size 3 to 8) (size 9 to 14) (size 15 to 20)
#    0.000    2.000    5.000    0.750    0.000    2.500 
#    2.250    2.500    0.000    0.000    0.000    0.000 
#    0.000    0.000    0.000    0.000    0.000    0.000 
#
# Total GULP energy -89342.319885 kJ/mol
# GULP energy per Si atom -5583.894993 kJ/mol
# Density = 2.453062 g / cm^3
# Si number density = 24.586578 Si / 1000 Ang^3
#
#
#
# Elastic Constant Matrix: (Units=GPa)
#
#
# Indices 1 2 3 4 5 6 
#
# 1 94.3588 20.1173 4.8774 3.3196 -20.6749 -20.5497
# 2 20.1173 58.1107 29.9724 2.4727 -14.5328 -3.1780
# 3 4.8774 29.9724 73.5339 20.3000 -8.1999 0.5270
# 4 3.3196 2.4727 20.3000 38.0192 6.5199 -2.3333
# 5 -20.6749 -14.5328 -8.1999 6.5199 37.0809 5.0225
# 6 -20.5497 -3.1780 0.5270 -2.3333 5.0225 37.1308
#
#
#
# Elastic Compliance Matrix: (Units=1/GPa)
#
#
# Indices 1 2 3 4 5 6 
#
# 1 0.014259 -0.003928 0.002117 -0.002838 0.006502 0.006467
# 2 -0.003928 0.024901 -0.010293 0.003386 0.004742 -0.000325
# 3 0.002117 -0.010293 0.021350 -0.011698 0.004101 -0.001302
# 4 -0.002838 0.003386 -0.011698 0.034291 -0.009181 0.002282
# 5 0.006502 0.004742 0.004101 -0.009181 0.035161 -0.001387
# 6 0.006467 -0.000325 -0.001302 0.002282 -0.001387 0.030833
#
#
# Mechanical properties :
#
#
# Convention : Reuss Voigt Hill
#
# Bulk Modulus (GPa) = 27.54537 37.32641 32.43589
# Shear Modulus (GPa) = 25.36756 33.84860 29.60808
#
# Velocity S-wave (km/s) = 3.21559 3.71443 3.47398
# Velocity P-wave (km/s) = 5.00145 5.79746 5.41410
#
# Compressibility (1/GPa) = 0.03630374
#
# Stress axis : x y z
#
# Youngs Moduli (GPa) = 70.13219 40.15872 46.83794
#
# Poissons Ratio (x) = 0.15774 -0.09918
# Poissons Ratio (y) = 0.27547 0.48210
# Poissons Ratio (z) = -0.14850 0.41335
#
# Static dielectric constant tensor:
#      x y z
#    x 2.117410 0.043080 0.075030 
#    y 0.043080 2.024970 0.029650 
#    z 0.075030 0.029650 2.005840 
# 
# From -- ./inp_files/280042.got.cif
#   From: 2010.05.17/outbox.cif.g08.bks.cpg/sg2_141_cif.got.tgz:280042.got - 2010.06.03 11:33:40.
