data_PCOD9092729
_publ_section_title
;
Structure prediction by ZEFSAII (Michael W. Deem and Ramdas Pophale) SiO2 
 PCOD9092729
Probable space group: P -1
;
_chemical_formula_sum "Si O2"
_cell_formula_units_Z 16
_cell_length_a 15.610754
_cell_length_b 16.739801
_cell_length_c 8.974461
_cell_angle_alpha 48.232507
_cell_angle_beta 122.112202
_cell_angle_gamma 155.060097
_cell_volume 717.756792
_symmetry_space_group_name_H-M "P -1"
_symmetry_group_IT_number 2
_symmetry_cell_setting 'triclinic'
loop_
_space_group_symop_operation_xyz
x,y,z
-x,-y,-z
loop_
_atom_site_type_symbol
_atom_site_label
_atom_site_fract_x
_atom_site_fract_y
_atom_site_fract_z
Si Si1 0.507793 0.199346 0.625669
Si Si2 0.208275 0.328890 0.726401
Si Si3 0.072820 0.529023 0.370352
Si Si4 0.632150 0.703161 0.271562
Si Si5 0.862160 0.511323 0.010013
Si Si6 0.075826 0.795756 0.558837
Si Si7 0.015080 0.820955 0.992069
Si Si8 0.442114 0.132993 0.995167
O O1 0.618555 0.418384 0.452562
O O2 0.683969 0.277997 0.641938
O O3 0.444963 0.116162 0.841695
O O4 0.307478 0.016477 0.562337
O O5 0.300420 0.298641 0.810671
O O6 0.024996 0.187583 0.614236
O O7 0.115436 0.257330 0.893225
O O8 0.000000 0.500000 0.500000
O O9 0.953480 0.313476 0.468180
O O10 0.017767 0.567130 0.149776
O O11 0.500000 0.500000 0.500000
O O12 0.499279 0.687290 0.147117
O O13 0.845567 0.952404 0.227577
O O14 0.629197 0.246757 0.108553
O O15 0.934745 0.617303 0.783456
O O16 0.880277 0.628386 0.992743
O O17 0.203660 0.914375 0.099088
#
# Coordination Sequence:
#
# PCOD9092729 Si02
#       8
#     2   2   2   2   2   2   2   2
#     4  11  22  43  64  95 127 168 220 260 312 384
#     4  11  21  42  64  95 140 163 211 272 313 369
#     4  11  26  42  65  96 133 161 210 273 323 374
#     4  10  19  42  66  92 131 174 211 262 312 377
#     4  12  21  43  66  94 127 172 215 261 317 387
#     4  11  23  40  68  96 121 178 213 253 326 379
#     4  10  24  38  64  97 129 168 210 268 321 362
#     4  10  22  40  64  95 126 166 219 261 305 380
#
# _framework density 22.291671999999998
#
# number of rings (size 3 to 8) (size 9 to 14) (size 15 to 20)
#    0.750    0.500    5.000    2.250    0.000    4.000 
#    2.250    2.500    0.000    0.000    0.000    0.000 
#    0.000    0.000    0.000    0.000    0.000    0.000 
#
# Total GULP energy -89348.038759 kJ/mol
# GULP energy per Si atom -5584.252422 kJ/mol
# Density = 2.224093 g / cm^3
# Si number density = 22.291672 Si / 1000 Ang^3
#
#
#
# Elastic Constant Matrix: (Units=GPa)
#
#
# Indices 1 2 3 4 5 6 
#
# 1 116.9305 27.0887 15.1141 10.5184 -31.0572 2.9627
# 2 27.0887 139.9441 9.9562 7.8929 -12.5241 12.2501
# 3 15.1141 9.9562 53.9603 2.8892 -12.8708 -5.9487
# 4 10.5184 7.8929 2.8892 20.3176 -1.3019 2.5327
# 5 -31.0572 -12.5241 -12.8708 -1.3019 33.2412 1.8731
# 6 2.9627 12.2501 -5.9487 2.5327 1.8731 17.9837
#
#
#
# Elastic Compliance Matrix: (Units=1/GPa)
#
#
# Indices 1 2 3 4 5 6 
#
# 1 0.012185 -0.000897 -0.000652 -0.004927 0.010716 -0.002034
# 2 -0.000897 0.008200 -0.001341 -0.001673 0.001996 -0.005854
# 3 -0.000652 -0.001341 0.021570 -0.002759 0.006687 0.007848
# 4 -0.004927 -0.001673 -0.002759 0.053319 -0.003871 -0.006067
# 5 0.010716 0.001996 0.006687 -0.003871 0.043561 -0.004905
# 6 -0.002034 -0.005854 0.007848 -0.006067 -0.004905 0.063890
#
#
# Mechanical properties :
#
#
# Convention : Reuss Voigt Hill
#
# Bulk Modulus (GPa) = 27.64401 46.12812 36.88606
# Shear Modulus (GPa) = 22.66906 31.55357 27.11131
#
# Velocity S-wave (km/s) = 3.19239 3.76638 3.49120
# Velocity P-wave (km/s) = 5.10063 6.29699 5.73012
#
# Compressibility (1/GPa) = 0.03617420
#
# Stress axis : x y z
#
# Youngs Moduli (GPa) = 82.06758 121.94737 46.36037
#
# Poissons Ratio (x) = 0.10943 0.03022
# Poissons Ratio (y) = 0.07364 0.06218
# Poissons Ratio (z) = 0.05350 0.16357
#
# Static dielectric constant tensor:
#      x y z
#    x 1.855770 0.014810 0.038740 
#    y 0.014810 1.826730 -0.033790 
#    z 0.038740 -0.033790 1.836730 
# 
# From -- ./inp_files/314815.got.cif
#   From: 2010.05.17/outbox.cif.g08.bks.cpg/sg2_158_cif.got.tgz:314815.got - 2010.06.03 11:33:40.
