data_PCOD9092757
_publ_section_title
;
Structure prediction by ZEFSAII (Michael W. Deem and Ramdas Pophale) SiO2 
 PCOD9092757
Probable space group: P -1
;
_chemical_formula_sum "Si O2"
_cell_formula_units_Z 14
_cell_length_a 14.428371
_cell_length_b 26.186357
_cell_length_c 9.109744
_cell_angle_alpha 142.454896
_cell_angle_beta 49.553152
_cell_angle_gamma 160.077500
_cell_volume 632.506643
_symmetry_space_group_name_H-M "P -1"
_symmetry_group_IT_number 2
_symmetry_cell_setting 'triclinic'
loop_
_space_group_symop_operation_xyz
x,y,z
-x,-y,-z
loop_
_atom_site_type_symbol
_atom_site_label
_atom_site_fract_x
_atom_site_fract_y
_atom_site_fract_z
Si Si1 0.188285 0.550542 0.509214
Si Si2 0.810036 0.456302 0.168108
Si Si3 0.820125 0.743458 0.171473
Si Si4 0.718418 0.878734 0.246889
Si Si5 0.803026 0.637898 0.454202
Si Si6 0.353911 0.557384 0.109465
Si Si7 0.893495 0.048348 0.949647
O O1 0.111157 0.491102 0.621813
O O2 0.147034 0.443426 0.202955
O O3 0.000000 0.500000 0.500000
O O4 0.545405 0.803175 0.718687
O O5 0.847680 0.575116 0.339995
O O6 0.451013 0.213027 0.941349
O O7 0.000000 0.500000 0.000000
O O8 0.685201 0.748130 0.273327
O O9 0.972754 0.817436 0.026460
O O10 0.500000 0.500000 0.000000
O O11 0.062935 0.912545 0.435357
O O12 0.433272 0.685274 0.213414
O O13 0.904310 0.907579 0.119835
O O14 0.500000 0.500000 0.500000
O O15 0.758896 0.586277 0.211292
O O16 0.072329 0.866861 0.756314
#
# Coordination Sequence:
#
# PCOD9092757 Si02
#       7
#     2   2   2   2   2   2   2
#     4  12  25  44  70  97 139 199 235 282 355 426
#     4  11  26  45  71 103 142 187 236 289 356 425
#     4  11  21  34  65 105 140 170 228 294 346 407
#     4  10  19  42  67  97 140 180 229 286 355 411
#     4  11  21  42  71 105 141 179 230 298 346 412
#     4  10  20  39  64  96 140 177 226 279 351 407
#     4  11  22  41  70 102 139 184 233 294 347 412
#
# _framework density 22.134155
#
# number of rings (size 3 to 8) (size 9 to 14) (size 15 to 20)
#    0.000    1.143    7.143    2.571    2.000    1.714 
#    0.000    5.000    0.000    0.000    0.000    0.000 
#    0.000    0.000    0.000    0.000    0.000    0.000 
#
# Total GULP energy -77986.157501 kJ/mol
# GULP energy per Si atom -5570.439822 kJ/mol
# Density = 2.208378 g / cm^3
# Si number density = 22.134155 Si / 1000 Ang^3
#
#
#
# Elastic Constant Matrix: (Units=GPa)
#
#
# Indices 1 2 3 4 5 6 
#
# 1 128.6694 44.7209 45.5394 -12.9655 16.0336 10.8023
# 2 44.7209 65.8984 53.5346 -17.1212 -6.0288 -5.1833
# 3 45.5394 53.5346 185.7518 -20.5849 21.3764 0.1353
# 4 -12.9655 -17.1212 -20.5849 44.3204 -2.8355 0.0021
# 5 16.0336 -6.0288 21.3764 -2.8355 34.5200 3.5649
# 6 10.8023 -5.1833 0.1353 0.0021 3.5649 37.2490
#
#
#
# Elastic Compliance Matrix: (Units=1/GPa)
#
#
# Indices 1 2 3 4 5 6 
#
# 1 0.012243 -0.010002 0.000694 -0.000437 -0.007463 -0.004231
# 2 -0.010002 0.031779 -0.007678 0.006737 0.014892 0.005925
# 3 0.000694 -0.007678 0.008265 0.000650 -0.006660 -0.000663
# 4 -0.000437 0.006737 0.000650 0.025531 0.002994 0.000774
# 5 -0.007463 0.014892 -0.006660 0.002994 0.039355 0.000494
# 6 -0.004231 0.005925 -0.000663 0.000774 0.000494 0.028853
#
#
# Mechanical properties :
#
#
# Convention : Reuss Voigt Hill
#
# Bulk Modulus (GPa) = 54.59736 74.21217 64.40476
# Shear Modulus (GPa) = 26.86685 38.98619 32.92652
#
# Velocity S-wave (km/s) = 3.48777 4.20141 3.86111
# Velocity P-wave (km/s) = 6.39840 7.55890 7.00273
#
# Compressibility (1/GPa) = 0.01831590
#
# Stress axis : x y z
#
# Youngs Moduli (GPa) = 81.67602 31.46740 120.99076
#
# Poissons Ratio (x) = 0.31474 -0.08402
# Poissons Ratio (y) = 0.81692 0.92900
# Poissons Ratio (z) = -0.05672 0.24161
#
# Static dielectric constant tensor:
#      x y z
#    x 1.896730 -0.035470 -0.017250 
#    y -0.035470 1.911640 -0.061080 
#    z -0.017250 -0.061080 1.906210 
# 
# From -- ./inp_files/320726.got.cif
#   From: 2010.05.17/outbox.cif.g08.bks.cpg/sg2_161_cif.got.tgz:320726.got - 2010.06.03 11:33:40.
