data_PCOD9092126
_publ_section_title
;
Structure prediction by ZEFSAII (Michael W. Deem and Ramdas Pophale) SiO2 
 PCOD9092126
Probable space group: P -1
;
_chemical_formula_sum "Si O2"
_cell_formula_units_Z 16
_cell_length_a 8.902174
_cell_length_b 20.733816
_cell_length_c 20.279847
_cell_angle_alpha 158.943597
_cell_angle_beta 38.122394
_cell_angle_gamma 140.497709
_cell_volume 818.338051
_symmetry_space_group_name_H-M "P -1"
_symmetry_group_IT_number 2
_symmetry_cell_setting 'triclinic'
loop_
_space_group_symop_operation_xyz
x,y,z
-x,-y,-z
loop_
_atom_site_type_symbol
_atom_site_label
_atom_site_fract_x
_atom_site_fract_y
_atom_site_fract_z
Si Si1 0.382293 0.699820 0.962585
Si Si2 0.277140 0.484476 0.508416
Si Si3 0.846402 0.715071 0.904513
Si Si4 0.959429 0.850262 0.313986
Si Si5 0.504842 0.638693 0.441206
Si Si6 0.021448 0.889625 0.698335
Si Si7 0.585072 0.341964 0.658198
Si Si8 0.202670 0.005461 0.257026
O O1 0.662901 0.727092 0.917259
O O2 0.302532 0.491973 0.770778
O O3 0.200501 0.752721 0.132290
O O4 0.343051 0.832939 0.043619
O O5 0.500000 0.500000 0.500000
O O6 0.362657 0.533256 0.450881
O O7 0.134050 0.277338 0.366497
O O8 0.094501 0.630184 0.725787
O O9 0.685857 0.548609 0.842888
O O10 0.903122 0.916909 0.107117
O O11 0.702696 0.719178 0.288137
O O12 0.000000 0.000000 0.500000
O O13 0.970453 0.943381 0.326549
O O14 0.370683 0.659814 0.438558
O O15 0.625593 0.834265 0.611052
O O16 0.862844 0.928346 0.727361
O O17 0.258062 0.805916 0.511432
#
# Coordination Sequence:
#
# PCOD9092126 Si02
#       8
#     2   2   2   2   2   2   2   2
#     4   9  23  39  63  93 121 162 208 246 303 363
#     4  11  25  40  65  92 120 165 206 255 315 356
#     4  10  23  41  62  91 126 164 201 256 304 368
#     4  10  19  40  66  94 123 160 209 250 302 364
#     4  11  21  42  64  87 124 159 208 258 299 364
#     4  11  23  42  63  90 132 159 203 255 307 369
#     4  10  22  41  63  94 125 159 207 251 308 359
#     4  10  22  38  64  91 123 162 200 257 303 354
#
# _framework density 19.551822999999999
#
# number of rings (size 3 to 8) (size 9 to 14) (size 15 to 20)
#    0.750    1.000    2.500    1.500    1.750    8.500 
#    2.250    4.375    0.000    0.000    0.000    0.000 
#    0.000    0.000    0.000    0.000    0.000    0.000 
#
# Total GULP energy -89076.929012 kJ/mol
# GULP energy per Si atom -5567.308063 kJ/mol
# Density = 1.950732 g / cm^3
# Si number density = 19.551823 Si / 1000 Ang^3
#
#
#
# Elastic Constant Matrix: (Units=GPa)
#
#
# Indices 1 2 3 4 5 6 
#
# 1 -20.2384 -11.1819 -62.4768 -15.4524 -46.7993 29.4980
# 2 -11.1819 87.1963 -3.0056 1.8636 -9.2845 12.2947
# 3 -62.4768 -3.0056 24.1985 7.2099 -35.6015 32.4154
# 4 -15.4524 1.8636 7.2099 23.0409 0.8100 7.1080
# 5 -46.7993 -9.2845 -35.6015 0.8100 31.6621 10.7613
# 6 29.4980 12.2947 32.4154 7.1080 10.7613 18.7151
#
#
#
# Elastic Compliance Matrix: (Units=1/GPa)
#
#
# Indices 1 2 3 4 5 6 
#
# 1 0.005663 -0.001744 -0.009196 0.003903 -0.006025 0.010132
# 2 -0.001744 0.011368 -0.001513 -0.001168 -0.000440 -0.001402
# 3 -0.009196 -0.001513 0.010217 -0.010270 -0.003555 0.003737
# 4 0.003903 -0.001168 -0.010270 0.050515 -0.006350 -0.003130
# 5 -0.006025 -0.000440 -0.003555 -0.006350 0.015504 0.009441
# 6 0.010132 -0.001402 0.003737 -0.003130 0.009441 0.027673
#
#
# Mechanical properties :
#
#
# Convention : Reuss Voigt Hill
#
# Bulk Modulus (GPa) = 427.19826 -6.90803 210.14511
# Shear Modulus (GPa) = 34.09984 25.87168 29.98576
#
# Velocity S-wave (km/s) = 4.18074 3.64158 3.92044
# Velocity P-wave (km/s) = 15.56517 3.76040 11.32288
#
# Compressibility (1/GPa) = 0.00234083
#
# Stress axis : x y z
#
# Youngs Moduli (GPa) = 176.59734 87.96389 97.87308
#
# Poissons Ratio (x) = 0.15344 0.90006
# Poissons Ratio (y) = 0.30805 0.14809
# Poissons Ratio (z) = 1.62403 0.13310
#
# Static dielectric constant tensor:
#      x y z
#    x 1.685520 0.001010 -0.009490 
#    y 0.001010 1.713930 0.006310 
#    z -0.009490 0.006310 1.716770 
# 
# From -- ./inp_files/591693.got.cif
#   From: 2010.05.17/outbox.cif.g08.bks.cpg/sg2_296_cif.got.tgz:591693.got - 2010.06.03 11:33:40.
