data_PCOD9092494
_publ_section_title
;
Structure prediction by ZEFSAII (Michael W. Deem and Ramdas Pophale) SiO2 
 PCOD9092494
Probable space group: P -1
;
_chemical_formula_sum "Si O2"
_cell_formula_units_Z 16
_cell_length_a 9.588652
_cell_length_b 10.088088
_cell_length_c 21.045384
_cell_angle_alpha 120.438120
_cell_angle_beta 53.034199
_cell_angle_gamma 75.351306
_cell_volume 823.669080
_symmetry_space_group_name_H-M "P -1"
_symmetry_group_IT_number 2
_symmetry_cell_setting 'triclinic'
loop_
_space_group_symop_operation_xyz
x,y,z
-x,-y,-z
loop_
_atom_site_type_symbol
_atom_site_label
_atom_site_fract_x
_atom_site_fract_y
_atom_site_fract_z
Si Si1 0.604714 0.686485 0.354589
Si Si2 0.265277 0.757223 0.950826
Si Si3 0.678080 0.743210 0.112379
Si Si4 0.437387 0.940897 0.597375
Si Si5 0.140771 0.150995 0.013321
Si Si6 0.151864 0.285123 0.459334
Si Si7 0.241551 0.704729 0.379642
Si Si8 0.774047 0.350635 0.932501
O O1 0.528213 0.779913 0.470893
O O2 0.433616 0.657650 0.368567
O O3 0.937967 0.403094 0.174731
O O4 0.535491 0.895782 0.387408
O O5 0.574255 0.460475 0.774506
O O6 0.039122 0.821910 0.983691
O O7 0.183539 0.795707 0.055617
O O8 0.281315 0.920983 0.963089
O O9 0.414181 0.987345 0.288757
O O10 0.674796 0.866560 0.085472
O O11 0.653107 0.592715 0.055500
O O12 0.000000 0.500000 0.000000
O O13 0.674083 0.744068 0.540998
O O14 0.095957 0.149905 0.762632
O O15 0.000000 0.500000 0.500000
O O16 0.898693 0.353407 0.572246
O O17 0.000000 0.000000 0.500000
O O18 0.500000 0.500000 0.000000
#
# Coordination Sequence:
#
# PCOD9092494 Si02
#       8
#     2   2   2   2   2   2   2   2
#     4  10  22  40  67  94 127 171 213 265 326 383
#     4  10  22  38  64  95 128 158 217 267 317 377
#     4  12  21  43  71  92 125 172 225 261 316 389
#     4  11  23  43  65  95 133 168 215 270 325 385
#     4  10  19  41  66  93 121 170 210 265 322 380
#     4  12  25  42  67 100 132 168 213 271 326 381
#     4  11  22  39  66  95 123 167 220 259 308 386
#     4  12  26  41  66  97 128 171 217 273 320 381
#
# _framework density 19.425277000000001
#
# number of rings (size 3 to 8) (size 9 to 14) (size 15 to 20)
#    0.000    1.000    5.000    1.500    3.500    2.000 
#    2.250    1.875    0.000    0.000    0.000    0.000 
#    0.000    0.000    0.000    0.000    0.000    0.000 
#
# Total GULP energy -89251.490811 kJ/mol
# GULP energy per Si atom -5578.218176 kJ/mol
# Density = 1.938106 g / cm^3
# Si number density = 19.425277 Si / 1000 Ang^3
#
#
#
# Elastic Constant Matrix: (Units=GPa)
#
#
# Indices 1 2 3 4 5 6 
#
# 1 96.8526 27.6038 36.0534 -11.2373 -0.6144 -14.2604
# 2 27.6038 94.5860 0.4936 -17.0164 -5.6806 -11.6851
# 3 36.0534 0.4936 59.6417 -24.1662 8.8285 -16.3185
# 4 -11.2373 -17.0164 -24.1662 35.2916 3.6538 0.8101
# 5 -0.6144 -5.6806 8.8285 3.6538 30.0388 -4.6640
# 6 -14.2604 -11.6851 -16.3185 0.8101 -4.6640 25.1307
#
#
#
# Elastic Compliance Matrix: (Units=1/GPa)
#
#
# Indices 1 2 3 4 5 6 
#
# 1 0.016026 -0.005911 -0.013676 -0.007479 0.003895 -0.001571
# 2 -0.005911 0.016227 0.012572 0.014349 -0.000665 0.011768
# 3 -0.013676 0.012572 0.048198 0.035393 -0.012344 0.025951
# 4 -0.007479 0.014349 0.035393 0.057813 -0.011551 0.021403
# 5 0.003895 -0.000665 -0.012344 -0.011551 0.038495 0.001402
# 6 -0.001571 0.011768 0.025951 0.021403 0.001402 0.060794
#
#
# Mechanical properties :
#
#
# Convention : Reuss Voigt Hill
#
# Bulk Modulus (GPa) = 15.05553 42.15354 28.60453
# Shear Modulus (GPa) = 18.26657 30.55420 24.41038
#
# Velocity S-wave (km/s) = 3.06984 3.97029 3.54874
# Velocity P-wave (km/s) = 4.50916 6.53950 5.61683
#
# Compressibility (1/GPa) = 0.06642079
#
# Stress axis : x y z
#
# Youngs Moduli (GPa) = 62.39786 61.62470 20.74765
#
# Poissons Ratio (x) = 0.36428 0.28374
# Poissons Ratio (y) = 0.36885 -0.26083
# Poissons Ratio (z) = 0.85333 -0.77472
#
# Static dielectric constant tensor:
#      x y z
#    x 1.664080 0.010140 -0.013780 
#    y 0.010140 1.665610 0.004240 
#    z -0.013780 0.004240 1.658220 
# 
# From -- ./inp_files/306840.got.cif
#   From: 2010.05.17/outbox.cif.g08.bks.cpg/sg2_154_cif.got.tgz:306840.got - 2010.06.03 11:33:40.
