data_PCOD9092609
_publ_section_title
;
Structure prediction by ZEFSAII (Michael W. Deem and Ramdas Pophale) SiO2 
 PCOD9092609
Probable space group: P -1
;
_chemical_formula_sum "Si O2"
_cell_formula_units_Z 13
_cell_length_a 16.478217
_cell_length_b 9.254514
_cell_length_c 7.852941
_cell_angle_alpha 115.693727
_cell_angle_beta 59.332739
_cell_angle_gamma 67.606465
_cell_volume 584.532212
_symmetry_space_group_name_H-M "P -1"
_symmetry_group_IT_number 2
_symmetry_cell_setting 'triclinic'
loop_
_space_group_symop_operation_xyz
x,y,z
-x,-y,-z
loop_
_atom_site_type_symbol
_atom_site_label
_atom_site_fract_x
_atom_site_fract_y
_atom_site_fract_z
Si Si1 0.661959 0.014833 0.290910
Si Si2 0.181380 0.552634 0.524188
Si Si3 0.289539 0.466851 0.694854
Si Si4 0.521965 0.895150 0.186061
Si Si5 0.995907 0.502121 0.799332
Si Si6 0.500000 0.500000 0.500000
Si Si7 0.926777 0.252804 0.629656
O O1 0.617830 0.909729 0.183298
O O2 0.548383 0.147902 0.640668
O O3 0.625388 0.220346 0.327314
O O4 0.832759 0.777387 0.050312
O O5 0.161491 0.653263 0.784083
O O6 0.104096 0.720286 0.523199
O O7 0.120994 0.452274 0.561443
O O8 0.358925 0.335419 0.187517
O O9 0.394183 0.481575 0.587874
O O10 0.380688 0.182228 0.415577
O O11 0.224135 0.531808 0.986637
O O12 0.016615 0.295413 0.600714
O O13 0.000000 0.500000 0.000000
O O14 0.000000 0.000000 0.500000
#
# Coordination Sequence:
#
# PCOD9092609 Si02
#       7
#     2   2   2   2   2   1   2
#     4  10  20  40  66  96 139 181 233 285 350 410
#     4  12  24  42  75 100 138 186 238 285 359 422
#     4  11  24  46  66 104 137 184 235 296 351 416
#     4  10  19  41  70  94 131 180 235 285 337 425
#     4  12  24  45  70 105 142 189 238 291 351 427
#     4  10  24  38  70  96 138 180 228 296 358 404
#     4  12  27  44  66 104 147 183 233 290 352 418
#
# _framework density 22.240003999999999
#
# number of rings (size 3 to 8) (size 9 to 14) (size 15 to 20)
#    0.000    0.923    4.615    2.769    2.154    3.077 
#    0.000    3.077    0.000    0.000    0.000    0.000 
#    0.000    0.000    0.000    0.000    0.000    0.000 
#
# Total GULP energy -72377.004688 kJ/mol
# GULP energy per Si atom -5567.461899 kJ/mol
# Density = 2.218938 g / cm^3
# Si number density = 22.240004 Si / 1000 Ang^3
#
#
#
# Elastic Constant Matrix: (Units=GPa)
#
#
# Indices 1 2 3 4 5 6 
#
# 1 74.0625 33.5535 -4.5442 -2.5141 -19.0386 -12.1390
# 2 33.5535 152.8101 20.2990 11.8812 4.8840 -11.4263
# 3 -4.5442 20.2990 53.1866 -2.7564 -7.5942 1.8749
# 4 -2.5141 11.8812 -2.7564 28.6861 2.3878 -4.4071
# 5 -19.0386 4.8840 -7.5942 2.3878 18.0272 -7.9683
# 6 -12.1390 -11.4263 1.8749 -4.4071 -7.9683 48.9559
#
#
#
# Elastic Compliance Matrix: (Units=1/GPa)
#
#
# Indices 1 2 3 4 5 6 
#
# 1 0.035123 -0.010693 0.014285 0.006841 0.051591 0.014679
# 2 -0.010693 0.010649 -0.007726 -0.005080 -0.018215 -0.003292
# 3 0.014285 -0.007726 0.027426 0.005479 0.030742 0.006185
# 4 0.006841 -0.005080 0.005479 0.038194 0.008084 0.005055
# 5 0.051591 -0.018215 0.030742 0.008084 0.140453 0.030952
# 6 0.014679 -0.003292 0.006185 0.005055 0.030952 0.028554
#
#
# Mechanical properties :
#
#
# Convention : Reuss Voigt Hill
#
# Bulk Modulus (GPa) = 15.40087 42.07511 28.73799
# Shear Modulus (GPa) = 16.11291 34.51725 25.31508
#
# Velocity S-wave (km/s) = 2.69458 3.94386 3.37748
# Velocity P-wave (km/s) = 4.07687 6.30067 5.30657
#
# Compressibility (1/GPa) = 0.06493140
#
# Stress axis : x y z
#
# Youngs Moduli (GPa) = 28.47125 93.90295 36.46137
#
# Poissons Ratio (x) = 1.00411 -0.52086
# Poissons Ratio (y) = 0.30444 0.28170
# Poissons Ratio (z) = -0.40672 0.72549
#
# Static dielectric constant tensor:
#      x y z
#    x 1.803850 -0.063140 0.021220 
#    y -0.063140 1.822210 0.020420 
#    z 0.021220 0.020420 1.937170 
# 
# From -- ./inp_files/320815.got.cif
#   From: 2010.05.17/outbox.cif.g08.bks.cpg/sg2_161_cif.got.tgz:320815.got - 2010.06.03 11:33:40.
