data_PCOD9092139
_publ_section_title
;
Structure prediction by ZEFSAII (Michael W. Deem and Ramdas Pophale) SiO2 
 PCOD9092139
Probable space group: P -1
;
_chemical_formula_sum "Si O2"
_cell_formula_units_Z 16
_cell_length_a 10.065488
_cell_length_b 26.659940
_cell_length_c 8.680840
_cell_angle_alpha 32.668513
_cell_angle_beta 130.325745
_cell_angle_gamma 150.780271
_cell_volume 578.929916
_symmetry_space_group_name_H-M "P -1"
_symmetry_group_IT_number 2
_symmetry_cell_setting 'triclinic'
loop_
_space_group_symop_operation_xyz
x,y,z
-x,-y,-z
loop_
_atom_site_type_symbol
_atom_site_label
_atom_site_fract_x
_atom_site_fract_y
_atom_site_fract_z
Si Si1 0.597539 0.489533 0.855091
Si Si2 0.475009 0.864636 0.215660
Si Si3 0.112258 0.435022 0.589256
Si Si4 0.288353 0.705895 0.066097
Si Si5 0.327415 0.231412 0.550286
Si Si6 0.059622 0.825508 0.363722
Si Si7 0.777653 0.776416 0.958021
Si Si8 0.334027 0.053510 0.512191
O O1 0.918188 0.662712 0.682509
O O2 0.394992 0.493643 0.668402
O O3 0.495322 0.384091 0.193799
O O4 0.511113 0.393801 0.885502
O O5 0.138300 0.708820 0.336584
O O6 0.660879 0.851142 0.345202
O O7 0.515486 0.901917 0.327473
O O8 0.610261 0.001741 0.855012
O O9 0.959710 0.366012 0.820269
O O10 0.165545 0.564810 0.246806
O O11 0.505907 0.744405 0.244784
O O12 0.464348 0.858953 0.712253
O O13 0.056582 0.164463 0.603358
O O14 0.919243 0.798048 0.164621
O O15 0.728520 0.862460 0.736237
O O16 0.022594 0.871839 0.760154
#
# Coordination Sequence:
#
# PCOD9092139 Si02
#       8
#     2   2   2   2   2   2   2   2
#     4  12  23  40  66  97 132 162 211 272 323 366
#     4  10  23  41  66  94 126 170 217 256 316 392
#     4  10  23  42  62  91 136 167 211 255 328 381
#     4  10  21  41  67  89 129 176 210 259 314 386
#     4  11  21  38  66  95 124 166 220 260 308 373
#     4  11  22  39  64  96 128 164 213 269 312 372
#     4  10  21  37  65  98 126 159 216 272 315 365
#     4  10  19  40  66  96 123 165 219 263 307 385
#
# _framework density 27.637197
#
# number of rings (size 3 to 8) (size 9 to 14) (size 15 to 20)
#    0.000    1.500    3.750    1.125    0.000    2.500 
#    0.000    6.250    0.000    0.000    0.000    0.000 
#    0.000    0.000    0.000    0.000    0.000    0.000 
#
# Total GULP energy -89656.512607 kJ/mol
# GULP energy per Si atom -5603.532038 kJ/mol
# Density = 2.757429 g / cm^3
# Si number density = 27.637197 Si / 1000 Ang^3
#
#
#
# Elastic Constant Matrix: (Units=GPa)
#
#
# Indices 1 2 3 4 5 6 
#
# 1 89.7626 -4.1960 10.2062 -15.1601 -7.8293 -7.3238
# 2 -4.1960 101.7977 11.0973 -17.2385 -3.3521 6.4118
# 3 10.2062 11.0973 174.6211 -1.0841 -19.9737 6.5246
# 4 -15.1601 -17.2385 -1.0841 41.5369 -1.5553 -4.8490
# 5 -7.8293 -3.3521 -19.9737 -1.5553 48.1865 -6.8164
# 6 -7.3238 6.4118 6.5246 -4.8490 -6.8164 19.0945
#
#
#
# Elastic Compliance Matrix: (Units=1/GPa)
#
#
# Indices 1 2 3 4 5 6 
#
# 1 0.013276 0.001334 -0.000738 0.006397 0.003236 0.007676
# 2 0.001334 0.010879 -0.000608 0.004840 0.000671 -0.001465
# 3 -0.000738 -0.000608 0.006107 -0.000459 0.002140 -0.001518
# 4 0.006397 0.004840 -0.000459 0.029680 0.003527 0.009782
# 5 0.003236 0.000671 0.002140 0.003527 0.023689 0.009637
# 6 0.007676 -0.001465 -0.001518 0.009782 0.009637 0.062251
#
#
# Mechanical properties :
#
#
# Convention : Reuss Voigt Hill
#
# Bulk Modulus (GPa) = 33.07050 44.48849 38.77950
# Shear Modulus (GPa) = 32.05459 45.03515 38.54487
#
# Velocity S-wave (km/s) = 3.40933 4.04110 3.73858
# Velocity P-wave (km/s) = 5.24309 6.15681 5.71823
#
# Compressibility (1/GPa) = 0.03023843
#
# Stress axis : x y z
#
# Youngs Moduli (GPa) = 75.32568 91.92352 163.74517
#
# Poissons Ratio (x) = -0.12262 0.12078
# Poissons Ratio (y) = -0.10048 0.09953
# Poissons Ratio (z) = 0.05556 0.05587
#
# Static dielectric constant tensor:
#      x y z
#    x 2.264480 0.053080 0.050490 
#    y 0.053080 2.188860 -0.000570 
#    z 0.050490 -0.000570 2.197590 
# 
# From -- ./inp_files/286098.got.cif
#   From: 2010.05.17/outbox.cif.g08.bks.cpg/sg2_144_cif.got.tgz:286098.got - 2010.06.03 11:33:40.
