data_PCOD9092533
_publ_section_title
;
Structure prediction by ZEFSAII (Michael W. Deem and Ramdas Pophale) SiO2 
 PCOD9092533
Probable space group: P -1
;
_chemical_formula_sum "Si O2"
_cell_formula_units_Z 12
_cell_length_a 6.959404
_cell_length_b 7.143926
_cell_length_c 12.069711
_cell_angle_alpha 77.822485
_cell_angle_beta 79.593496
_cell_angle_gamma 117.248596
_cell_volume 494.236790
_symmetry_space_group_name_H-M "P -1"
_symmetry_group_IT_number 2
_symmetry_cell_setting 'triclinic'
loop_
_space_group_symop_operation_xyz
x,y,z
-x,-y,-z
loop_
_atom_site_type_symbol
_atom_site_label
_atom_site_fract_x
_atom_site_fract_y
_atom_site_fract_z
Si Si1 0.168668 0.282924 0.278381
Si Si2 0.230834 0.499443 0.479513
Si Si3 0.442725 0.171113 0.101470
Si Si4 0.292230 0.177719 0.663382
Si Si5 0.217120 0.231669 0.910986
Si Si6 0.847535 0.323314 0.895735
O O1 0.229287 0.364134 0.387601
O O2 0.359712 0.241248 0.209385
O O3 0.155187 0.473523 0.187398
O O4 0.921651 0.058362 0.320452
O O5 0.541859 0.256282 0.580113
O O6 0.000000 0.500000 0.500000
O O7 0.242394 0.366051 0.599844
O O8 0.619507 0.721480 0.009419
O O9 0.284967 0.901944 0.137681
O O10 0.700382 0.245119 0.034674
O O11 0.309424 0.195730 0.791669
O O12 0.102717 0.377832 0.882365
O O13 0.000000 0.000000 0.000000
#
# Coordination Sequence:
#
# PCOD9092533 Si02
#       6
#     2   2   2   2   2   2
#     4  12  23  44  75 103 136 186 238 282 351 412
#     4  11  27  48  74  96 137 187 237 294 347 403
#     4  10  22  41  64 105 148 179 225 280 339 419
#     4  11  24  47  70 102 141 179 234 295 338 411
#     4  10  19  41  67  98 145 173 215 289 335 407
#     4  10  21  38  66 101 143 185 220 272 347 415
#
# _framework density 24.279859999999999
#
# number of rings (size 3 to 8) (size 9 to 14) (size 15 to 20)
#    0.000    1.333    3.333    3.000    0.000    1.333 
#    0.000    6.667    0.000    0.000    0.000    0.000 
#    0.000    0.000    0.000    0.000    0.000    0.000 
#
# Total GULP energy -67217.127253 kJ/mol
# GULP energy per Si atom -5601.427271 kJ/mol
# Density = 2.422460 g / cm^3
# Si number density = 24.279860 Si / 1000 Ang^3
#
#
#
# Elastic Constant Matrix: (Units=GPa)
#
#
# Indices 1 2 3 4 5 6 
#
# 1 100.1709 9.1525 16.5063 -20.3416 -17.1439 -1.8274
# 2 9.1525 107.1891 36.9106 -7.3512 -9.0200 6.9680
# 3 16.5063 36.9106 107.7710 -4.4627 -3.2763 0.8490
# 4 -20.3416 -7.3512 -4.4627 43.1032 8.9490 -5.6003
# 5 -17.1439 -9.0200 -3.2763 8.9490 24.2356 -3.2626
# 6 -1.8274 6.9680 0.8490 -5.6003 -3.2626 38.6937
#
#
#
# Elastic Compliance Matrix: (Units=1/GPa)
#
#
# Indices 1 2 3 4 5 6 
#
# 1 0.012405 0.000294 -0.001609 0.004467 0.007263 0.001827
# 2 0.000294 0.010996 -0.003667 0.000749 0.003326 -0.001497
# 3 -0.001609 -0.003667 0.010747 -0.000030 -0.001004 0.000260
# 4 0.004467 0.000749 -0.000030 0.027158 -0.006123 0.003491
# 5 0.007263 0.003326 -0.001004 -0.006123 0.050182 0.003111
# 6 0.001827 -0.001497 0.000260 0.003491 0.003111 0.026962
#
#
# Mechanical properties :
#
#
# Convention : Reuss Voigt Hill
#
# Bulk Modulus (GPa) = 41.35124 48.91887 45.13506
# Shear Modulus (GPa) = 31.95405 38.04395 34.99900
#
# Velocity S-wave (km/s) = 3.63171 3.96269 3.80081
# Velocity P-wave (km/s) = 5.88675 6.41318 6.15560
#
# Compressibility (1/GPa) = 0.02418307
#
# Stress axis : x y z
#
# Youngs Moduli (GPa) = 80.61394 90.94616 93.04520
#
# Poissons Ratio (x) = -0.02671 0.14972
# Poissons Ratio (y) = -0.02367 0.34119
# Poissons Ratio (z) = 0.12972 0.33349
#
# Static dielectric constant tensor:
#      x y z
#    x 1.991520 0.002500 -0.023430 
#    y 0.002500 1.974380 0.011400 
#    z -0.023430 0.011400 1.899300 
# 
# From -- ./inp_files/373016.got.cif
#   From: 2010.05.17/outbox.cif.g08.bks.cpg/sg2_187_cif.got.tgz:373016.got - 2010.06.03 11:33:40.
