data_PCOD9092638
_publ_section_title
;
Structure prediction by ZEFSAII (Michael W. Deem and Ramdas Pophale) SiO2 
 PCOD9092638
Probable space group: P -1
;
_chemical_formula_sum "Si O2"
_cell_formula_units_Z 12
_cell_length_a 12.731411
_cell_length_b 6.565474
_cell_length_c 10.689901
_cell_angle_alpha 53.331450
_cell_angle_beta 130.355681
_cell_angle_gamma 101.117168
_cell_volume 517.961892
_symmetry_space_group_name_H-M "P -1"
_symmetry_group_IT_number 2
_symmetry_cell_setting 'triclinic'
loop_
_space_group_symop_operation_xyz
x,y,z
-x,-y,-z
loop_
_atom_site_type_symbol
_atom_site_label
_atom_site_fract_x
_atom_site_fract_y
_atom_site_fract_z
Si Si1 0.631318 0.120889 0.061820
Si Si2 0.545109 0.186441 0.603269
Si Si3 0.851781 0.241200 0.788163
Si Si4 0.342015 0.376440 0.992935
Si Si5 0.155769 0.410969 0.589115
Si Si6 0.268518 0.499306 0.151178
O O1 0.776947 0.891910 0.298588
O O2 0.445784 0.073710 0.209759
O O3 0.676293 0.241405 0.925006
O O4 0.500000 0.000000 0.000000
O O5 0.500000 0.500000 0.500000
O O6 0.709581 0.146031 0.703307
O O7 0.407671 0.243137 0.382960
O O8 0.847370 0.404041 0.598677
O O9 0.000000 0.000000 0.000000
O O10 0.832331 0.421465 0.834290
O O11 0.263568 0.412004 0.787073
O O12 0.590717 0.385879 0.016798
O O13 0.224891 0.445531 0.995747
O O14 0.000000 0.500000 0.500000
#
# Coordination Sequence:
#
# PCOD9092638 Si02
#       6
#     2   2   2   2   2   2
#     4  10  23  45  71 102 143 182 234 290 350 414
#     4  10  19  41  72 100 141 183 228 288 348 411
#     4  11  23  43  69  98 136 187 231 292 348 410
#     4  10  24  43  73 106 140 183 239 286 353 417
#     4  12  25  46  69  99 144 187 232 293 354 417
#     4   9  21  43  69 100 140 177 237 282 347 410
#
# _framework density 23.167728
#
# number of rings (size 3 to 8) (size 9 to 14) (size 15 to 20)
#    1.000    0.667    0.000    5.500    0.000    2.667 
#    3.000    1.667    0.000    0.000    0.000    0.000 
#    0.000    0.000    0.000    0.000    0.000    0.000 
#
# Total GULP energy -66852.905344 kJ/mol
# GULP energy per Si atom -5571.075445 kJ/mol
# Density = 2.311500 g / cm^3
# Si number density = 23.167728 Si / 1000 Ang^3
#
#
#
# Elastic Constant Matrix: (Units=GPa)
#
#
# Indices 1 2 3 4 5 6 
#
# 1 145.7930 31.1543 76.4193 -13.9436 -0.8679 -17.4825
# 2 31.1543 95.1647 52.1104 -25.1142 -10.5212 -6.1317
# 3 76.4193 52.1104 213.2437 -34.6952 -11.4262 -4.9558
# 4 -13.9436 -25.1142 -34.6952 49.6264 -9.2296 -13.1271
# 5 -0.8679 -10.5212 -11.4262 -9.2296 54.6969 4.7477
# 6 -17.4825 -6.1317 -4.9558 -13.1271 4.7477 38.7640
#
#
#
# Elastic Compliance Matrix: (Units=1/GPa)
#
#
# Indices 1 2 3 4 5 6 
#
# 1 0.009123 -0.001015 -0.002808 0.001001 -0.000818 0.004034
# 2 -0.001015 0.014305 -0.001668 0.007378 0.003312 0.003685
# 3 -0.002808 -0.001668 0.006763 0.003477 0.001607 0.000315
# 4 0.001001 0.007378 0.003477 0.030884 0.006353 0.011744
# 5 -0.000818 0.003312 0.001607 0.006353 0.020312 0.000024
# 6 0.004034 0.003685 0.000315 0.011744 0.000024 0.032213
#
#
# Mechanical properties :
#
#
# Convention : Reuss Voigt Hill
#
# Bulk Modulus (GPa) = 52.06647 85.95215 69.00931
# Shear Modulus (GPa) = 38.17215 48.25195 43.21205
#
# Velocity S-wave (km/s) = 4.06352 4.56864 4.32346
# Velocity P-wave (km/s) = 6.67374 8.06290 7.40099
#
# Compressibility (1/GPa) = 0.01920622
#
# Stress axis : x y z
#
# Youngs Moduli (GPa) = 109.61802 69.90734 147.87086
#
# Poissons Ratio (x) = 0.07096 0.41529
# Poissons Ratio (y) = 0.11127 0.24670
# Poissons Ratio (z) = 0.30786 0.11663
#
# Static dielectric constant tensor:
#      x y z
#    x 1.969200 -0.061290 -0.075150 
#    y -0.061290 2.014280 0.069880 
#    z -0.075150 0.069880 1.928060 
# 
# From -- ./inp_files/435533.got.cif
#   From: 2010.05.17/outbox.cif.g08.bks.cpg/sg2_218_cif.got.tgz:435533.got - 2010.06.03 11:33:40.
