data_PCOD9092868
_publ_section_title
;
Structure prediction by ZEFSAII (Michael W. Deem and Ramdas Pophale) SiO2 
 PCOD9092868
Probable space group: P -1
;
_chemical_formula_sum "Si O2"
_cell_formula_units_Z 12
_cell_length_a 8.546355
_cell_length_b 9.769260
_cell_length_c 13.001213
_cell_angle_alpha 46.563850
_cell_angle_beta 72.416111
_cell_angle_gamma 106.176992
_cell_volume 534.715194
_symmetry_space_group_name_H-M "P -1"
_symmetry_group_IT_number 2
_symmetry_cell_setting 'triclinic'
loop_
_space_group_symop_operation_xyz
x,y,z
-x,-y,-z
loop_
_atom_site_type_symbol
_atom_site_label
_atom_site_fract_x
_atom_site_fract_y
_atom_site_fract_z
Si Si1 0.553564 0.867845 0.800578
Si Si2 0.074327 0.261280 0.808711
Si Si3 0.945945 0.673709 0.447241
Si Si4 0.803378 0.979134 0.511599
Si Si5 0.828374 0.442770 0.795539
Si Si6 0.499996 0.843669 0.487465
O O1 0.586183 0.775208 0.736913
O O2 0.501018 0.035965 0.679266
O O3 0.357891 0.666287 0.024707
O O4 0.803525 0.049912 0.709714
O O5 0.134443 0.298327 0.656310
O O6 0.293369 0.528446 0.685126
O O7 0.871158 0.255634 0.863552
O O8 0.000000 0.000000 0.000000
O O9 0.782681 0.517855 0.659625
O O10 0.000000 0.500000 0.500000
O O11 0.925678 0.278032 0.358693
O O12 0.729033 0.916195 0.440708
O O13 0.000000 0.000000 0.500000
O O14 0.500000 0.000000 0.500000
#
# Coordination Sequence:
#
# PCOD9092868 Si02
#       6
#     2   2   2   2   2   2
#     4  10  20  39  70  96 128 178 223 267 341 394
#     4  11  22  41  68 102 136 173 224 277 330 396
#     4   9  18  39  63  91 136 169 218 271 325 389
#     4  10  22  42  67  96 136 174 222 278 327 396
#     4  10  21  41  67  96 130 181 217 275 334 388
#     4  10  19  43  67  93 135 174 220 274 331 398
#
# _framework density 22.441851
#
# number of rings (size 3 to 8) (size 9 to 14) (size 15 to 20)
#    0.000    2.000    6.667    0.000    0.000    5.333 
#    6.000    2.500    0.000    0.000    0.000    0.000 
#    0.000    0.000    0.000    0.000    0.000    0.000 
#
# Total GULP energy -66867.935031 kJ/mol
# GULP energy per Si atom -5572.327919 kJ/mol
# Density = 2.239077 g / cm^3
# Si number density = 22.441851 Si / 1000 Ang^3
#
#
#
# Elastic Constant Matrix: (Units=GPa)
#
#
# Indices 1 2 3 4 5 6 
#
# 1 95.6910 28.8585 43.9479 4.4904 23.3103 13.2123
# 2 28.8585 94.4922 58.5075 4.5443 11.0156 17.6524
# 3 43.9479 58.5075 150.0408 30.8423 13.2956 2.6688
# 4 4.4904 4.5443 30.8423 38.4653 -12.1295 -2.7297
# 5 23.3103 11.0156 13.2956 -12.1295 37.3316 1.1831
# 6 13.2123 17.6524 2.6688 -2.7297 1.1831 32.4385
#
#
#
# Elastic Compliance Matrix: (Units=1/GPa)
#
#
# Indices 1 2 3 4 5 6 
#
# 1 0.014914 -0.000762 -0.002633 -0.002714 -0.008862 -0.005349
# 2 -0.000762 0.016205 -0.006363 0.002408 -0.001012 -0.007745
# 3 -0.002633 -0.006363 0.012266 -0.009882 -0.004147 0.002846
# 4 -0.002714 0.002408 -0.009882 0.039636 0.017277 0.003313
# 5 -0.008862 -0.001012 -0.004147 0.017277 0.039567 0.004512
# 6 -0.005349 -0.007745 0.002846 0.003313 0.004512 0.037101
#
#
# Mechanical properties :
#
#
# Convention : Reuss Voigt Hill
#
# Bulk Modulus (GPa) = 41.89714 66.98353 54.44034
# Shear Modulus (GPa) = 26.71513 35.57443 31.14478
#
# Velocity S-wave (km/s) = 3.45398 3.98575 3.72936
# Velocity P-wave (km/s) = 5.88357 7.14801 6.54639
#
# Compressibility (1/GPa) = 0.02386798
#
# Stress axis : x y z
#
# Youngs Moduli (GPa) = 67.05119 61.71105 81.52895
#
# Poissons Ratio (x) = 0.04700 0.21467
# Poissons Ratio (y) = 0.05107 0.51880
# Poissons Ratio (z) = 0.17655 0.39269
#
# Static dielectric constant tensor:
#      x y z
#    x 2.040530 -0.050120 0.017140 
#    y -0.050120 1.967040 0.017500 
#    z 0.017140 0.017500 1.804160 
# 
# From -- ./inp_files/236529.got.cif
#   From: 2010.05.17/outbox.cif.g08.bks.cpg/sg2_119_cif.got.tgz:236529.got - 2010.06.03 11:33:40.
