data_PCOD9092754
_publ_section_title
;
Structure prediction by ZEFSAII (Michael W. Deem and Ramdas Pophale) SiO2 
 PCOD9092754
Probable space group: P -1
;
_chemical_formula_sum "Si O2"
_cell_formula_units_Z 14
_cell_length_a 7.365434
_cell_length_b 19.216261
_cell_length_c 11.752371
_cell_angle_alpha 31.442849
_cell_angle_beta 73.245195
_cell_angle_gamma 53.150869
_cell_volume 586.573477
_symmetry_space_group_name_H-M "P -1"
_symmetry_group_IT_number 2
_symmetry_cell_setting 'triclinic'
loop_
_space_group_symop_operation_xyz
x,y,z
-x,-y,-z
loop_
_atom_site_type_symbol
_atom_site_label
_atom_site_fract_x
_atom_site_fract_y
_atom_site_fract_z
Si Si1 0.995348 0.149623 0.541843
Si Si2 0.812974 0.311517 0.703181
Si Si3 0.795720 0.802630 0.756297
Si Si4 0.096580 0.467257 0.728140
Si Si5 0.609665 0.126985 0.965580
Si Si6 0.904525 0.907995 0.818499
Si Si7 0.513858 0.230109 0.592172
O O1 0.714216 0.256942 0.504838
O O2 0.008558 0.261644 0.293830
O O3 0.042554 0.986458 0.689277
O O4 0.233861 0.043695 0.737038
O O5 0.500000 0.500000 0.500000
O O6 0.925490 0.363400 0.523413
O O7 0.801380 0.162554 0.883074
O O8 0.951862 0.247891 0.890037
O O9 0.890163 0.840897 0.796081
O O10 0.500000 0.000000 0.500000
O O11 0.798958 0.647958 0.012670
O O12 0.317027 0.307786 0.818552
O O13 0.790698 0.573396 0.623157
O O14 0.574910 0.116937 0.853550
O O15 0.607243 0.091625 0.663642
#
# Coordination Sequence:
#
# PCOD9092754 Si02
#       7
#     2   2   2   2   2   2   2
#     4   9  21  43  65  89 129 167 214 248 318 377
#     4   9  21  38  64  98 125 159 209 259 318 371
#     4  12  24  43  67  87 128 177 221 249 310 392
#     4  11  24  39  65  96 127 167 212 263 312 377
#     4  10  19  42  67  95 125 169 205 258 323 384
#     4   9  23  42  64  94 127 169 203 268 320 366
#     4  10  23  40  65 102 126 156 213 272 324 362
#
# _framework density 23.867429000000001
#
# number of rings (size 3 to 8) (size 9 to 14) (size 15 to 20)
#    0.857    1.143    1.429    1.286    6.000    1.143 
#    2.571    0.714    0.000    0.000    0.000    0.000 
#    0.000    0.000    0.000    0.000    0.000    0.000 
#
# Total GULP energy -78187.257933 kJ/mol
# GULP energy per Si atom -5584.804138 kJ/mol
# Density = 2.381311 g / cm^3
# Si number density = 23.867429 Si / 1000 Ang^3
#
#
#
# Elastic Constant Matrix: (Units=GPa)
#
#
# Indices 1 2 3 4 5 6 
#
# 1 65.8061 21.2608 27.4309 3.4090 7.3412 -20.3996
# 2 21.2608 110.5843 30.3335 5.2848 9.6464 -24.6523
# 3 27.4309 30.3335 127.8340 28.5528 0.2479 -14.3475
# 4 3.4090 5.2848 28.5528 40.3431 -20.3316 1.6879
# 5 7.3412 9.6464 0.2479 -20.3316 36.9233 1.4292
# 6 -20.3996 -24.6523 -14.3475 1.6879 1.4292 38.4717
#
#
#
# Elastic Compliance Matrix: (Units=1/GPa)
#
#
# Indices 1 2 3 4 5 6 
#
# 1 0.020286 -0.000282 -0.002323 -0.003655 -0.006348 0.010106
# 2 -0.000282 0.011653 -0.001034 -0.003766 -0.005337 0.007295
# 3 -0.002323 -0.001034 0.011208 -0.010311 -0.005134 0.002928
# 4 -0.003655 -0.003766 -0.010311 0.047723 0.028497 -0.011349
# 5 -0.006348 -0.005337 -0.005134 0.028497 0.045917 -0.011657
# 6 0.010106 0.007295 0.002928 -0.011349 -0.011657 0.038050
#
#
# Mechanical properties :
#
#
# Convention : Reuss Voigt Hill
#
# Bulk Modulus (GPa) = 27.87990 51.36387 39.62189
# Shear Modulus (GPa) = 25.76373 38.16090 31.96232
#
# Velocity S-wave (km/s) = 3.28907 4.00292 3.66342
# Velocity P-wave (km/s) = 5.11179 6.55223 5.87632
#
# Compressibility (1/GPa) = 0.03586813
#
# Stress axis : x y z
#
# Youngs Moduli (GPa) = 49.29551 85.81770 89.22044
#
# Poissons Ratio (x) = 0.02417 0.20728
# Poissons Ratio (y) = 0.01388 0.09229
# Poissons Ratio (z) = 0.11453 0.08877
#
# Static dielectric constant tensor:
#      x y z
#    x 1.932540 -0.008370 -0.074070 
#    y -0.008370 1.909850 -0.009430 
#    z -0.074070 -0.009430 1.928050 
# 
# From -- ./inp_files/405821.got.cif
#   From: 2010.05.17/outbox.cif.g08.bks.cpg/sg2_203_cif.got.tgz:405821.got - 2010.06.03 11:33:40.
