data_PCOD9092629
_publ_section_title
;
Structure prediction by ZEFSAII (Michael W. Deem and Ramdas Pophale) SiO2 
 PCOD9092629
Probable space group: P -1
;
_chemical_formula_sum "Si O2"
_cell_formula_units_Z 12
_cell_length_a 8.714913
_cell_length_b 14.296977
_cell_length_c 5.325143
_cell_angle_alpha 115.401261
_cell_angle_beta 84.854998
_cell_angle_gamma 126.197471
_cell_volume 471.324349
_symmetry_space_group_name_H-M "P -1"
_symmetry_group_IT_number 2
_symmetry_cell_setting 'triclinic'
loop_
_space_group_symop_operation_xyz
x,y,z
-x,-y,-z
loop_
_atom_site_type_symbol
_atom_site_label
_atom_site_fract_x
_atom_site_fract_y
_atom_site_fract_z
Si Si1 0.881569 0.485987 0.752862
Si Si2 0.568183 0.971788 0.209934
Si Si3 0.023227 0.174612 0.280088
Si Si4 0.134018 0.011688 0.277487
Si Si5 0.721378 0.633342 0.103406
Si Si6 0.518108 0.763079 0.253252
O O1 0.670835 0.347773 0.688160
O O2 0.000000 0.500000 0.500000
O O3 0.835187 0.590785 0.882439
O O4 0.000000 0.500000 0.000000
O O5 0.484832 0.820015 0.078098
O O6 0.500000 0.000000 0.500000
O O7 0.805064 0.074663 0.308451
O O8 0.500000 0.000000 0.000000
O O9 0.131703 0.108434 0.197979
O O10 0.159659 0.304463 0.576918
O O11 0.949316 0.134914 0.955932
O O12 0.352545 0.108610 0.446837
O O13 0.000000 0.000000 0.500000
O O14 0.658193 0.722678 0.125888
O O15 0.500000 0.500000 0.000000
#
# Coordination Sequence:
#
# PCOD9092629 Si02
#       6
#     2   2   2   2   2   2
#     4  11  27  54  80 119 161 214 274 341 415 486
#     4  12  27  45  71 118 165 215 259 332 418 485
#     4  10  22  41  72 109 157 198 267 324 405 483
#     4  10  19  41  71 113 147 203 258 333 404 472
#     4   9  22  51  82 116 153 217 281 338 400 492
#     4  10  23  50  80 115 164 214 275 337 402 495
#
# _framework density 25.460173000000001
#
# number of rings (size 3 to 8) (size 9 to 14) (size 15 to 20)
#    0.000    1.667    1.667    1.000    2.333    2.667 
#   12.000    4.167    0.000    0.000    0.000    0.000 
#    0.000    0.000    0.000    0.000    0.000    0.000 
#
# Total GULP energy -66804.015845 kJ/mol
# GULP energy per Si atom -5567.001320 kJ/mol
# Density = 2.540222 g / cm^3
# Si number density = 25.460173 Si / 1000 Ang^3
#
#
#
# Elastic Constant Matrix: (Units=GPa)
#
#
# Indices 1 2 3 4 5 6 
#
# 1 185.7861 78.0159 78.1886 -10.0995 -19.4565 -5.2109
# 2 78.0159 168.8372 89.4137 8.6509 -5.5639 14.0344
# 3 78.1886 89.4137 171.7592 0.7341 -19.4358 10.9076
# 4 -10.0995 8.6509 0.7341 55.6961 10.5314 4.3369
# 5 -19.4565 -5.5639 -19.4358 10.5314 56.9467 -4.6609
# 6 -5.2109 14.0344 10.9076 4.3369 -4.6609 57.9349
#
#
#
# Elastic Compliance Matrix: (Units=1/GPa)
#
#
# Indices 1 2 3 4 5 6 
#
# 1 0.007624 -0.002595 -0.002062 0.001389 0.001532 0.001722
# 2 -0.002595 0.009232 -0.003630 -0.001514 -0.001087 -0.001761
# 3 -0.002062 -0.003630 0.008925 -0.000236 0.001964 -0.000811
# 4 0.001389 -0.001514 -0.000236 0.019178 -0.003397 -0.001173
# 5 0.001532 -0.001087 0.001964 -0.003397 0.019427 0.001849
# 6 0.001722 -0.001761 -0.000811 -0.001173 0.001849 0.018231
#
#
# Mechanical properties :
#
#
# Convention : Reuss Voigt Hill
#
# Bulk Modulus (GPa) = 108.59258 113.06875 110.83066
# Shear Modulus (GPa) = 48.89502 52.83317 50.86409
#
# Velocity S-wave (km/s) = 4.38705 4.56030 4.47451
# Velocity P-wave (km/s) = 8.27080 8.49911 8.38573
#
# Compressibility (1/GPa) = 0.00920873
#
# Stress axis : x y z
#
# Youngs Moduli (GPa) = 131.16331 108.31729 112.04581
#
# Poissons Ratio (x) = 0.28107 0.23102
# Poissons Ratio (y) = 0.34035 0.40668
# Poissons Ratio (z) = 0.27043 0.39315
#
# Static dielectric constant tensor:
#      x y z
#    x 2.923150 -0.492490 1.223400 
#    y -0.492490 2.493360 -0.682340 
#    z 1.223400 -0.682340 3.835100 
# 
# From -- ./inp_files/41322.got.cif
#   From: 2010.05.17/outbox.cif.g08.bks.cpg/sg2_21_cif.got.tgz:41322.got - 2010.06.03 11:33:40.
