data_PCOD9092164
_publ_section_title
;
Structure prediction by ZEFSAII (Michael W. Deem and Ramdas Pophale) SiO2 
 PCOD9092164
Probable space group: P -1
;
_chemical_formula_sum "Si O2"
_cell_formula_units_Z 14
_cell_length_a 13.876250
_cell_length_b 9.988828
_cell_length_c 6.429187
_cell_angle_alpha 50.212001
_cell_angle_beta 61.291040
_cell_angle_gamma 50.846797
_cell_volume 526.635182
_symmetry_space_group_name_H-M "P -1"
_symmetry_group_IT_number 2
_symmetry_cell_setting 'triclinic'
loop_
_space_group_symop_operation_xyz
x,y,z
-x,-y,-z
loop_
_atom_site_type_symbol
_atom_site_label
_atom_site_fract_x
_atom_site_fract_y
_atom_site_fract_z
Si Si1 0.965719 0.282261 0.252492
Si Si2 0.877403 0.129399 0.859618
Si Si3 0.427136 0.429436 0.852081
Si Si4 0.839282 0.696404 0.210657
Si Si5 0.633495 0.198195 0.200600
Si Si6 0.192060 0.482546 0.215191
Si Si7 0.552215 0.821894 0.286362
O O1 0.923940 0.148143 0.563989
O O2 0.925530 0.474070 0.249245
O O3 0.886574 0.380115 0.029388
O O4 0.106543 0.191908 0.104459
O O5 0.809675 0.359697 0.773824
O O6 0.772100 0.067033 0.094562
O O7 0.000000 0.000000 0.000000
O O8 0.361683 0.657648 0.766853
O O9 0.438646 0.369495 0.659411
O O10 0.553674 0.320908 0.961369
O O11 0.331663 0.355871 0.112637
O O12 0.856938 0.652061 0.484478
O O13 0.692190 0.771784 0.253395
O O14 0.546239 0.123440 0.478513
O O15 0.500000 0.000000 0.000000
#
# Coordination Sequence:
#
# PCOD9092164 Si02
#       7
#     2   2   2   2   2   2   2
#     4  10  21  38  65  87 121 173 209 259 315 377
#     4  10  24  41  60  92 128 157 216 271 316 379
#     4  10  21  41  70  92 123 171 216 266 309 393
#     4  10  21  39  61  93 126 162 216 260 314 390
#     4  10  23  43  68  93 124 172 221 259 318 387
#     4  10  19  40  67  89 119 167 218 264 313 375
#     4  12  25  40  64  99 136 165 208 271 335 376
#
# _framework density 26.583867999999999
#
# number of rings (size 3 to 8) (size 9 to 14) (size 15 to 20)
#    0.000    1.714    2.857    0.857    4.000    3.429 
#    2.571    0.000    0.000    0.000    0.000    0.000 
#    0.000    0.000    0.000    0.000    0.000    0.000 
#
# Total GULP energy -78221.197082 kJ/mol
# GULP energy per Si atom -5587.228363 kJ/mol
# Density = 2.652336 g / cm^3
# Si number density = 26.583868 Si / 1000 Ang^3
#
#
#
# Elastic Constant Matrix: (Units=GPa)
#
#
# Indices 1 2 3 4 5 6 
#
# 1 119.2382 21.8536 70.6054 11.2042 -19.8797 -33.9948
# 2 21.8536 84.0307 56.7853 18.2528 -24.5481 -14.8884
# 3 70.6054 56.7853 264.2540 27.4996 -37.2252 -26.4388
# 4 11.2042 18.2528 27.4996 51.0284 -10.1553 -14.7875
# 5 -19.8797 -24.5481 -37.2252 -10.1553 50.6119 9.6542
# 6 -33.9948 -14.8884 -26.4388 -14.7875 9.6542 53.7448
#
#
#
# Elastic Compliance Matrix: (Units=1/GPa)
#
#
# Indices 1 2 3 4 5 6 
#
# 1 0.011777 -0.000015 -0.002348 0.000852 0.001883 0.006186
# 2 -0.000015 0.015823 -0.002204 -0.002997 0.005152 0.001539
# 3 -0.002348 -0.002204 0.005228 -0.001233 0.001637 -0.000157
# 4 0.000852 -0.002997 -0.001233 0.022952 0.001601 0.005130
# 5 0.001883 0.005152 0.001637 0.001601 0.024628 -0.000561
# 6 0.006186 0.001539 -0.000157 0.005130 -0.000561 0.024381
#
#
# Mechanical properties :
#
#
# Convention : Reuss Voigt Hill
#
# Bulk Modulus (GPa) = 42.20607 85.11237 63.65922
# Shear Modulus (GPa) = 41.04336 52.29559 46.66948
#
# Velocity S-wave (km/s) = 3.93354 4.44012 4.19448
# Velocity P-wave (km/s) = 6.04494 7.64017 6.88889
#
# Compressibility (1/GPa) = 0.02369327
#
# Stress axis : x y z
#
# Youngs Moduli (GPa) = 84.90963 63.19950 191.26004
#
# Poissons Ratio (x) = 0.00096 0.44908
# Poissons Ratio (y) = 0.00129 0.42162
# Poissons Ratio (z) = 0.19937 0.13932
#
# Static dielectric constant tensor:
#      x y z
#    x 2.213200 0.058910 -0.111660 
#    y 0.058910 2.123180 0.016950 
#    z -0.111660 0.016950 2.130460 
# 
# From -- ./inp_files/93128.got.cif
#   From: 2010.05.17/outbox.cif.g08.bks.cpg/sg2_47_cif.got.tgz:93128.got - 2010.06.03 11:33:40.
