data_PCOD9092279
_publ_section_title
;
Structure prediction by ZEFSAII (Michael W. Deem and Ramdas Pophale) SiO2 
 PCOD9092279
Probable space group: P -1
;
_chemical_formula_sum "Si O2"
_cell_formula_units_Z 16
_cell_length_a 13.346011
_cell_length_b 8.215030
_cell_length_c 15.079080
_cell_angle_alpha 51.491676
_cell_angle_beta 39.210486
_cell_angle_gamma 43.258264
_cell_volume 709.690324
_symmetry_space_group_name_H-M "P -1"
_symmetry_group_IT_number 2
_symmetry_cell_setting 'triclinic'
loop_
_space_group_symop_operation_xyz
x,y,z
-x,-y,-z
loop_
_atom_site_type_symbol
_atom_site_label
_atom_site_fract_x
_atom_site_fract_y
_atom_site_fract_z
Si Si1 0.698104 0.740216 0.413718
Si Si2 0.461696 0.866219 0.871078
Si Si3 0.995792 0.139912 0.868377
Si Si4 0.627485 0.501028 0.037952
Si Si5 0.384627 0.048784 0.421754
Si Si6 0.130484 0.851195 0.712769
Si Si7 0.436538 0.357985 0.759668
Si Si8 0.853516 0.220872 0.469970
O O1 0.811721 0.871063 0.270386
O O2 0.565316 0.789431 0.403944
O O3 0.836424 0.466369 0.429915
O O4 0.592832 0.818388 0.553188
O O5 0.378629 0.738157 0.908385
O O6 0.625421 0.829592 0.704944
O O7 0.384773 0.147163 0.851530
O O8 0.508486 0.717841 0.979619
O O9 0.980692 0.003524 0.837842
O O10 0.838065 0.410247 0.901224
O O11 0.000000 0.000000 0.000000
O O12 0.574042 0.578415 0.149722
O O13 0.213963 0.017766 0.568441
O O14 0.287719 0.604876 0.731457
O O15 0.077734 0.799569 0.671367
O O16 0.643755 0.267647 0.610849
O O17 0.000000 0.000000 0.500000
#
# Coordination Sequence:
#
# PCOD9092279 Si02
#       8
#     2   2   2   2   2   2   2   2
#     4  10  22  37  67  98 130 174 221 276 345 396
#     4  11  24  41  69  98 134 181 233 274 340 413
#     4  11  23  43  65  95 138 173 224 281 332 399
#     4  11  26  45  66  99 137 187 229 275 337 412
#     4  10  19  40  69  97 125 173 227 277 332 403
#     4  11  23  43  70 101 132 174 229 282 338 410
#     4  12  23  47  75  95 140 180 232 280 339 410
#     4  12  26  42  65 105 138 167 221 291 351 399
#
# _framework density 22.545044999999998
#
# number of rings (size 3 to 8) (size 9 to 14) (size 15 to 20)
#    0.000    1.000    3.750    3.000    3.500    3.000 
#    2.250    3.750    0.000    0.000    0.000    0.000 
#    0.000    0.000    0.000    0.000    0.000    0.000 
#
# Total GULP energy -89182.687114 kJ/mol
# GULP energy per Si atom -5573.917945 kJ/mol
# Density = 2.249373 g / cm^3
# Si number density = 22.545045 Si / 1000 Ang^3
#
#
#
# Elastic Constant Matrix: (Units=GPa)
#
#
# Indices 1 2 3 4 5 6 
#
# 1 47.6384 19.6061 26.1006 -6.6404 33.0971 8.3393
# 2 19.6061 79.2830 36.0545 -3.2462 18.5443 7.3071
# 3 26.1006 36.0545 102.3855 1.9905 29.4503 16.0587
# 4 -6.6404 -3.2462 1.9905 38.1565 5.5030 4.0181
# 5 33.0971 18.5443 29.4503 5.5030 51.3336 -1.5027
# 6 8.3393 7.3071 16.0587 4.0181 -1.5027 31.0098
#
#
#
# Elastic Compliance Matrix: (Units=1/GPa)
#
#
# Indices 1 2 3 4 5 6 
#
# 1 0.050503 -0.002435 0.000021 0.015208 -0.033811 -0.016628
# 2 -0.002435 0.015750 -0.004230 0.001531 -0.001891 -0.001156
# 3 0.000021 -0.004230 0.014316 0.000622 -0.006965 -0.006840
# 4 0.015208 0.001531 0.000622 0.032047 -0.014433 -0.009625
# 5 -0.033811 -0.001891 -0.006965 -0.014433 0.048014 0.017342
# 6 -0.016628 -0.001156 -0.006840 -0.009625 0.017342 0.042622
#
#
# Mechanical properties :
#
#
# Convention : Reuss Voigt Hill
#
# Bulk Modulus (GPa) = 14.86313 43.64771 29.25542
# Shear Modulus (GPa) = 20.92327 33.93636 27.42981
#
# Velocity S-wave (km/s) = 3.04972 3.88399 3.49186
# Velocity P-wave (km/s) = 4.35982 6.28618 5.40944
#
# Compressibility (1/GPa) = 0.06728059
#
# Stress axis : x y z
#
# Youngs Moduli (GPa) = 19.80061 63.49012 69.85394
#
# Poissons Ratio (x) = 0.15459 -0.00144
# Poissons Ratio (y) = 0.04821 0.29550
# Poissons Ratio (z) = -0.00041 0.26858
#
# Static dielectric constant tensor:
#      x y z
#    x 2.027870 0.077700 0.041690 
#    y 0.077700 1.981930 0.135350 
#    z 0.041690 0.135350 1.965700 
# 
# From -- ./inp_files/528145.got.cif
#   From: 2010.05.17/outbox.cif.g08.bks.cpg/sg2_265_cif.got.tgz:528145.got - 2010.06.03 11:33:40.
