data_PCOD9092558
_publ_section_title
;
Structure prediction by ZEFSAII (Michael W. Deem and Ramdas Pophale) SiO2 
 PCOD9092558
Probable space group: P -1
;
_chemical_formula_sum "Si O2"
_cell_formula_units_Z 16
_cell_length_a 13.943208
_cell_length_b 9.223488
_cell_length_c 8.173140
_cell_angle_alpha 74.444071
_cell_angle_beta 102.353180
_cell_angle_gamma 140.944669
_cell_volume 637.983890
_symmetry_space_group_name_H-M "P -1"
_symmetry_group_IT_number 2
_symmetry_cell_setting 'triclinic'
loop_
_space_group_symop_operation_xyz
x,y,z
-x,-y,-z
loop_
_atom_site_type_symbol
_atom_site_label
_atom_site_fract_x
_atom_site_fract_y
_atom_site_fract_z
Si Si1 0.970098 0.582827 0.818809
Si Si2 0.529556 0.705866 0.410199
Si Si3 0.641468 0.246155 0.759358
Si Si4 0.933502 0.988940 0.146974
Si Si5 0.822631 0.201498 0.495529
Si Si6 0.399773 0.754537 0.869940
Si Si7 0.392745 0.250510 0.954430
Si Si8 0.890559 0.617618 0.333197
O O1 0.799802 0.349414 0.769294
O O2 0.093433 0.717235 0.677814
O O3 0.971707 0.758954 0.824538
O O4 0.000000 0.500000 0.000000
O O5 0.500000 0.500000 0.500000
O O6 0.371535 0.613872 0.387342
O O7 0.576146 0.757654 0.220149
O O8 0.662715 0.929472 0.503747
O O9 0.475054 0.983681 0.738028
O O10 0.633452 0.255010 0.950035
O O11 0.775399 0.882302 0.070512
O O12 0.916348 0.826742 0.314796
O O13 0.000000 0.000000 0.000000
O O14 0.818792 0.378689 0.456591
O O15 0.935714 0.244758 0.648507
O O16 0.240508 0.515362 0.812163
O O17 0.548674 0.823141 0.900415
O O18 0.500000 0.500000 0.000000
#
# Coordination Sequence:
#
# PCOD9092558 Si02
#       8
#     2   2   2   2   2   2   2   2
#     4  12  25  43  69 104 136 178 235 285 352 422
#     4  11  25  45  70 100 137 188 236 285 351 419
#     4  10  22  38  70  95 127 171 230 284 342 405
#     4  12  25  41  69 105 139 178 230 288 350 415
#     4  11  25  47  69  96 142 189 231 286 349 419
#     4  10  19  41  68  95 128 174 225 284 343 402
#     4  11  23  41  68 102 135 175 228 292 347 409
#     4  11  24  43  69  97 141 185 228 289 348 407
#
# _framework density 25.079003
#
# number of rings (size 3 to 8) (size 9 to 14) (size 15 to 20)
#    0.000    1.000    3.750    3.000    5.250    1.500 
#    0.000    1.875    0.000    0.000    0.000    0.000 
#    0.000    0.000    0.000    0.000    0.000    0.000 
#
# Total GULP energy -89189.553836 kJ/mol
# GULP energy per Si atom -5574.347115 kJ/mol
# Density = 2.502192 g / cm^3
# Si number density = 25.079003 Si / 1000 Ang^3
#
#
#
# Elastic Constant Matrix: (Units=GPa)
#
#
# Indices 1 2 3 4 5 6 
#
# 1 113.4674 7.8635 55.6958 -5.8261 22.9488 8.3170
# 2 7.8635 130.7920 35.8041 -1.5995 21.5673 -0.0486
# 3 55.6958 35.8041 67.1830 -4.3697 23.3297 3.3386
# 4 -5.8261 -1.5995 -4.3697 32.7394 -2.6428 17.4364
# 5 22.9488 21.5673 23.3297 -2.6428 51.1264 7.8642
# 6 8.3170 -0.0486 3.3386 17.4364 7.8642 48.7233
#
#
#
# Elastic Compliance Matrix: (Units=1/GPa)
#
#
# Indices 1 2 3 4 5 6 
#
# 1 0.016269 0.003259 -0.014395 0.002239 -0.001635 -0.002325
# 2 0.003259 0.009797 -0.007122 -0.000329 -0.002432 0.000452
# 3 -0.014395 -0.007122 0.032504 0.000489 -0.005485 0.000933
# 4 0.002239 -0.000329 0.000489 0.039231 0.003242 -0.014979
# 5 -0.001635 -0.002432 -0.005485 0.003242 0.024681 -0.004491
# 6 -0.002325 0.000452 0.000933 -0.014979 -0.004491 0.026943
#
#
# Mechanical properties :
#
#
# Convention : Reuss Voigt Hill
#
# Bulk Modulus (GPa) = 45.34443 56.68546 51.01494
# Shear Modulus (GPa) = 25.86763 40.65641 33.26202
#
# Velocity S-wave (km/s) = 3.21510 4.03070 3.64578
# Velocity P-wave (km/s) = 5.64822 6.65687 6.17318
#
# Compressibility (1/GPa) = 0.02205343
#
# Stress axis : x y z
#
# Youngs Moduli (GPa) = 61.46543 102.07679 30.76555
#
# Poissons Ratio (x) = -0.33263 0.44287
# Poissons Ratio (y) = -0.20030 0.21910
# Poissons Ratio (z) = 0.88480 0.72696
#
# Static dielectric constant tensor:
#      x y z
#    x 2.220960 -0.173290 0.114790 
#    y -0.173290 2.140050 -0.167460 
#    z 0.114790 -0.167460 2.189490 
# 
# From -- ./inp_files/297971.got.cif
#   From: 2010.05.17/outbox.cif.g08.bks.cpg/sg2_149_cif.got.tgz:297971.got - 2010.06.03 11:33:40.
