data_PCOD9092901
_publ_section_title
;
Structure prediction by ZEFSAII (Michael W. Deem and Ramdas Pophale) SiO2 
 PCOD9092901
Probable space group: P -1
;
_chemical_formula_sum "Si O2"
_cell_formula_units_Z 15
_cell_length_a 10.746411
_cell_length_b 9.004113
_cell_length_c 14.333424
_cell_angle_alpha 51.868399
_cell_angle_beta 68.485528
_cell_angle_gamma 113.050775
_cell_volume 543.556652
_symmetry_space_group_name_H-M "P -1"
_symmetry_group_IT_number 2
_symmetry_cell_setting 'triclinic'
loop_
_space_group_symop_operation_xyz
x,y,z
-x,-y,-z
loop_
_atom_site_type_symbol
_atom_site_label
_atom_site_fract_x
_atom_site_fract_y
_atom_site_fract_z
Si Si1 0.000000 0.500000 0.500000
Si Si2 0.078528 0.759470 0.942129
Si Si3 0.225890 0.177106 0.433521
Si Si4 0.210456 0.304411 0.596259
Si Si5 0.900947 0.464041 0.750152
Si Si6 0.115134 0.334238 0.798808
Si Si7 0.428269 0.872990 0.872525
Si Si8 0.347663 0.386797 0.996774
O O1 0.071444 0.478022 0.389002
O O2 0.279670 0.789071 0.349711
O O3 0.175489 0.055351 0.746838
O O4 0.318341 0.947879 0.852883
O O5 0.000000 0.500000 0.000000
O O6 0.843238 0.524623 0.165846
O O7 0.483024 0.462769 0.195653
O O8 0.276783 0.337135 0.457009
O O9 0.000000 0.000000 0.500000
O O10 0.117924 0.834933 0.603240
O O11 0.290435 0.501950 0.596844
O O12 0.921077 0.034390 0.767220
O O13 0.931672 0.277829 0.831392
O O14 0.655631 0.257746 0.946492
O O15 0.000000 0.000000 0.000000
O O16 0.317897 0.573620 0.955060
O O17 0.500000 0.500000 0.000000
#
# Coordination Sequence:
#
# PCOD9092901 Si02
#       8
#     1   2   2   2   2   2   2   2
#     4  12  26  40  68 106 150 180 240 302 364 430
#     4  10  19  43  74 100 136 188 245 293 354 429
#     4  12  24  43  68 108 143 191 245 294 365 439
#     4  11  22  43  69 100 146 187 236 306 349 432
#     4  11  23  43  69 101 143 187 238 299 357 431
#     4   9  22  41  70 104 139 188 241 288 366 419
#     4  11  23  45  67 104 136 192 238 295 365 427
#     4  12  23  41  69 101 142 190 237 291 366 432
#
# _framework density 27.596019999999999
#
# number of rings (size 3 to 8) (size 9 to 14) (size 15 to 20)
#    0.000    1.067    5.333    1.200    3.733    0.000 
#    4.800    4.667    0.000    8.000    0.000    0.000 
#    0.000    0.000    0.000    0.000    0.000    0.000 
#
# Total GULP energy -83550.338366 kJ/mol
# GULP energy per Si atom -5570.022558 kJ/mol
# Density = 2.753321 g / cm^3
# Si number density = 27.596020 Si / 1000 Ang^3
#
#
#
# Elastic Constant Matrix: (Units=GPa)
#
#
# Indices 1 2 3 4 5 6 
#
# 1 90.2649 6.0889 -2.7136 12.0614 19.4615 -10.2511
# 2 6.0889 219.3094 65.0252 77.3232 7.7001 -9.1037
# 3 -2.7136 65.0252 155.5935 66.2503 -12.7629 -5.6730
# 4 12.0614 77.3232 66.2503 73.4368 2.4882 -5.3378
# 5 19.4615 7.7001 -12.7629 2.4882 32.5142 -0.5336
# 6 -10.2511 -9.1037 -5.6730 -5.3378 -0.5336 25.2709
#
#
#
# Elastic Compliance Matrix: (Units=1/GPa)
#
#
# Indices 1 2 3 4 5 6 
#
# 1 0.013788 0.001111 0.000831 -0.003536 -0.007833 0.005268
# 2 0.001111 0.007413 0.000275 -0.008074 -0.001671 0.001442
# 3 0.000831 0.000275 0.011312 -0.010732 0.004712 0.000808
# 4 -0.003536 -0.008074 -0.010732 0.032475 -0.002668 0.000051
# 5 -0.007833 -0.001671 0.004712 -0.002668 0.037853 -0.002486
# 6 0.005268 0.001442 0.000808 0.000051 -0.002486 0.042367
#
#
# Mechanical properties :
#
#
# Convention : Reuss Voigt Hill
#
# Bulk Modulus (GPa) = 27.06526 66.88543 46.97535
# Shear Modulus (GPa) = 32.66062 52.69554 42.67808
#
# Velocity S-wave (km/s) = 3.44397 4.37456 3.93686
# Velocity P-wave (km/s) = 5.06395 7.05731 6.14204
#
# Compressibility (1/GPa) = 0.03694773
#
# Stress axis : x y z
#
# Youngs Moduli (GPa) = 72.52651 134.90470 88.39938
#
# Poissons Ratio (x) = -0.14990 -0.07349
# Poissons Ratio (y) = -0.08059 -0.02429
# Poissons Ratio (z) = -0.06030 -0.03707
#
# Static dielectric constant tensor:
#      x y z
#    x 1.621390 0.016990 0.144060 
#    y 0.016990 2.247290 -0.001190 
#    z 0.144060 -0.001190 2.392190 
# 
# From -- ./inp_files/515194.got.cif
#   From: 2010.05.17/outbox.cif.g08.bks.cpg/sg2_258_cif.got.tgz:515194.got - 2010.06.03 11:33:40.
