data_PCOD9092399
_publ_section_title
;
Structure prediction by ZEFSAII (Michael W. Deem and Ramdas Pophale) SiO2 
 PCOD9092399
Probable space group: P -1
;
_chemical_formula_sum "Si O2"
_cell_formula_units_Z 16
_cell_length_a 8.653628
_cell_length_b 13.716758
_cell_length_c 9.472224
_cell_angle_alpha 63.297634
_cell_angle_beta 116.611934
_cell_angle_gamma 143.147950
_cell_volume 594.163019
_symmetry_space_group_name_H-M "P -1"
_symmetry_group_IT_number 2
_symmetry_cell_setting 'triclinic'
loop_
_space_group_symop_operation_xyz
x,y,z
-x,-y,-z
loop_
_atom_site_type_symbol
_atom_site_label
_atom_site_fract_x
_atom_site_fract_y
_atom_site_fract_z
Si Si1 0.385314 0.148967 0.015429
Si Si2 0.250767 0.073933 0.697186
Si Si3 0.646267 0.481229 0.979254
Si Si4 0.043523 0.633550 0.841184
Si Si5 0.391558 0.869820 0.389611
Si Si6 0.357961 0.540986 0.460147
Si Si7 0.106827 0.462887 0.680093
Si Si8 0.244267 0.034877 0.331501
O O1 0.460074 0.312410 0.924376
O O2 0.647382 0.207571 0.129883
O O3 0.212321 0.060154 0.142515
O O4 0.296468 0.062173 0.886260
O O5 0.339633 0.017318 0.666087
O O6 0.457928 0.267851 0.616635
O O7 0.970323 0.003227 0.638637
O O8 0.768206 0.463799 0.165338
O O9 0.500000 0.500000 0.000000
O O10 0.871911 0.632823 0.870968
O O11 0.898381 0.566277 0.674848
O O12 0.000000 0.500000 0.000000
O O13 0.268516 0.914707 0.395699
O O14 0.158545 0.731671 0.277864
O O15 0.471663 0.817094 0.575397
O O16 0.500000 0.500000 0.500000
O O17 0.301542 0.495378 0.631857
O O18 0.000000 0.500000 0.500000
#
# Coordination Sequence:
#
# PCOD9092399 Si02
#       8
#     2   2   2   2   2   2   2   2
#     4  11  24  44  67  94 133 179 222 268 337 405
#     4  12  24  45  67  97 137 175 227 280 329 403
#     4  11  23  39  64 102 138 166 212 278 343 396
#     4  10  19  41  63  88 133 172 208 271 336 393
#     4  11  25  46  70  96 132 178 227 279 337 397
#     4  12  23  37  64 101 133 171 219 276 344 397
#     4  12  22  39  68  98 129 170 218 272 338 404
#     4  11  26  47  67  95 134 179 230 277 329 397
#
# _framework density 26.928637999999999
#
# number of rings (size 3 to 8) (size 9 to 14) (size 15 to 20)
#    0.000    0.750    3.750    6.000    1.750    1.500 
#    2.250    0.000    0.000    0.000    0.000    0.000 
#    0.000    0.000    0.000    0.000    0.000    0.000 
#
# Total GULP energy -89327.456534 kJ/mol
# GULP energy per Si atom -5582.966033 kJ/mol
# Density = 2.686735 g / cm^3
# Si number density = 26.928638 Si / 1000 Ang^3
#
#
#
# Elastic Constant Matrix: (Units=GPa)
#
#
# Indices 1 2 3 4 5 6 
#
# 1 191.2838 22.5376 32.1814 -9.8361 -27.2730 3.4014
# 2 22.5376 23.4526 9.1042 8.5991 10.0006 7.5398
# 3 32.1814 9.1042 127.4386 14.1051 -24.4934 3.3948
# 4 -9.8361 8.5991 14.1051 30.0442 6.1336 -7.7916
# 5 -27.2730 10.0006 -24.4934 6.1336 61.0843 -4.6911
# 6 3.4014 7.5398 3.3948 -7.7916 -4.6911 35.8475
#
#
#
# Elastic Compliance Matrix: (Units=1/GPa)
#
#
# Indices 1 2 3 4 5 6 
#
# 1 0.007955 -0.013326 -0.000991 0.006988 0.004966 0.004310
# 2 -0.013326 0.083699 -0.002418 -0.029705 -0.019569 -0.025128
# 3 -0.000991 -0.002418 0.009710 -0.005306 0.004310 -0.000906
# 4 0.006988 -0.029705 -0.005306 0.050640 0.002105 0.017369
# 5 0.004966 -0.019569 0.004310 0.002105 0.023832 0.006813
# 6 0.004310 -0.025128 -0.000906 0.017369 0.006813 0.037525
#
#
# Mechanical properties :
#
#
# Convention : Reuss Voigt Hill
#
# Bulk Modulus (GPa) = 14.72885 52.20236 33.46560
# Shear Modulus (GPa) = 18.55560 43.95198 31.25379
#
# Velocity S-wave (km/s) = 2.62785 4.04439 3.41048
# Velocity P-wave (km/s) = 3.83262 6.42160 5.28800
#
# Compressibility (1/GPa) = 0.06789398
#
# Stress axis : x y z
#
# Youngs Moduli (GPa) = 125.70350 11.94764 102.99058
#
# Poissons Ratio (x) = 0.15921 0.10204
# Poissons Ratio (y) = 1.67507 0.24907
# Poissons Ratio (z) = 0.12454 0.02889
#
# Static dielectric constant tensor:
#      x y z
#    x 2.702300 0.203830 -0.058860 
#    y 0.203830 2.312160 -0.099690 
#    z -0.058860 -0.099690 2.111500 
# 
# From -- ./inp_files/206506.got.cif
#   From: 2010.05.17/outbox.cif.g08.bks.cpg/sg2_104_cif.got.tgz:206506.got - 2010.06.03 11:33:40.
