data_PCOD9092718
_publ_section_title
;
Structure prediction by ZEFSAII (Michael W. Deem and Ramdas Pophale) SiO2 
 PCOD9092718
Probable space group: P -1
;
_chemical_formula_sum "Si O2"
_cell_formula_units_Z 16
_cell_length_a 10.655841
_cell_length_b 12.039660
_cell_length_c 11.828387
_cell_angle_alpha 44.105390
_cell_angle_beta 62.341156
_cell_angle_gamma 95.048199
_cell_volume 682.868056
_symmetry_space_group_name_H-M "P -1"
_symmetry_group_IT_number 2
_symmetry_cell_setting 'triclinic'
loop_
_space_group_symop_operation_xyz
x,y,z
-x,-y,-z
loop_
_atom_site_type_symbol
_atom_site_label
_atom_site_fract_x
_atom_site_fract_y
_atom_site_fract_z
Si Si1 0.177655 0.320184 0.593560
Si Si2 0.612028 0.392933 0.913377
Si Si3 0.172700 0.956721 0.910245
Si Si4 0.661102 0.517366 0.061210
Si Si5 0.332870 0.951894 0.248701
Si Si6 0.491466 0.236565 0.759497
Si Si7 0.073893 0.884973 0.597154
Si Si8 0.635261 0.959141 0.440153
O O1 0.219086 0.426228 0.375885
O O2 0.123804 0.091722 0.776343
O O3 0.374454 0.514337 0.438560
O O4 0.997668 0.247125 0.794110
O O5 0.432756 0.379310 0.977000
O O6 0.665540 0.459229 0.972068
O O7 0.524714 0.154772 0.090989
O O8 0.351774 0.137333 0.784164
O O9 0.226908 0.890348 0.830266
O O10 0.510518 0.292150 0.354943
O O11 0.881166 0.671457 0.895042
O O12 0.361700 0.796226 0.305473
O O13 0.154884 0.849351 0.481741
O O14 0.352238 0.078292 0.037789
O O15 0.243972 0.015996 0.522689
O O16 0.000000 0.000000 0.500000
O O17 0.500000 0.000000 0.500000
#
# Coordination Sequence:
#
# PCOD9092718 Si02
#       8
#     2   2   2   2   2   2   2   2
#     4  10  23  41  65  97 126 173 227 273 323 401
#     4  10  19  42  65  98 134 166 222 280 337 379
#     4  11  24  41  67  92 133 179 221 263 335 407
#     4  11  22  39  69  96 132 174 217 277 333 393
#     4  10  21  41  64  97 133 165 222 279 332 385
#     4  10  23  42  63  90 134 177 212 275 334 392
#     4  12  24  40  72 105 128 173 230 278 324 401
#     4  12  27  46  66  99 146 177 214 277 343 403
#
# _framework density 23.430586999999999
#
# number of rings (size 3 to 8) (size 9 to 14) (size 15 to 20)
#    0.000    1.250    3.750    1.875    1.750    3.500 
#    0.000    1.875    0.000    0.000    0.000    0.000 
#    0.000    0.000    0.000    0.000    0.000    0.000 
#
# Total GULP energy -89446.277960 kJ/mol
# GULP energy per Si atom -5590.392372 kJ/mol
# Density = 2.337726 g / cm^3
# Si number density = 23.430587 Si / 1000 Ang^3
#
#
#
# Elastic Constant Matrix: (Units=GPa)
#
#
# Indices 1 2 3 4 5 6 
#
# 1 61.8854 6.3703 18.5855 5.8354 -5.4902 6.2999
# 2 6.3703 67.0212 16.9484 24.7604 3.2889 0.4002
# 3 18.5855 16.9484 119.8177 29.7173 -21.3026 1.9017
# 4 5.8354 24.7604 29.7173 52.6892 -1.4996 0.6734
# 5 -5.4902 3.2889 -21.3026 -1.4996 21.2528 0.1907
# 6 6.2999 0.4002 1.9017 0.6734 0.1907 26.6067
#
#
#
# Elastic Compliance Matrix: (Units=1/GPa)
#
#
# Indices 1 2 3 4 5 6 
#
# 1 0.017541 -0.001239 -0.001954 -0.000128 0.002792 -0.004012
# 2 -0.001239 0.018581 -0.001380 -0.007967 -0.005144 0.000351
# 3 -0.001954 -0.001380 0.012359 -0.005769 0.011693 -0.000338
# 4 -0.000128 -0.007967 -0.005769 0.025914 -0.002753 -0.000074
# 5 0.002792 -0.005144 0.011693 -0.002753 0.060112 -0.001781
# 6 -0.004012 0.000351 -0.000338 -0.000074 -0.001781 0.038568
#
#
# Mechanical properties :
#
#
# Convention : Reuss Voigt Hill
#
# Bulk Modulus (GPa) = 25.42250 36.94808 31.18529
# Shear Modulus (GPa) = 25.59712 33.89774 29.74743
#
# Velocity S-wave (km/s) = 3.30883 3.80772 3.56701
# Velocity P-wave (km/s) = 5.04693 5.92748 5.50484
#
# Compressibility (1/GPa) = 0.03933523
#
# Stress axis : x y z
#
# Youngs Moduli (GPa) = 57.00808 53.81777 80.90990
#
# Poissons Ratio (x) = 0.06668 0.15810
# Poissons Ratio (y) = 0.07063 0.11168
# Poissons Ratio (z) = 0.11139 0.07429
#
# Static dielectric constant tensor:
#      x y z
#    x 1.932990 -0.053460 0.007200 
#    y -0.053460 1.923580 -0.009390 
#    z 0.007200 -0.009390 1.924520 
# 
# From -- ./inp_files/424939.got.cif
#   From: 2010.05.17/outbox.cif.g08.bks.cpg/sg2_213_cif.got.tgz:424939.got - 2010.06.03 11:33:40.
