data_PCOD9092735
_publ_section_title
;
Structure prediction by ZEFSAII (Michael W. Deem and Ramdas Pophale) SiO2 
 PCOD9092735
Probable space group: P -1
;
_chemical_formula_sum "Si O2"
_cell_formula_units_Z 13
_cell_length_a 11.062880
_cell_length_b 10.506732
_cell_length_c 8.007648
_cell_angle_alpha 44.430187
_cell_angle_beta 123.285204
_cell_angle_gamma 117.321107
_cell_volume 541.092995
_symmetry_space_group_name_H-M "P -1"
_symmetry_group_IT_number 2
_symmetry_cell_setting 'triclinic'
loop_
_space_group_symop_operation_xyz
x,y,z
-x,-y,-z
loop_
_atom_site_type_symbol
_atom_site_label
_atom_site_fract_x
_atom_site_fract_y
_atom_site_fract_z
Si Si1 0.472946 0.191570 0.082257
Si Si2 0.860929 0.759337 0.217989
Si Si3 0.194138 0.554372 0.314262
Si Si4 0.500000 0.000000 0.000000
Si Si5 0.725980 0.770221 0.548784
Si Si6 0.994318 0.133791 0.126942
Si Si7 0.444691 0.758432 0.537763
O O1 0.550669 0.200555 0.955057
O O2 0.566264 0.244783 0.267837
O O3 0.438989 0.966388 0.269480
O O4 0.315690 0.260709 0.910172
O O5 0.905988 0.582695 0.510669
O O6 0.932257 0.793053 0.060947
O O7 0.912054 0.937450 0.201242
O O8 0.244924 0.413071 0.351795
O O9 0.324302 0.641069 0.450871
O O10 0.109282 0.717671 0.033515
O O11 0.648273 0.912716 0.245881
O O12 0.873287 0.869576 0.643155
O O13 0.605470 0.715574 0.652280
#
# Coordination Sequence:
#
# PCOD9092735 Si02
#       7
#     2   2   2   1   2   2   2
#     4  10  19  42  66  96 130 171 219 273 332 383
#     4  11  23  44  69  96 129 182 221 272 326 397
#     4  12  24  43  67 103 135 171 225 275 324 398
#     4  10  22  40  68 100 128 162 234 270 320 400
#     4  11  23  43  68  98 136 177 218 276 334 386
#     4  11  25  45  68  94 138 178 221 268 335 395
#     4  10  22  40  70  95 130 176 216 274 333 387
#
# _framework density 24.025447
#
# number of rings (size 3 to 8) (size 9 to 14) (size 15 to 20)
#    0.000    1.231    4.615    1.385    0.000    1.231 
#    0.000    3.077    0.000    0.000    0.000    0.000 
#    0.000    0.000    0.000    0.000    0.000    0.000 
#
# Total GULP energy -72495.102276 kJ/mol
# GULP energy per Si atom -5576.546329 kJ/mol
# Density = 2.397076 g / cm^3
# Si number density = 24.025447 Si / 1000 Ang^3
#
#
#
# Elastic Constant Matrix: (Units=GPa)
#
#
# Indices 1 2 3 4 5 6 
#
# 1 60.2031 13.3047 26.3397 8.0287 10.8902 -24.8903
# 2 13.3047 76.9667 81.7212 33.3553 9.6192 -31.8551
# 3 26.3397 81.7212 101.8133 -24.4117 45.9492 28.1330
# 4 8.0287 33.3553 -24.4117 -28.1436 22.1353 39.1801
# 5 10.8902 9.6192 45.9492 22.1353 32.0459 -14.2186
# 6 -24.8903 -31.8551 28.1330 39.1801 -14.2186 6.7150
#
#
#
# Elastic Compliance Matrix: (Units=1/GPa)
#
#
# Indices 1 2 3 4 5 6 
#
# 1 0.020709 -0.002520 -0.000145 0.007142 -0.007756 0.007323
# 2 -0.002520 0.012919 -0.004092 0.010315 -0.005416 -0.002563
# 3 -0.000145 -0.004092 0.010903 -0.013185 -0.003900 0.003040
# 4 0.007142 0.010315 -0.013185 0.021630 0.006771 0.018775
# 5 -0.007756 -0.005416 -0.003900 0.006771 0.032153 -0.009531
# 6 0.007323 -0.002563 0.003040 0.018775 -0.009531 0.021446
#
#
# Mechanical properties :
#
#
# Convention : Reuss Voigt Hill
#
# Bulk Modulus (GPa) = 32.24129 53.52381 42.88255
# Shear Modulus (GPa) = 34.81543 9.96464 22.39003
#
# Velocity S-wave (km/s) = 3.81084 2.03876 3.05606
# Velocity P-wave (km/s) = 5.72819 5.27905 5.50820
#
# Compressibility (1/GPa) = 0.03101612
#
# Stress axis : x y z
#
# Youngs Moduli (GPa) = 48.28740 77.40399 91.71747
#
# Poissons Ratio (x) = 0.19507 0.01334
# Poissons Ratio (y) = 0.12169 0.37532
# Poissons Ratio (z) = 0.00702 0.31675
#
# Static dielectric constant tensor:
#      x y z
#    x 1.262060 0.227760 0.314340 
#    y 0.227760 1.806080 -0.140030 
#    z 0.314340 -0.140030 1.687850 
# 
# From -- ./inp_files/174660.got.cif
#   From: 2010.05.17/outbox.cif.g08.bks.cpg/sg2_88_cif.got.tgz:174660.got - 2010.06.03 11:33:40.
