data_PCOD9092181
_publ_section_title
;
Structure prediction by ZEFSAII (Michael W. Deem and Ramdas Pophale) SiO2 
 PCOD9092181
Probable space group: P -1
;
_chemical_formula_sum "Si O2"
_cell_formula_units_Z 16
_cell_length_a 16.336257
_cell_length_b 8.932647
_cell_length_c 9.743166
_cell_angle_alpha 43.321562
_cell_angle_beta 43.997348
_cell_angle_gamma 41.354902
_cell_volume 595.572510
_symmetry_space_group_name_H-M "P -1"
_symmetry_group_IT_number 2
_symmetry_cell_setting 'triclinic'
loop_
_space_group_symop_operation_xyz
x,y,z
-x,-y,-z
loop_
_atom_site_type_symbol
_atom_site_label
_atom_site_fract_x
_atom_site_fract_y
_atom_site_fract_z
Si Si1 0.189310 0.265043 0.628292
Si Si2 0.312766 0.720257 0.544258
Si Si3 0.941431 0.929721 0.751934
Si Si4 0.480993 0.808039 0.060848
Si Si5 0.379019 0.697081 0.768515
Si Si6 0.822037 0.594790 0.138942
Si Si7 0.458883 0.210549 0.293219
Si Si8 0.028433 0.122388 0.749280
O O1 0.174617 0.386269 0.712618
O O2 0.304376 0.302929 0.390582
O O3 0.060784 0.324528 0.651754
O O4 0.261036 0.964749 0.770259
O O5 0.370523 0.764572 0.305110
O O6 0.405739 0.714212 0.563858
O O7 0.292001 0.477672 0.717663
O O8 0.169707 0.947712 0.615083
O O9 0.047405 0.671133 0.870910
O O10 0.922182 0.139246 0.748820
O O11 0.000000 0.000000 0.500000
O O12 0.834392 0.831947 0.909469
O O13 0.627306 0.556176 0.053894
O O14 0.456674 0.887759 0.879473
O O15 0.500000 0.000000 0.000000
O O16 0.497267 0.617486 0.790127
O O17 0.500000 0.000000 0.500000
O O18 0.000000 0.000000 0.000000
#
# Coordination Sequence:
#
# PCOD9092181 Si02
#       8
#     2   2   2   2   2   2   2   2
#     4  10  20  40  66  94 126 181 217 259 342 400
#     4  10  23  42  65  98 129 178 228 268 342 400
#     4  10  22  43  67  98 132 175 228 278 333 393
#     4  12  23  40  64  94 135 174 226 287 325 399
#     4  10  22  40  62  91 132 174 221 270 330 399
#     4  10  21  42  69  93 139 176 215 282 336 394
#     4  10  22  42  62  91 135 177 219 273 337 396
#     4  10  19  40  67  91 134 171 211 278 329 397
#
# _framework density 26.864908
#
# number of rings (size 3 to 8) (size 9 to 14) (size 15 to 20)
#    0.000    1.750    1.250    3.750    0.000    2.000 
#   18.000    0.625    0.000    0.000    0.000    0.000 
#    0.000    0.000    0.000    0.000    0.000    0.000 
#
# Total GULP energy -89206.991928 kJ/mol
# GULP energy per Si atom -5575.436996 kJ/mol
# Density = 2.680376 g / cm^3
# Si number density = 26.864908 Si / 1000 Ang^3
#
#
#
# Elastic Constant Matrix: (Units=GPa)
#
#
# Indices 1 2 3 4 5 6 
#
# 1 114.7944 19.3306 73.5048 -4.2643 -11.7262 42.9929
# 2 19.3306 79.6890 7.3459 1.7386 6.2295 20.8222
# 3 73.5048 7.3459 181.8253 34.6550 8.2740 19.5515
# 4 -4.2643 1.7386 34.6550 42.3527 8.9311 7.0701
# 5 -11.7262 6.2295 8.2740 8.9311 51.7224 2.5071
# 6 42.9929 20.8222 19.5515 7.0701 2.5071 62.5562
#
#
#
# Elastic Compliance Matrix: (Units=1/GPa)
#
#
# Indices 1 2 3 4 5 6 
#
# 1 0.020019 -0.001558 -0.008955 0.010335 0.004946 -0.011807
# 2 -0.001558 0.013986 0.000583 -0.000191 -0.001920 -0.003668
# 3 -0.008955 0.000583 0.010657 -0.009800 -0.002299 0.003830
# 4 0.010335 -0.000191 -0.009800 0.034320 -0.001615 -0.007791
# 5 0.004946 -0.001920 -0.002299 -0.001615 0.021465 -0.002720
# 6 -0.011807 -0.003668 0.003830 -0.007791 -0.002720 0.025114
#
#
# Mechanical properties :
#
#
# Convention : Reuss Voigt Hill
#
# Bulk Modulus (GPa) = 40.31965 64.07461 52.19713
# Shear Modulus (GPa) = 32.53335 49.73475 41.13405
#
# Velocity S-wave (km/s) = 3.48371 4.30733 3.91723
# Velocity P-wave (km/s) = 5.58772 6.97423 6.31912
#
# Compressibility (1/GPa) = 0.02480180
#
# Stress axis : x y z
#
# Youngs Moduli (GPa) = 49.95233 71.50177 93.83312
#
# Poissons Ratio (x) = 0.11137 0.84030
# Poissons Ratio (y) = 0.07780 -0.05468
# Poissons Ratio (z) = 0.44734 -0.04167
#
# Static dielectric constant tensor:
#      x y z
#    x 2.192150 -0.204070 -0.078460 
#    y -0.204070 2.029980 -0.031510 
#    z -0.078460 -0.031510 2.141300 
# 
# From -- ./inp_files/327009.got.cif
#   From: 2010.05.17/outbox.cif.g08.bks.cpg/sg2_164_cif.got.tgz:327009.got - 2010.06.03 11:33:40.
