data_PCOD9092018
_publ_section_title
;
Structure prediction by ZEFSAII (Michael W. Deem and Ramdas Pophale) SiO2 
 PCOD9092018
Probable space group: P -1
;
_chemical_formula_sum "Si O2"
_cell_formula_units_Z 16
_cell_length_a 21.542461
_cell_length_b 12.314426
_cell_length_c 18.194004
_cell_angle_alpha 146.544050
_cell_angle_beta 19.516573
_cell_angle_gamma 156.504109
_cell_volume 626.242121
_symmetry_space_group_name_H-M "P -1"
_symmetry_group_IT_number 2
_symmetry_cell_setting 'triclinic'
loop_
_space_group_symop_operation_xyz
x,y,z
-x,-y,-z
loop_
_atom_site_type_symbol
_atom_site_label
_atom_site_fract_x
_atom_site_fract_y
_atom_site_fract_z
Si Si1 0.067356 0.266849 0.490669
Si Si2 0.599734 0.907325 0.889595
Si Si3 0.099238 0.663140 0.072366
Si Si4 0.160316 0.949789 0.714574
Si Si5 0.374276 0.553877 0.610226
Si Si6 0.184132 0.556407 0.388913
Si Si7 0.817261 0.245311 0.279185
Si Si8 0.643982 0.531699 0.983471
O O1 0.024724 0.284789 0.463726
O O2 0.073474 0.474685 0.646379
O O3 0.823727 0.962572 0.624012
O O4 0.371011 0.432728 0.248315
O O5 0.741547 0.091747 0.908157
O O6 0.500000 0.000000 0.000000
O O7 0.349309 0.611942 0.035907
O O8 0.910643 0.666388 0.237571
O O9 0.928256 0.367211 0.141422
O O10 0.314094 0.711043 0.810661
O O11 0.252797 0.798393 0.497529
O O12 0.101832 0.873443 0.823529
O O13 0.924782 0.842991 0.861782
O O14 0.412655 0.270575 0.593971
O O15 0.500000 0.500000 0.500000
O O16 0.385522 0.586719 0.130730
O O17 0.000000 0.500000 0.500000
O O18 0.500000 0.000000 0.500000
#
# Coordination Sequence:
#
# PCOD9092018 Si02
#       8
#     2   2   2   2   2   2   2   2
#     4  10  22  36  59  94 122 157 208 260 313 377
#     4  11  22  43  65  88 130 171 208 256 334 391
#     4  10  23  45  67  96 129 175 216 269 330 383
#     4  10  21  40  64  91 122 167 212 255 321 391
#     4  11  24  45  67  96 132 169 223 269 322 389
#     4   9  18  36  59  83 121 162 200 242 312 376
#     4  10  19  40  65  85 122 167 207 259 320 375
#     4  11  21  38  59  95 125 157 205 264 312 377
#
# _framework density 25.549222
#
# number of rings (size 3 to 8) (size 9 to 14) (size 15 to 20)
#    0.000    1.750    1.250    4.500    0.000    2.000 
#   20.250    1.250    0.000    0.000    0.000    0.000 
#    0.000    0.000    0.000    0.000    0.000    0.000 
#
# Total GULP energy -89231.276270 kJ/mol
# GULP energy per Si atom -5576.954767 kJ/mol
# Density = 2.549107 g / cm^3
# Si number density = 25.549222 Si / 1000 Ang^3
#
#
#
# Elastic Constant Matrix: (Units=GPa)
#
#
# Indices 1 2 3 4 5 6 
#
# 1 119.5826 3.5886 23.5849 5.7357 -10.4925 0.4243
# 2 3.5886 24.0880 3.9262 -9.4321 0.5094 4.0362
# 3 23.5849 3.9262 111.5945 -9.2234 -5.8837 1.8541
# 4 5.7357 -9.4321 -9.2234 33.9909 -5.4669 1.9033
# 5 -10.4925 0.5094 -5.8837 -5.4669 59.1495 -11.1838
# 6 0.4243 4.0362 1.8541 1.9033 -11.1838 28.2464
#
#
#
# Elastic Compliance Matrix: (Units=1/GPa)
#
#
# Indices 1 2 3 4 5 6 
#
# 1 0.009060 -0.002213 -0.001989 -0.002517 0.001391 0.001031
# 2 -0.002213 0.048829 0.000007 0.014218 -0.001073 -0.008327
# 3 -0.001989 0.000007 0.009690 0.003124 0.000806 -0.000499
# 4 -0.002517 0.014218 0.003124 0.035213 0.002305 -0.003659
# 5 0.001391 -0.001073 0.000806 0.002305 0.018852 0.007389
# 6 0.001031 -0.008327 -0.000499 -0.003659 0.007389 0.039782
#
#
# Mechanical properties :
#
#
# Convention : Reuss Voigt Hill
#
# Bulk Modulus (GPa) = 16.89520 35.27383 26.08452
# Shear Modulus (GPa) = 26.37883 39.22172 32.80027
#
# Velocity S-wave (km/s) = 3.21669 3.92234 3.58691
# Velocity P-wave (km/s) = 4.51922 5.86082 5.23319
#
# Compressibility (1/GPa) = 0.05918839
#
# Stress axis : x y z
#
# Youngs Moduli (GPa) = 110.37349 20.47984 103.19840
#
# Poissons Ratio (x) = 0.04533 0.20524
# Poissons Ratio (y) = 0.24428 -0.00070
# Poissons Ratio (z) = 0.21951 -0.00014
#
# Static dielectric constant tensor:
#      x y z
#    x 2.179710 0.069330 0.100230 
#    y 0.069330 2.276610 0.164390 
#    z 0.100230 0.164390 2.200220 
# 
# From -- ./inp_files/467046.got.cif
#   From: 2010.05.17/outbox.cif.g08.bks.cpg/sg2_234_cif.got.tgz:467046.got - 2010.06.03 11:33:40.
