data_PCOD9092717
_publ_section_title
;
Structure prediction by ZEFSAII (Michael W. Deem and Ramdas Pophale) SiO2 
 PCOD9092717
Probable space group: P -1
;
_chemical_formula_sum "Si O2"
_cell_formula_units_Z 16
_cell_length_a 8.147342
_cell_length_b 17.591430
_cell_length_c 20.729826
_cell_angle_alpha 161.038731
_cell_angle_beta 42.101722
_cell_angle_gamma 137.471752
_cell_volume 638.713698
_symmetry_space_group_name_H-M "P -1"
_symmetry_group_IT_number 2
_symmetry_cell_setting 'triclinic'
loop_
_space_group_symop_operation_xyz
x,y,z
-x,-y,-z
loop_
_atom_site_type_symbol
_atom_site_label
_atom_site_fract_x
_atom_site_fract_y
_atom_site_fract_z
Si Si1 0.556996 0.929492 0.632617
Si Si2 0.460583 0.076081 0.998732
Si Si3 0.111137 0.461507 0.212116
Si Si4 0.038807 0.798315 0.189036
Si Si5 0.884521 0.518904 0.195854
Si Si6 0.539467 0.861295 0.441984
Si Si7 0.811047 0.786560 0.620847
Si Si8 0.967069 0.101656 0.212410
O O1 0.750432 0.745858 0.422614
O O2 0.506988 0.993419 0.624533
O O3 0.697823 0.142314 0.804564
O O4 0.297511 0.813617 0.647626
O O5 0.669012 0.298140 0.099398
O O6 0.187809 0.146167 0.131485
O O7 0.500000 0.000000 0.000000
O O8 0.537406 0.858267 0.760577
O O9 0.343860 0.618081 0.304037
O O10 0.096817 0.532071 0.198166
O O11 0.864566 0.542732 0.379823
O O12 0.102832 0.183692 0.995578
O O13 0.817000 0.811797 0.312995
O O14 0.040294 0.010418 0.305988
O O15 0.011725 0.558534 0.963880
O O16 0.500000 0.000000 0.500000
O O17 0.919555 0.811654 0.681515
#
# Coordination Sequence:
#
# PCOD9092717 Si02
#       8
#     2   2   2   2   2   2   2   2
#     4  12  26  44  67  96 143 172 216 283 331 391
#     4   9  19  41  70  98 135 173 226 269 319 406
#     4  12  22  41  71  96 131 178 222 274 325 390
#     4  11  23  44  66  93 141 173 215 277 333 393
#     4  11  24  44  69 100 134 179 219 271 342 383
#     4  12  25  45  69 100 130 176 228 270 333 399
#     4  10  19  42  65  98 132 173 220 276 316 395
#     4  11  23  43  65 101 137 174 227 272 323 395
#
# _framework density 25.050346999999999
#
# number of rings (size 3 to 8) (size 9 to 14) (size 15 to 20)
#    0.000    1.000    7.500    0.375    1.750    2.000 
#    2.250    2.500    0.000    0.000    0.000    0.000 
#    0.000    0.000    0.000    0.000    0.000    0.000 
#
# Total GULP energy -89548.284409 kJ/mol
# GULP energy per Si atom -5596.767776 kJ/mol
# Density = 2.499333 g / cm^3
# Si number density = 25.050347 Si / 1000 Ang^3
#
#
#
# Elastic Constant Matrix: (Units=GPa)
#
#
# Indices 1 2 3 4 5 6 
#
# 1 77.1171 2.2316 3.1716 -9.3044 24.0872 14.3314
# 2 2.2316 67.4318 -7.1020 -24.7145 -2.1585 20.3070
# 3 3.1716 -7.1020 86.2996 -19.7132 12.1368 1.2673
# 4 -9.3044 -24.7145 -19.7132 47.3208 -2.6930 -14.4446
# 5 24.0872 -2.1585 12.1368 -2.6930 36.9327 -0.1085
# 6 14.3314 20.3070 1.2673 -14.4446 -0.1085 26.6808
#
#
#
# Elastic Compliance Matrix: (Units=1/GPa)
#
#
# Indices 1 2 3 4 5 6 
#
# 1 0.019334 0.003582 0.002063 0.002091 -0.012961 -0.012130
# 2 0.003582 0.023192 0.004585 0.010280 -0.001779 -0.014235
# 3 0.002063 0.004585 0.014538 0.008310 -0.005251 -0.000810
# 4 0.002091 0.010280 0.008310 0.032897 -0.001070 0.008463
# 5 -0.012961 -0.001779 -0.005251 -0.001070 0.037097 0.008137
# 6 -0.012130 -0.014235 -0.000810 0.008463 0.008137 0.059483
#
#
# Mechanical properties :
#
#
# Convention : Reuss Voigt Hill
#
# Bulk Modulus (GPa) = 12.89965 25.27233 19.08599
# Shear Modulus (GPa) = 26.05226 37.69001 31.87114
#
# Velocity S-wave (km/s) = 3.22840 3.88309 3.57078
# Velocity P-wave (km/s) = 4.36548 5.49682 4.96349
#
# Compressibility (1/GPa) = 0.07752148
#
# Stress axis : x y z
#
# Youngs Moduli (GPa) = 51.72351 43.11867 68.78689
#
# Poissons Ratio (x) = -0.15445 -0.14190
# Poissons Ratio (y) = -0.18527 -0.31535
# Poissons Ratio (z) = -0.10670 -0.19768
#
# Static dielectric constant tensor:
#      x y z
#    x 2.006980 0.009220 -0.051050 
#    y 0.009220 1.981810 -0.016010 
#    z -0.051050 -0.016010 1.982540 
# 
# From -- ./inp_files/591250.got.cif
#   From: 2010.05.17/outbox.cif.g08.bks.cpg/sg2_296_cif.got.tgz:591250.got - 2010.06.03 11:33:40.
