data_PCOD9092764
_publ_section_title
;
Structure prediction by ZEFSAII (Michael W. Deem and Ramdas Pophale) SiO2 
 PCOD9092764
Probable space group: P -1
;
_chemical_formula_sum "Si O2"
_cell_formula_units_Z 10
_cell_length_a 14.004765
_cell_length_b 6.873244
_cell_length_c 7.287653
_cell_angle_alpha 118.841871
_cell_angle_beta 132.771810
_cell_angle_gamma 91.619648
_cell_volume 375.696401
_symmetry_space_group_name_H-M "P -1"
_symmetry_group_IT_number 2
_symmetry_cell_setting 'triclinic'
loop_
_space_group_symop_operation_xyz
x,y,z
-x,-y,-z
loop_
_atom_site_type_symbol
_atom_site_label
_atom_site_fract_x
_atom_site_fract_y
_atom_site_fract_z
Si Si1 0.370632 0.563307 0.325011
Si Si2 0.897027 0.716520 0.435440
Si Si3 0.916903 0.249581 0.639981
Si Si4 0.717936 0.604645 0.485451
Si Si5 0.606692 0.930889 0.293122
O O1 0.500000 0.500000 0.500000
O O2 0.255704 0.402576 0.270236
O O3 0.426458 0.867636 0.560489
O O4 0.273557 0.454620 0.963284
O O5 0.855811 0.634264 0.555549
O O6 0.014306 0.685969 0.448596
O O7 0.944028 0.017636 0.624284
O O8 0.730317 0.093271 0.363753
O O9 0.000000 0.500000 0.000000
O O10 0.689979 0.834459 0.495051
O O11 0.552023 0.329688 0.101641
#
# Coordination Sequence:
#
# PCOD9092764 Si02
#       5
#     2   2   2   2   2
#     4  12  23  39  66 100 134 170 213 274 328 382
#     4  10  23  41  67  96 130 169 219 267 325 386
#     4  10  19  42  68  87 133 180 203 269 331 376
#     4  10  23  42  66 100 128 168 223 268 323 390
#     4  10  21  42  67  93 135 167 215 272 319 383
#
# _framework density 26.617236999999999
#
# number of rings (size 3 to 8) (size 9 to 14) (size 15 to 20)
#    0.000    1.600    2.000    4.200    0.000    3.200 
#    0.000   10.000    0.000    0.000    0.000    0.000 
#    0.000    0.000    0.000    0.000    0.000    0.000 
#
# Total GULP energy -56049.234774 kJ/mol
# GULP energy per Si atom -5604.923477 kJ/mol
# Density = 2.655666 g / cm^3
# Si number density = 26.617237 Si / 1000 Ang^3
#
#
#
# Elastic Constant Matrix: (Units=GPa)
#
#
# Indices 1 2 3 4 5 6 
#
# 1 193.1948 57.1570 28.4627 25.0218 -0.3000 -0.9755
# 2 57.1570 100.3385 17.2485 9.7979 -7.1314 -20.5252
# 3 28.4627 17.2485 84.7032 28.0074 -4.8704 -15.1799
# 4 25.0218 9.7979 28.0074 32.6270 2.4130 -10.4941
# 5 -0.3000 -7.1314 -4.8704 2.4130 42.6333 3.7667
# 6 -0.9755 -20.5252 -15.1799 -10.4941 3.7667 80.8937
#
#
#
# Elastic Compliance Matrix: (Units=1/GPa)
#
#
# Indices 1 2 3 4 5 6 
#
# 1 0.006895 -0.003762 -0.000427 -0.004252 -0.000257 -0.001491
# 2 -0.003762 0.012958 -0.000945 0.000666 0.001724 0.003071
# 3 -0.000427 -0.000945 0.017062 -0.013884 0.002482 0.001040
# 4 -0.004252 0.000666 -0.013884 0.047199 -0.004516 0.003846
# 5 -0.000257 0.001724 0.002482 -0.004516 0.024354 -0.000820
# 6 -0.001491 0.003071 0.001040 0.003846 -0.000820 0.013855
#
#
# Mechanical properties :
#
#
# Convention : Reuss Voigt Hill
#
# Bulk Modulus (GPa) = 37.52907 64.88589 51.20748
# Shear Modulus (GPa) = 35.34237 49.58867 42.46552
#
# Velocity S-wave (km/s) = 3.64785 4.32096 3.99860
# Velocity P-wave (km/s) = 5.64558 7.02315 6.37170
#
# Compressibility (1/GPa) = 0.02664601
#
# Stress axis : x y z
#
# Youngs Moduli (GPa) = 145.03491 77.17434 58.61105
#
# Poissons Ratio (x) = 0.29036 0.02501
# Poissons Ratio (y) = 0.54567 0.05538
# Poissons Ratio (z) = 0.06190 0.07293
#
# Static dielectric constant tensor:
#      x y z
#    x 2.175680 -0.015890 0.064600 
#    y -0.015890 2.133820 -0.030240 
#    z 0.064600 -0.030240 2.055170 
# 
# From -- ./inp_files/194553.got.cif
#   From: 2010.05.17/outbox.cif.g08.bks.cpg/sg2_98_cif.got.tgz:194553.got - 2010.06.03 11:33:40.
