data_PCOD9092931
_publ_section_title
;
Structure prediction by ZEFSAII (Michael W. Deem and Ramdas Pophale) SiO2 
 PCOD9092931
Probable space group: P -1
;
_chemical_formula_sum "Si O2"
_cell_formula_units_Z 16
_cell_length_a 8.643691
_cell_length_b 13.292914
_cell_length_c 13.738808
_cell_angle_alpha 55.299934
_cell_angle_beta 86.745323
_cell_angle_gamma 131.273638
_cell_volume 696.923589
_symmetry_space_group_name_H-M "P -1"
_symmetry_group_IT_number 2
_symmetry_cell_setting 'triclinic'
loop_
_space_group_symop_operation_xyz
x,y,z
-x,-y,-z
loop_
_atom_site_type_symbol
_atom_site_label
_atom_site_fract_x
_atom_site_fract_y
_atom_site_fract_z
Si Si1 0.582928 0.921749 0.339301
Si Si2 0.203452 0.792105 0.565676
Si Si3 0.640608 0.483998 0.447352
Si Si4 0.797564 0.928407 0.628680
Si Si5 0.819611 0.751456 0.881549
Si Si6 0.254547 0.693844 0.134077
Si Si7 0.231170 0.435522 0.829013
Si Si8 0.708899 0.128413 0.779145
O O1 0.314643 0.755689 0.513278
O O2 0.544302 0.760334 0.389870
O O3 0.502890 0.978196 0.240906
O O4 0.916079 0.149141 0.232808
O O5 0.906050 0.539089 0.754681
O O6 0.500000 0.000000 0.500000
O O7 0.155837 0.895676 0.469647
O O8 0.500000 0.500000 0.500000
O O9 0.662330 0.520865 0.308991
O O10 0.964050 0.676287 0.367156
O O11 0.850866 0.905022 0.745676
O O12 0.476982 0.678688 0.741180
O O13 0.000000 0.000000 0.500000
O O14 0.500000 0.500000 0.000000
O O15 0.835766 0.724954 0.009705
O O16 0.291820 0.755892 0.211277
O O17 0.049951 0.666883 0.116030
O O18 0.568055 0.919175 0.952874
#
# Coordination Sequence:
#
# PCOD9092931 Si02
#       8
#     2   2   2   2   2   2   2   2
#     4  12  23  43  70  99 141 183 245 300 348 430
#     4  12  23  41  72 105 139 185 241 294 356 428
#     4  11  24  43  70 105 138 183 241 301 364 420
#     4  11  23  42  68 104 145 186 234 287 361 430
#     4  10  23  42  70  99 143 194 229 290 368 424
#     4  10  20  42  73 101 133 181 238 296 352 413
#     4  10  19  44  69  94 142 186 231 295 351 427
#     4  10  22  42  72 100 136 184 237 296 355 418
#
# _framework density 22.958041000000001
#
# number of rings (size 3 to 8) (size 9 to 14) (size 15 to 20)
#    0.000    1.250    5.000    1.875    0.000    2.000 
#    0.000   13.750    2.750    0.000    0.000    0.000 
#    0.000    0.000    0.000    0.000    0.000    0.000 
#
# Total GULP energy -89276.613613 kJ/mol
# GULP energy per Si atom -5579.788351 kJ/mol
# Density = 2.290579 g / cm^3
# Si number density = 22.958041 Si / 1000 Ang^3
#
#
#
# Elastic Constant Matrix: (Units=GPa)
#
#
# Indices 1 2 3 4 5 6 
#
# 1 100.2102 24.4342 33.0877 -1.1067 16.8792 3.5608
# 2 24.4342 41.3834 17.5307 -13.0533 10.3797 5.8125
# 3 33.0877 17.5307 105.3611 -15.7589 15.1940 -2.3738
# 4 -1.1067 -13.0533 -15.7589 41.1308 12.1078 3.3594
# 5 16.8792 10.3797 15.1940 12.1078 42.6322 -4.6685
# 6 3.5608 5.8125 -2.3738 3.3594 -4.6685 38.5116
#
#
#
# Elastic Compliance Matrix: (Units=1/GPa)
#
#
# Indices 1 2 3 4 5 6 
#
# 1 0.012872 -0.006535 -0.003054 -0.002335 -0.001798 -0.000406
# 2 -0.006535 0.037032 -0.000296 0.015505 -0.011577 -0.007759
# 3 -0.003054 -0.000296 0.012040 0.005809 -0.004660 -0.000002
# 4 -0.002335 0.015505 0.005809 0.036701 -0.016102 -0.006920
# 5 -0.001798 -0.011577 -0.004660 -0.016102 0.034004 0.007153
# 6 -0.000406 -0.007759 -0.000002 -0.006920 0.007153 0.028645
#
#
# Mechanical properties :
#
#
# Convention : Reuss Voigt Hill
#
# Bulk Modulus (GPa) = 23.71074 44.11776 33.91425
# Shear Modulus (GPa) = 25.62476 35.91506 30.76991
#
# Velocity S-wave (km/s) = 3.34452 3.95951 3.66494
# Velocity P-wave (km/s) = 5.02640 6.33736 5.71956
#
# Compressibility (1/GPa) = 0.04217497
#
# Stress axis : x y z
#
# Youngs Moduli (GPa) = 77.68524 27.00364 83.05405
#
# Poissons Ratio (x) = 0.17647 0.25367
# Poissons Ratio (y) = 0.50767 0.02456
# Poissons Ratio (z) = 0.23727 0.00798
#
# Static dielectric constant tensor:
#      x y z
#    x 1.897170 -0.270660 0.126150 
#    y -0.270660 2.967380 -0.442720 
#    z 0.126150 -0.442720 2.246130 
# 
# From -- ./inp_files/505368.got.cif
#   From: 2010.05.17/outbox.cif.g08.bks.cpg/sg2_253_cif.got.tgz:505368.got - 2010.06.03 11:33:40.
