data_PCOD9092361
_publ_section_title
;
Structure prediction by ZEFSAII (Michael W. Deem and Ramdas Pophale) SiO2 
 PCOD9092361
Probable space group: P -1
;
_chemical_formula_sum "Si O2"
_cell_formula_units_Z 14
_cell_length_a 16.518441
_cell_length_b 11.603624
_cell_length_c 7.692327
_cell_angle_alpha 90.055525
_cell_angle_beta 113.003866
_cell_angle_gamma 35.292808
_cell_volume 628.487545
_symmetry_space_group_name_H-M "P -1"
_symmetry_group_IT_number 2
_symmetry_cell_setting 'triclinic'
loop_
_space_group_symop_operation_xyz
x,y,z
-x,-y,-z
loop_
_atom_site_type_symbol
_atom_site_label
_atom_site_fract_x
_atom_site_fract_y
_atom_site_fract_z
Si Si1 0.790888 0.410247 0.613339
Si Si2 0.473011 0.722353 0.127873
Si Si3 0.243436 0.033717 0.585357
Si Si4 0.896472 0.781514 0.038328
Si Si5 0.653799 0.327890 0.476505
Si Si6 0.454132 0.156885 0.328637
Si Si7 0.103470 0.474815 0.850872
O O1 0.662208 0.574853 0.332135
O O2 0.801334 0.259864 0.643730
O O3 0.667979 0.606642 0.667880
O O4 0.985871 0.251849 0.776330
O O5 0.542029 0.512119 0.217915
O O6 0.361956 0.876063 0.860246
O O7 0.321699 0.928581 0.151997
O O8 0.258017 0.896343 0.494300
O O9 0.355993 0.005586 0.582927
O O10 0.023370 0.325375 0.407933
O O11 0.902784 0.655595 0.150204
O O12 0.992601 0.643392 0.934185
O O13 0.500000 0.500000 0.500000
O O14 0.500000 0.000000 0.500000
O O15 0.318025 0.267760 0.061067
#
# Coordination Sequence:
#
# PCOD9092361 Si02
#       7
#     2   2   2   2   2   2   2
#     4   9  20  37  61  88 109 161 203 242 290 348
#     4  10  23  37  61  88 125 159 191 248 308 356
#     4  12  22  40  58  92 128 153 194 250 306 357
#     4  10  19  41  60  87 118 152 205 252 289 354
#     4  10  20  41  64  86 117 159 208 244 290 356
#     4  11  21  39  65  89 117 158 208 247 290 350
#     4  10  22  36  64  89 116 159 202 249 293 348
#
# _framework density 22.275701000000002
#
# number of rings (size 3 to 8) (size 9 to 14) (size 15 to 20)
#    0.857    0.857    1.429    5.571    0.000    1.714 
#    2.571    7.857    0.000    0.000    0.000    0.000 
#    0.000    0.000    0.000    0.000    0.000    0.000 
#
# Total GULP energy -78157.074062 kJ/mol
# GULP energy per Si atom -5582.648147 kJ/mol
# Density = 2.222500 g / cm^3
# Si number density = 22.275701 Si / 1000 Ang^3
#
#
#
# Elastic Constant Matrix: (Units=GPa)
#
#
# Indices 1 2 3 4 5 6 
#
# 1 115.5063 23.2485 55.2218 -0.0115 24.1597 33.3814
# 2 23.2485 34.9997 -6.1493 -1.1569 1.2754 19.6278
# 3 55.2218 -6.1493 116.5207 0.2507 5.5568 15.5371
# 4 -0.0115 -1.1569 0.2507 34.5743 1.5078 1.3946
# 5 24.1597 1.2754 5.5568 1.5078 28.9001 -0.3259
# 6 33.3814 19.6278 15.5371 1.3946 -0.3259 25.4376
#
#
#
# Elastic Compliance Matrix: (Units=1/GPa)
#
#
# Indices 1 2 3 4 5 6 
#
# 1 0.023817 -0.001742 -0.007021 0.001871 -0.018874 -0.025967
# 2 -0.001742 0.061161 0.011181 0.004246 -0.004201 -0.052021
# 3 -0.007021 0.011181 0.013381 0.000463 0.002693 -0.007578
# 4 0.001871 0.004246 0.000463 0.029523 -0.003467 -0.007678
# 5 -0.018874 -0.004201 0.002693 -0.003467 0.050535 0.027202
# 6 -0.025967 -0.052021 -0.007578 -0.007678 0.027202 0.118925
#
#
# Mechanical properties :
#
#
# Convention : Reuss Voigt Hill
#
# Bulk Modulus (GPa) = 9.69047 45.74095 27.71571
# Shear Modulus (GPa) = 15.29497 30.76277 23.02887
#
# Velocity S-wave (km/s) = 2.62319 3.72021 3.21878
# Velocity P-wave (km/s) = 3.67893 6.24755 5.12672
#
# Compressibility (1/GPa) = 0.10319415
#
# Stress axis : x y z
#
# Youngs Moduli (GPa) = 41.98649 16.35042 74.73482
#
# Poissons Ratio (x) = 0.02849 0.52471
# Poissons Ratio (y) = 0.07316 -0.83564
# Poissons Ratio (z) = 0.29479 -0.18282
#
# Static dielectric constant tensor:
#      x y z
#    x 1.800940 -0.000020 -0.022500 
#    y -0.000020 1.816070 0.053760 
#    z -0.022500 0.053760 1.860920 
# 
# From -- ./inp_files/268469.got.cif
#   From: 2010.05.17/outbox.cif.g08.bks.cpg/sg2_135_cif.got.tgz:268469.got - 2010.06.03 11:33:40.
