data_PCOD9092620
_publ_section_title
;
Structure prediction by ZEFSAII (Michael W. Deem and Ramdas Pophale) SiO2 
 PCOD9092620
Probable space group: P -1
;
_chemical_formula_sum "Si O2"
_cell_formula_units_Z 12
_cell_length_a 8.126770
_cell_length_b 14.413863
_cell_length_c 7.746650
_cell_angle_alpha 138.594684
_cell_angle_beta 117.995254
_cell_angle_gamma 65.165828
_cell_volume 526.333457
_symmetry_space_group_name_H-M "P -1"
_symmetry_group_IT_number 2
_symmetry_cell_setting 'triclinic'
loop_
_space_group_symop_operation_xyz
x,y,z
-x,-y,-z
loop_
_atom_site_type_symbol
_atom_site_label
_atom_site_fract_x
_atom_site_fract_y
_atom_site_fract_z
Si Si1 0.574067 0.645592 0.785720
Si Si2 0.393827 0.939978 0.530251
Si Si3 0.307053 0.922365 0.967648
Si Si4 0.117942 0.344370 0.341074
Si Si5 0.035590 0.954641 0.199330
Si Si6 0.410466 0.359339 0.811784
O O1 0.500000 0.500000 0.500000
O O2 0.400650 0.765623 0.834637
O O3 0.738270 0.666716 0.763419
O O4 0.639794 0.642061 0.012077
O O5 0.174787 0.987141 0.466624
O O6 0.429671 0.772036 0.312210
O O7 0.500000 0.000000 0.500000
O O8 0.515171 0.990550 0.815863
O O9 0.169570 0.977681 0.134030
O O10 0.161292 0.947207 0.774787
O O11 0.240326 0.335563 0.566041
O O12 0.000000 0.500000 0.500000
O O13 0.004737 0.208807 0.070908
O O14 0.500000 0.500000 0.000000
#
# Coordination Sequence:
#
# PCOD9092620 Si02
#       6
#     2   2   2   2   2   2
#     4  12  25  45  70 104 141 190 238 288 358 428
#     4  10  19  41  71 101 138 188 230 284 362 409
#     4  10  21  40  73 100 138 188 237 287 355 421
#     4  12  26  44  68 104 144 186 240 293 352 420
#     4  10  20  39  70 103 136 183 232 294 351 410
#     4  12  23  44  73 100 143 186 230 293 354 415
#
# _framework density 22.799236000000001
#
# number of rings (size 3 to 8) (size 9 to 14) (size 15 to 20)
#    0.000    1.000    6.667    2.000    0.000    1.333 
#    0.000    2.500    0.000    0.000    0.000    0.000 
#    0.000    0.000    0.000    0.000    0.000    0.000 
#
# Total GULP energy -67074.713403 kJ/mol
# GULP energy per Si atom -5589.559450 kJ/mol
# Density = 2.274734 g / cm^3
# Si number density = 22.799236 Si / 1000 Ang^3
#
#
#
# Elastic Constant Matrix: (Units=GPa)
#
#
# Indices 1 2 3 4 5 6 
#
# 1 99.9938 61.2557 43.4266 -43.3974 8.2418 -11.8357
# 2 61.2557 162.7374 60.1147 -21.3908 2.5774 -16.2993
# 3 43.4266 60.1147 107.2190 -29.8376 20.9786 9.7953
# 4 -43.3974 -21.3908 -29.8376 63.8028 4.5578 0.8201
# 5 8.2418 2.5774 20.9786 4.5578 47.2482 -11.5360
# 6 -11.8357 -16.2993 9.7953 0.8201 -11.5360 37.3537
#
#
#
# Elastic Compliance Matrix: (Units=1/GPa)
#
#
# Indices 1 2 3 4 5 6 
#
# 1 0.018822 -0.004562 -0.002050 0.010429 -0.002255 0.003585
# 2 -0.004562 0.010357 -0.006328 -0.003019 0.004871 0.006304
# 3 -0.002050 -0.006328 0.018670 0.006159 -0.011078 -0.011863
# 4 0.010429 -0.003019 0.006159 0.025198 -0.007424 -0.002474
# 5 -0.002255 0.004871 -0.011078 -0.007424 0.030306 0.013838
# 6 0.003585 0.006304 -0.011863 -0.002474 0.013838 0.038097
#
#
# Mechanical properties :
#
#
# Convention : Reuss Voigt Hill
#
# Bulk Modulus (GPa) = 45.51766 77.72713 61.62239
# Shear Modulus (GPa) = 28.62827 43.35784 35.99305
#
# Velocity S-wave (km/s) = 3.54738 4.36561 3.97759
# Velocity P-wave (km/s) = 6.06519 7.71864 6.94132
#
# Compressibility (1/GPa) = 0.02196950
#
# Stress axis : x y z
#
# Youngs Moduli (GPa) = 53.12937 96.55210 53.56107
#
# Poissons Ratio (x) = 0.44047 0.10978
# Poissons Ratio (y) = 0.24237 0.33895
# Poissons Ratio (z) = 0.10889 0.61102
#
# Static dielectric constant tensor:
#      x y z
#    x 1.567160 -0.234580 0.172250 
#    y -0.234580 1.665230 0.151360 
#    z 0.172250 0.151360 1.761780 
# 
# From -- ./inp_files/204872.got.cif
#   From: 2010.05.17/outbox.cif.g08.bks.cpg/sg2_103_cif.got.tgz:204872.got - 2010.06.03 11:33:40.
