data_PCOD9092405
_publ_section_title
;
Structure prediction by ZEFSAII (Michael W. Deem and Ramdas Pophale) SiO2 
 PCOD9092405
Probable space group: P -1
;
_chemical_formula_sum "Si O2"
_cell_formula_units_Z 16
_cell_length_a 19.684780
_cell_length_b 11.899952
_cell_length_c 14.872869
_cell_angle_alpha 139.008441
_cell_angle_beta 33.336953
_cell_angle_gamma 159.149459
_cell_volume 675.463922
_symmetry_space_group_name_H-M "P -1"
_symmetry_group_IT_number 2
_symmetry_cell_setting 'triclinic'
loop_
_space_group_symop_operation_xyz
x,y,z
-x,-y,-z
loop_
_atom_site_type_symbol
_atom_site_label
_atom_site_fract_x
_atom_site_fract_y
_atom_site_fract_z
Si Si1 0.249391 0.902291 0.531759
Si Si2 0.459806 0.673153 0.861225
Si Si3 0.248973 0.249823 0.673928
Si Si4 0.305526 0.888636 0.887980
Si Si5 0.316913 0.427919 0.423502
Si Si6 0.374503 0.871680 0.187273
Si Si7 0.009847 0.213944 0.774620
Si Si8 0.347160 0.733011 0.430419
O O1 0.132335 0.938548 0.648416
O O2 0.481918 0.249177 0.536387
O O3 0.275731 0.836195 0.366701
O O4 0.165587 0.664419 0.553993
O O5 0.291990 0.406401 0.810034
O O6 0.602456 0.674000 0.735373
O O7 0.620526 0.989917 0.816605
O O8 0.317717 0.619012 0.057353
O O9 0.500000 0.500000 0.500000
O O10 0.108839 0.203702 0.734167
O O11 0.132301 0.545235 0.831081
O O12 0.371710 0.877787 0.902885
O O13 0.505626 0.128858 0.738024
O O14 0.233865 0.998517 0.054441
O O15 0.084799 0.204047 0.597046
O O16 0.291179 0.491131 0.394554
O O17 0.500000 0.000000 0.500000
#
# Coordination Sequence:
#
# PCOD9092405 Si02
#       8
#     2   2   2   2   2   2   2   2
#     4   9  15  26  46  63  88 116 154 190 222 263
#     4  10  18  25  48  71  92 118 156 199 224 265
#     4  11  14  28  47  71  88 115 161 195 226 264
#     4  10  19  29  44  70  99 124 145 191 239 276
#     4  10  16  29  48  70  89 121 161 191 220 272
#     4  10  16  30  42  70  99 118 149 192 239 268
#     4  11  17  27  49  71  94 118 153 192 240 268
#     4   9  15  29  46  67  93 122 157 188 224 273
#
# _framework density 23.687424
#
# number of rings (size 3 to 8) (size 9 to 14) (size 15 to 20)
#    0.000    2.000    8.750    0.000    0.000    0.000 
#    0.000    3.125    0.000    8.250    0.000    0.000 
#    0.000   33.000    0.000    0.000    0.000    0.000 
#
# Total GULP energy -89068.526979 kJ/mol
# GULP energy per Si atom -5566.782936 kJ/mol
# Density = 2.363351 g / cm^3
# Si number density = 23.687424 Si / 1000 Ang^3
#
#
#
# Elastic Constant Matrix: (Units=GPa)
#
#
# Indices 1 2 3 4 5 6 
#
# 1 132.0500 44.5604 51.9241 13.3515 -14.2157 -49.0152
# 2 44.5604 47.1407 45.5083 11.3236 -0.4038 -20.9675
# 3 51.9241 45.5083 144.7345 41.7760 3.5083 -19.6669
# 4 13.3515 11.3236 41.7760 29.8973 -0.9444 -0.4461
# 5 -14.2157 -0.4038 3.5083 -0.9444 44.2632 16.9903
# 6 -49.0152 -20.9675 -19.6669 -0.4461 16.9903 44.7082
#
#
#
# Elastic Compliance Matrix: (Units=1/GPa)
#
#
# Indices 1 2 3 4 5 6 
#
# 1 0.015573 -0.007551 -0.000434 -0.003296 -0.000248 0.013402
# 2 -0.007551 0.040654 -0.008898 0.000390 -0.004660 0.008649
# 3 -0.000434 -0.008898 0.015696 -0.018418 -0.003106 0.003252
# 4 -0.003296 0.000390 -0.018418 0.060523 0.006897 -0.013550
# 5 -0.000248 -0.004660 -0.003106 0.006897 0.028455 -0.014568
# 6 0.013402 0.008649 0.003252 -0.013550 -0.014568 0.047948
#
#
# Mechanical properties :
#
#
# Convention : Reuss Voigt Hill
#
# Bulk Modulus (GPa) = 26.20776 67.54566 46.87671
# Shear Modulus (GPa) = 19.58215 35.90257 27.74236
#
# Velocity S-wave (km/s) = 2.87834 3.89740 3.42597
# Velocity P-wave (km/s) = 4.70473 6.98787 5.95671
#
# Compressibility (1/GPa) = 0.03815663
#
# Stress axis : x y z
#
# Youngs Moduli (GPa) = 64.21410 24.59812 63.71011
#
# Poissons Ratio (x) = 0.18573 0.02767
# Poissons Ratio (y) = 0.48485 0.56689
# Poissons Ratio (z) = 0.02789 0.21887
#
# Static dielectric constant tensor:
#      x y z
#    x 1.940060 0.069670 -0.050040 
#    y 0.069670 2.093370 -0.010210 
#    z -0.050040 -0.010210 2.004950 
# 
# From -- ./inp_files/305200.got.cif
#   From: 2010.05.17/outbox.cif.g08.bks.cpg/sg2_153_cif.got.tgz:305200.got - 2010.06.03 11:33:40.
