data_PCOD9092857
_publ_section_title
;
Structure prediction by ZEFSAII (Michael W. Deem and Ramdas Pophale) SiO2 
 PCOD9092857
Probable space group: P -1
;
_chemical_formula_sum "Si O2"
_cell_formula_units_Z 14
_cell_length_a 9.487048
_cell_length_b 8.135464
_cell_length_c 8.066017
_cell_angle_alpha 66.933742
_cell_angle_beta 73.164165
_cell_angle_gamma 87.746203
_cell_volume 546.279449
_symmetry_space_group_name_H-M "P -1"
_symmetry_group_IT_number 2
_symmetry_cell_setting 'triclinic'
loop_
_space_group_symop_operation_xyz
x,y,z
-x,-y,-z
loop_
_atom_site_type_symbol
_atom_site_label
_atom_site_fract_x
_atom_site_fract_y
_atom_site_fract_z
Si Si1 0.841933 0.146116 0.359319
Si Si2 0.387122 0.115261 0.591539
Si Si3 0.334581 0.294473 0.116953
Si Si4 0.988992 0.252044 0.931302
Si Si5 0.041261 0.396942 0.358939
Si Si6 0.425145 0.616752 0.732521
Si Si7 0.755292 0.974107 0.005965
O O1 0.713941 0.279914 0.317350
O O2 0.937712 0.210987 0.458538
O O3 0.763351 0.949232 0.431338
O O4 0.953826 0.189430 0.153708
O O5 0.449152 0.322467 0.471616
O O6 0.377278 0.045354 0.810161
O O7 0.500000 0.000000 0.500000
O O8 0.206525 0.367254 0.248728
O O9 0.485452 0.307836 0.163939
O O10 0.365805 0.421011 0.893414
O O11 0.286333 0.101695 0.129709
O O12 0.009494 0.461003 0.814963
O O13 0.136124 0.156980 0.886275
O O14 0.848147 0.166097 0.908616
O O15 0.000000 0.500000 0.500000
#
# Coordination Sequence:
#
# PCOD9092857 Si02
#       7
#     2   2   2   2   2   2   2
#     4  10  19  43  66  86 122 165 206 253 308 368
#     4   9  21  40  62  95 122 164 206 252 303 374
#     4  11  23  42  61  95 128 162 203 258 308 364
#     4  10  20  39  65  92 122 163 207 251 316 368
#     4  12  25  40  64  95 125 160 210 259 308 359
#     4  10  22  41  62  86 131 164 203 246 310 369
#     4  10  21  38  67  94 120 161 211 254 306 363
#
# _framework density 25.627908999999999
#
# number of rings (size 3 to 8) (size 9 to 14) (size 15 to 20)
#    0.000    1.714    2.857    1.286    2.000    1.714 
#   10.286    7.857    0.000    0.000    0.000    0.000 
#    0.000    0.000    0.000    0.000    0.000    0.000 
#
# Total GULP energy -78135.518881 kJ/mol
# GULP energy per Si atom -5581.108492 kJ/mol
# Density = 2.556958 g / cm^3
# Si number density = 25.627909 Si / 1000 Ang^3
#
#
#
# Elastic Constant Matrix: (Units=GPa)
#
#
# Indices 1 2 3 4 5 6 
#
# 1 79.9607 24.5470 16.1687 4.5500 -15.5165 17.8960
# 2 24.5470 95.5246 28.3157 9.4417 -18.5765 33.7274
# 3 16.1687 28.3157 93.4274 6.5311 -19.2681 4.1279
# 4 4.5500 9.4417 6.5311 55.6712 0.4109 7.6697
# 5 -15.5165 -18.5765 -19.2681 0.4109 25.1356 -2.8774
# 6 17.8960 33.7274 4.1279 7.6697 -2.8774 45.9984
#
#
#
# Elastic Compliance Matrix: (Units=1/GPa)
#
#
# Indices 1 2 3 4 5 6 
#
# 1 0.015518 -0.000331 -0.000615 -0.000493 0.008282 -0.005139
# 2 -0.000331 0.017352 -0.002711 -0.001068 0.009232 -0.011595
# 3 -0.000615 -0.002711 0.013307 -0.001353 0.008041 0.001762
# 4 -0.000493 -0.001068 -0.001353 0.018663 -0.002686 -0.002183
# 5 0.008282 0.009232 0.008041 -0.002686 0.057162 -0.006689
# 6 -0.005139 -0.011595 0.001762 -0.002183 -0.006689 0.032029
#
#
# Mechanical properties :
#
#
# Convention : Reuss Voigt Hill
#
# Bulk Modulus (GPa) = 25.73263 45.21950 35.47606
# Shear Modulus (GPa) = 28.68632 38.68646 33.68639
#
# Velocity S-wave (km/s) = 3.34928 3.88950 3.62946
# Velocity P-wave (km/s) = 5.00196 6.15255 5.60685
#
# Compressibility (1/GPa) = 0.03886116
#
# Stress axis : x y z
#
# Youngs Moduli (GPa) = 64.44260 57.63009 75.15038
#
# Poissons Ratio (x) = 0.01910 0.04625
# Poissons Ratio (y) = 0.02136 0.20371
# Poissons Ratio (z) = 0.03966 0.15622
#
# Static dielectric constant tensor:
#      x y z
#    x 2.119690 -0.023770 -0.045470 
#    y -0.023770 2.084050 0.021960 
#    z -0.045470 0.021960 2.118830 
# 
# From -- ./inp_files/157249.got.cif
#   From: 2010.05.17/outbox.cif.g08.bks.cpg/sg2_79_cif.got.tgz:157249.got - 2010.06.03 11:33:40.
