data_PCOD9092038
_publ_section_title
;
Structure prediction by ZEFSAII (Michael W. Deem and Ramdas Pophale) SiO2 
 PCOD9092038
Probable space group: P -1
;
_chemical_formula_sum "Si O2"
_cell_formula_units_Z 16
_cell_length_a 11.406012
_cell_length_b 8.792833
_cell_length_c 14.153802
_cell_angle_alpha 130.465546
_cell_angle_beta 133.839426
_cell_angle_gamma 71.035422
_cell_volume 758.627646
_symmetry_space_group_name_H-M "P -1"
_symmetry_group_IT_number 2
_symmetry_cell_setting 'triclinic'
loop_
_space_group_symop_operation_xyz
x,y,z
-x,-y,-z
loop_
_atom_site_type_symbol
_atom_site_label
_atom_site_fract_x
_atom_site_fract_y
_atom_site_fract_z
Si Si1 0.718364 0.171370 0.933260
Si Si2 0.103812 0.871707 0.441691
Si Si3 0.599187 0.623717 0.466641
Si Si4 0.397853 0.185764 0.641749
Si Si5 0.324379 0.284692 0.241528
Si Si6 0.992608 0.527854 0.893983
Si Si7 0.237167 0.556396 0.749143
Si Si8 0.154820 0.625954 0.536138
O O1 0.546415 0.140074 0.767782
O O2 0.744054 0.957505 0.903964
O O3 0.862092 0.288139 0.989920
O O4 0.716965 0.319017 0.080551
O O5 0.208381 0.776964 0.540001
O O6 0.002724 0.680262 0.245947
O O7 0.229722 0.017844 0.501108
O O8 0.000000 0.000000 0.500000
O O9 0.560516 0.780643 0.431959
O O10 0.468095 0.403933 0.299898
O O11 0.599700 0.695402 0.602611
O O12 0.780957 0.580848 0.530095
O O13 0.357919 0.403176 0.737951
O O14 0.179667 0.408904 0.202548
O O15 0.000000 0.500000 0.000000
O O16 0.229393 0.695263 0.708059
O O17 0.045583 0.425371 0.595643
#
# Coordination Sequence:
#
# PCOD9092038 Si02
#       8
#     2   2   2   2   2   2   2   2
#     4  12  24  42  66 100 132 173 219 275 340 395
#     4  12  23  43  68 101 130 178 223 271 328 408
#     4  10  22  42  65  92 130 175 223 273 314 399
#     4  11  24  40  68  97 132 174 223 270 335 391
#     4  11  24  43  66  90 133 174 222 269 334 389
#     4  12  27  45  65  99 144 170 219 282 340 393
#     4  10  21  40  65  94 132 169 218 278 326 392
#     4  10  19  40  65  90 126 174 217 269 323 388
#
# _framework density 21.090716
#
# number of rings (size 3 to 8) (size 9 to 14) (size 15 to 20)
#    0.000    1.000    3.750    2.250    3.500    1.500 
#    0.000    6.875    0.000    0.000    0.000    0.000 
#    0.000    0.000    0.000    0.000    0.000    0.000 
#
# Total GULP energy -89368.119202 kJ/mol
# GULP energy per Si atom -5585.507450 kJ/mol
# Density = 2.104271 g / cm^3
# Si number density = 21.090716 Si / 1000 Ang^3
#
#
#
# Elastic Constant Matrix: (Units=GPa)
#
#
# Indices 1 2 3 4 5 6 
#
# 1 76.1064 33.1092 28.4682 2.6698 0.4400 17.6620
# 2 33.1092 105.1005 38.5199 -0.0703 -14.8567 14.7941
# 3 28.4682 38.5199 55.1742 0.5217 1.9599 4.8228
# 4 2.6698 -0.0703 0.5217 28.5603 7.7998 1.4316
# 5 0.4400 -14.8567 1.9599 7.7998 29.9334 -4.9141
# 6 17.6620 14.7941 4.8228 1.4316 -4.9141 49.5934
#
#
#
# Elastic Compliance Matrix: (Units=1/GPa)
#
#
# Indices 1 2 3 4 5 6 
#
# 1 0.018147 -0.002693 -0.006963 -0.000834 -0.001773 -0.005134
# 2 -0.002693 0.015231 -0.009368 -0.001736 0.008370 -0.001794
# 3 -0.006963 -0.009368 0.028315 0.001815 -0.006576 0.001817
# 4 -0.000834 -0.001736 0.001815 0.038185 -0.011176 -0.001571
# 5 -0.001773 0.008370 -0.006576 -0.011176 0.041457 0.003204
# 6 -0.005134 -0.001794 0.001817 -0.001571 0.003204 0.022714
#
#
# Mechanical properties :
#
#
# Convention : Reuss Voigt Hill
#
# Bulk Modulus (GPa) = 42.29422 48.50839 45.40130
# Shear Modulus (GPa) = 23.81191 30.70302 27.25747
#
# Velocity S-wave (km/s) = 3.36374 3.81958 3.59889
# Velocity P-wave (km/s) = 5.93155 6.51936 6.23239
#
# Compressibility (1/GPa) = 0.02364390
#
# Stress axis : x y z
#
# Youngs Moduli (GPa) = 55.10645 65.65504 35.31662
#
# Poissons Ratio (x) = 0.17681 0.24592
# Poissons Ratio (y) = 0.14841 0.33085
# Poissons Ratio (z) = 0.38373 0.61507
#
# Static dielectric constant tensor:
#      x y z
#    x 1.803450 0.017540 0.002160 
#    y 0.017540 1.782180 0.021530 
#    z 0.002160 0.021530 1.753470 
# 
# From -- ./inp_files/262340.got.cif
#   From: 2010.05.17/outbox.cif.g08.bks.cpg/sg2_132_cif.got.tgz:262340.got - 2010.06.03 11:33:40.
