data_PCOD9092402
_publ_section_title
;
Structure prediction by ZEFSAII (Michael W. Deem and Ramdas Pophale) SiO2 
 PCOD9092402
Probable space group: P -1
;
_chemical_formula_sum "Si O2"
_cell_formula_units_Z 16
_cell_length_a 10.078022
_cell_length_b 15.690848
_cell_length_c 23.670685
_cell_angle_alpha 161.988932
_cell_angle_beta 36.573319
_cell_angle_gamma 140.024250
_cell_volume 689.553907
_symmetry_space_group_name_H-M "P -1"
_symmetry_group_IT_number 2
_symmetry_cell_setting 'triclinic'
loop_
_space_group_symop_operation_xyz
x,y,z
-x,-y,-z
loop_
_atom_site_type_symbol
_atom_site_label
_atom_site_fract_x
_atom_site_fract_y
_atom_site_fract_z
Si Si1 0.624711 0.832251 0.012434
Si Si2 0.474223 0.078960 0.416009
Si Si3 0.648661 0.054154 0.929373
Si Si4 0.456168 0.267494 0.722786
Si Si5 0.165554 0.411830 0.814860
Si Si6 0.230590 0.001767 0.339394
Si Si7 0.765855 0.424764 0.354511
Si Si8 0.162389 0.533518 0.519241
O O1 0.512854 0.820393 0.982213
O O2 0.445574 0.919252 0.176556
O O3 0.775857 0.110337 0.131147
O O4 0.650545 0.504271 0.808078
O O5 0.361488 0.295751 0.633841
O O6 0.293819 0.978398 0.368654
O O7 0.660917 0.235365 0.414344
O O8 0.571403 0.843952 0.274827
O O9 0.727825 0.762066 0.697782
O O10 0.851009 0.272747 0.000825
O O11 0.500000 0.000000 0.000000
O O12 0.243146 0.389599 0.839779
O O13 0.500000 0.000000 0.500000
O O14 0.961552 0.209973 0.745763
O O15 0.162516 0.316157 0.545458
O O16 0.500000 0.500000 0.500000
O O17 0.900073 0.411234 0.359575
O O18 0.000000 0.500000 0.500000
#
# Coordination Sequence:
#
# PCOD9092402 Si02
#       8
#     2   2   2   2   2   2   2   2
#     4  10  20  39  66  88 118 172 216 248 318 376
#     4  11  21  41  60  90 128 164 201 267 324 371
#     4  11  21  40  66  91 126 168 216 261 312 390
#     4   9  22  39  58  86 125 164 203 259 321 370
#     4  10  23  38  64  89 123 171 213 251 318 375
#     4  11  21  37  65  93 122 162 216 262 308 382
#     4  10  19  41  63  90 124 164 209 263 316 371
#     4  12  24  39  66  98 124 161 214 272 321 373
#
# _framework density 23.203408
#
# number of rings (size 3 to 8) (size 9 to 14) (size 15 to 20)
#    0.000    1.500    6.250    0.375    1.750    3.500 
#    2.250    0.000    0.000    3.750    0.000    0.000 
#    0.000    0.000    0.000    0.000    0.000    0.000 
#
# Total GULP energy -89252.250026 kJ/mol
# GULP energy per Si atom -5578.265627 kJ/mol
# Density = 2.315060 g / cm^3
# Si number density = 23.203408 Si / 1000 Ang^3
#
#
#
# Elastic Constant Matrix: (Units=GPa)
#
#
# Indices 1 2 3 4 5 6 
#
# 1 142.6611 41.3930 24.0382 24.7812 12.7050 -17.8630
# 2 41.3930 79.4067 44.3474 42.8502 0.2136 -13.9996
# 3 24.0382 44.3474 112.2696 47.6275 20.8068 1.1387
# 4 24.7812 42.8502 47.6275 50.7267 4.6951 1.7255
# 5 12.7050 0.2136 20.8068 4.6951 34.6297 4.6942
# 6 -17.8630 -13.9996 1.1387 1.7255 4.6942 34.6887
#
#
#
# Elastic Compliance Matrix: (Units=1/GPa)
#
#
# Indices 1 2 3 4 5 6 
#
# 1 0.009084 -0.003354 0.001152 -0.002431 -0.004214 0.003978
# 2 -0.003354 0.029138 -0.002652 -0.021224 0.004082 0.010623
# 3 0.001152 -0.002652 0.017136 -0.013610 -0.008972 0.000852
# 4 -0.002431 -0.021224 -0.013610 0.051673 0.003885 -0.012467
# 5 -0.004214 0.004082 -0.008972 0.003885 0.035979 -0.005290
# 6 0.003978 0.010623 0.000852 -0.012467 -0.005290 0.036471
#
#
# Mechanical properties :
#
#
# Convention : Reuss Voigt Hill
#
# Bulk Modulus (GPa) = 21.90577 61.54383 41.72480
# Shear Modulus (GPa) = 24.46102 38.97960 31.72031
#
# Velocity S-wave (km/s) = 3.25037 4.10312 3.70138
# Velocity P-wave (km/s) = 4.85260 7.00204 6.02397
#
# Compressibility (1/GPa) = 0.04565008
#
# Stress axis : x y z
#
# Youngs Moduli (GPa) = 110.07855 34.31949 58.35682
#
# Poissons Ratio (x) = 0.11511 -0.06722
# Poissons Ratio (y) = 0.36922 0.15476
# Poissons Ratio (z) = -0.12680 0.09101
#
# Static dielectric constant tensor:
#      x y z
#    x 1.890990 0.054050 -0.028060 
#    y 0.054050 1.960120 0.009990 
#    z -0.028060 0.009990 1.771980 
# 
# From -- ./inp_files/508750.got.cif
#   From: 2010.05.17/outbox.cif.g08.bks.cpg/sg2_255_cif.got.tgz:508750.got - 2010.06.03 11:33:40.
