data_PCOD9092596
_publ_section_title
;
Structure prediction by ZEFSAII (Michael W. Deem and Ramdas Pophale) SiO2 
 PCOD9092596
Probable space group: P -1
;
_chemical_formula_sum "Si O2"
_cell_formula_units_Z 16
_cell_length_a 9.769938
_cell_length_b 9.581452
_cell_length_c 26.489485
_cell_angle_alpha 154.511073
_cell_angle_beta 134.293003
_cell_angle_gamma 53.608493
_cell_volume 758.258359
_symmetry_space_group_name_H-M "P -1"
_symmetry_group_IT_number 2
_symmetry_cell_setting 'triclinic'
loop_
_space_group_symop_operation_xyz
x,y,z
-x,-y,-z
loop_
_atom_site_type_symbol
_atom_site_label
_atom_site_fract_x
_atom_site_fract_y
_atom_site_fract_z
Si Si1 0.080028 0.212242 0.459883
Si Si2 0.254448 0.083869 0.650910
Si Si3 0.232321 0.715324 0.261812
Si Si4 0.007978 0.716508 0.022948
Si Si5 0.456402 0.712692 0.509750
Si Si6 0.577102 0.322830 0.255265
Si Si7 0.434594 0.070194 0.236582
Si Si8 0.702487 0.174307 0.129590
O O1 0.277115 0.376905 0.588570
O O2 0.000000 0.500000 0.500000
O O3 0.122949 0.901984 0.336738
O O4 0.927484 0.089969 0.423251
O O5 0.258100 0.457865 0.759913
O O6 0.282495 0.896529 0.544509
O O7 0.433290 0.055121 0.726196
O O8 0.083359 0.511502 0.119912
O O9 0.379430 0.467052 0.237276
O O10 0.366797 0.011592 0.365695
O O11 0.000000 0.500000 0.000000
O O12 0.871330 0.988943 0.090581
O O13 0.223989 0.874590 0.119009
O O14 0.500000 0.500000 0.500000
O O15 0.420514 0.453226 0.371005
O O16 0.534321 0.069557 0.207492
O O17 0.675224 0.181524 0.185513
O O18 0.500000 0.000000 0.000000
#
# Coordination Sequence:
#
# PCOD9092596 Si02
#       8
#     2   2   2   2   2   2   2   2
#     4  12  26  46  73 111 142 188 248 306 365 428
#     4  11  24  45  72 107 142 192 244 307 358 429
#     4  12  25  47  70 104 149 188 237 304 363 433
#     4  12  28  47  75 106 145 199 242 293 368 443
#     4  10  19  41  69  98 140 188 235 291 354 425
#     4  12  26  46  74 103 149 187 237 302 365 421
#     4  11  25  45  73 105 146 195 240 290 373 437
#     4  12  26  49  72 105 152 187 245 305 362 433
#
# _framework density 21.100987
#
# number of rings (size 3 to 8) (size 9 to 14) (size 15 to 20)
#    0.000    0.500    5.000    3.375    5.250    2.000 
#    0.000    1.875    0.000    0.000    0.000    0.000 
#    0.000    0.000    0.000    0.000    0.000    0.000 
#
# Total GULP energy -89542.685417 kJ/mol
# GULP energy per Si atom -5596.417839 kJ/mol
# Density = 2.105296 g / cm^3
# Si number density = 21.100987 Si / 1000 Ang^3
#
#
#
# Elastic Constant Matrix: (Units=GPa)
#
#
# Indices 1 2 3 4 5 6 
#
# 1 130.3618 8.3082 63.5501 -3.7242 16.3820 7.9435
# 2 8.3082 25.1120 8.6222 -6.6358 4.6448 10.7328
# 3 63.5501 8.6222 114.3618 -18.4511 -2.2603 10.2040
# 4 -3.7242 -6.6358 -18.4511 41.3297 1.8387 4.5074
# 5 16.3820 4.6448 -2.2603 1.8387 40.1718 5.7056
# 6 7.9435 10.7328 10.2040 4.5074 5.7056 30.3753
#
#
#
# Elastic Compliance Matrix: (Units=1/GPa)
#
#
# Indices 1 2 3 4 5 6 
#
# 1 0.011633 -0.001606 -0.006893 -0.002185 -0.005003 0.001105
# 2 -0.001606 0.051678 0.000317 0.010495 -0.003095 -0.018922
# 3 -0.006893 0.000317 0.014015 0.006018 0.003948 -0.004652
# 4 -0.002185 0.010495 0.006018 0.029409 0.000023 -0.009527
# 5 -0.005003 -0.003095 0.003948 0.000023 0.028110 -0.004208
# 6 0.001105 -0.018922 -0.004652 -0.009527 -0.004208 0.043085
#
#
# Mechanical properties :
#
#
# Convention : Reuss Voigt Hill
#
# Bulk Modulus (GPa) = 16.40414 47.86628 32.13521
# Shear Modulus (GPa) = 23.29771 34.99904 29.14837
#
# Velocity S-wave (km/s) = 3.32641 4.07706 3.72072
# Velocity P-wave (km/s) = 4.74809 6.70051 5.80695
#
# Compressibility (1/GPa) = 0.06096021
#
# Stress axis : x y z
#
# Youngs Moduli (GPa) = 85.96595 19.35076 71.35333
#
# Poissons Ratio (x) = 0.03108 0.49184
# Poissons Ratio (y) = 0.13808 -0.02261
# Poissons Ratio (z) = 0.59256 -0.00613
#
# Static dielectric constant tensor:
#      x y z
#    x 1.675070 -0.014610 0.052180 
#    y -0.014610 1.766810 0.001290 
#    z 0.052180 0.001290 1.640790 
# 
# From -- ./inp_files/279952.got.cif
#   From: 2010.05.17/outbox.cif.g08.bks.cpg/sg2_140_cif.got.tgz:279952.got - 2010.06.03 11:33:40.
