data_PCOD9092904
_publ_section_title
;
Structure prediction by ZEFSAII (Michael W. Deem and Ramdas Pophale) SiO2 
 PCOD9092904
Probable space group: P -1
;
_chemical_formula_sum "Si O2"
_cell_formula_units_Z 16
_cell_length_a 12.082371
_cell_length_b 11.286982
_cell_length_c 11.322432
_cell_angle_alpha 136.757936
_cell_angle_beta 103.252786
_cell_angle_gamma 111.166278
_cell_volume 628.743037
_symmetry_space_group_name_H-M "P -1"
_symmetry_group_IT_number 2
_symmetry_cell_setting 'triclinic'
loop_
_space_group_symop_operation_xyz
x,y,z
-x,-y,-z
loop_
_atom_site_type_symbol
_atom_site_label
_atom_site_fract_x
_atom_site_fract_y
_atom_site_fract_z
Si Si1 0.724258 0.119821 0.056676
Si Si2 0.395032 0.493889 0.567244
Si Si3 0.791266 0.273165 0.567570
Si Si4 0.090322 0.379718 0.379620
Si Si5 0.692679 0.773659 0.187581
Si Si6 0.796068 0.929441 0.576934
Si Si7 0.786363 0.274428 0.918099
Si Si8 0.222235 0.456080 0.075043
O O1 0.828944 0.420675 0.342380
O O2 0.869629 0.140561 0.140864
O O3 0.701098 0.120519 0.911412
O O4 0.530072 0.824021 0.849596
O O5 0.500000 0.500000 0.500000
O O6 0.192302 0.320046 0.351129
O O7 0.343411 0.341207 0.568082
O O8 0.835471 0.415622 0.559946
O O9 0.688732 0.297921 0.635876
O O10 0.696994 0.978288 0.304902
O O11 0.989707 0.465679 0.817296
O O12 0.820877 0.899558 0.426500
O O13 0.500000 0.500000 0.000000
O O14 0.721281 0.673049 0.017621
O O15 0.734104 0.055776 0.657290
O O16 0.005575 0.182377 0.861773
O O17 0.751504 0.416258 0.952110
#
# Coordination Sequence:
#
# PCOD9092904 Si02
#       8
#     2   2   2   2   2   2   2   2
#     4  10  23  45  69 103 133 191 238 287 357 419
#     4  12  26  44  68 104 143 184 237 291 352 426
#     4  10  22  45  67 101 141 173 236 286 349 421
#     4  10  25  45  71  99 139 191 232 295 353 421
#     4  12  27  41  65 109 140 180 230 290 356 420
#     4  11  23  45  67 102 138 176 237 287 348 419
#     4  10  19  43  74  95 133 182 234 287 345 418
#     4  11  23  44  75  98 133 191 229 291 351 414
#
# _framework density 25.447599
#
# number of rings (size 3 to 8) (size 9 to 14) (size 15 to 20)
#    0.000    1.250    3.750    1.500    3.500    5.000 
#    0.000    0.000    0.000    0.000    0.000    0.000 
#    0.000    0.000    0.000    0.000    0.000    0.000 
#
# Total GULP energy -89475.219134 kJ/mol
# GULP energy per Si atom -5592.201196 kJ/mol
# Density = 2.538968 g / cm^3
# Si number density = 25.447599 Si / 1000 Ang^3
#
#
#
# Elastic Constant Matrix: (Units=GPa)
#
#
# Indices 1 2 3 4 5 6 
#
# 1 118.2045 5.6016 32.8235 -6.2122 -18.1258 5.5453
# 2 5.6016 97.9744 18.4316 14.6173 -0.1283 1.7922
# 3 32.8235 18.4316 62.2885 15.2963 -9.7163 -13.3699
# 4 -6.2122 14.6173 15.2963 36.8170 2.3414 -1.1535
# 5 -18.1258 -0.1283 -9.7163 2.3414 44.6585 3.2924
# 6 5.5453 1.7922 -13.3699 -1.1535 3.2924 16.4256
#
#
#
# Elastic Compliance Matrix: (Units=1/GPa)
#
#
# Indices 1 2 3 4 5 6 
#
# 1 0.012891 0.000681 -0.010729 0.005712 0.003594 -0.013479
# 2 0.000681 0.011467 -0.004139 -0.002872 -0.000069 -0.005037
# 3 -0.010729 -0.004139 0.032611 -0.012871 0.001231 0.029467
# 4 0.005712 -0.002872 -0.012871 0.034422 -0.001606 -0.009353
# 5 0.003594 -0.000069 0.001231 -0.001606 0.024589 -0.005246
# 6 -0.013479 -0.005037 0.029467 -0.009353 -0.005246 0.090361
#
#
# Mechanical properties :
#
#
# Convention : Reuss Voigt Hill
#
# Bulk Modulus (GPa) = 34.97322 43.57564 39.27443
# Shear Modulus (GPa) = 20.47116 34.35428 27.41272
#
# Velocity S-wave (km/s) = 2.83935 3.67822 3.28567
# Velocity P-wave (km/s) = 4.95200 5.93295 5.46453
#
# Compressibility (1/GPa) = 0.02859331
#
# Stress axis : x y z
#
# Youngs Moduli (GPa) = 77.57554 87.20735 30.66483
#
# Poissons Ratio (x) = -0.05935 0.32902
# Poissons Ratio (y) = -0.05280 0.12691
# Poissons Ratio (z) = 0.83234 0.36092
#
# Static dielectric constant tensor:
#      x y z
#    x 2.086430 -0.089530 0.432470 
#    y -0.089530 1.891410 0.164860 
#    z 0.432470 0.164860 1.714560 
# 
# From -- ./inp_files/429089.got.cif
#   From: 2010.05.17/outbox.cif.g08.bks.cpg/sg2_215_cif.got.tgz:429089.got - 2010.06.03 11:33:40.
