data_PCOD9092781
_publ_section_title
;
Structure prediction by ZEFSAII (Michael W. Deem and Ramdas Pophale) SiO2 
 PCOD9092781
Probable space group: P -1
;
_chemical_formula_sum "Si O2"
_cell_formula_units_Z 12
_cell_length_a 8.784497
_cell_length_b 10.595153
_cell_length_c 7.888260
_cell_angle_alpha 119.425446
_cell_angle_beta 132.093730
_cell_angle_gamma 60.652005
_cell_volume 459.603170
_symmetry_space_group_name_H-M "P -1"
_symmetry_group_IT_number 2
_symmetry_cell_setting 'triclinic'
loop_
_space_group_symop_operation_xyz
x,y,z
-x,-y,-z
loop_
_atom_site_type_symbol
_atom_site_label
_atom_site_fract_x
_atom_site_fract_y
_atom_site_fract_z
Si Si1 0.750559 0.698836 0.899252
Si Si2 0.294257 0.483234 0.739276
Si Si3 0.626780 0.122037 0.112646
Si Si4 0.542540 0.161660 0.674019
Si Si5 0.046479 0.587280 0.326695
Si Si6 0.001027 0.082406 0.876861
O O1 0.502280 0.745736 0.778847
O O2 0.885724 0.711562 0.180706
O O3 0.846836 0.805252 0.921219
O O4 0.814524 0.528691 0.776302
O O5 0.362850 0.313771 0.604246
O O6 0.199229 0.605662 0.606156
O O7 0.112296 0.493375 0.747650
O O8 0.500000 0.500000 0.000000
O O9 0.577306 0.162250 0.904367
O O10 0.500000 0.000000 0.000000
O O11 0.876291 0.042325 0.247618
O O12 0.754722 0.164139 0.727773
O O13 0.500000 0.000000 0.500000
O O14 0.000000 0.000000 0.000000
#
# Coordination Sequence:
#
# PCOD9092781 Si02
#       6
#     2   2   2   2   2   2
#     4  10  19  42  69 104 137 174 232 286 351 403
#     4  11  24  45  68 103 136 185 236 280 344 421
#     4   9  19  38  65  93 132 173 212 289 340 402
#     4  11  23  41  65  97 133 177 235 279 338 409
#     4  10  23  41  72  96 139 187 225 289 343 416
#     4   9  20  37  65  95 132 180 219 283 339 413
#
# _framework density 26.109479
#
# number of rings (size 3 to 8) (size 9 to 14) (size 15 to 20)
#    0.000    2.000    1.667    1.000    7.000    0.000 
#    3.000   12.500    3.667    0.000    0.000    0.000 
#    0.000    0.000    0.000    0.000    0.000    0.000 
#
# Total GULP energy -67050.854722 kJ/mol
# GULP energy per Si atom -5587.571227 kJ/mol
# Density = 2.605005 g / cm^3
# Si number density = 26.109479 Si / 1000 Ang^3
#
#
#
# Elastic Constant Matrix: (Units=GPa)
#
#
# Indices 1 2 3 4 5 6 
#
# 1 167.7906 36.4521 10.9916 -5.6153 22.1731 -31.4636
# 2 36.4521 90.9515 5.2929 -7.8829 -3.2297 -22.4723
# 3 10.9916 5.2929 105.4523 -8.8785 -9.3872 12.7486
# 4 -5.6153 -7.8829 -8.8785 40.3530 10.3372 -4.2806
# 5 22.1731 -3.2297 -9.3872 10.3372 23.1674 -7.6253
# 6 -31.4636 -22.4723 12.7486 -4.2806 -7.6253 69.0502
#
#
#
# Elastic Compliance Matrix: (Units=1/GPa)
#
#
# Indices 1 2 3 4 5 6 
#
# 1 0.008520 -0.002816 -0.001650 0.003031 -0.009786 0.002378
# 2 -0.002816 0.013357 -0.000270 0.001242 0.005130 0.003757
# 3 -0.001650 -0.000270 0.010407 0.000547 0.004791 -0.002198
# 4 0.003031 0.001242 0.000547 0.029636 -0.015120 0.001852
# 5 -0.009786 0.005130 0.004791 -0.015120 0.062694 0.002312
# 6 0.002378 0.003757 -0.002198 0.001852 0.002312 0.017565
#
#
# Mechanical properties :
#
#
# Convention : Reuss Voigt Hill
#
# Bulk Modulus (GPa) = 43.83567 52.18530 48.01049
# Shear Modulus (GPa) = 31.39628 47.27798 39.33713
#
# Velocity S-wave (km/s) = 3.47145 4.25992 3.88573
# Velocity P-wave (km/s) = 5.73529 6.65029 6.20967
#
# Compressibility (1/GPa) = 0.02281247
#
# Stress axis : x y z
#
# Youngs Moduli (GPa) = 117.36901 74.86473 96.09143
#
# Poissons Ratio (x) = 0.21082 0.15856
# Poissons Ratio (y) = 0.33051 0.02593
# Poissons Ratio (z) = 0.19367 0.02020
#
# Static dielectric constant tensor:
#      x y z
#    x 1.996360 -0.004690 -0.000040 
#    y -0.004690 2.182190 0.008600 
#    z -0.000040 0.008600 2.184890 
# 
# From -- ./inp_files/165912.got.cif
#   From: 2010.05.17/outbox.cif.g08.bks.cpg/sg2_83_cif.got.tgz:165912.got - 2010.06.03 11:33:40.
