data_PCOD9092963
_publ_section_title
;
Structure prediction by ZEFSAII (Michael W. Deem and Ramdas Pophale) SiO2 
 PCOD9092963
Probable space group: P -1
;
_chemical_formula_sum "Si O2"
_cell_formula_units_Z 16
_cell_length_a 8.556767
_cell_length_b 9.780029
_cell_length_c 9.290345
_cell_angle_alpha 119.452606
_cell_angle_beta 100.959943
_cell_angle_gamma 58.894750
_cell_volume 577.518533
_symmetry_space_group_name_H-M "P -1"
_symmetry_group_IT_number 2
_symmetry_cell_setting 'triclinic'
loop_
_space_group_symop_operation_xyz
x,y,z
-x,-y,-z
loop_
_atom_site_type_symbol
_atom_site_label
_atom_site_fract_x
_atom_site_fract_y
_atom_site_fract_z
Si Si1 0.711809 0.846206 0.696797
Si Si2 0.472165 0.753287 0.772529
Si Si3 0.455695 0.297853 0.653894
Si Si4 0.121880 0.069373 0.475544
Si Si5 0.661365 0.349782 0.053976
Si Si6 0.737892 0.333359 0.553573
Si Si7 0.978950 0.666911 0.906015
Si Si8 0.759210 0.751886 0.189444
O O1 0.544438 0.885161 0.797121
O O2 0.643940 0.761516 0.511951
O O3 0.773655 0.966843 0.675884
O O4 0.888720 0.726418 0.765409
O O5 0.388319 0.780854 0.931987
O O6 0.642409 0.545946 0.684119
O O7 0.336458 0.734557 0.626671
O O8 0.345307 0.513966 0.750559
O O9 0.661982 0.254177 0.628960
O O10 0.423025 0.236542 0.771732
O O11 0.232175 0.096498 0.637041
O O12 0.945489 0.270621 0.524673
O O13 0.000000 0.000000 0.500000
O O14 0.868456 0.273177 0.995951
O O15 0.500000 0.500000 0.000000
O O16 0.087443 0.451647 0.840421
O O17 0.813653 0.754541 0.037458
#
# Coordination Sequence:
#
# PCOD9092963 Si02
#       8
#     2   2   2   2   2   2   2   2
#     4  10  20  35  55  77 108 146 193 231 277 333
#     4   9  18  31  53  85 112 142 180 233 293 336
#     4   8  18  33  49  78 109 145 180 223 277 334
#     4  11  23  38  56  80 112 157 200 233 270 332
#     4  10  20  28  46  82 125 146 171 212 291 358
#     4   9  17  32  56  80 111 143 185 234 283 333
#     4  10  20  33  57  87 115 150 176 235 300 338
#     4   9  20  34  53  86 116 141 190 226 293 334
#
# _framework density 27.704739
#
# number of rings (size 3 to 8) (size 9 to 14) (size 15 to 20)
#    0.000    2.500    0.000    2.250    8.750    8.000 
#    0.000    6.250    0.000    0.000    0.000    5.250 
#    0.000    0.000    0.000    0.000    0.000    0.000 
#
# Total GULP energy -89250.054252 kJ/mol
# GULP energy per Si atom -5578.128391 kJ/mol
# Density = 2.764168 g / cm^3
# Si number density = 27.704739 Si / 1000 Ang^3
#
#
#
# Elastic Constant Matrix: (Units=GPa)
#
#
# Indices 1 2 3 4 5 6 
#
# 1 168.7116 66.0472 63.9720 -20.2794 -28.7447 -0.1545
# 2 66.0472 88.0180 50.9293 -33.3283 -20.8882 26.1217
# 3 63.9720 50.9293 120.2672 -40.5610 -25.3629 14.1936
# 4 -20.2794 -33.3283 -40.5610 40.0719 8.0665 -8.2975
# 5 -28.7447 -20.8882 -25.3629 8.0665 55.8330 0.9635
# 6 -0.1545 26.1217 14.1936 -8.2975 0.9635 53.5683
#
#
#
# Elastic Compliance Matrix: (Units=1/GPa)
#
#
# Indices 1 2 3 4 5 6 
#
# 1 0.010274 -0.008418 -0.003905 -0.005056 0.001021 0.004368
# 2 -0.008418 0.027944 0.000272 0.016087 0.004115 -0.011305
# 3 -0.003905 0.000272 0.015609 0.012887 0.003360 -0.002344
# 4 -0.005056 0.016087 0.012887 0.047502 0.002475 -0.003960
# 5 0.001021 0.004115 0.003360 0.002475 0.021194 -0.002892
# 6 0.004368 -0.011305 -0.002344 -0.003960 -0.002892 0.024253
#
#
# Mechanical properties :
#
#
# Convention : Reuss Voigt Hill
#
# Bulk Modulus (GPa) = 33.64448 82.09932 57.87190
# Shear Modulus (GPa) = 27.65701 42.96452 35.31077
#
# Velocity S-wave (km/s) = 3.16298 3.94229 3.57394
# Velocity P-wave (km/s) = 5.05070 7.10072 6.16157
#
# Compressibility (1/GPa) = 0.02972256
#
# Stress axis : x y z
#
# Youngs Moduli (GPa) = 97.33455 35.78620 64.06756
#
# Poissons Ratio (x) = 0.30125 0.25022
# Poissons Ratio (y) = 0.81937 -0.01741
# Poissons Ratio (z) = 0.38014 -0.00973
#
# Static dielectric constant tensor:
#      x y z
#    x 2.328790 -0.036070 -0.021020 
#    y -0.036070 2.579220 0.066380 
#    z -0.021020 0.066380 2.200820 
# 
# From -- ./inp_files/181540.got.cif
#   From: 2010.05.17/outbox.cif.g08.bks.cpg/sg2_91_cif.got.tgz:181540.got - 2010.06.03 11:33:40.
