data_PCOD9092476
_publ_section_title
;
Structure prediction by ZEFSAII (Michael W. Deem and Ramdas Pophale) SiO2 
 PCOD9092476
Probable space group: P -1
;
_chemical_formula_sum "Si O2"
_cell_formula_units_Z 16
_cell_length_a 12.903949
_cell_length_b 14.137558
_cell_length_c 12.162810
_cell_angle_alpha 88.954589
_cell_angle_beta 131.389497
_cell_angle_gamma 49.792387
_cell_volume 800.620533
_symmetry_space_group_name_H-M "P -1"
_symmetry_group_IT_number 2
_symmetry_cell_setting 'triclinic'
loop_
_space_group_symop_operation_xyz
x,y,z
-x,-y,-z
loop_
_atom_site_type_symbol
_atom_site_label
_atom_site_fract_x
_atom_site_fract_y
_atom_site_fract_z
Si Si1 0.071878 0.746308 0.024662
Si Si2 0.740634 0.143344 0.228003
Si Si3 0.893185 0.082995 0.091264
Si Si4 0.268178 0.447769 0.062718
Si Si5 0.493844 0.632122 0.552053
Si Si6 0.902906 0.515910 0.706211
Si Si7 0.413436 0.158497 0.914783
Si Si8 0.470622 0.864259 0.247446
O O1 0.062607 0.847314 0.945639
O O2 0.066538 0.658099 0.943660
O O3 0.801992 0.909943 0.913188
O O4 0.371622 0.547902 0.305927
O O5 0.815795 0.145276 0.163639
O O6 0.457444 0.350195 0.088422
O O7 0.651110 0.089474 0.131639
O O8 0.000000 0.000000 0.500000
O O9 0.171182 0.846710 0.284436
O O10 0.642849 0.173475 0.856431
O O11 0.100248 0.450934 0.934107
O O12 0.477324 0.321714 0.317198
O O13 0.719725 0.541422 0.628056
O O14 0.690852 0.722034 0.503800
O O15 0.114456 0.357495 0.761235
O O16 0.393957 0.184140 0.770212
O O17 0.500000 0.000000 0.000000
#
# Coordination Sequence:
#
# PCOD9092476 Si02
#       8
#     2   2   2   2   2   2   2   2
#     4  10  22  39  59  97 118 160 214 242 312 366
#     4  10  19  41  66  87 126 164 203 263 313 359
#     4  11  22  41  62  90 127 162 204 261 308 360
#     4   9  22  39  60  93 119 160 211 251 309 365
#     4  10  21  39  62  90 122 159 204 256 306 356
#     4  11  21  41  64  85 130 163 198 263 309 363
#     4  10  23  42  61  93 124 163 213 249 313 380
#     4  11  23  40  62  88 127 164 202 256 312 365
#
# _framework density 19.984499
#
# number of rings (size 3 to 8) (size 9 to 14) (size 15 to 20)
#    0.750    1.000    2.500    1.875    0.000    1.500 
#    9.000    0.000    0.000    0.000    0.000    0.000 
#    0.000    0.000    0.000    0.000    0.000    0.000 
#
# Total GULP energy -89223.106762 kJ/mol
# GULP energy per Si atom -5576.444173 kJ/mol
# Density = 1.993901 g / cm^3
# Si number density = 19.984499 Si / 1000 Ang^3
#
#
#
# Elastic Constant Matrix: (Units=GPa)
#
#
# Indices 1 2 3 4 5 6 
#
# 1 91.5855 29.5750 8.5363 -10.5369 -8.8905 -20.3650
# 2 29.5750 81.2591 4.1195 -11.6289 -6.5048 -19.9030
# 3 8.5363 4.1195 58.7216 -3.5901 -9.7447 -2.3387
# 4 -10.5369 -11.6289 -3.5901 26.6954 -2.0612 -3.7078
# 5 -8.8905 -6.5048 -9.7447 -2.0612 23.1063 -5.1583
# 6 -20.3650 -19.9030 -2.3387 -3.7078 -5.1583 32.1269
#
#
#
# Elastic Compliance Matrix: (Units=1/GPa)
#
#
# Indices 1 2 3 4 5 6 
#
# 1 0.015649 -0.000907 0.000295 0.008176 0.009256 0.011809
# 2 -0.000907 0.018062 0.001575 0.010304 0.009314 0.013414
# 3 0.000295 0.001575 0.019027 0.004793 0.010061 0.004716
# 4 0.008176 0.010304 0.004793 0.049977 0.017087 0.020427
# 5 0.009256 0.009314 0.010061 0.017087 0.060603 0.024072
# 6 0.011809 0.013414 0.004716 0.020427 0.024072 0.053488
#
#
# Mechanical properties :
#
#
# Convention : Reuss Voigt Hill
#
# Bulk Modulus (GPa) = 18.29380 35.11418 26.70399
# Shear Modulus (GPa) = 21.44971 29.00807 25.22889
#
# Velocity S-wave (km/s) = 3.27971 3.81403 3.55691
# Velocity P-wave (km/s) = 4.84931 6.08314 5.50093
#
# Compressibility (1/GPa) = 0.05466333
#
# Stress axis : x y z
#
# Youngs Moduli (GPa) = 63.90041 55.36358 52.55767
#
# Poissons Ratio (x) = 0.05022 -0.01550
# Poissons Ratio (y) = 0.05796 -0.08276
# Poissons Ratio (z) = -0.01885 -0.08717
#
# Static dielectric constant tensor:
#      x y z
#    x 1.704130 -0.014250 0.009760 
#    y -0.014250 1.721490 0.011150 
#    z 0.009760 0.011150 1.721570 
# 
# From -- ./inp_files/431416.got.cif
#   From: 2010.05.17/outbox.cif.g08.bks.cpg/sg2_216_cif.got.tgz:431416.got - 2010.06.03 11:33:40.
