data_PCOD9092959
_publ_section_title
;
Structure prediction by ZEFSAII (Michael W. Deem and Ramdas Pophale) SiO2 
 PCOD9092959
Probable space group: P -1
;
_chemical_formula_sum "Si O2"
_cell_formula_units_Z 14
_cell_length_a 13.036978
_cell_length_b 20.710815
_cell_length_c 5.738851
_cell_angle_alpha 75.045985
_cell_angle_beta 73.476665
_cell_angle_gamma 19.710284
_cell_volume 500.793206
_symmetry_space_group_name_H-M "P -1"
_symmetry_group_IT_number 2
_symmetry_cell_setting 'triclinic'
loop_
_space_group_symop_operation_xyz
x,y,z
-x,-y,-z
loop_
_atom_site_type_symbol
_atom_site_label
_atom_site_fract_x
_atom_site_fract_y
_atom_site_fract_z
Si Si1 0.658958 0.655673 0.699970
Si Si2 0.071086 0.768090 0.355544
Si Si3 0.378380 0.165709 0.440693
Si Si4 0.366736 0.726216 0.099324
Si Si5 0.340965 0.332842 0.809359
Si Si6 0.879605 0.315527 0.100269
Si Si7 0.588916 0.863973 0.055421
O O1 0.564269 0.788009 0.631693
O O2 0.811540 0.558141 0.439673
O O3 0.399546 0.751994 0.821109
O O4 0.831125 0.554229 0.935628
O O5 0.101635 0.828620 0.215974
O O6 0.190165 0.688206 0.618201
O O7 0.206537 0.656012 0.135519
O O8 0.732021 0.935514 0.426921
O O9 0.244218 0.222893 0.723086
O O10 0.257535 0.214338 0.222402
O O11 0.391157 0.769243 0.238001
O O12 0.675425 0.500288 0.109986
O O13 0.472859 0.180790 0.863744
O O14 0.253779 0.094883 0.061267
#
# Coordination Sequence:
#
# PCOD9092959 Si02
#       7
#     2   2   2   2   2   2   2
#     4   8  16  25  35  44  51  55  65  75  83  85
#     4  10  20  27  35  40  51  59  66  71  81  89
#     4   8  14  27  34  43  49  58  66  74  79  89
#     4  10  20  25  37  41  52  55  67  72  83  87
#     4   8  16  26  36  43  50  56  67  74  80  87
#     4  10  20  28  34  41  51  59  65  71  82  90
#     4   8  14  28  35  42  50  59  65  73  80  89
#
# _framework density 27.955649999999999
#
# number of rings (size 3 to 8) (size 9 to 14) (size 15 to 20)
#    0.857    2.286    0.000    0.857    4.000    0.571 
#    0.000    2.143    0.000    0.000    0.000    0.000 
#    0.000    0.000    0.000    0.000    0.000    0.000 
#
# Total GULP energy -78066.263373 kJ/mol
# GULP energy per Si atom -5576.161669 kJ/mol
# Density = 2.789202 g / cm^3
# Si number density = 27.955650 Si / 1000 Ang^3
#
#
#
# Elastic Constant Matrix: (Units=GPa)
#
#
# Indices 1 2 3 4 5 6 
#
# 1 97.3081 11.1327 51.8089 -8.1436 -11.7081 19.1003
# 2 11.1327 69.0017 33.5015 2.3336 2.2207 -1.2195
# 3 51.8089 33.5015 314.7696 4.4539 26.4940 0.9342
# 4 -8.1436 2.3336 4.4539 36.1317 5.9130 -10.5875
# 5 -11.7081 2.2207 26.4940 5.9130 49.0666 -7.8393
# 6 19.1003 -1.2195 0.9342 -10.5875 -7.8393 38.6062
#
#
#
# Elastic Compliance Matrix: (Units=1/GPa)
#
#
# Indices 1 2 3 4 5 6 
#
# 1 0.013265 -0.001252 -0.002342 0.001175 0.003463 -0.005520
# 2 -0.001252 0.015432 -0.001429 -0.000838 0.000022 0.000916
# 3 -0.002342 -0.001429 0.003930 -0.000392 -0.002504 0.000402
# 4 0.001175 -0.000838 -0.000392 0.030527 -0.001971 0.007373
# 5 0.003463 0.000022 -0.002504 -0.001971 0.023198 0.002518
# 6 -0.005520 0.000916 0.000402 0.007373 0.002518 0.031186
#
#
# Mechanical properties :
#
#
# Convention : Reuss Voigt Hill
#
# Bulk Modulus (GPa) = 44.28462 74.88504 59.58483
# Shear Modulus (GPa) = 37.00660 50.40333 43.70496
#
# Velocity S-wave (km/s) = 3.64230 4.25075 3.95823
# Velocity P-wave (km/s) = 5.79343 7.13702 6.50004
#
# Compressibility (1/GPa) = 0.02258120
#
# Stress axis : x y z
#
# Youngs Moduli (GPa) = 75.38463 64.80013 254.47676
#
# Poissons Ratio (x) = 0.08113 0.59594
# Poissons Ratio (y) = 0.09438 0.36367
# Poissons Ratio (z) = 0.17654 0.09261
#
# Static dielectric constant tensor:
#      x y z
#    x 2.230790 -0.024840 -0.009380 
#    y -0.024840 2.290520 -0.029610 
#    z -0.009380 -0.029610 2.192960 
# 
# From -- ./inp_files/96323.got.cif
#   From: 2010.05.17/outbox.cif.g08.bks.cpg/sg2_49_cif.got.tgz:96323.got - 2010.06.03 11:33:40.
