data_PCOD9092529
_publ_section_title
;
Structure prediction by ZEFSAII (Michael W. Deem and Ramdas Pophale) SiO2 
 PCOD9092529
Probable space group: P -1
;
_chemical_formula_sum "Si O2"
_cell_formula_units_Z 13
_cell_length_a 12.201650
_cell_length_b 8.246702
_cell_length_c 8.784565
_cell_angle_alpha 73.227862
_cell_angle_beta 146.174023
_cell_angle_gamma 102.665002
_cell_volume 470.780858
_symmetry_space_group_name_H-M "P -1"
_symmetry_group_IT_number 2
_symmetry_cell_setting 'triclinic'
loop_
_space_group_symop_operation_xyz
x,y,z
-x,-y,-z
loop_
_atom_site_type_symbol
_atom_site_label
_atom_site_fract_x
_atom_site_fract_y
_atom_site_fract_z
Si Si1 0.954051 0.346051 0.672511
Si Si2 0.000000 0.000000 0.000000
Si Si3 0.128289 0.283722 0.423594
Si Si4 0.379530 0.149788 0.468321
Si Si5 0.422448 0.395020 0.203087
Si Si6 0.545012 0.866330 0.941242
Si Si7 0.743673 0.265677 0.142778
O O1 0.867167 0.512976 0.613490
O O2 0.872507 0.339489 0.409399
O O3 0.186965 0.373285 0.932251
O O4 0.928301 0.168951 0.774049
O O5 0.236415 0.041926 0.227452
O O6 0.212319 0.220353 0.376623
O O7 0.903311 0.229856 0.205680
O O8 0.255207 0.197429 0.729016
O O9 0.480205 0.296652 0.450233
O O10 0.526279 0.026323 0.765064
O O11 0.506461 0.295209 0.181745
O O12 0.426785 0.597387 0.141816
O O13 0.371224 0.878211 0.863490
#
# Coordination Sequence:
#
# PCOD9092529 Si02
#       7
#     2   1   2   2   2   2   2
#     4  10  19  41  67  96 126 174 218 267 324 388
#     4  10  22  40  64  96 130 164 224 258 326 390
#     4  11  24  43  68  97 137 168 219 273 325 391
#     4  11  25  42  66  99 136 174 214 273 333 376
#     4  10  21  39  66  94 128 174 222 264 323 391
#     4  12  22  41  69  96 132 174 221 268 318 393
#     4  11  21  40  70  97 124 178 223 262 327 391
#
# _framework density 27.613697999999999
#
# number of rings (size 3 to 8) (size 9 to 14) (size 15 to 20)
#    0.000    1.231    4.615    2.308    0.000    6.154 
#    0.000    3.846    0.000    0.000    0.000    0.000 
#    0.000    0.000    0.000    0.000    0.000    0.000 
#
# Total GULP energy -72656.980151 kJ/mol
# GULP energy per Si atom -5588.998473 kJ/mol
# Density = 2.755085 g / cm^3
# Si number density = 27.613698 Si / 1000 Ang^3
#
#
#
# Elastic Constant Matrix: (Units=GPa)
#
#
# Indices 1 2 3 4 5 6 
#
# 1 134.0264 35.5621 25.8993 -23.6171 -5.7792 -9.5598
# 2 35.5621 95.1588 26.8085 -48.9175 -13.0943 28.9148
# 3 25.8993 26.8085 126.8352 -33.6227 -16.0731 8.1708
# 4 -23.6171 -48.9175 -33.6227 52.4748 16.5745 -6.4522
# 5 -5.7792 -13.0943 -16.0731 16.5745 40.4222 -12.1035
# 6 -9.5598 28.9148 8.1708 -6.4522 -12.1035 49.8215
#
#
#
# Elastic Compliance Matrix: (Units=1/GPa)
#
#
# Indices 1 2 3 4 5 6 
#
# 1 0.009265 -0.005039 -0.001299 -0.001098 0.001138 0.005049
# 2 -0.005039 0.029713 0.002112 0.026692 -0.006171 -0.016600
# 3 -0.001299 0.002112 0.009842 0.007170 0.000890 -0.001944
# 4 -0.001098 0.026692 0.007170 0.050628 -0.013491 -0.013599
# 5 0.001138 -0.006171 0.000890 -0.013491 0.031662 0.009598
# 6 0.005049 -0.016600 -0.001944 -0.013599 0.009598 0.031564
#
#
# Mechanical properties :
#
#
# Convention : Reuss Voigt Hill
#
# Bulk Modulus (GPa) = 24.77202 59.17334 41.97268
# Shear Modulus (GPa) = 27.08812 46.39372 36.74092
#
# Velocity S-wave (km/s) = 3.13544 4.10335 3.65160
# Velocity P-wave (km/s) = 4.70089 6.62763 5.74560
#
# Compressibility (1/GPa) = 0.04036813
#
# Stress axis : x y z
#
# Youngs Moduli (GPa) = 107.93422 33.65496 101.60706
#
# Poissons Ratio (x) = 0.16958 0.13199
# Poissons Ratio (y) = 0.54385 -0.21458
# Poissons Ratio (z) = 0.14021 -0.07107
#
# Static dielectric constant tensor:
#      x y z
#    x 2.216190 0.054900 -0.071980 
#    y 0.054900 2.575170 -0.062280 
#    z -0.071980 -0.062280 2.252200 
# 
# From -- ./inp_files/146717.got.cif
#   From: 2010.05.17/outbox.cif.g08.bks.cpg/sg2_74_cif.got.tgz:146717.got - 2010.06.03 11:33:40.
