data_PCOD9092623
_publ_section_title
;
Structure prediction by ZEFSAII (Michael W. Deem and Ramdas Pophale) SiO2 
 PCOD9092623
Probable space group: P -1
;
_chemical_formula_sum "Si O2"
_cell_formula_units_Z 16
_cell_length_a 18.859676
_cell_length_b 14.160231
_cell_length_c 8.439453
_cell_angle_alpha 50.557060
_cell_angle_beta 48.970172
_cell_angle_gamma 22.281425
_cell_volume 641.576167
_symmetry_space_group_name_H-M "P -1"
_symmetry_group_IT_number 2
_symmetry_cell_setting 'triclinic'
loop_
_space_group_symop_operation_xyz
x,y,z
-x,-y,-z
loop_
_atom_site_type_symbol
_atom_site_label
_atom_site_fract_x
_atom_site_fract_y
_atom_site_fract_z
Si Si1 0.615838 0.561759 0.118174
Si Si2 0.458665 0.241176 0.450877
Si Si3 0.178298 0.426281 0.281641
Si Si4 0.699832 0.345481 0.901391
Si Si5 0.707886 0.819691 0.285198
Si Si6 0.178768 0.155997 0.470621
Si Si7 0.165007 0.116679 0.179598
Si Si8 0.040427 0.856777 0.728321
O O1 0.687042 0.487537 0.670469
O O2 0.679739 0.630256 0.920942
O O3 0.698530 0.385891 0.042428
O O4 0.385413 0.815168 0.183549
O O5 0.381847 0.194325 0.660282
O O6 0.573985 0.073989 0.297862
O O7 0.607828 0.119593 0.492289
O O8 0.216076 0.333008 0.504186
O O9 0.181137 0.301793 0.305247
O O10 0.963050 0.719643 0.310453
O O11 0.740626 0.385283 0.276450
O O12 0.886897 0.060718 0.874656
O O13 0.500000 0.500000 0.000000
O O14 0.826076 0.762812 0.048143
O O15 0.113981 0.180137 0.371628
O O16 0.019913 0.202313 0.197996
O O17 0.000000 0.000000 0.500000
#
# Coordination Sequence:
#
# PCOD9092623 Si02
#       8
#     2   2   2   2   2   2   2   2
#     4  12  26  49  77 104 143 194 244 292 365 428
#     4  10  20  39  70 103 137 192 232 294 354 430
#     4  10  23  44  70 110 144 189 234 295 359 444
#     4  12  24  48  77 104 138 200 245 293 354 427
#     4  10  19  41  71 103 148 175 235 293 364 427
#     4  10  25  40  70 108 148 186 237 291 368 432
#     4  12  26  49  72 110 147 191 233 304 364 427
#     4  12  32  50  70 108 148 188 248 305 354 419
#
# _framework density 24.938582
#
# number of rings (size 3 to 8) (size 9 to 14) (size 15 to 20)
#    0.000    1.000    3.750    1.875   10.500    4.000 
#    0.000    0.000    0.000    0.000    0.000    0.000 
#    0.000    0.000    0.000    0.000    0.000    0.000 
#
# Total GULP energy -89554.334470 kJ/mol
# GULP energy per Si atom -5597.145904 kJ/mol
# Density = 2.488182 g / cm^3
# Si number density = 24.938582 Si / 1000 Ang^3
#
#
#
# Elastic Constant Matrix: (Units=GPa)
#
#
# Indices 1 2 3 4 5 6 
#
# 1 96.1085 16.6214 0.1730 -1.2854 14.4809 0.5592
# 2 16.6214 65.8741 18.3706 1.1143 19.8680 7.2723
# 3 0.1730 18.3706 49.4285 -15.2844 4.2200 2.6649
# 4 -1.2854 1.1143 -15.2844 37.5031 -3.8714 14.3602
# 5 14.4809 19.8680 4.2200 -3.8714 32.9667 -2.6549
# 6 0.5592 7.2723 2.6649 14.3602 -2.6549 33.0098
#
#
#
# Elastic Compliance Matrix: (Units=1/GPa)
#
#
# Indices 1 2 3 4 5 6 
#
# 1 0.011350 -0.002012 0.001306 0.000772 -0.003890 -0.000503
# 2 -0.002012 0.022079 -0.008229 -0.004033 -0.012115 -0.003386
# 3 0.001306 -0.008229 0.027918 0.014383 0.001972 -0.006562
# 4 0.000772 -0.004033 0.014383 0.039640 0.003516 -0.017247
# 5 -0.003890 -0.012115 0.001972 0.003516 0.039847 0.004251
# 6 -0.000503 -0.003386 -0.006562 -0.017247 0.004251 0.039423
#
#
# Mechanical properties :
#
#
# Convention : Reuss Voigt Hill
#
# Bulk Modulus (GPa) = 23.00081 31.30455 27.15268
# Shear Modulus (GPa) = 23.51620 32.44566 27.98093
#
# Velocity S-wave (km/s) = 3.07410 3.61088 3.35325
# Velocity P-wave (km/s) = 4.67367 5.47399 5.08958
#
# Compressibility (1/GPa) = 0.04347674
#
# Stress axis : x y z
#
# Youngs Moduli (GPa) = 88.10616 45.29156 35.81907
#
# Poissons Ratio (x) = 0.09115 -0.04679
# Poissons Ratio (y) = 0.17731 0.29476
# Poissons Ratio (z) = -0.11509 0.37271
#
# Static dielectric constant tensor:
#      x y z
#    x 1.984890 -0.065910 -0.008440 
#    y -0.065910 2.109980 0.022360 
#    z -0.008440 0.022360 1.980530 
# 
# From -- ./inp_files/346846.got.cif
#   From: 2010.05.17/outbox.cif.g08.bks.cpg/sg2_174_cif.got.tgz:346846.got - 2010.06.03 11:33:40.
