data_PCOD9092847
_publ_section_title
;
Structure prediction by ZEFSAII (Michael W. Deem and Ramdas Pophale) SiO2 
 PCOD9092847
Probable space group: P -1
;
_chemical_formula_sum "Si O2"
_cell_formula_units_Z 16
_cell_length_a 13.614754
_cell_length_b 13.962029
_cell_length_c 11.004357
_cell_angle_alpha 109.161172
_cell_angle_beta 92.208488
_cell_angle_gamma 148.618761
_cell_volume 783.650427
_symmetry_space_group_name_H-M "P -1"
_symmetry_group_IT_number 2
_symmetry_cell_setting 'triclinic'
loop_
_space_group_symop_operation_xyz
x,y,z
-x,-y,-z
loop_
_atom_site_type_symbol
_atom_site_label
_atom_site_fract_x
_atom_site_fract_y
_atom_site_fract_z
Si Si1 0.001453 0.640713 0.778309
Si Si2 0.877016 0.196933 0.406519
Si Si3 0.887409 0.475583 0.228550
Si Si4 0.592866 0.363468 0.792107
Si Si5 0.701883 0.570731 0.448425
Si Si6 0.003563 0.759317 0.169001
Si Si7 0.324325 0.224448 0.513480
Si Si8 0.594699 0.881155 0.862057
O O1 0.023670 0.647154 0.638864
O O2 0.067582 0.598295 0.829220
O O3 0.747032 0.443634 0.734512
O O4 0.211488 0.921690 0.938847
O O5 0.908681 0.292476 0.569119
O O6 0.058697 0.271937 0.456134
O O7 0.600886 0.893618 0.258065
O O8 0.623193 0.244161 0.183911
O O9 0.901664 0.566272 0.155512
O O10 0.438964 0.298168 0.677694
O O11 0.792885 0.594581 0.994642
O O12 0.542445 0.423508 0.504308
O O13 0.757921 0.736854 0.477662
O O14 0.533590 0.349671 0.251973
O O15 0.106318 0.942554 0.341222
O O16 0.241389 0.950682 0.180792
#
# Coordination Sequence:
#
# PCOD9092847 Si02
#       8
#     2   2   2   2   2   2   2   2
#     4  11  23  39  59  91 123 159 206 247 299 356
#     4  11  22  39  59  90 124 158 203 252 293 362
#     4  11  22  38  63  86 122 168 198 247 304 352
#     4  11  23  39  63  89 127 157 200 251 295 362
#     4   9  20  39  67  85 118 165 195 244 316 351
#     4  10  22  41  61  91 125 157 204 244 301 358
#     4  10  19  43  64  88 124 159 195 254 302 355
#     4   9  21  39  60  86 121 156 200 255 289 362
#
# _framework density 20.417266999999999
#
# number of rings (size 3 to 8) (size 9 to 14) (size 15 to 20)
#    0.000    1.750    2.500    1.500    0.000    4.000 
#    2.250    3.125    0.000    0.000    0.000    0.000 
#    0.000    0.000    0.000    0.000    0.000    0.000 
#
# Total GULP energy -89350.218201 kJ/mol
# GULP energy per Si atom -5584.388638 kJ/mol
# Density = 2.037080 g / cm^3
# Si number density = 20.417267 Si / 1000 Ang^3
#
#
#
# Elastic Constant Matrix: (Units=GPa)
#
#
# Indices 1 2 3 4 5 6 
#
# 1 42.0401 13.9169 13.0077 6.1462 0.0963 -13.4214
# 2 13.9169 65.8364 34.1342 6.1135 4.8328 -11.9321
# 3 13.0077 34.1342 80.4253 0.1695 4.5129 -10.2991
# 4 6.1462 6.1135 0.1695 35.6968 3.3483 7.3942
# 5 0.0963 4.8328 4.5129 3.3483 12.8699 -4.5298
# 6 -13.4214 -11.9321 -10.2991 7.3942 -4.5298 20.8375
#
#
#
# Elastic Compliance Matrix: (Units=1/GPa)
#
#
# Indices 1 2 3 4 5 6 
#
# 1 0.036306 -0.000792 -0.002532 -0.013675 0.014954 0.029783
# 2 -0.000792 0.021755 -0.007790 -0.005574 -0.000471 0.009973
# 3 -0.002532 -0.007790 0.016407 0.001830 -0.003036 0.000708
# 4 -0.013675 -0.005574 0.001830 0.039104 -0.018851 -0.029070
# 5 0.014954 -0.000471 -0.003036 -0.018851 0.096218 0.035467
# 6 0.029783 0.009973 0.000708 -0.029070 0.035467 0.091260
#
#
# Mechanical properties :
#
#
# Convention : Reuss Voigt Hill
#
# Bulk Modulus (GPa) = 19.14242 34.49106 26.81674
# Shear Modulus (GPa) = 14.67604 22.36369 18.51987
#
# Velocity S-wave (km/s) = 2.68396 3.31317 3.01503
# Velocity P-wave (km/s) = 4.35899 5.61835 5.02826
#
# Compressibility (1/GPa) = 0.05224000
#
# Stress axis : x y z
#
# Youngs Moduli (GPa) = 27.54372 45.96635 60.95021
#
# Poissons Ratio (x) = 0.03639 0.15435
# Poissons Ratio (y) = 0.02180 0.47480
# Poissons Ratio (z) = 0.06975 0.35808
#
# Static dielectric constant tensor:
#      x y z
#    x 1.689330 0.017950 -0.022780 
#    y 0.017950 1.745970 -0.007390 
#    z -0.022780 -0.007390 1.740660 
# 
# From -- ./inp_files/272042.got.cif
#   From: 2010.05.17/outbox.cif.g08.bks.cpg/sg2_137_cif.got.tgz:272042.got - 2010.06.03 11:33:40.
