data_PCOD9092274
_publ_section_title
;
Structure prediction by ZEFSAII (Michael W. Deem and Ramdas Pophale) SiO2 
 PCOD9092274
Probable space group: P -1
;
_chemical_formula_sum "Si O2"
_cell_formula_units_Z 16
_cell_length_a 11.684929
_cell_length_b 13.267604
_cell_length_c 7.869779
_cell_angle_alpha 83.194633
_cell_angle_beta 94.456849
_cell_angle_gamma 33.702094
_cell_volume 636.872091
_symmetry_space_group_name_H-M "P -1"
_symmetry_group_IT_number 2
_symmetry_cell_setting 'triclinic'
loop_
_space_group_symop_operation_xyz
x,y,z
-x,-y,-z
loop_
_atom_site_type_symbol
_atom_site_label
_atom_site_fract_x
_atom_site_fract_y
_atom_site_fract_z
Si Si1 0.790378 0.469447 0.792740
Si Si2 0.952954 0.298945 0.206892
Si Si3 0.141894 0.777584 0.328487
Si Si4 0.349186 0.861865 0.787754
Si Si5 0.020413 0.466352 0.212439
Si Si6 0.522433 0.873252 0.109652
Si Si7 0.451355 0.441793 0.671286
Si Si8 0.647832 0.095016 0.591002
O O1 0.874929 0.328900 0.691756
O O2 0.547200 0.638753 0.804527
O O3 0.824017 0.558849 0.712876
O O4 0.938735 0.332008 0.999673
O O5 0.067860 0.314390 0.291544
O O6 0.711699 0.473974 0.220697
O O7 0.092739 0.094356 0.303692
O O8 0.308045 0.642815 0.534256
O O9 0.305854 0.702621 0.223550
O O10 0.894981 0.999893 0.261559
O O11 0.417785 0.872103 0.962185
O O12 0.355034 0.926410 0.604432
O O13 0.777208 0.664965 0.207065
O O14 0.000000 0.500000 0.000000
O O15 0.422693 0.932968 0.271207
O O16 0.500000 0.000000 0.000000
O O17 0.516869 0.295795 0.587618
#
# Coordination Sequence:
#
# PCOD9092274 Si02
#       8
#     2   2   2   2   2   2   2   2
#     4  11  23  44  70 101 139 182 232 286 352 416
#     4  11  22  44  69  99 142 181 228 291 352 418
#     4  11  25  44  69  98 137 183 231 297 353 402
#     4  12  24  44  71 103 139 180 239 285 341 423
#     4  10  19  40  69  92 142 186 209 282 355 403
#     4  12  24  44  68 103 149 185 226 289 346 413
#     4  11  24  46  67  98 140 179 234 296 349 409
#     4  12  25  43  73 103 136 186 236 284 350 413
#
# _framework density 25.122786000000001
#
# number of rings (size 3 to 8) (size 9 to 14) (size 15 to 20)
#    0.000    0.750    6.250    3.000    0.000    2.500 
#    0.000    5.625    0.000    0.000    0.000    0.000 
#    0.000    0.000    0.000    0.000    0.000    0.000 
#
# Total GULP energy -89257.610166 kJ/mol
# GULP energy per Si atom -5578.600635 kJ/mol
# Density = 2.506561 g / cm^3
# Si number density = 25.122786 Si / 1000 Ang^3
#
#
#
# Elastic Constant Matrix: (Units=GPa)
#
#
# Indices 1 2 3 4 5 6 
#
# 1 76.6449 14.1836 1.2170 6.9335 2.8206 -23.4567
# 2 14.1836 140.4965 4.7613 -14.5389 7.8580 -30.6509
# 3 1.2170 4.7613 37.3002 1.9619 0.5310 -6.8088
# 4 6.9335 -14.5389 1.9619 40.2552 -6.4811 -4.1573
# 5 2.8206 7.8580 0.5310 -6.4811 22.7662 -5.5661
# 6 -23.4567 -30.6509 -6.8088 -4.1573 -5.5661 40.9970
#
#
#
# Elastic Compliance Matrix: (Units=1/GPa)
#
#
# Indices 1 2 3 4 5 6 
#
# 1 0.016011 0.000194 0.001249 -0.001844 -0.000336 0.009281
# 2 0.000194 0.009114 -0.000045 0.003972 -0.000257 0.007286
# 3 0.001249 -0.000045 0.027778 -0.001014 0.000200 0.005218
# 4 -0.001844 0.003972 -0.001014 0.028600 0.008439 0.005792
# 5 -0.000336 -0.000257 0.000200 0.008439 0.048175 0.007045
# 6 0.009281 0.007286 0.005218 0.005792 0.007045 0.037559
#
#
# Mechanical properties :
#
#
# Convention : Reuss Voigt Hill
#
# Bulk Modulus (GPa) = 17.95398 32.75172 25.35285
# Shear Modulus (GPa) = 27.32116 36.42232 31.87174
#
# Velocity S-wave (km/s) = 3.30131 3.81172 3.56566
# Velocity P-wave (km/s) = 4.65763 5.69537 5.20244
#
# Compressibility (1/GPa) = 0.05569795
#
# Stress axis : x y z
#
# Youngs Moduli (GPa) = 62.45746 109.71682 36.00024
#
# Poissons Ratio (x) = -0.02128 -0.04495
# Poissons Ratio (y) = -0.01211 0.00162
# Poissons Ratio (z) = -0.07799 0.00495
#
# Static dielectric constant tensor:
#      x y z
#    x 1.937980 0.298370 -0.008740 
#    y 0.298370 1.333460 0.064500 
#    z -0.008740 0.064500 2.044430 
# 
# From -- ./inp_files/272889.got.cif
#   From: 2010.05.17/outbox.cif.g08.bks.cpg/sg2_137_cif.got.tgz:272889.got - 2010.06.03 11:33:40.
