data_PCOD9092562
_publ_section_title
;
Structure prediction by ZEFSAII (Michael W. Deem and Ramdas Pophale) SiO2 
 PCOD9092562
Probable space group: P -1
;
_chemical_formula_sum "Si O2"
_cell_formula_units_Z 15
_cell_length_a 9.147534
_cell_length_b 9.812367
_cell_length_c 12.189359
_cell_angle_alpha 51.424731
_cell_angle_beta 92.782767
_cell_angle_gamma 65.230822
_cell_volume 698.807435
_symmetry_space_group_name_H-M "P -1"
_symmetry_group_IT_number 2
_symmetry_cell_setting 'triclinic'
loop_
_space_group_symop_operation_xyz
x,y,z
-x,-y,-z
loop_
_atom_site_type_symbol
_atom_site_label
_atom_site_fract_x
_atom_site_fract_y
_atom_site_fract_z
Si Si1 0.575511 0.746662 0.009313
Si Si2 0.024279 0.578446 0.845562
Si Si3 0.217896 0.515649 0.224202
Si Si4 0.000000 0.000000 0.000000
Si Si5 0.176468 0.968799 0.475675
Si Si6 0.625713 0.130083 0.839593
Si Si7 0.498712 0.728034 0.471163
Si Si8 0.535026 0.121753 0.295280
O O1 0.767470 0.525463 0.112240
O O2 0.476816 0.752295 0.111399
O O3 0.458252 0.814311 0.860886
O O4 0.614604 0.927062 0.931725
O O5 0.945605 0.508195 0.782039
O O6 0.901792 0.831264 0.708348
O O7 0.000000 0.500000 0.000000
O O8 0.134739 0.758132 0.074214
O O9 0.314657 0.457399 0.375271
O O10 0.371817 0.335459 0.240483
O O11 0.168943 0.959783 0.098077
O O12 0.329971 0.766615 0.512829
O O13 0.287233 0.969142 0.582500
O O14 0.000000 0.000000 0.500000
O O15 0.530582 0.275314 0.656721
O O16 0.496331 0.941006 0.384615
#
# Coordination Sequence:
#
# PCOD9092562 Si02
#       8
#     2   2   2   1   2   2   2   2
#     4  10  21  39  66  93 127 170 222 271 319 393
#     4  12  20  40  72 100 128 174 218 270 336 405
#     4  11  21  39  65  94 124 172 218 263 323 399
#     4  12  26  38  60  94 130 170 218 262 326 390
#     4  11  23  37  65 110 132 155 217 290 335 376
#     4  10  23  41  60  92 131 175 220 266 322 392
#     4  10  20  42  70  87 128 179 219 261 334 406
#     4  10  19  41  68  96 125 171 219 268 334 399
#
# _framework density 21.465140000000002
#
# number of rings (size 3 to 8) (size 9 to 14) (size 15 to 20)
#    0.000    1.333    5.333    1.600    0.000    3.733 
#    0.000    3.333    0.000    0.000    0.000    0.000 
#    0.000    0.000    0.000    0.000    0.000    0.000 
#
# Total GULP energy -83551.492049 kJ/mol
# GULP energy per Si atom -5570.099470 kJ/mol
# Density = 2.141628 g / cm^3
# Si number density = 21.465140 Si / 1000 Ang^3
#
#
#
# Elastic Constant Matrix: (Units=GPa)
#
#
# Indices 1 2 3 4 5 6 
#
# 1 76.2713 14.3146 56.6524 11.1791 22.4794 -16.1974
# 2 14.3146 64.0212 51.1036 -2.1968 6.7443 -7.6060
# 3 56.6524 51.1036 152.1826 22.5897 37.0275 -23.2630
# 4 11.1791 -2.1968 22.5897 44.6353 2.9473 -0.3334
# 5 22.4794 6.7443 37.0275 2.9473 27.9351 -7.4585
# 6 -16.1974 -7.6060 -23.2630 -0.3334 -7.4585 23.2487
#
#
#
# Elastic Compliance Matrix: (Units=1/GPa)
#
#
# Indices 1 2 3 4 5 6 
#
# 1 0.020722 0.000456 -0.004177 -0.002403 -0.008996 0.007486
# 2 0.000456 0.023582 -0.010903 0.006056 0.007664 -0.000331
# 3 -0.004177 -0.010903 0.017352 -0.007262 -0.014613 0.006093
# 4 -0.002403 0.006056 -0.007262 0.026544 0.006059 -0.004635
# 5 -0.008996 0.007664 -0.014613 0.006059 0.060187 0.001013
# 6 0.007486 -0.000331 0.006093 -0.004635 0.001013 0.054476
#
#
# Mechanical properties :
#
#
# Convention : Reuss Voigt Hill
#
# Bulk Modulus (GPa) = 30.85753 59.62404 45.24078
# Shear Modulus (GPa) = 20.58341 30.52413 25.55377
#
# Velocity S-wave (km/s) = 3.10001 3.77508 3.45407
# Velocity P-wave (km/s) = 5.21730 6.84391 6.08520
#
# Compressibility (1/GPa) = 0.03240700
#
# Stress axis : x y z
#
# Youngs Moduli (GPa) = 48.25904 42.40513 57.62912
#
# Poissons Ratio (x) = -0.01932 0.24073
# Poissons Ratio (y) = -0.02199 0.62833
# Poissons Ratio (z) = 0.20159 0.46234
#
# Static dielectric constant tensor:
#      x y z
#    x 1.807030 0.038850 -0.027090 
#    y 0.038850 1.783840 0.002480 
#    z -0.027090 0.002480 1.780440 
# 
# From -- ./inp_files/392094.got.cif
#   From: 2010.05.17/outbox.cif.g08.bks.cpg/sg2_197_cif.got.tgz:392094.got - 2010.06.03 11:33:40.
