data_PCOD9092973
_publ_section_title
;
Structure prediction by ZEFSAII (Michael W. Deem and Ramdas Pophale) SiO2 
 PCOD9092973
Probable space group: P -1
;
_chemical_formula_sum "Si O2"
_cell_formula_units_Z 16
_cell_length_a 21.079960
_cell_length_b 12.324189
_cell_length_c 9.510613
_cell_angle_alpha 143.246156
_cell_angle_beta 142.416378
_cell_angle_gamma 32.725913
_cell_volume 743.803154
_symmetry_space_group_name_H-M "P -1"
_symmetry_group_IT_number 2
_symmetry_cell_setting 'triclinic'
loop_
_space_group_symop_operation_xyz
x,y,z
-x,-y,-z
loop_
_atom_site_type_symbol
_atom_site_label
_atom_site_fract_x
_atom_site_fract_y
_atom_site_fract_z
Si Si1 0.861850 0.331323 0.867300
Si Si2 0.325940 0.672093 0.267143
Si Si3 0.904726 0.678570 0.342619
Si Si4 0.475064 0.832276 0.861196
Si Si5 0.107599 0.463320 0.265973
Si Si6 0.096031 0.032961 0.117406
Si Si7 0.257189 0.047361 0.924481
Si Si8 0.856466 0.204574 0.435252
O O1 0.777218 0.269651 0.733276
O O2 0.822778 0.368219 0.677313
O O3 0.838340 0.551846 0.117522
O O4 0.011775 0.144781 0.948061
O O5 0.405836 0.765346 0.557928
O O6 0.408573 0.408753 0.133161
O O7 0.235629 0.814208 0.125872
O O8 0.897882 0.799353 0.596441
O O9 0.043755 0.494956 0.337805
O O10 0.840662 0.840475 0.263865
O O11 0.387204 0.942069 0.958879
O O12 0.500000 0.000000 0.000000
O O13 0.139246 0.646259 0.519999
O O14 0.000000 0.500000 0.000000
O O15 0.224716 0.231087 0.174775
O O16 0.000000 0.000000 0.000000
O O17 0.231920 0.882010 0.788435
O O18 0.000000 0.000000 0.500000
#
# Coordination Sequence:
#
# PCOD9092973 Si02
#       8
#     2   2   2   2   2   2   2   2
#     4  11  20  34  56  80 117 149 180 225 281 339
#     4  10  22  36  51  81 110 147 189 224 271 329
#     4  11  18  34  50  82 115 143 181 219 279 335
#     4  11  22  35  57  76 112 152 190 232 271 319
#     4  10  20  29  49  78 111 139 177 223 273 335
#     4  10  21  35  53  79 116 149 181 225 278 343
#     4  11  19  34  51  78 113 142 179 229 273 328
#     4  12  19  31  54  80 116 146 172 224 282 330
#
# _framework density 21.511068000000002
#
# number of rings (size 3 to 8) (size 9 to 14) (size 15 to 20)
#    0.000    1.250    7.500    1.875    0.000    0.000 
#    0.000    0.000    0.000    0.000    0.000    7.000 
#    0.000    0.125    0.000    0.000    0.000    0.000 
#
# Total GULP energy -89132.038884 kJ/mol
# GULP energy per Si atom -5570.752430 kJ/mol
# Density = 2.146211 g / cm^3
# Si number density = 21.511068 Si / 1000 Ang^3
#
#
#
# Elastic Constant Matrix: (Units=GPa)
#
#
# Indices 1 2 3 4 5 6 
#
# 1 73.7945 33.6485 30.0495 11.6623 25.1573 -6.7415
# 2 33.6485 110.3503 39.5076 17.8653 8.2586 -21.6015
# 3 30.0495 39.5076 103.6289 35.5612 25.3265 5.8407
# 4 11.6623 17.8653 35.5612 30.2922 8.7732 1.5847
# 5 25.1573 8.2586 25.3265 8.7732 44.1243 8.5493
# 6 -6.7415 -21.6015 5.8407 1.5847 8.5493 32.8105
#
#
#
# Elastic Compliance Matrix: (Units=1/GPa)
#
#
# Indices 1 2 3 4 5 6 
#
# 1 0.020104 -0.003594 -0.002005 -0.000484 -0.010487 0.004877
# 2 -0.003594 0.013710 -0.003858 -0.002791 0.000514 0.008975
# 3 -0.002005 -0.003858 0.019286 -0.017979 -0.004803 -0.004265
# 4 -0.000484 -0.002791 -0.017979 0.055946 0.000287 -0.001513
# 5 -0.010487 0.000514 -0.004803 0.000287 0.033107 -0.009602
# 6 0.004877 0.008975 -0.004265 -0.001513 -0.009602 0.040723
#
#
# Mechanical properties :
#
#
# Convention : Reuss Voigt Hill
#
# Bulk Modulus (GPa) = 29.25293 54.90945 42.08119
# Shear Modulus (GPa) = 23.45373 33.74995 28.60184
#
# Velocity S-wave (km/s) = 3.30557 3.96530 3.65037
# Velocity P-wave (km/s) = 5.31014 6.82249 6.11326
#
# Compressibility (1/GPa) = 0.03418460
#
# Stress axis : x y z
#
# Youngs Moduli (GPa) = 49.74189 72.94130 51.85080
#
# Poissons Ratio (x) = 0.26218 0.10396
# Poissons Ratio (y) = 0.17879 0.20005
# Poissons Ratio (z) = 0.09973 0.28142
#
# Static dielectric constant tensor:
#      x y z
#    x 1.859100 0.097770 0.005620 
#    y 0.097770 1.879770 0.005990 
#    z 0.005620 0.005990 1.805080 
# 
# From -- ./inp_files/453494.got.cif
#   From: 2010.05.17/outbox.cif.g08.bks.cpg/sg2_227_cif.got.tgz:453494.got - 2010.06.03 11:33:40.
