data_PCOD9092354
_publ_section_title
;
Structure prediction by ZEFSAII (Michael W. Deem and Ramdas Pophale) SiO2 
 PCOD9092354
Probable space group: P -1
;
_chemical_formula_sum "Si O2"
_cell_formula_units_Z 14
_cell_length_a 16.359032
_cell_length_b 8.734618
_cell_length_c 10.928209
_cell_angle_alpha 90.098900
_cell_angle_beta 31.357256
_cell_angle_gamma 69.759191
_cell_volume 604.923372
_symmetry_space_group_name_H-M "P -1"
_symmetry_group_IT_number 2
_symmetry_cell_setting 'triclinic'
loop_
_space_group_symop_operation_xyz
x,y,z
-x,-y,-z
loop_
_atom_site_type_symbol
_atom_site_label
_atom_site_fract_x
_atom_site_fract_y
_atom_site_fract_z
Si Si1 0.025178 0.577087 0.095238
Si Si2 0.740032 0.270990 0.191644
Si Si3 0.532049 0.801105 0.456565
Si Si4 0.646485 0.049441 0.817486
Si Si5 0.623571 0.659680 0.621370
Si Si6 0.476480 0.584423 0.164923
Si Si7 0.903986 0.188449 0.717078
O O1 0.809776 0.651877 0.427655
O O2 0.088311 0.713334 0.987294
O O3 0.237917 0.386322 0.893652
O O4 0.000000 0.500000 0.000000
O O5 0.500000 0.500000 0.500000
O O6 0.668811 0.157238 0.343598
O O7 0.822570 0.175606 0.950200
O O8 0.562843 0.734468 0.559976
O O9 0.500000 0.000000 0.500000
O O10 0.610817 0.189975 0.749869
O O11 0.571991 0.181257 0.038493
O O12 0.889796 0.848419 0.514769
O O13 0.500000 0.000000 0.000000
O O14 0.664434 0.449771 0.582785
O O15 0.500000 0.500000 0.000000
O O16 0.711414 0.417977 0.918060
O O17 0.000000 0.000000 0.500000
#
# Coordination Sequence:
#
# PCOD9092354 Si02
#       7
#     2   2   2   2   2   2   2
#     4   9  20  38  63  84 125 178 216 273 346 399
#     4  10  21  40  65  94 134 174 226 282 339 415
#     4  10  20  38  60  91 125 169 225 273 327 407
#     4  11  24  41  62  98 134 166 227 285 340 411
#     4  10  19  41  57  85 127 166 218 271 332 403
#     4  10  21  40  66  93 131 179 222 280 347 399
#     4  12  21  41  73  99 132 183 233 275 348 419
#
# _framework density 23.143428
#
# number of rings (size 3 to 8) (size 9 to 14) (size 15 to 20)
#    0.000    1.714    4.286    0.857    0.000    1.714 
#   10.286    2.857    0.000    0.000    0.000    0.000 
#    0.000    0.000    0.000    0.000    0.000    0.000 
#
# Total GULP energy -77944.801068 kJ/mol
# GULP energy per Si atom -5567.485791 kJ/mol
# Density = 2.309075 g / cm^3
# Si number density = 23.143428 Si / 1000 Ang^3
#
#
#
# Elastic Constant Matrix: (Units=GPa)
#
#
# Indices 1 2 3 4 5 6 
#
# 1 80.7429 50.1384 39.2523 -10.8651 -25.1537 20.8688
# 2 50.1384 120.8100 17.3534 -34.5364 -28.2593 24.0894
# 3 39.2523 17.3534 148.2256 -28.8229 -34.1627 12.9609
# 4 -10.8651 -34.5364 -28.8229 31.5283 15.6852 -9.6518
# 5 -25.1537 -28.2593 -34.1627 15.6852 60.6416 -14.5853
# 6 20.8688 24.0894 12.9609 -9.6518 -14.5853 39.1753
#
#
#
# Elastic Compliance Matrix: (Units=1/GPa)
#
#
# Indices 1 2 3 4 5 6 
#
# 1 0.022147 -0.009895 -0.005806 -0.011707 0.002995 -0.005562
# 2 -0.009895 0.017964 0.004787 0.019277 0.001483 -0.002058
# 3 -0.005806 0.004787 0.010616 0.011677 0.002928 0.000604
# 4 -0.011707 0.019277 0.011677 0.063079 -0.004561 0.004362
# 5 0.002995 0.001483 0.002928 -0.004561 0.022128 0.003639
# 6 -0.005562 -0.002058 0.000604 0.004362 0.003639 0.031984
#
#
# Mechanical properties :
#
#
# Convention : Reuss Voigt Hill
#
# Bulk Modulus (GPa) = 34.60161 62.58519 48.59340
# Shear Modulus (GPa) = 25.07780 42.47133 33.77457
#
# Velocity S-wave (km/s) = 3.29535 4.28850 3.82430
# Velocity P-wave (km/s) = 5.42794 7.18489 6.36731
#
# Compressibility (1/GPa) = 0.02890039
#
# Stress axis : x y z
#
# Youngs Moduli (GPa) = 45.15288 55.66573 94.19540
#
# Poissons Ratio (x) = 0.55079 0.54693
# Poissons Ratio (y) = 0.44677 -0.45095
# Poissons Ratio (z) = 0.26217 -0.26649
#
# Static dielectric constant tensor:
#      x y z
#    x 2.000650 0.070590 0.081150 
#    y 0.070590 1.955310 0.031370 
#    z 0.081150 0.031370 2.099330 
# 
# From -- ./inp_files/271317.got.cif
#   From: 2010.05.17/outbox.cif.g08.bks.cpg/sg2_136_cif.got.tgz:271317.got - 2010.06.03 11:33:40.
