data_PCOD9092574
_publ_section_title
;
Structure prediction by ZEFSAII (Michael W. Deem and Ramdas Pophale) SiO2 
 PCOD9092574
Probable space group: P -1
;
_chemical_formula_sum "Si O2"
_cell_formula_units_Z 12
_cell_length_a 13.249576
_cell_length_b 13.422984
_cell_length_c 10.715942
_cell_angle_alpha 30.969663
_cell_angle_beta 46.183755
_cell_angle_gamma 34.413724
_cell_volume 553.519211
_symmetry_space_group_name_H-M "P -1"
_symmetry_group_IT_number 2
_symmetry_cell_setting 'triclinic'
loop_
_space_group_symop_operation_xyz
x,y,z
-x,-y,-z
loop_
_atom_site_type_symbol
_atom_site_label
_atom_site_fract_x
_atom_site_fract_y
_atom_site_fract_z
Si Si1 0.341044 0.793379 0.604847
Si Si2 0.857216 0.427269 0.970701
Si Si3 0.883959 0.985906 0.008892
Si Si4 0.361369 0.540482 0.467860
Si Si5 0.313308 0.065871 0.562957
Si Si6 0.986770 0.229759 0.322681
O O1 0.511892 0.693572 0.480571
O O2 0.352581 0.842179 0.686417
O O3 0.295609 0.603051 0.836180
O O4 0.174543 0.065524 0.407641
O O5 0.793198 0.678644 0.694545
O O6 0.982938 0.210342 0.997826
O O7 0.961361 0.379798 0.060751
O O8 0.787025 0.904065 0.258052
O O9 0.735334 0.230980 0.793400
O O10 0.000000 0.000000 0.000000
O O11 0.500000 0.500000 0.500000
O O12 0.189410 0.602517 0.620903
O O13 0.500000 0.000000 0.500000
O O14 0.000000 0.000000 0.500000
#
# Coordination Sequence:
#
# PCOD9092574 Si02
#       6
#     2   2   2   2   2   2
#     4  11  23  45  70 101 140 182 231 285 348 413
#     4  11  22  44  70  95 140 179 227 288 341 412
#     4  12  24  44  73 100 137 188 232 280 355 412
#     4  12  21  38  76 103 130 183 231 284 347 412
#     4  12  28  43  64 104 140 182 235 283 345 414
#     4  10  19  41  69 102 133 178 231 280 352 410
#
# _framework density 21.679462999999998
#
# number of rings (size 3 to 8) (size 9 to 14) (size 15 to 20)
#    0.000    0.667    8.333    1.500    2.333    2.000 
#    3.000    0.833    0.000    0.000    0.000    0.000 
#    0.000    0.000    0.000    0.000    0.000    0.000 
#
# Total GULP energy -66993.654773 kJ/mol
# GULP energy per Si atom -5582.804564 kJ/mol
# Density = 2.163012 g / cm^3
# Si number density = 21.679463 Si / 1000 Ang^3
#
#
#
# Elastic Constant Matrix: (Units=GPa)
#
#
# Indices 1 2 3 4 5 6 
#
# 1 67.0321 25.1424 35.1885 -5.1296 18.2205 -4.7464
# 2 25.1424 167.1274 33.3552 21.8350 8.3328 -17.1767
# 3 35.1885 33.3552 140.8969 13.4678 28.0984 -15.8295
# 4 -5.1296 21.8350 13.4678 37.6955 -0.8621 2.9820
# 5 18.2205 8.3328 28.0984 -0.8621 28.4554 3.0567
# 6 -4.7464 -17.1767 -15.8295 2.9820 3.0567 30.9563
#
#
#
# Elastic Compliance Matrix: (Units=1/GPa)
#
#
# Indices 1 2 3 4 5 6 
#
# 1 0.020449 -0.002624 -0.003094 0.005158 -0.009169 0.000506
# 2 -0.002624 0.007552 0.000119 -0.005157 -0.001286 0.004473
# 3 -0.003094 0.000119 0.011059 -0.005198 -0.009853 0.006720
# 4 0.005158 -0.005157 -0.005198 0.032860 0.005240 -0.008412
# 5 -0.009169 -0.001286 -0.009853 0.005240 0.052661 -0.012863
# 6 0.000506 0.004473 0.006720 -0.008412 -0.012863 0.040380
#
#
# Mechanical properties :
#
#
# Convention : Reuss Voigt Hill
#
# Bulk Modulus (GPa) = 35.88852 62.49207 49.19030
# Shear Modulus (GPa) = 26.96229 38.17945 32.57087
#
# Velocity S-wave (km/s) = 3.53041 4.20109 3.88026
# Velocity P-wave (km/s) = 5.76268 7.24018 6.54327
#
# Compressibility (1/GPa) = 0.02786406
#
# Stress axis : x y z
#
# Youngs Moduli (GPa) = 48.90183 132.41581 90.42690
#
# Poissons Ratio (x) = 0.34741 0.27975
# Poissons Ratio (y) = 0.12830 -0.01080
# Poissons Ratio (z) = 0.15129 -0.01582
#
# Static dielectric constant tensor:
#      x y z
#    x 1.916770 -0.003360 -0.029170 
#    y -0.003360 1.781160 -0.031690 
#    z -0.029170 -0.031690 1.806110 
# 
# From -- ./inp_files/251229.got.cif
#   From: 2010.05.17/outbox.cif.g08.bks.cpg/sg2_126_cif.got.tgz:251229.got - 2010.06.03 11:33:40.
