data_PCOD9092731
_publ_section_title
;
Structure prediction by ZEFSAII (Michael W. Deem and Ramdas Pophale) SiO2 
 PCOD9092731
Probable space group: P -1
;
_chemical_formula_sum "Si O2"
_cell_formula_units_Z 12
_cell_length_a 12.182493
_cell_length_b 7.109475
_cell_length_c 9.677152
_cell_angle_alpha 114.127442
_cell_angle_beta 129.817008
_cell_angle_gamma 55.640792
_cell_volume 529.962365
_symmetry_space_group_name_H-M "P -1"
_symmetry_group_IT_number 2
_symmetry_cell_setting 'triclinic'
loop_
_space_group_symop_operation_xyz
x,y,z
-x,-y,-z
loop_
_atom_site_type_symbol
_atom_site_label
_atom_site_fract_x
_atom_site_fract_y
_atom_site_fract_z
Si Si1 0.637787 0.064177 0.183666
Si Si2 0.345872 0.214051 0.391695
Si Si3 0.824422 0.811125 0.019788
Si Si4 0.625122 0.543711 0.766943
Si Si5 0.097098 0.890406 0.181883
Si Si6 0.855023 0.732996 0.498073
O O1 0.538600 0.316727 0.242951
O O2 0.748681 0.024171 0.127601
O O3 0.739154 0.881091 0.326448
O O4 0.500000 0.000000 0.000000
O O5 0.395718 0.373504 0.383899
O O6 0.241802 0.320411 0.474107
O O7 0.500000 0.000000 0.500000
O O8 0.247944 0.141238 0.178157
O O9 0.009636 0.747050 0.139620
O O10 0.756453 0.630419 0.959066
O O11 0.723133 0.274966 0.761559
O O12 0.086965 0.090042 0.334083
O O13 0.000000 0.000000 0.000000
O O14 0.000000 0.500000 0.500000
#
# Coordination Sequence:
#
# PCOD9092731 Si02
#       6
#     2   2   2   2   2   2
#     4  10  21  42  67  95 129 170 216 267 327 373
#     4  10  19  42  66  94 124 174 215 260 322 389
#     4   9  21  39  68  92 130 168 210 262 331 381
#     4   9  21  38  71  88 129 170 218 256 329 380
#     4  12  24  42  64  98 132 174 215 267 328 389
#     4  12  27  41  66  98 135 168 222 270 323 385
#
# _framework density 22.643118000000001
#
# number of rings (size 3 to 8) (size 9 to 14) (size 15 to 20)
#    1.000    0.667    3.333    0.500    7.000    1.333 
#    0.000    0.833    0.000    0.000    0.000    0.000 
#    0.000    0.000    0.000    0.000    0.000    0.000 
#
# Total GULP energy -66952.379162 kJ/mol
# GULP energy per Si atom -5579.364930 kJ/mol
# Density = 2.259158 g / cm^3
# Si number density = 22.643118 Si / 1000 Ang^3
#
#
#
# Elastic Constant Matrix: (Units=GPa)
#
#
# Indices 1 2 3 4 5 6 
#
# 1 53.8241 39.5308 10.0430 8.6947 5.3458 -28.6725
# 2 39.5308 173.3765 58.6725 4.5128 -15.3704 -50.8279
# 3 10.0430 58.6725 139.4999 -5.8420 -3.3621 -13.6997
# 4 8.6947 4.5128 -5.8420 35.6880 -0.7824 -5.6512
# 5 5.3458 -15.3704 -3.3621 -0.7824 24.8718 13.3442
# 6 -28.6725 -50.8279 -13.6997 -5.6512 13.3442 54.2568
#
#
#
# Elastic Compliance Matrix: (Units=1/GPa)
#
#
# Indices 1 2 3 4 5 6 
#
# 1 0.034413 -0.004103 0.000394 -0.005258 -0.020159 0.018852
# 2 -0.004103 0.009593 -0.003139 0.000168 0.003628 0.005151
# 3 0.000394 -0.003139 0.008488 0.001636 -0.000692 -0.000249
# 4 -0.005258 0.000168 0.001636 0.029650 0.002207 0.000338
# 5 -0.020159 0.003628 -0.000692 0.002207 0.058314 -0.021542
# 6 0.018852 0.005151 -0.000249 0.000338 -0.021542 0.038489
#
#
# Mechanical properties :
#
#
# Convention : Reuss Voigt Hill
#
# Bulk Modulus (GPa) = 25.77552 64.79922 45.28737
# Shear Modulus (GPa) = 24.32192 40.19361 32.25777
#
# Velocity S-wave (km/s) = 3.28097 4.21775 3.77850
# Velocity P-wave (km/s) = 5.07554 7.23872 6.25140
#
# Compressibility (1/GPa) = 0.03879651
#
# Stress axis : x y z
#
# Youngs Moduli (GPa) = 29.05880 104.24332 117.81695
#
# Poissons Ratio (x) = 0.42773 -0.04637
# Poissons Ratio (y) = 0.11923 0.36983
# Poissons Ratio (z) = -0.01144 0.32722
#
# Static dielectric constant tensor:
#      x y z
#    x 1.895320 0.040650 0.039600 
#    y 0.040650 1.884490 0.088980 
#    z 0.039600 0.088980 1.936820 
# 
# From -- ./inp_files/192822.got.cif
#   From: 2010.05.17/outbox.cif.g08.bks.cpg/sg2_97_cif.got.tgz:192822.got - 2010.06.03 11:33:40.
