data_PCOD9092985
_publ_section_title
;
Structure prediction by ZEFSAII (Michael W. Deem and Ramdas Pophale) SiO2 
 PCOD9092985
Probable space group: P -1
;
_chemical_formula_sum "Si O2"
_cell_formula_units_Z 16
_cell_length_a 15.586431
_cell_length_b 15.403863
_cell_length_c 11.371370
_cell_angle_alpha 106.321621
_cell_angle_beta 108.406365
_cell_angle_gamma 18.186424
_cell_volume 806.861091
_symmetry_space_group_name_H-M "P -1"
_symmetry_group_IT_number 2
_symmetry_cell_setting 'triclinic'
loop_
_space_group_symop_operation_xyz
x,y,z
-x,-y,-z
loop_
_atom_site_type_symbol
_atom_site_label
_atom_site_fract_x
_atom_site_fract_y
_atom_site_fract_z
Si Si1 0.838333 0.980868 0.875180
Si Si2 0.656734 0.286781 0.739601
Si Si3 0.578875 0.908431 0.136621
Si Si4 0.390208 0.503588 0.034071
Si Si5 0.822311 0.165854 0.368529
Si Si6 0.961294 0.665772 0.896553
Si Si7 0.098850 0.228053 0.815421
Si Si8 0.432739 0.363405 0.230037
O O1 0.883419 0.832475 0.861701
O O2 0.702947 0.143691 0.757673
O O3 0.143557 0.735295 0.922569
O O4 0.657040 0.199973 0.982620
O O5 0.582731 0.423415 0.869235
O O6 0.398959 0.543980 0.637533
O O7 0.943336 0.051441 0.715166
O O8 0.781439 0.799519 0.213918
O O9 0.745500 0.657235 0.128884
O O10 0.283519 0.175236 0.172254
O O11 0.500000 0.000000 0.000000
O O12 0.298313 0.529886 0.115922
O O13 0.623543 0.265515 0.320576
O O14 0.000000 0.000000 0.500000
O O15 0.967149 0.676504 0.044101
O O16 0.823142 0.436499 0.731666
O O17 0.353237 0.918116 0.813569
#
# Coordination Sequence:
#
# PCOD9092985 Si02
#       8
#     2   2   2   2   2   2   2   2
#     4  12  21  32  52  75 113 144 182 214 246 319
#     4  11  23  37  55  79 101 142 183 216 270 319
#     4  10  20  30  45  68 104 148 186 211 247 295
#     4  11  19  33  48  76 111 143 176 216 254 301
#     4  11  24  42  58  76 106 133 175 237 285 316
#     4  11  19  31  45  72 107 150 177 208 256 293
#     4  11  18  31  48  71 104 137 185 212 243 305
#     4  11  19  32  52  76  97 139 178 213 262 310
#
# _framework density 19.829930999999998
#
# number of rings (size 3 to 8) (size 9 to 14) (size 15 to 20)
#    0.000    1.000    2.500    9.375    0.000    0.000 
#    0.000    0.000    0.000    0.000    0.000    0.000 
#    0.000   20.000    0.000    0.000    0.000    0.000 
#
# Total GULP energy -89310.558436 kJ/mol
# GULP energy per Si atom -5581.909902 kJ/mol
# Density = 1.978480 g / cm^3
# Si number density = 19.829931 Si / 1000 Ang^3
#
#
#
# Elastic Constant Matrix: (Units=GPa)
#
#
# Indices 1 2 3 4 5 6 
#
# 1 89.2602 22.0073 25.5407 -14.4898 2.3485 -11.0605
# 2 22.0073 118.1249 16.3443 -15.4380 -3.0366 -1.8868
# 3 25.5407 16.3443 27.1303 -17.1292 -2.3969 1.7141
# 4 -14.4898 -15.4380 -17.1292 26.3118 -1.0571 -0.1061
# 5 2.3485 -3.0366 -2.3969 -1.0571 6.3266 -3.0134
# 6 -11.0605 -1.8868 1.7141 -0.1061 -3.0134 45.2373
#
#
#
# Elastic Compliance Matrix: (Units=1/GPa)
#
#
# Indices 1 2 3 4 5 6 
#
# 1 0.017331 -0.001376 -0.019957 -0.004783 -0.013538 0.004023
# 2 -0.001376 0.009613 -0.001380 0.004209 0.005542 0.000496
# 3 -0.019957 -0.001380 0.093043 0.050680 0.048013 -0.005145
# 4 -0.004783 0.004209 0.050680 0.072233 0.034864 -0.000422
# 5 -0.013538 0.005542 0.048013 0.034864 0.193612 0.008081
# 6 0.004023 0.000496 -0.005145 -0.000422 0.008081 0.023842
#
#
# Mechanical properties :
#
#
# Convention : Reuss Voigt Hill
#
# Bulk Modulus (GPa) = 13.41184 40.25554 26.83369
# Shear Modulus (GPa) = 10.41764 26.95001 18.68383
#
# Velocity S-wave (km/s) = 2.29454 3.69054 3.07286
# Velocity P-wave (km/s) = 3.71456 6.20520 5.11383
#
# Compressibility (1/GPa) = 0.07456097
#
# Stress axis : x y z
#
# Youngs Moduli (GPa) = 57.69942 104.02101 10.74773
#
# Poissons Ratio (x) = 0.14318 0.21449
# Poissons Ratio (y) = 0.07942 0.01483
# Poissons Ratio (z) = 1.15148 0.14357
#
# Static dielectric constant tensor:
#      x y z
#    x 1.796780 -0.028810 0.002340 
#    y -0.028810 1.732170 -0.002940 
#    z 0.002340 -0.002940 1.708640 
# 
# From -- ./inp_files/455745.got.cif
#   From: 2010.05.17/outbox.cif.g08.bks.cpg/sg2_228_cif.got.tgz:455745.got - 2010.06.03 11:33:40.
