data_PCOD9092033
_publ_section_title
;
Structure prediction by ZEFSAII (Michael W. Deem and Ramdas Pophale) SiO2 
 PCOD9092033
Probable space group: P -1
;
_chemical_formula_sum "Si O2"
_cell_formula_units_Z 16
_cell_length_a 9.399373
_cell_length_b 6.687973
_cell_length_c 20.676496
_cell_angle_alpha 53.997548
_cell_angle_beta 44.611505
_cell_angle_gamma 70.749350
_cell_volume 729.405897
_symmetry_space_group_name_H-M "P -1"
_symmetry_group_IT_number 2
_symmetry_cell_setting 'triclinic'
loop_
_space_group_symop_operation_xyz
x,y,z
-x,-y,-z
loop_
_atom_site_type_symbol
_atom_site_label
_atom_site_fract_x
_atom_site_fract_y
_atom_site_fract_z
Si Si1 0.384212 0.841982 0.165506
Si Si2 0.293800 0.366893 0.558850
Si Si3 0.402156 0.380846 0.155807
Si Si4 0.440768 0.085703 0.777827
Si Si5 0.422208 0.321391 0.384966
Si Si6 0.067120 0.471374 0.410634
Si Si7 0.774165 0.667643 0.910170
Si Si8 0.789416 0.097960 0.238391
O O1 0.400803 0.607005 0.161048
O O2 0.192161 0.731809 0.294221
O O3 0.577461 0.903006 0.139937
O O4 0.332687 0.081215 0.098891
O O5 0.500000 0.500000 0.500000
O O6 0.346031 0.242062 0.497078
O O7 0.139031 0.565377 0.557323
O O8 0.190375 0.154665 0.681357
O O9 0.399626 0.113620 0.240660
O O10 0.230114 0.377104 0.157171
O O11 0.620415 0.448771 0.035333
O O12 0.269270 0.974184 0.802975
O O13 0.511184 0.377421 0.683572
O O14 0.234231 0.288739 0.400583
O O15 0.606932 0.207805 0.314064
O O16 0.000000 0.500000 0.500000
O O17 0.997963 0.716871 0.858291
#
# Coordination Sequence:
#
# PCOD9092033 Si02
#       8
#     2   2   2   2   2   2   2   2
#     4  10  19  40  65  89 126 170 211 258 314 382
#     4  11  21  39  63  90 128 165 210 268 313 367
#     4  10  22  42  66  93 122 173 215 261 321 379
#     4  10  21  38  61  87 127 165 203 260 311 374
#     4  10  22  40  61  88 128 173 208 254 318 384
#     4   9  19  36  62  86 123 166 206 249 310 371
#     4  10  23  40  65  95 129 160 217 271 313 372
#     4  12  23  40  63  95 130 167 207 265 323 373
#
# _framework density 21.935659999999999
#
# number of rings (size 3 to 8) (size 9 to 14) (size 15 to 20)
#    0.000    1.750    2.500    2.250    0.000    2.500 
#    0.000    1.875    0.000    0.000    0.000    0.000 
#    0.000    0.000    0.000    0.000    0.000    0.000 
#
# Total GULP energy -89176.628160 kJ/mol
# GULP energy per Si atom -5573.539260 kJ/mol
# Density = 2.188573 g / cm^3
# Si number density = 21.935660 Si / 1000 Ang^3
#
#
#
# Elastic Constant Matrix: (Units=GPa)
#
#
# Indices 1 2 3 4 5 6 
#
# 1 171.6306 37.6636 6.0580 10.1759 -20.6149 15.8711
# 2 37.6636 96.1709 -5.6982 -0.3612 13.7149 22.5455
# 3 6.0580 -5.6982 32.9913 -4.5265 -2.5266 -4.2808
# 4 10.1759 -0.3612 -4.5265 16.1939 -3.6428 -0.3293
# 5 -20.6149 13.7149 -2.5266 -3.6428 25.7818 -7.2335
# 6 15.8711 22.5455 -4.2808 -0.3293 -7.2335 29.0297
#
#
#
# Elastic Compliance Matrix: (Units=1/GPa)
#
#
# Indices 1 2 3 4 5 6 
#
# 1 0.008109 -0.004792 -0.002041 -0.003816 0.008598 0.001087
# 2 -0.004792 0.018841 0.000422 -0.000974 -0.018607 -0.016598
# 3 -0.002041 0.000422 0.033737 0.012030 0.005166 0.007187
# 4 -0.003816 -0.000974 0.012030 0.070090 0.010824 0.008109
# 5 0.008598 -0.018607 0.005166 0.010824 0.065133 0.026864
# 6 0.001087 -0.016598 0.007187 0.008109 0.026864 0.054590
#
#
# Mechanical properties :
#
#
# Convention : Reuss Voigt Hill
#
# Bulk Modulus (GPa) = 20.89198 41.87105 31.38152
# Shear Modulus (GPa) = 17.90340 31.71904 24.81122
#
# Velocity S-wave (km/s) = 2.85998 3.80676 3.36682
# Velocity P-wave (km/s) = 4.52226 6.20092 5.42689
#
# Compressibility (1/GPa) = 0.04786526
#
# Stress axis : x y z
#
# Youngs Moduli (GPa) = 123.32643 53.07653 29.64073
#
# Poissons Ratio (x) = 0.25433 0.06049
# Poissons Ratio (y) = 0.59095 -0.01250
# Poissons Ratio (z) = 0.25167 -0.02238
#
# Static dielectric constant tensor:
#      x y z
#    x 1.871390 0.005780 0.001400 
#    y 0.005780 1.811070 0.025440 
#    z 0.001400 0.025440 1.818580 
# 
# From -- ./inp_files/135536.got.cif
#   From: 2010.05.17/outbox.cif.g08.bks.cpg/sg2_68_cif.got.tgz:135536.got - 2010.06.03 11:33:40.
