data_PCOD9092365
_publ_section_title
;
Structure prediction by ZEFSAII (Michael W. Deem and Ramdas Pophale) SiO2 
 PCOD9092365
Probable space group: P -1
;
_chemical_formula_sum "Si O2"
_cell_formula_units_Z 14
_cell_length_a 12.467825
_cell_length_b 13.717361
_cell_length_c 9.246729
_cell_angle_alpha 45.809413
_cell_angle_beta 123.162695
_cell_angle_gamma 145.739080
_cell_volume 636.697825
_symmetry_space_group_name_H-M "P -1"
_symmetry_group_IT_number 2
_symmetry_cell_setting 'triclinic'
loop_
_space_group_symop_operation_xyz
x,y,z
-x,-y,-z
loop_
_atom_site_type_symbol
_atom_site_label
_atom_site_fract_x
_atom_site_fract_y
_atom_site_fract_z
Si Si1 0.468715 0.110397 0.590897
Si Si2 0.948364 0.106509 0.918567
Si Si3 0.419059 0.308982 0.832498
Si Si4 0.351839 0.742370 0.839677
Si Si5 0.093781 0.749953 0.544889
Si Si6 0.322886 0.625366 0.251661
Si Si7 0.361031 0.489357 0.823184
O O1 0.548076 0.195725 0.720990
O O2 0.567467 0.303897 0.369242
O O3 0.505837 0.985921 0.694161
O O4 0.240681 0.939896 0.568161
O O5 0.895740 0.164757 0.687590
O O6 0.148465 0.317406 0.908878
O O7 0.772094 0.933250 0.071887
O O8 0.000000 0.000000 0.000000
O O9 0.550943 0.398189 0.697457
O O10 0.364878 0.412207 0.749167
O O11 0.546153 0.321934 0.030038
O O12 0.179269 0.663583 0.697925
O O13 0.284940 0.686126 0.017192
O O14 0.878075 0.575151 0.621583
O O15 0.500000 0.500000 0.000000
#
# Coordination Sequence:
#
# PCOD9092365 Si02
#       7
#     2   2   2   2   2   2   2
#     4  10  20  36  65  90 118 164 198 240 302 367
#     4  10  20  40  60  83 121 163 199 244 307 354
#     4   9  22  39  61  89 124 158 196 260 294 345
#     4   8  21  37  61  90 124 155 200 246 298 357
#     4  10  20  37  67  88 120 167 197 236 316 356
#     4  10  19  41  60  92 125 157 198 251 294 359
#     4  11  22  42  61  85 122 164 204 249 305 361
#
# _framework density 21.988453
#
# number of rings (size 3 to 8) (size 9 to 14) (size 15 to 20)
#    1.714    0.571    1.429    2.571    0.000    1.143 
#    2.571    2.857    0.000    0.000    0.000    0.000 
#    0.000    0.000    0.000    0.000    0.000    0.000 
#
# Total GULP energy -77959.622786 kJ/mol
# GULP energy per Si atom -5568.544485 kJ/mol
# Density = 2.193841 g / cm^3
# Si number density = 21.988453 Si / 1000 Ang^3
#
#
#
# Elastic Constant Matrix: (Units=GPa)
#
#
# Indices 1 2 3 4 5 6 
#
# 1 80.3345 30.9895 20.8884 -12.6813 4.7425 17.7126
# 2 30.9895 126.7661 17.4688 -10.8901 -0.9032 23.4947
# 3 20.8884 17.4688 82.8899 3.9054 17.7391 5.9982
# 4 -12.6813 -10.8901 3.9054 42.5240 4.6079 1.3810
# 5 4.7425 -0.9032 17.7391 4.6079 32.0126 -1.8969
# 6 17.7126 23.4947 5.9982 1.3810 -1.8969 29.5870
#
#
#
# Elastic Compliance Matrix: (Units=1/GPa)
#
#
# Indices 1 2 3 4 5 6 
#
# 1 0.016712 -0.001653 -0.003053 0.005343 -0.002101 -0.008457
# 2 -0.001653 0.009932 -0.001428 0.002335 0.000585 -0.006679
# 3 -0.003053 -0.001428 0.014879 -0.001804 -0.007600 -0.000457
# 4 0.005343 0.002335 -0.001804 0.026497 -0.003906 -0.006174
# 5 -0.002101 0.000585 -0.007600 -0.003906 0.036627 0.004865
# 6 -0.008457 -0.006679 -0.000457 -0.006174 0.004865 0.044858
#
#
# Mechanical properties :
#
#
# Convention : Reuss Voigt Hill
#
# Bulk Modulus (GPa) = 34.18375 47.63156 40.90765
# Shear Modulus (GPa) = 29.14996 35.53428 32.34212
#
# Velocity S-wave (km/s) = 3.64496 4.02436 3.83935
# Velocity P-wave (km/s) = 5.77012 6.58051 6.18859
#
# Compressibility (1/GPa) = 0.02925367
#
# Stress axis : x y z
#
# Youngs Moduli (GPa) = 59.83856 100.68203 67.20747
#
# Poissons Ratio (x) = 0.16645 0.20519
# Poissons Ratio (y) = 0.09892 0.09600
# Poissons Ratio (z) = 0.18270 0.14382
#
# Static dielectric constant tensor:
#      x y z
#    x 1.833010 -0.029560 -0.011180 
#    y -0.029560 1.853210 0.028330 
#    z -0.011180 0.028330 1.843720 
# 
# From -- ./inp_files/316297.got.cif
#   From: 2010.05.17/outbox.cif.g08.bks.cpg/sg2_159_cif.got.tgz:316297.got - 2010.06.03 11:33:40.
