data_PCOD9092976
_publ_section_title
;
Structure prediction by ZEFSAII (Michael W. Deem and Ramdas Pophale) SiO2 
 PCOD9092976
Probable space group: P -1
;
_chemical_formula_sum "Si O2"
_cell_formula_units_Z 14
_cell_length_a 9.398035
_cell_length_b 6.945457
_cell_length_c 15.799963
_cell_angle_alpha 56.078185
_cell_angle_beta 106.211834
_cell_angle_gamma 131.144826
_cell_volume 638.030103
_symmetry_space_group_name_H-M "P -1"
_symmetry_group_IT_number 2
_symmetry_cell_setting 'triclinic'
loop_
_space_group_symop_operation_xyz
x,y,z
-x,-y,-z
loop_
_atom_site_type_symbol
_atom_site_label
_atom_site_fract_x
_atom_site_fract_y
_atom_site_fract_z
Si Si1 0.965239 0.975862 0.400991
Si Si2 0.211163 0.301301 0.795603
Si Si3 0.092956 0.868953 0.092098
Si Si4 0.077703 0.349663 0.165745
Si Si5 0.379571 0.569219 0.579147
Si Si6 0.616478 0.690560 0.840528
Si Si7 0.264509 0.946682 0.398012
O O1 0.061896 0.259109 0.284944
O O2 0.052637 0.822041 0.414604
O O3 0.000000 0.000000 0.500000
O O4 0.737573 0.754580 0.402364
O O5 0.052340 0.305309 0.810566
O O6 0.294712 0.500553 0.676711
O O7 0.390787 0.437474 0.853705
O O8 0.100384 0.958082 0.832557
O O9 0.083765 0.630818 0.093304
O O10 0.299282 0.131140 0.101420
O O11 0.000000 0.000000 0.000000
O O12 0.265823 0.424356 0.136519
O O13 0.328694 0.749667 0.475044
O O14 0.603030 0.771255 0.584626
O O15 0.684515 0.933960 0.718111
#
# Coordination Sequence:
#
# PCOD9092976 Si02
#       7
#     2   2   2   2   2   2   2
#     4  10  20  29  50  80 108 142 177 214 268 326
#     4   9  20  39  59  81 114 151 184 225 280 335
#     4  11  24  39  59  86 110 141 191 241 281 326
#     4   9  21  39  55  81 117 145 182 236 277 325
#     4   9  18  33  52  76 108 144 179 215 261 322
#     4   9  20  39  59  81 114 151 184 225 280 335
#     4   9  18  33  52  76 108 144 179 215 261 322
#
# _framework density 21.942540000000001
#
# number of rings (size 3 to 8) (size 9 to 14) (size 15 to 20)
#    0.000    2.571    0.000    1.286    4.000    4.571 
#    0.000    1.429    0.000    0.000    0.000    0.000 
#    0.000    0.000    0.000    0.000    0.000    0.000 
#
# Total GULP energy -78096.212618 kJ/mol
# GULP energy per Si atom -5578.300901 kJ/mol
# Density = 2.189260 g / cm^3
# Si number density = 21.942540 Si / 1000 Ang^3
#
#
#
# Elastic Constant Matrix: (Units=GPa)
#
#
# Indices 1 2 3 4 5 6 
#
# 1 52.1510 40.4625 5.9755 -6.9310 12.6523 11.5549
# 2 40.4625 80.2517 0.5975 11.5079 15.6492 20.3599
# 3 5.9755 0.5975 55.5262 5.2214 14.3871 -9.3604
# 4 -6.9310 11.5079 5.2214 23.3182 -7.1273 14.5331
# 5 12.6523 15.6492 14.3871 -7.1273 31.8320 2.2587
# 6 11.5549 20.3599 -9.3604 14.5331 2.2587 40.1500
#
#
#
# Elastic Compliance Matrix: (Units=1/GPa)
#
#
# Indices 1 2 3 4 5 6 
#
# 1 0.059273 -0.035656 -0.022099 0.064136 0.020340 -0.028489
# 2 -0.035656 0.038683 0.016779 -0.049597 -0.024519 0.013890
# 3 -0.022099 0.016779 0.036088 -0.046999 -0.028063 0.024855
# 4 0.064136 -0.049597 -0.046999 0.154709 0.059285 -0.063599
# 5 0.020340 -0.024519 -0.028063 0.059285 0.063115 -0.024973
# 6 -0.028489 0.013890 0.024855 -0.063599 -0.024973 0.056283
#
#
# Mechanical properties :
#
#
# Convention : Reuss Voigt Hill
#
# Bulk Modulus (GPa) = 19.19636 31.33332 25.26484
# Shear Modulus (GPa) = 9.85287 28.45293 19.15290
#
# Velocity S-wave (km/s) = 2.12133 3.60488 2.95764
# Velocity P-wave (km/s) = 3.84285 5.62473 4.81690
#
# Compressibility (1/GPa) = 0.05209322
#
# Stress axis : x y z
#
# Youngs Moduli (GPa) = 16.87095 25.85093 27.71008
#
# Poissons Ratio (x) = 0.92175 0.61236
# Poissons Ratio (y) = 0.60156 -0.46496
# Poissons Ratio (z) = 0.37283 -0.43376
#
# Static dielectric constant tensor:
#      x y z
#    x 1.761690 0.025690 -0.035680 
#    y 0.025690 1.856010 0.001940 
#    z -0.035680 0.001940 1.855420 
# 
# From -- ./inp_files/45660.got.cif
#   From: 2010.05.17/outbox.cif.g08.bks.cpg/sg2_23_cif.got.tgz:45660.got - 2010.06.03 11:33:40.
