data_PCOD9092755
_publ_section_title
;
Structure prediction by ZEFSAII (Michael W. Deem and Ramdas Pophale) SiO2 
 PCOD9092755
Probable space group: P -1
;
_chemical_formula_sum "Si O2"
_cell_formula_units_Z 12
_cell_length_a 9.152117
_cell_length_b 10.856641
_cell_length_c 15.060213
_cell_angle_alpha 136.022453
_cell_angle_beta 31.680484
_cell_angle_gamma 126.882107
_cell_volume 545.392486
_symmetry_space_group_name_H-M "P -1"
_symmetry_group_IT_number 2
_symmetry_cell_setting 'triclinic'
loop_
_space_group_symop_operation_xyz
x,y,z
-x,-y,-z
loop_
_atom_site_type_symbol
_atom_site_label
_atom_site_fract_x
_atom_site_fract_y
_atom_site_fract_z
Si Si1 0.416303 0.247667 0.763254
Si Si2 0.901507 0.508129 0.656818
Si Si3 0.206148 0.121614 0.620902
Si Si4 0.831550 0.825196 0.974586
Si Si5 0.731027 0.019189 0.716386
Si Si6 0.304589 0.338351 0.504634
O O1 0.602495 0.419457 0.761038
O O2 0.282382 0.215519 0.720752
O O3 0.601570 0.060627 0.584174
O O4 0.188265 0.269963 0.969804
O O5 0.948629 0.705988 0.772124
O O6 0.000000 0.500000 0.500000
O O7 0.056539 0.394637 0.595512
O O8 0.245819 0.261321 0.592914
O O9 0.885249 0.065744 0.750988
O O10 0.506499 0.847772 0.126057
O O11 0.000000 0.000000 0.000000
O O12 0.574967 0.834856 0.699016
O O13 0.000000 0.000000 0.500000
O O14 0.500000 0.500000 0.500000
#
# Coordination Sequence:
#
# PCOD9092755 Si02
#       6
#     2   2   2   2   2   2
#     4  11  22  43  71  99 140 181 236 284 352 419
#     4  12  27  44  69 105 142 187 235 294 354 416
#     4  10  21  39  73  97 130 186 229 277 359 406
#     4  12  26  44  71 107 145 183 234 290 357 420
#     4  10  19  42  67  96 134 184 228 279 349 411
#     4  11  20  38  65  98 135 177 231 283 342 411
#
# _framework density 22.002503000000001
#
# number of rings (size 3 to 8) (size 9 to 14) (size 15 to 20)
#    0.000    1.000    5.000    3.500    4.667    0.000 
#    0.000    8.333    0.000    0.000    0.000    0.000 
#    0.000    0.000    0.000    0.000    0.000    0.000 
#
# Total GULP energy -66871.549523 kJ/mol
# GULP energy per Si atom -5572.629127 kJ/mol
# Density = 2.195242 g / cm^3
# Si number density = 22.002503 Si / 1000 Ang^3
#
#
#
# Elastic Constant Matrix: (Units=GPa)
#
#
# Indices 1 2 3 4 5 6 
#
# 1 192.4795 48.9368 39.0276 4.0861 24.0358 19.7075
# 2 48.9368 139.9058 15.0428 -3.6919 34.9360 25.4145
# 3 39.0276 15.0428 46.6209 3.6898 23.7485 3.1809
# 4 4.0861 -3.6919 3.6898 28.4511 5.3770 4.3263
# 5 24.0358 34.9360 23.7485 5.3770 37.9040 10.2511
# 6 19.7075 25.4145 3.1809 4.3263 10.2511 38.3891
#
#
#
# Elastic Compliance Matrix: (Units=1/GPa)
#
#
# Indices 1 2 3 4 5 6 
#
# 1 0.006862 -0.001776 -0.005789 -0.000423 0.001579 -0.002241
# 2 -0.001776 0.010866 0.003214 0.003839 -0.010303 -0.004229
# 3 -0.005789 0.003214 0.036980 0.000297 -0.023597 0.004048
# 4 -0.000423 0.003839 0.000297 0.037798 -0.007578 -0.004585
# 5 0.001579 -0.010303 -0.023597 -0.007578 0.052116 -0.005097
# 6 -0.002241 -0.004229 0.004048 -0.004585 -0.005097 0.031542
#
#
# Mechanical properties :
#
#
# Convention : Reuss Voigt Hill
#
# Bulk Modulus (GPa) = 21.73695 65.00230 43.36963
# Shear Modulus (GPa) = 24.97499 39.34878 32.16188
#
# Velocity S-wave (km/s) = 3.37278 4.23351 3.82742
# Velocity P-wave (km/s) = 5.00682 7.31465 6.26787
#
# Compressibility (1/GPa) = 0.04600461
#
# Stress axis : x y z
#
# Youngs Moduli (GPa) = 145.72934 92.03304 27.04184
#
# Poissons Ratio (x) = 0.16346 0.15655
# Poissons Ratio (y) = 0.25883 -0.08691
# Poissons Ratio (z) = 0.84367 -0.29579
#
# Static dielectric constant tensor:
#      x y z
#    x 1.874740 -0.018680 -0.039650 
#    y -0.018680 1.880520 0.038630 
#    z -0.039650 0.038630 1.913570 
# 
# From -- ./inp_files/179385.got.cif
#   From: 2010.05.17/outbox.cif.g08.bks.cpg/sg2_90_cif.got.tgz:179385.got - 2010.06.03 11:33:40.
