data_PCOD9092513
_publ_section_title
;
Structure prediction by ZEFSAII (Michael W. Deem and Ramdas Pophale) SiO2 
 PCOD9092513
Probable space group: P -1
;
_chemical_formula_sum "Si O2"
_cell_formula_units_Z 15
_cell_length_a 8.415861
_cell_length_b 7.087367
_cell_length_c 11.407799
_cell_angle_alpha 93.999109
_cell_angle_beta 87.885544
_cell_angle_gamma 113.325241
_cell_volume 623.269196
_symmetry_space_group_name_H-M "P -1"
_symmetry_group_IT_number 2
_symmetry_cell_setting 'triclinic'
loop_
_space_group_symop_operation_xyz
x,y,z
-x,-y,-z
loop_
_atom_site_type_symbol
_atom_site_label
_atom_site_fract_x
_atom_site_fract_y
_atom_site_fract_z
Si Si1 0.105100 0.727327 0.960312
Si Si2 0.918650 0.797711 0.765852
Si Si3 0.357428 0.634809 0.768691
Si Si4 0.154734 0.685254 0.567133
Si Si5 0.428951 0.604211 0.254719
Si Si6 0.500000 0.500000 0.500000
Si Si7 0.606178 0.037283 0.876251
Si Si8 0.814859 0.951838 0.564940
O O1 0.230281 0.679371 0.861678
O O2 0.005202 0.836117 0.891809
O O3 0.203116 0.865227 0.072468
O O4 0.000000 0.500000 0.000000
O O5 0.751861 0.584260 0.775666
O O6 0.866880 0.958814 0.700592
O O7 0.057107 0.758497 0.674314
O O8 0.293498 0.620582 0.633677
O O9 0.404973 0.443842 0.790575
O O10 0.534289 0.829891 0.794691
O O11 0.000000 0.500000 0.500000
O O12 0.236492 0.869313 0.479767
O O13 0.447943 0.607820 0.393423
O O14 0.430378 0.800095 0.196371
O O15 0.671635 0.725194 0.534134
O O16 0.500000 0.000000 0.000000
O O17 0.000000 0.000000 0.500000
#
# Coordination Sequence:
#
# PCOD9092513 Si02
#       8
#     2   2   2   2   2   1   2   2
#     4  10  19  41  67  88 127 169 210 282 333 385
#     4   9  20  39  61  94 126 170 219 267 342 386
#     4  10  24  40  65 100 121 173 224 263 336 410
#     4  10  21  40  64  95 135 172 220 271 339 410
#     4  11  22  41  66  94 137 167 225 273 333 407
#     4  10  22  38  64  98 130 180 210 282 340 392
#     4  10  22  42  68  89 132 173 218 279 340 385
#     4   9  19  37  63  87 130 171 223 265 337 403
#
# _framework density 24.066649999999999
#
# number of rings (size 3 to 8) (size 9 to 14) (size 15 to 20)
#    0.000    2.133    1.333    0.800    5.600    3.200 
#    4.800    4.000    0.000    0.000    0.000    0.000 
#    0.000    0.000    0.000    0.000    0.000    0.000 
#
# Total GULP energy -83583.648675 kJ/mol
# GULP energy per Si atom -5572.243245 kJ/mol
# Density = 2.401187 g / cm^3
# Si number density = 24.066650 Si / 1000 Ang^3
#
#
#
# Elastic Constant Matrix: (Units=GPa)
#
#
# Indices 1 2 3 4 5 6 
#
# 1 72.8231 22.7259 52.1049 -2.3212 19.0301 3.4713
# 2 22.7259 105.7378 75.4508 -6.7127 22.2002 9.6394
# 3 52.1049 75.4508 184.1386 4.2498 45.2473 1.0149
# 4 -2.3212 -6.7127 4.2498 48.1364 6.4940 10.4066
# 5 19.0301 22.2002 45.2473 6.4940 48.4373 0.2023
# 6 3.4713 9.6394 1.0149 10.4066 0.2023 33.2834
#
#
#
# Elastic Compliance Matrix: (Units=1/GPa)
#
#
# Indices 1 2 3 4 5 6 
#
# 1 0.017848 0.000412 -0.004433 0.002314 -0.003359 -0.002549
# 2 0.000412 0.014565 -0.005635 0.003980 -0.002085 -0.005321
# 3 -0.004433 -0.005635 0.010258 -0.001735 -0.005036 0.002355
# 4 0.002314 0.003980 -0.001735 0.024087 -0.004305 -0.008846
# 5 -0.003359 -0.002085 -0.005036 -0.004305 0.028193 0.002282
# 6 -0.002549 -0.005321 0.002355 -0.008846 0.002282 0.034532
#
#
# Mechanical properties :
#
#
# Convention : Reuss Voigt Hill
#
# Bulk Modulus (GPa) = 42.80851 73.69583 58.25217
# Shear Modulus (GPa) = 31.93198 40.13263 36.03231
#
# Velocity S-wave (km/s) = 3.64650 4.08801 3.87355
# Velocity P-wave (km/s) = 5.96283 7.27808 6.65304
#
# Compressibility (1/GPa) = 0.02335984
#
# Stress axis : x y z
#
# Youngs Moduli (GPa) = 56.02750 68.65685 97.48101
#
# Poissons Ratio (x) = -0.02827 0.43214
# Poissons Ratio (y) = -0.02307 0.54928
# Poissons Ratio (z) = 0.24837 0.38686
#
# Static dielectric constant tensor:
#      x y z
#    x 1.957340 0.075700 0.022200 
#    y 0.075700 1.844000 0.011560 
#    z 0.022200 0.011560 1.944980 
# 
# From -- ./inp_files/378766.got.cif
#   From: 2010.05.17/outbox.cif.g08.bks.cpg/sg2_190_cif.got.tgz:378766.got - 2010.06.03 11:33:40.
