data_PCOD9092012
_publ_section_title
;
Structure prediction by ZEFSAII (Michael W. Deem and Ramdas Pophale) SiO2 
 PCOD9092012
Probable space group: P -1
;
_chemical_formula_sum "Si O2"
_cell_formula_units_Z 16
_cell_length_a 14.263203
_cell_length_b 9.463734
_cell_length_c 19.265023
_cell_angle_alpha 130.233460
_cell_angle_beta 160.117622
_cell_angle_gamma 50.275095
_cell_volume 670.108387
_symmetry_space_group_name_H-M "P -1"
_symmetry_group_IT_number 2
_symmetry_cell_setting 'triclinic'
loop_
_space_group_symop_operation_xyz
x,y,z
-x,-y,-z
loop_
_atom_site_type_symbol
_atom_site_label
_atom_site_fract_x
_atom_site_fract_y
_atom_site_fract_z
Si Si1 0.569380 0.013784 0.635489
Si Si2 0.974360 0.056556 0.790016
Si Si3 0.175429 0.062308 0.796728
Si Si4 0.996852 0.270528 0.200220
Si Si5 0.799759 0.340019 0.520814
Si Si6 0.140335 0.656336 0.601084
Si Si7 0.683368 0.392121 0.902494
Si Si8 0.146295 0.342838 0.102180
O O1 0.849346 0.878664 0.794530
O O2 0.306925 0.914749 0.442955
O O3 0.500000 0.000000 0.500000
O O4 0.567310 0.217754 0.728375
O O5 0.167017 0.131500 0.892108
O O6 0.032322 0.839861 0.783865
O O7 0.020935 0.162204 0.926998
O O8 0.017147 0.210408 0.680012
O O9 0.061220 0.860586 0.643708
O O10 0.500000 0.000000 0.000000
O O11 0.175460 0.440122 0.384326
O O12 0.713479 0.345782 0.990052
O O13 0.894949 0.310809 0.496890
O O14 0.480119 0.317303 0.314629
O O15 0.465180 0.572930 0.802022
O O16 0.000000 0.500000 0.500000
O O17 0.988200 0.399011 0.082472
O O18 0.000000 0.500000 0.000000
#
# Coordination Sequence:
#
# PCOD9092012 Si02
#       8
#     2   2   2   2   2   2   2   2
#     4  10  19  40  65 103 141 179 233 288 356 426
#     4  11  25  45  71 102 146 193 236 301 355 430
#     4  12  28  49  71 103 145 193 250 296 356 423
#     4  11  24  42  69 107 143 183 240 288 367 438
#     4  12  27  47  74 108 145 191 238 308 364 425
#     4  12  26  50  74  99 141 196 249 293 348 429
#     4  12  24  42  73 110 145 187 239 301 361 432
#     4  12  25  43  73 110 153 183 232 300 386 431
#
# _framework density 23.876733999999999
#
# number of rings (size 3 to 8) (size 9 to 14) (size 15 to 20)
#    0.000    0.500    3.750    6.000    3.500    2.500 
#    0.000    2.500    0.000    0.000    0.000    0.000 
#    0.000    0.000    0.000    0.000    0.000    0.000 
#
# Total GULP energy -89101.333318 kJ/mol
# GULP energy per Si atom -5568.833332 kJ/mol
# Density = 2.382239 g / cm^3
# Si number density = 23.876734 Si / 1000 Ang^3
#
#
#
# Elastic Constant Matrix: (Units=GPa)
#
#
# Indices 1 2 3 4 5 6 
#
# 1 106.2030 29.4479 21.1611 -18.4324 6.8360 17.3168
# 2 29.4479 138.8430 32.5458 0.6790 -1.0016 23.2632
# 3 21.1611 32.5458 76.5244 -2.1162 9.0243 17.5321
# 4 -18.4324 0.6790 -2.1162 49.8469 4.7046 -12.6845
# 5 6.8360 -1.0016 9.0243 4.7046 33.6708 -3.1591
# 6 17.3168 23.2632 17.5321 -12.6845 -3.1591 47.1308
#
#
#
# Elastic Compliance Matrix: (Units=1/GPa)
#
#
# Indices 1 2 3 4 5 6 
#
# 1 0.011375 -0.001781 -0.001541 0.003948 -0.002674 -0.001844
# 2 -0.001781 0.008749 -0.002738 -0.001792 0.001321 -0.003040
# 3 -0.001541 -0.002738 0.016215 -0.000586 -0.004462 -0.004571
# 4 0.003948 -0.001792 -0.000586 0.023292 -0.003418 0.005692
# 5 -0.002674 0.001321 -0.004462 -0.003418 0.032258 0.003232
# 6 -0.001844 -0.003040 -0.004571 0.005692 0.003232 0.026844
#
#
# Mechanical properties :
#
#
# Convention : Reuss Voigt Hill
#
# Bulk Modulus (GPa) = 41.28755 54.20888 47.74821
# Shear Modulus (GPa) = 35.99024 42.02407 39.00716
#
# Velocity S-wave (km/s) = 3.88665 4.19984 4.04628
# Velocity P-wave (km/s) = 6.12135 6.80229 6.47078
#
# Compressibility (1/GPa) = 0.02422038
#
# Stress axis : x y z
#
# Youngs Moduli (GPa) = 87.91359 114.29338 61.66978
#
# Poissons Ratio (x) = 0.20356 0.09504
# Poissons Ratio (y) = 0.15657 0.16882
# Poissons Ratio (z) = 0.13548 0.31288
#
# Static dielectric constant tensor:
#      x y z
#    x 2.454570 -0.432590 0.685990 
#    y -0.432590 2.888200 -0.548200 
#    z 0.685990 -0.548200 2.907470 
# 
# From -- ./inp_files/597444.got.cif
#   From: 2010.05.17/outbox.cif.g08.bks.cpg/sg2_299_cif.got.tgz:597444.got - 2010.06.03 11:33:40.
