data_PCOD9092040
_publ_section_title
;
Structure prediction by ZEFSAII (Michael W. Deem and Ramdas Pophale) SiO2 
 PCOD9092040
Probable space group: P -1
;
_chemical_formula_sum "Si O2"
_cell_formula_units_Z 16
_cell_length_a 21.121457
_cell_length_b 8.743292
_cell_length_c 7.493276
_cell_angle_alpha 52.072465
_cell_angle_beta 123.101055
_cell_angle_gamma 145.033335
_cell_volume 622.790485
_symmetry_space_group_name_H-M "P -1"
_symmetry_group_IT_number 2
_symmetry_cell_setting 'triclinic'
loop_
_space_group_symop_operation_xyz
x,y,z
-x,-y,-z
loop_
_atom_site_type_symbol
_atom_site_label
_atom_site_fract_x
_atom_site_fract_y
_atom_site_fract_z
Si Si1 0.762222 0.831589 0.652261
Si Si2 0.877645 0.421296 0.501902
Si Si3 0.265853 0.855630 0.158633
Si Si4 0.078745 0.752573 0.798125
Si Si5 0.311599 0.515313 0.543610
Si Si6 0.508456 0.241271 0.787812
Si Si7 0.840467 0.775947 0.162084
Si Si8 0.517733 0.637740 0.703512
O O1 0.771916 0.755965 0.525410
O O2 0.635618 0.541475 0.720841
O O3 0.800603 0.124198 0.496132
O O4 0.830278 0.876984 0.893040
O O5 0.814518 0.321114 0.667444
O O6 0.879550 0.637668 0.268031
O O7 0.004799 0.609735 0.609082
O O8 0.314108 0.730168 0.297726
O O9 0.372872 0.180784 0.142516
O O10 0.191042 0.834749 0.921148
O O11 0.090219 0.981601 0.753256
O O12 0.000000 0.500000 0.000000
O O13 0.273076 0.458008 0.730261
O O14 0.425594 0.611612 0.651561
O O15 0.471972 0.337470 0.803504
O O16 0.445595 0.182470 0.551608
O O17 0.500000 0.000000 0.000000
#
# Coordination Sequence:
#
# PCOD9092040 Si02
#       8
#     2   2   2   2   2   2   2   2
#     4  11  22  45  62  98 136 169 217 279 321 383
#     4  10  21  39  72  94 128 173 225 269 333 389
#     4  10  19  40  65  90 134 175 208 273 328 378
#     4  10  19  40  70  98 126 172 220 275 327 387
#     4  10  25  40  64 100 134 171 222 267 326 394
#     4  10  22  36  64  97 129 174 225 261 319 398
#     4  11  22  42  72  95 131 178 217 264 340 395
#     4  10  20  41  61  91 138 171 212 273 323 382
#
# _framework density 25.690825
#
# number of rings (size 3 to 8) (size 9 to 14) (size 15 to 20)
#    0.000    1.750    3.750    0.750    3.500    0.000 
#    6.750    2.500    0.000    0.000    0.000    0.000 
#    0.000    0.000    0.000    0.000    0.000    0.000 
#
# Total GULP energy -89461.696197 kJ/mol
# GULP energy per Si atom -5591.356012 kJ/mol
# Density = 2.563235 g / cm^3
# Si number density = 25.690825 Si / 1000 Ang^3
#
#
#
# Elastic Constant Matrix: (Units=GPa)
#
#
# Indices 1 2 3 4 5 6 
#
# 1 71.6660 32.0518 58.8523 1.4395 26.0116 7.1600
# 2 32.0518 133.3362 48.7533 -0.2008 32.8451 -4.3322
# 3 58.8523 48.7533 128.7474 -8.1930 19.9818 -18.7027
# 4 1.4395 -0.2008 -8.1930 45.3643 -11.3675 16.4684
# 5 26.0116 32.8451 19.9818 -11.3675 44.3031 -3.5146
# 6 7.1600 -4.3322 -18.7027 16.4684 -3.5146 24.1051
#
#
#
# Elastic Compliance Matrix: (Units=1/GPa)
#
#
# Indices 1 2 3 4 5 6 
#
# 1 0.038837 0.000994 -0.019898 0.002204 -0.016434 -0.030697
# 2 0.000994 0.010291 -0.003465 -0.002176 -0.007265 -0.000707
# 3 -0.019898 -0.003465 0.020533 -0.002873 0.006163 0.024080
# 4 0.002204 -0.002176 -0.002873 0.032192 0.007962 -0.024107
# 5 -0.016434 -0.007265 0.006163 0.007962 0.037535 0.008391
# 6 -0.030697 -0.000707 0.024080 -0.024107 0.008391 0.086853
#
#
# Mechanical properties :
#
#
# Convention : Reuss Voigt Hill
#
# Bulk Modulus (GPa) = 40.12207 68.11828 54.12018
# Shear Modulus (GPa) = 17.90275 35.69398 26.79837
#
# Velocity S-wave (km/s) = 2.64266 3.73147 3.23323
# Velocity P-wave (km/s) = 4.99627 6.71843 5.92031
#
# Compressibility (1/GPa) = 0.02492394
#
# Stress axis : x y z
#
# Youngs Moduli (GPa) = 25.74891 97.17105 48.70120
#
# Poissons Ratio (x) = -0.09658 0.96903
# Poissons Ratio (y) = -0.02559 0.16875
# Poissons Ratio (z) = 0.51234 0.33670
#
# Static dielectric constant tensor:
#      x y z
#    x 2.116400 0.053900 -0.035900 
#    y 0.053900 2.159610 0.001390 
#    z -0.035900 0.001390 2.061090 
# 
# From -- ./inp_files/352047.got.cif
#   From: 2010.05.17/outbox.cif.g08.bks.cpg/sg2_177_cif.got.tgz:352047.got - 2010.06.03 11:33:40.
