data_PCOD9092288
_publ_section_title
;
Structure prediction by ZEFSAII (Michael W. Deem and Ramdas Pophale) SiO2 
 PCOD9092288
Probable space group: P -1
;
_chemical_formula_sum "Si O2"
_cell_formula_units_Z 16
_cell_length_a 8.875681
_cell_length_b 9.690412
_cell_length_c 15.668792
_cell_angle_alpha 134.428855
_cell_angle_beta 107.844905
_cell_angle_gamma 100.503265
_cell_volume 743.806925
_symmetry_space_group_name_H-M "P -1"
_symmetry_group_IT_number 2
_symmetry_cell_setting 'triclinic'
loop_
_space_group_symop_operation_xyz
x,y,z
-x,-y,-z
loop_
_atom_site_type_symbol
_atom_site_label
_atom_site_fract_x
_atom_site_fract_y
_atom_site_fract_z
Si Si1 0.945079 0.902499 0.200748
Si Si2 0.755524 0.461264 0.091530
Si Si3 0.068576 0.528481 0.291490
Si Si4 0.581023 0.441554 0.230283
Si Si5 0.572504 0.253085 0.659651
Si Si6 0.025692 0.351855 0.510022
Si Si7 0.210386 0.754784 0.145454
Si Si8 0.152229 0.016004 0.967494
O O1 0.147921 0.927136 0.233407
O O2 0.785727 0.657916 0.116223
O O3 0.872479 0.901656 0.093196
O O4 0.979275 0.116744 0.355422
O O5 0.967546 0.584906 0.225703
O O6 0.618901 0.404327 0.122976
O O7 0.710139 0.237292 0.931552
O O8 0.110299 0.687896 0.450162
O O9 0.253590 0.564098 0.295303
O O10 0.912991 0.252785 0.169229
O O11 0.569703 0.666824 0.326634
O O12 0.758767 0.504303 0.348478
O O13 0.373236 0.204561 0.117121
O O14 0.657022 0.257317 0.768117
O O15 0.500000 0.000000 0.500000
O O16 0.000000 0.500000 0.500000
O O17 0.000000 0.500000 0.000000
O O18 0.000000 0.000000 0.000000
#
# Coordination Sequence:
#
# PCOD9092288 Si02
#       8
#     2   2   2   2   2   2   2   2
#     4  11  22  42  74  98 140 188 229 284 358 414
#     4  10  23  41  72 103 133 181 239 289 346 406
#     4  11  23  45  68  95 143 187 225 286 356 405
#     4  11  26  43  73 103 140 184 243 284 353 421
#     4  12  24  41  67 107 142 177 233 290 349 417
#     4  11  25  47  67  99 142 185 233 287 352 420
#     4  10  19  40  69  98 138 176 228 281 346 413
#     4  12  24  44  71  99 142 189 229 282 348 416
#
# _framework density 21.510960000000001
#
# number of rings (size 3 to 8) (size 9 to 14) (size 15 to 20)
#    0.000    1.000    5.000    3.000    1.750    5.000 
#    0.000    3.750    0.000    0.000    0.000    0.000 
#    0.000    0.000    0.000    0.000    0.000    0.000 
#
# Total GULP energy -89428.869339 kJ/mol
# GULP energy per Si atom -5589.304334 kJ/mol
# Density = 2.146200 g / cm^3
# Si number density = 21.510960 Si / 1000 Ang^3
#
#
#
# Elastic Constant Matrix: (Units=GPa)
#
#
# Indices 1 2 3 4 5 6 
#
# 1 101.3430 10.0482 28.4765 -11.6975 -24.3006 0.5729
# 2 10.0482 72.6162 23.8050 -20.3670 0.5733 -6.5407
# 3 28.4765 23.8050 74.0620 -13.5591 -24.9732 -0.2806
# 4 -11.6975 -20.3670 -13.5591 45.6470 -0.7206 -4.3632
# 5 -24.3006 0.5733 -24.9732 -0.7206 46.9464 -1.1406
# 6 0.5729 -6.5407 -0.2806 -4.3632 -1.1406 37.0283
#
#
#
# Elastic Compliance Matrix: (Units=1/GPa)
#
#
# Indices 1 2 3 4 5 6 
#
# 1 0.012041 -0.000226 -0.002448 0.002354 0.004974 0.000186
# 2 -0.000226 0.017796 -0.005436 0.006582 -0.003033 0.003788
# 3 -0.002448 -0.005436 0.019923 0.003002 0.009440 -0.000127
# 4 0.002354 0.006582 0.003002 0.026811 0.003254 0.004408
# 5 0.004974 -0.003033 0.009440 0.003254 0.029002 0.000736
# 6 0.000186 0.003788 -0.000127 0.004408 0.000736 0.028214
#
#
# Mechanical properties :
#
#
# Convention : Reuss Voigt Hill
#
# Bulk Modulus (GPa) = 29.81649 41.40896 35.61273
# Shear Modulus (GPa) = 31.01963 38.30375 34.66169
#
# Velocity S-wave (km/s) = 3.80154 4.22437 4.01852
# Velocity P-wave (km/s) = 5.75848 6.56397 6.17437
#
# Compressibility (1/GPa) = 0.03353848
#
# Stress axis : x y z
#
# Youngs Moduli (GPa) = 83.04858 56.19384 50.19251
#
# Poissons Ratio (x) = 0.01269 0.12289
# Poissons Ratio (y) = 0.01876 0.27287
# Poissons Ratio (z) = 0.20334 0.30550
#
# Static dielectric constant tensor:
#      x y z
#    x 1.831840 0.015760 -0.016140 
#    y 0.015760 1.822980 0.017710 
#    z -0.016140 0.017710 1.803270 
# 
# From -- ./inp_files/243978.got.cif
#   From: 2010.05.17/outbox.cif.g08.bks.cpg/sg2_122_cif.got.tgz:243978.got - 2010.06.03 11:33:40.
