data_PCOD9092988
_publ_section_title
;
Structure prediction by ZEFSAII (Michael W. Deem and Ramdas Pophale) SiO2 
 PCOD9092988
Probable space group: P -1
;
_chemical_formula_sum "Si O2"
_cell_formula_units_Z 16
_cell_length_a 28.106235
_cell_length_b 28.259775
_cell_length_c 13.580117
_cell_angle_alpha 31.253426
_cell_angle_beta 147.202896
_cell_angle_gamma 169.857203
_cell_volume 985.456206
_symmetry_space_group_name_H-M "P -1"
_symmetry_group_IT_number 2
_symmetry_cell_setting 'triclinic'
loop_
_space_group_symop_operation_xyz
x,y,z
-x,-y,-z
loop_
_atom_site_type_symbol
_atom_site_label
_atom_site_fract_x
_atom_site_fract_y
_atom_site_fract_z
Si Si1 0.986190 0.296318 0.452976
Si Si2 0.323665 0.628971 0.765010
Si Si3 0.893059 0.458212 0.299028
Si Si4 0.342550 0.274268 0.019969
Si Si5 0.865348 0.085758 0.828947
Si Si6 0.407357 0.900389 0.320266
Si Si7 0.187597 0.304298 0.765993
Si Si8 0.516392 0.083968 0.788200
O O1 0.901866 0.176781 0.627479
O O2 0.144072 0.366608 0.552891
O O3 0.193951 0.583237 0.307907
O O4 0.714046 0.064876 0.341407
O O5 0.208426 0.550342 0.808254
O O6 0.316209 0.709356 0.535706
O O7 0.142951 0.371805 0.860991
O O8 0.634006 0.904889 0.813749
O O9 0.000000 0.500000 0.500000
O O10 0.146953 0.709469 0.220232
O O11 0.641274 0.163234 0.332887
O O12 0.626280 0.521258 0.121645
O O13 0.245076 0.121260 0.028695
O O14 0.321612 0.363275 0.820020
O O15 0.115553 0.025834 0.148591
O O16 0.519414 0.003542 0.221883
O O17 0.500000 0.000000 0.000000
#
# Coordination Sequence:
#
# PCOD9092988 Si02
#       8
#     2   2   2   2   2   2   2   2
#     4  11  19  34  47  64  88 126 158 195 234 268
#     4  11  18  28  44  68  90 118 152 184 218 277
#     4  10  20  30  46  65  87 116 155 189 228 275
#     4   9  17  27  41  67  90 118 151 181 216 267
#     4  11  17  27  45  66  93 121 147 183 219 268
#     4  11  19  34  45  61  88 121 154 199 232 266
#     4   9  17  29  44  61  88 119 156 183 216 276
#     4  12  24  35  49  67  88 121 167 210 238 258
#
# _framework density 16.236135000000001
#
# number of rings (size 3 to 8) (size 9 to 14) (size 15 to 20)
#    0.000    1.500    2.500    7.875    0.000    0.000 
#    0.000    0.000    0.000    0.000    0.000    0.000 
#    0.000    0.000    0.000   22.500    0.000    0.000 
#
# Total GULP energy -89159.235378 kJ/mol
# GULP energy per Si atom -5572.452211 kJ/mol
# Density = 1.619918 g / cm^3
# Si number density = 16.236135 Si / 1000 Ang^3
#
#
#
# Elastic Constant Matrix: (Units=GPa)
#
#
# Indices 1 2 3 4 5 6 
#
# 1 91.6220 16.9100 25.9096 -2.4319 9.0326 -3.0977
# 2 16.9100 88.0553 7.4431 1.4654 2.6019 -0.5268
# 3 25.9096 7.4431 29.2726 2.1845 1.3418 3.9905
# 4 -2.4319 1.4654 2.1845 8.8528 -0.2477 7.3743
# 5 9.0326 2.6019 1.3418 -0.2477 10.4213 2.8097
# 6 -3.0977 -0.5268 3.9905 7.3743 2.8097 30.3519
#
#
#
# Elastic Compliance Matrix: (Units=1/GPa)
#
#
# Indices 1 2 3 4 5 6 
#
# 1 0.017007 -0.001680 -0.014903 0.005242 -0.013253 0.003619
# 2 -0.001680 0.011905 -0.001385 -0.003074 -0.001713 0.001123
# 3 -0.014903 -0.001385 0.048952 -0.010550 0.008379 -0.006193
# 4 0.005242 -0.003074 -0.010550 0.146751 0.010441 -0.034753
# 5 -0.013253 -0.001713 0.008379 0.010441 0.111170 -0.015312
# 6 0.003619 0.001123 -0.006193 -0.034753 -0.015312 0.044011
#
#
# Mechanical properties :
#
#
# Convention : Reuss Voigt Hill
#
# Bulk Modulus (GPa) = 23.85062 34.38617 29.11840
# Shear Modulus (GPa) = 11.63582 20.50436 16.07009
#
# Velocity S-wave (km/s) = 2.67996 3.55756 3.14948
# Velocity P-wave (km/s) = 4.92930 6.17250 5.58560
#
# Compressibility (1/GPa) = 0.04192762
#
# Stress axis : x y z
#
# Youngs Moduli (GPa) = 58.79939 84.00021 20.42815
#
# Poissons Ratio (x) = 0.14114 0.30444
# Poissons Ratio (y) = 0.09880 0.02829
# Poissons Ratio (z) = 0.87628 0.11633
#
# Static dielectric constant tensor:
#      x y z
#    x 1.625550 0.005400 0.044640 
#    y 0.005400 1.561980 0.003260 
#    z 0.044640 0.003260 1.516880 
# 
# From -- ./inp_files/371311.got.cif
#   From: 2010.05.17/outbox.cif.g08.bks.cpg/sg2_186_cif.got.tgz:371311.got - 2010.06.03 11:33:40.
