data_PCOD9092150
_publ_section_title
;
Structure prediction by ZEFSAII (Michael W. Deem and Ramdas Pophale) SiO2 
 PCOD9092150
Probable space group: P -1
;
_chemical_formula_sum "Si O2"
_cell_formula_units_Z 16
_cell_length_a 9.835297
_cell_length_b 9.146320
_cell_length_c 12.349242
_cell_angle_alpha 127.469967
_cell_angle_beta 124.497883
_cell_angle_gamma 49.012194
_cell_volume 639.045388
_symmetry_space_group_name_H-M "P -1"
_symmetry_group_IT_number 2
_symmetry_cell_setting 'triclinic'
loop_
_space_group_symop_operation_xyz
x,y,z
-x,-y,-z
loop_
_atom_site_type_symbol
_atom_site_label
_atom_site_fract_x
_atom_site_fract_y
_atom_site_fract_z
Si Si1 0.188813 0.477120 0.626656
Si Si2 0.069928 0.711759 0.997802
Si Si3 0.776729 0.255585 0.546959
Si Si4 0.639054 0.704203 0.976703
Si Si5 0.466297 0.252668 0.286571
Si Si6 0.772419 0.169425 0.080545
Si Si7 0.877681 0.686249 0.263046
Si Si8 0.508364 0.157872 0.491326
O O1 0.357613 0.378454 0.573339
O O2 0.162010 0.697005 0.755131
O O3 0.224946 0.328395 0.681466
O O4 0.000000 0.500000 0.500000
O O5 0.210617 0.545676 0.073301
O O6 0.185154 0.783235 0.001020
O O7 0.010979 0.559642 0.835077
O O8 0.894862 0.924280 0.051118
O O9 0.444376 0.139117 0.332364
O O10 0.660942 0.501173 0.635249
O O11 0.710238 0.146153 0.559780
O O12 0.986808 0.214632 0.612908
O O13 0.447237 0.738617 0.959110
O O14 0.738519 0.786018 0.144160
O O15 0.678208 0.219209 0.380475
O O16 0.411256 0.205611 0.124968
O O17 0.500000 0.000000 0.500000
#
# Coordination Sequence:
#
# PCOD9092150 Si02
#       8
#     2   2   2   2   2   2   2   2
#     4  11  23  40  67 105 153 194 249 314 383 442
#     4   8  20  38  65 108 148 200 259 301 371 472
#     4   9  19  41  70 102 141 193 246 295 392 432
#     4  10  20  38  72 106 147 200 253 306 379 458
#     4   9  20  38  73 101 140 201 239 303 377 446
#     4  10  19  40  67 104 156 203 247 315 379 439
#     4   9  21  39  69 110 138 198 248 311 378 449
#     4  10  22  44  73 105 140 206 255 304 372 462
#
# _framework density 25.037344000000001
#
# number of rings (size 3 to 8) (size 9 to 14) (size 15 to 20)
#    1.500    1.000    0.000    1.875    1.750    0.500 
#    4.500    3.125    5.500    6.750    0.000    0.000 
#    0.000    0.000    0.000    0.000    0.000    0.000 
#
# Total GULP energy -89465.948101 kJ/mol
# GULP energy per Si atom -5591.621756 kJ/mol
# Density = 2.498036 g / cm^3
# Si number density = 25.037344 Si / 1000 Ang^3
#
#
#
# Elastic Constant Matrix: (Units=GPa)
#
#
# Indices 1 2 3 4 5 6 
#
# 1 128.8443 43.2130 71.3259 -6.8999 7.0421 23.7410
# 2 43.2130 129.4436 47.7478 -6.7111 -0.5690 11.6527
# 3 71.3259 47.7478 159.6587 -14.1674 0.4200 11.4079
# 4 -6.8999 -6.7111 -14.1674 39.1352 10.2206 -8.1803
# 5 7.0421 -0.5690 0.4200 10.2206 44.0592 -5.8627
# 6 23.7410 11.6527 11.4079 -8.1803 -5.8627 46.1431
#
#
#
# Elastic Compliance Matrix: (Units=1/GPa)
#
#
# Indices 1 2 3 4 5 6 
#
# 1 0.011858 -0.001923 -0.004385 -0.000199 -0.002482 -0.004882
# 2 -0.001923 0.009113 -0.001780 0.000349 0.000258 -0.000777
# 3 -0.004385 -0.001780 0.008890 0.002287 0.000187 0.000937
# 4 -0.000199 0.000349 0.002287 0.028804 -0.006165 0.003772
# 5 -0.002482 0.000258 0.000187 -0.006165 0.024957 0.003243
# 6 -0.004882 -0.000777 0.000937 0.003772 0.003243 0.025229
#
#
# Mechanical properties :
#
#
# Convention : Reuss Voigt Hill
#
# Bulk Modulus (GPa) = 73.07157 82.50223 77.78690
# Shear Modulus (GPa) = 38.58349 42.91149 40.74749
#
# Velocity S-wave (km/s) = 3.92986 4.14442 4.03857
# Velocity P-wave (km/s) = 7.05976 7.47829 7.27203
#
# Compressibility (1/GPa) = 0.01368521
#
# Stress axis : x y z
#
# Youngs Moduli (GPa) = 84.33043 109.72939 112.48427
#
# Poissons Ratio (x) = 0.21101 0.49321
# Poissons Ratio (y) = 0.16217 0.20028
# Poissons Ratio (z) = 0.36976 0.19537
#
# Static dielectric constant tensor:
#      x y z
#    x 1.964910 -0.045330 -0.017680 
#    y -0.045330 2.061860 0.011480 
#    z -0.017680 0.011480 1.943860 
# 
# From -- ./inp_files/493502.got.cif
#   From: 2010.05.17/outbox.cif.g08.bks.cpg/sg2_247_cif.got.tgz:493502.got - 2010.06.03 11:33:40.
