data_PCOD9092412
_publ_section_title
;
Structure prediction by ZEFSAII (Michael W. Deem and Ramdas Pophale) SiO2 
 PCOD9092412
Probable space group: P -1
;
_chemical_formula_sum "Si O2"
_cell_formula_units_Z 16
_cell_length_a 15.453349
_cell_length_b 12.875558
_cell_length_c 15.606611
_cell_angle_alpha 36.465692
_cell_angle_beta 151.935235
_cell_angle_gamma 123.792431
_cell_volume 725.830049
_symmetry_space_group_name_H-M "P -1"
_symmetry_group_IT_number 2
_symmetry_cell_setting 'triclinic'
loop_
_space_group_symop_operation_xyz
x,y,z
-x,-y,-z
loop_
_atom_site_type_symbol
_atom_site_label
_atom_site_fract_x
_atom_site_fract_y
_atom_site_fract_z
Si Si1 0.765412 0.536015 0.740223
Si Si2 0.572674 0.981945 0.307553
Si Si3 0.240977 0.872179 0.756097
Si Si4 0.206169 0.630366 0.732251
Si Si5 0.628787 0.185509 0.370161
Si Si6 0.780008 0.226008 0.647122
Si Si7 0.855970 0.576677 0.408960
Si Si8 0.533799 0.550502 0.360631
O O1 0.575689 0.776667 0.435588
O O2 0.720713 0.516117 0.614104
O O3 0.680203 0.412344 0.800527
O O4 0.000000 0.500000 0.000000
O O5 0.743274 0.966441 0.397075
O O6 0.629448 0.006344 0.437830
O O7 0.361311 0.203827 0.949727
O O8 0.269550 0.695830 0.831296
O O9 0.431299 0.750302 0.074610
O O10 0.000000 0.000000 0.500000
O O11 0.193992 0.786318 0.544723
O O12 0.991774 0.626111 0.560414
O O13 0.395487 0.404397 0.012272
O O14 0.658582 0.173565 0.504619
O O15 0.822699 0.397116 0.530739
O O16 0.643327 0.343688 0.534155
O O17 0.000000 0.000000 0.000000
O O18 0.000000 0.500000 0.500000
#
# Coordination Sequence:
#
# PCOD9092412 Si02
#       8
#     2   2   2   2   2   2   2   2
#     4  11  28  50  72  97 138 192 237 280 346 415
#     4  11  24  43  72  99 132 175 231 280 336 415
#     4  11  23  43  68 100 133 179 228 287 344 398
#     4  10  20  37  68  93 136 172 219 282 335 410
#     4  10  19  41  63  96 133 173 217 277 345 400
#     4  12  26  43  67 100 141 177 221 283 350 410
#     4  12  22  40  66 103 132 173 224 274 343 411
#     4  11  26  50  69 100 145 180 232 293 342 408
#
# _framework density 22.043728999999999
#
# number of rings (size 3 to 8) (size 9 to 14) (size 15 to 20)
#    0.000    1.000    5.000    1.500    5.250    2.500 
#    0.000    1.250    0.000    0.000    0.000    0.000 
#    0.000    0.000    0.000    0.000    0.000    0.000 
#
# Total GULP energy -89275.962820 kJ/mol
# GULP energy per Si atom -5579.747676 kJ/mol
# Density = 2.199356 g / cm^3
# Si number density = 22.043729 Si / 1000 Ang^3
#
#
#
# Elastic Constant Matrix: (Units=GPa)
#
#
# Indices 1 2 3 4 5 6 
#
# 1 82.6214 29.5108 16.9159 9.1958 5.6821 -23.0195
# 2 29.5108 70.6371 15.5030 14.8955 -20.3253 -15.7371
# 3 16.9159 15.5030 83.3637 6.2085 -1.6198 -6.9146
# 4 9.1958 14.8955 6.2085 42.8402 -3.5129 -2.6231
# 5 5.6821 -20.3253 -1.6198 -3.5129 28.3253 9.5177
# 6 -23.0195 -15.7371 -6.9146 -2.6231 9.5177 31.0179
#
#
#
# Elastic Compliance Matrix: (Units=1/GPa)
#
#
# Indices 1 2 3 4 5 6 
#
# 1 0.021626 -0.009740 -0.001483 -0.001458 -0.016917 0.015845
# 2 -0.009740 0.025033 -0.002059 -0.004788 0.019686 -0.001432
# 3 -0.001483 -0.002059 0.012800 -0.000836 -0.000854 0.000900
# 4 -0.001458 -0.004788 -0.000836 0.025380 0.000532 -0.001715
# 5 -0.016917 0.019686 -0.000854 0.000532 0.059932 -0.021102
# 6 0.015845 -0.001432 0.000900 -0.001715 -0.021102 0.049803
#
#
# Mechanical properties :
#
#
# Convention : Reuss Voigt Hill
#
# Bulk Modulus (GPa) = 30.39858 40.05351 35.22604
# Shear Modulus (GPa) = 21.54230 32.08286 26.81258
#
# Velocity S-wave (km/s) = 3.12950 3.81913 3.49138
# Velocity P-wave (km/s) = 5.18444 6.13654 5.68047
#
# Compressibility (1/GPa) = 0.03289627
#
# Stress axis : x y z
#
# Youngs Moduli (GPa) = 46.24019 39.94715 78.12712
#
# Poissons Ratio (x) = 0.38908 0.11585
# Poissons Ratio (y) = 0.45037 0.16084
# Poissons Ratio (z) = 0.06857 0.08224
#
# Static dielectric constant tensor:
#      x y z
#    x 1.842560 0.008060 -0.003870 
#    y 0.008060 1.876810 0.113680 
#    z -0.003870 0.113680 2.068060 
# 
# From -- ./inp_files/532369.got.cif
#   From: 2010.05.17/outbox.cif.g08.bks.cpg/sg2_267_cif.got.tgz:532369.got - 2010.06.03 11:33:40.
