data_PCOD9092075
_publ_section_title
;
Structure prediction by ZEFSAII (Michael W. Deem and Ramdas Pophale) SiO2 
 PCOD9092075
Probable space group: P -1
;
_chemical_formula_sum "Si O2"
_cell_formula_units_Z 16
_cell_length_a 7.561667
_cell_length_b 13.778158
_cell_length_c 9.810954
_cell_angle_alpha 98.929356
_cell_angle_beta 87.364494
_cell_angle_gamma 41.287240
_cell_volume 645.217711
_symmetry_space_group_name_H-M "P -1"
_symmetry_group_IT_number 2
_symmetry_cell_setting 'triclinic'
loop_
_space_group_symop_operation_xyz
x,y,z
-x,-y,-z
loop_
_atom_site_type_symbol
_atom_site_label
_atom_site_fract_x
_atom_site_fract_y
_atom_site_fract_z
Si Si1 0.080991 0.649337 0.006430
Si Si2 0.677467 0.106498 0.029259
Si Si3 0.554973 0.286631 0.299845
Si Si4 0.194614 0.110632 0.481584
Si Si5 0.012247 0.370640 0.694316
Si Si6 0.375460 0.702372 0.126621
Si Si7 0.631498 0.181459 0.572821
Si Si8 0.894607 0.831591 0.816083
O O1 0.990280 0.632184 0.141789
O O2 0.136341 0.736973 0.077182
O O3 0.365727 0.480399 0.908399
O O4 0.895830 0.739083 0.898341
O O5 0.541397 0.247249 0.969654
O O6 0.578774 0.170414 0.199537
O O7 0.690922 0.998676 0.926298
O O8 0.000000 0.000000 0.000000
O O9 0.253468 0.458838 0.316848
O O10 0.630206 0.241268 0.444815
O O11 0.791696 0.257226 0.222192
O O12 0.001312 0.264838 0.610123
O O13 0.179378 0.150580 0.334063
O O14 0.500000 0.000000 0.500000
O O15 0.187270 0.995752 0.468769
O O16 0.306026 0.289924 0.623275
O O17 0.301301 0.785110 0.287886
#
# Coordination Sequence:
#
# PCOD9092075 Si02
#       8
#     2   2   2   2   2   2   2   2
#     4  11  23  41  68 100 132 171 221 287 327 383
#     4  10  19  40  65  98 133 163 227 280 324 390
#     4  11  23  42  68 102 130 176 225 278 326 398
#     4  10  25  46  64  95 142 175 219 273 336 404
#     4  11  25  46  64  97 143 176 218 278 332 395
#     4  11  21  42  65  99 136 170 227 276 327 394
#     4  11  26  43  67  95 136 188 219 265 339 402
#     4  11  23  42  71 100 128 176 226 277 336 391
#
# _framework density 24.797834000000002
#
# number of rings (size 3 to 8) (size 9 to 14) (size 15 to 20)
#    0.000    1.250    5.000    1.125    5.250    1.500 
#    0.000    2.500    0.000    0.000    0.000    0.000 
#    0.000    0.000    0.000    0.000    0.000    0.000 
#
# Total GULP energy -89593.662149 kJ/mol
# GULP energy per Si atom -5599.603884 kJ/mol
# Density = 2.474139 g / cm^3
# Si number density = 24.797834 Si / 1000 Ang^3
#
#
#
# Elastic Constant Matrix: (Units=GPa)
#
#
# Indices 1 2 3 4 5 6 
#
# 1 58.6625 7.1239 10.2089 -0.5161 -0.1397 -4.3618
# 2 7.1239 118.5622 43.0899 -9.2526 -1.8379 -5.5366
# 3 10.2089 43.0899 152.3211 -11.9400 9.9233 3.2203
# 4 -0.5161 -9.2526 -11.9400 58.0888 4.8950 1.0675
# 5 -0.1397 -1.8379 9.9233 4.8950 41.9014 -3.2649
# 6 -4.3618 -5.5366 3.2203 1.0675 -3.2649 30.5215
#
#
#
# Elastic Compliance Matrix: (Units=1/GPa)
#
#
# Indices 1 2 3 4 5 6 
#
# 1 0.017500 -0.000531 -0.001132 -0.000254 0.000535 0.002590
# 2 -0.000531 0.009642 -0.002744 0.000834 0.001134 0.002055
# 3 -0.001132 -0.002744 0.007707 0.001359 -0.002245 -0.001760
# 4 -0.000254 0.000834 0.001359 0.017847 -0.002442 -0.000914
# 5 0.000535 0.001134 -0.002245 -0.002442 0.024989 0.003278
# 6 0.002590 0.002055 -0.001760 -0.000914 0.003278 0.034075
#
#
# Mechanical properties :
#
#
# Convention : Reuss Voigt Hill
#
# Bulk Modulus (GPa) = 38.40942 50.04346 44.22644
# Shear Modulus (GPa) = 38.68373 44.04389 41.36381
#
# Velocity S-wave (km/s) = 3.95392 4.21897 4.08860
# Velocity P-wave (km/s) = 6.03053 6.63004 6.33738
#
# Compressibility (1/GPa) = 0.02603528
#
# Stress axis : x y z
#
# Youngs Moduli (GPa) = 57.14364 103.71120 129.74854
#
# Poissons Ratio (x) = 0.05503 0.14692
# Poissons Ratio (y) = 0.03032 0.35604
# Poissons Ratio (z) = 0.06471 0.28459
#
# Static dielectric constant tensor:
#      x y z
#    x 2.130770 -0.015240 0.002610 
#    y -0.015240 1.909060 -0.009830 
#    z 0.002610 -0.009830 1.931090 
# 
# From -- ./inp_files/207782.got.cif
#   From: 2010.05.17/outbox.cif.g08.bks.cpg/sg2_104_cif.got.tgz:207782.got - 2010.06.03 11:33:40.
