data_PCOD9092863
_publ_section_title
;
Structure prediction by ZEFSAII (Michael W. Deem and Ramdas Pophale) SiO2 
 PCOD9092863
Probable space group: P -1
;
_chemical_formula_sum "Si O2"
_cell_formula_units_Z 16
_cell_length_a 7.871022
_cell_length_b 10.887245
_cell_length_c 13.994174
_cell_angle_alpha 42.892810
_cell_angle_beta 92.169429
_cell_angle_gamma 74.676599
_cell_volume 736.640755
_symmetry_space_group_name_H-M "P -1"
_symmetry_group_IT_number 2
_symmetry_cell_setting 'triclinic'
loop_
_space_group_symop_operation_xyz
x,y,z
-x,-y,-z
loop_
_atom_site_type_symbol
_atom_site_label
_atom_site_fract_x
_atom_site_fract_y
_atom_site_fract_z
Si Si1 0.580704 0.378618 0.166584
Si Si2 0.069535 0.814870 0.181346
Si Si3 0.973717 0.390235 0.155341
Si Si4 0.715647 0.912817 0.392977
Si Si5 0.810699 0.673702 0.350697
Si Si6 0.733237 0.572503 0.719148
Si Si7 0.916183 0.054858 0.575111
Si Si8 0.685294 0.356323 0.528404
O O1 0.423968 0.440799 0.208826
O O2 0.766526 0.415268 0.168636
O O3 0.624873 0.147956 0.276236
O O4 0.500000 0.500000 0.000000
O O5 0.202535 0.608294 0.250418
O O6 0.178074 0.792294 0.299487
O O7 0.877866 0.798922 0.212448
O O8 0.000000 0.000000 0.000000
O O9 0.083474 0.448273 0.205809
O O10 0.070885 0.154506 0.269037
O O11 0.000000 0.500000 0.000000
O O12 0.682856 0.822992 0.344513
O O13 0.673774 0.785915 0.545410
O O14 0.936889 0.868089 0.421853
O O15 0.727737 0.534234 0.382815
O O16 0.000000 0.500000 0.500000
O O17 0.714271 0.215914 0.516355
O O18 0.000000 0.000000 0.500000
O O19 0.500000 0.500000 0.500000
#
# Coordination Sequence:
#
# PCOD9092863 Si02
#       8
#     2   2   2   2   2   2   2   2
#     4  11  26  41  64 101 138 174 224 288 341 407
#     4  11  25  43  71  96 133 186 230 278 345 422
#     4  11  25  42  65  94 136 185 222 275 349 418
#     4  11  21  42  69  94 126 177 228 273 336 410
#     4  10  19  43  67  87 123 179 223 264 335 416
#     4  12  23  45  68  99 134 177 234 283 344 409
#     4  11  22  39  68  97 128 175 229 279 340 418
#     4  11  24  43  67 102 136 172 233 296 343 405
#
# _framework density 21.720223000000001
#
# number of rings (size 3 to 8) (size 9 to 14) (size 15 to 20)
#    0.000    1.000    7.500    0.375    3.500    3.000 
#    0.000    0.625    0.000    0.000    0.000    0.000 
#    0.000    0.000    0.000    0.000    0.000    0.000 
#
# Total GULP energy -89140.009269 kJ/mol
# GULP energy per Si atom -5571.250579 kJ/mol
# Density = 2.167079 g / cm^3
# Si number density = 21.720223 Si / 1000 Ang^3
#
#
#
# Elastic Constant Matrix: (Units=GPa)
#
#
# Indices 1 2 3 4 5 6 
#
# 1 67.3718 33.1924 31.5305 9.7921 -7.6637 -3.0646
# 2 33.1924 126.8249 24.3674 10.5856 -3.9892 -11.1267
# 3 31.5305 24.3674 138.2463 25.4195 -33.4565 -0.2055
# 4 9.7921 10.5856 25.4195 21.8222 -7.3824 -9.4499
# 5 -7.6637 -3.9892 -33.4565 -7.3824 33.8142 1.4029
# 6 -3.0646 -11.1267 -0.2055 -9.4499 1.4029 31.0876
#
#
#
# Elastic Compliance Matrix: (Units=1/GPa)
#
#
# Indices 1 2 3 4 5 6 
#
# 1 0.018689 -0.004115 -0.002895 -0.003224 0.000209 -0.000639
# 2 -0.004115 0.009396 -0.000751 -0.000970 -0.000891 0.002698
# 3 -0.002895 -0.000751 0.012353 -0.011535 0.009141 -0.004391
# 4 -0.003224 -0.000970 -0.011535 0.070954 0.002373 0.020720
# 5 0.000209 -0.000891 0.009141 0.002373 0.039131 -0.001282
# 6 -0.000639 0.002698 -0.004391 0.020720 -0.001282 0.039397
#
#
# Mechanical properties :
#
#
# Convention : Reuss Voigt Hill
#
# Bulk Modulus (GPa) = 40.13576 56.73597 48.43587
# Shear Modulus (GPa) = 23.39226 33.56832 28.48029
#
# Velocity S-wave (km/s) = 3.28530 3.93553 3.62502
# Velocity P-wave (km/s) = 5.73669 6.84319 6.31422
#
# Compressibility (1/GPa) = 0.02491543
#
# Stress axis : x y z
#
# Youngs Moduli (GPa) = 53.50884 106.43060 80.95437
#
# Poissons Ratio (x) = 0.43800 0.23433
# Poissons Ratio (y) = 0.22021 0.06078
# Poissons Ratio (z) = 0.15489 0.07990
#
# Static dielectric constant tensor:
#      x y z
#    x 1.935850 0.011770 0.065050 
#    y 0.011770 1.788410 0.127500 
#    z 0.065050 0.127500 1.374950 
# 
# From -- ./inp_files/499884.got.cif
#   From: 2010.05.17/outbox.cif.g08.bks.cpg/sg2_250_cif.got.tgz:499884.got - 2010.06.03 11:33:40.
