data_PCOD9092225
_publ_section_title
;
Structure prediction by ZEFSAII (Michael W. Deem and Ramdas Pophale) SiO2 
 PCOD9092225
Probable space group: P -1
;
_chemical_formula_sum "Si O2"
_cell_formula_units_Z 15
_cell_length_a 8.891061
_cell_length_b 8.047731
_cell_length_c 9.365689
_cell_angle_alpha 79.103141
_cell_angle_beta 96.893460
_cell_angle_gamma 75.285760
_cell_volume 626.436200
_symmetry_space_group_name_H-M "P -1"
_symmetry_group_IT_number 2
_symmetry_cell_setting 'triclinic'
loop_
_space_group_symop_operation_xyz
x,y,z
-x,-y,-z
loop_
_atom_site_type_symbol
_atom_site_label
_atom_site_fract_x
_atom_site_fract_y
_atom_site_fract_z
Si Si1 0.868122 0.927160 0.072639
Si Si2 0.415256 0.420545 0.297675
Si Si3 0.165419 0.315166 0.667981
Si Si4 0.500000 0.000000 0.500000
Si Si5 0.136844 0.337998 0.110769
Si Si6 0.706162 0.146083 0.282662
Si Si7 0.981569 0.271861 0.386257
Si Si8 0.504712 0.243924 0.643819
O O1 0.931615 0.765336 0.216930
O O2 0.755776 0.073117 0.140828
O O3 0.794860 0.823106 0.964456
O O4 0.000000 0.000000 0.000000
O O5 0.271113 0.410503 0.186124
O O6 0.577415 0.338124 0.243575
O O7 0.426935 0.295893 0.463084
O O8 0.409667 0.612923 0.323976
O O9 0.117312 0.524623 0.631667
O O10 0.354190 0.259995 0.723629
O O11 0.112721 0.247954 0.525168
O O12 0.616365 0.033135 0.381113
O O13 0.609673 0.055758 0.635665
O O14 0.053905 0.263509 0.240231
O O15 0.000000 0.500000 0.000000
O O16 0.859228 0.158425 0.384808
#
# Coordination Sequence:
#
# PCOD9092225 Si02
#       8
#     2   2   2   1   2   2   2   2
#     4  12  26  45  70 103 154 190 238 298 373 434
#     4  10  23  42  72  99 142 187 240 296 359 434
#     4  11  22  42  72 105 137 187 247 311 342 429
#     4  10  22  38  68 106 148 166 232 306 368 412
#     4  12  25  47  69 105 146 196 241 298 363 443
#     4  11  23  44  69 104 143 190 240 300 358 433
#     4  11  23  42  75 103 138 187 257 297 354 421
#     4  10  19  40  68 106 135 179 237 296 360 417
#
# _framework density 23.944974999999999
#
# number of rings (size 3 to 8) (size 9 to 14) (size 15 to 20)
#    0.000    1.067    6.667    0.000    0.000    1.067 
#    4.800    2.667    0.000    0.000    0.000    0.000 
#    0.000    0.000    0.000    0.000    0.000    0.000 
#
# Total GULP energy -83504.610254 kJ/mol
# GULP energy per Si atom -5566.974017 kJ/mol
# Density = 2.389048 g / cm^3
# Si number density = 23.944975 Si / 1000 Ang^3
#
#
#
# Elastic Constant Matrix: (Units=GPa)
#
#
# Indices 1 2 3 4 5 6 
#
# 1 112.4265 26.2685 49.1716 14.4946 -6.4790 24.4999
# 2 26.2685 76.9479 32.0877 35.9654 1.2385 0.1329
# 3 49.1716 32.0877 115.5758 25.9588 -10.2928 16.2200
# 4 14.4946 35.9654 25.9588 44.5747 0.8629 -8.2330
# 5 -6.4790 1.2385 -10.2928 0.8629 48.1086 -1.6412
# 6 24.4999 0.1329 16.2200 -8.2330 -1.6412 23.0350
#
#
#
# Elastic Compliance Matrix: (Units=1/GPa)
#
#
# Indices 1 2 3 4 5 6 
#
# 1 0.014281 -0.001669 -0.002318 -0.004770 0.001038 -0.015178
# 2 -0.001669 0.022179 -0.001058 -0.017441 -0.000842 -0.003901
# 3 -0.002318 -0.001058 0.013259 -0.007920 0.002369 -0.009526
# 4 -0.004770 -0.017441 -0.007920 0.047824 -0.001800 0.027715
# 5 0.001038 -0.000842 0.002369 -0.001800 0.021423 -0.001884
# 6 -0.015178 -0.003901 -0.009526 0.027715 -0.001884 0.076057
#
#
# Mechanical properties :
#
#
# Convention : Reuss Voigt Hill
#
# Bulk Modulus (GPa) = 25.23462 57.77842 41.50652
# Shear Modulus (GPa) = 22.90187 36.30516 29.60351
#
# Velocity S-wave (km/s) = 3.09599 3.89805 3.51994
# Velocity P-wave (km/s) = 4.83132 6.66647 5.82166
#
# Compressibility (1/GPa) = 0.03962811
#
# Stress axis : x y z
#
# Youngs Moduli (GPa) = 70.02206 45.08820 75.42043
#
# Poissons Ratio (x) = 0.07527 0.17486
# Poissons Ratio (y) = 0.11689 0.07976
# Poissons Ratio (z) = 0.16234 0.04769
#
# Static dielectric constant tensor:
#      x y z
#    x 1.884580 0.070890 0.004250 
#    y 0.070890 1.511890 0.016080 
#    z 0.004250 0.016080 1.938400 
# 
# From -- ./inp_files/154923.got.cif
#   From: 2010.05.17/outbox.cif.g08.bks.cpg/sg2_78_cif.got.tgz:154923.got - 2010.06.03 11:33:40.
