data_PCOD9092774
_publ_section_title
;
Structure prediction by ZEFSAII (Michael W. Deem and Ramdas Pophale) SiO2 
 PCOD9092774
Probable space group: P -1
;
_chemical_formula_sum "Si O2"
_cell_formula_units_Z 16
_cell_length_a 27.939524
_cell_length_b 12.467962
_cell_length_c 6.019295
_cell_angle_alpha 129.848841
_cell_angle_beta 124.852590
_cell_angle_gamma 26.671272
_cell_volume 722.590384
_symmetry_space_group_name_H-M "P -1"
_symmetry_group_IT_number 2
_symmetry_cell_setting 'triclinic'
loop_
_space_group_symop_operation_xyz
x,y,z
-x,-y,-z
loop_
_atom_site_type_symbol
_atom_site_label
_atom_site_fract_x
_atom_site_fract_y
_atom_site_fract_z
Si Si1 0.238505 0.846967 0.122581
Si Si2 0.713787 0.479655 0.544106
Si Si3 0.480802 0.917564 0.662602
Si Si4 0.260680 0.000126 0.996062
Si Si5 0.435919 0.525431 0.521014
Si Si6 0.254660 0.341636 0.406678
Si Si7 0.871084 0.978132 0.535692
Si Si8 0.971003 0.124084 0.336020
O O1 0.341028 0.647327 0.288269
O O2 0.129709 0.045607 0.235156
O O3 0.248001 0.696566 0.787383
O O4 0.249115 0.969233 0.175384
O O5 0.587320 0.713651 0.527558
O O6 0.745717 0.575119 0.717611
O O7 0.778656 0.281024 0.653435
O O8 0.486661 0.751688 0.561289
O O9 0.367669 0.158804 0.567472
O O10 0.500000 0.000000 0.000000
O O11 0.374086 0.723704 0.824510
O O12 0.171343 0.083487 0.751856
O O13 0.248438 0.187812 0.174082
O O14 0.500000 0.500000 0.500000
O O15 0.154891 0.599694 0.620335
O O16 0.969918 0.844618 0.491521
O O17 0.000000 0.000000 0.500000
O O18 0.000000 0.000000 0.000000
#
# Coordination Sequence:
#
# PCOD9092774 Si02
#       8
#     2   2   2   2   2   2   2   2
#     4  10  19  42  68  95 134 192 241 280 369 450
#     4  11  22  43  68  96 140 185 236 297 366 444
#     4  12  26  41  66 107 147 189 242 303 373 447
#     4  10  24  44  69 105 148 190 246 300 382 452
#     4  11  23  39  64  97 146 193 229 292 368 454
#     4  12  27  44  71 112 144 188 254 316 372 454
#     4  10  22  46  76 100 136 200 243 300 376 449
#     4  12  28  52  83 113 149 201 258 327 382 450
#
# _framework density 22.14256
#
# number of rings (size 3 to 8) (size 9 to 14) (size 15 to 20)
#    0.000    1.000    5.000    2.625    7.000    1.500 
#    4.500    0.625    0.000    0.000    0.000    0.000 
#    0.000    0.000    0.000    0.000    0.000    0.000 
#
# Total GULP energy -89295.830084 kJ/mol
# GULP energy per Si atom -5580.989380 kJ/mol
# Density = 2.209216 g / cm^3
# Si number density = 22.142560 Si / 1000 Ang^3
#
#
#
# Elastic Constant Matrix: (Units=GPa)
#
#
# Indices 1 2 3 4 5 6 
#
# 1 183.1267 27.8470 20.7026 9.5585 3.2716 10.1397
# 2 27.8470 41.6607 14.5810 10.7418 6.8127 -0.0095
# 3 20.7026 14.5810 56.6529 3.1879 8.4119 13.8044
# 4 9.5585 10.7418 3.1879 20.1884 3.4941 3.2779
# 5 3.2716 6.8127 8.4119 3.4941 37.0870 4.3197
# 6 10.1397 -0.0095 13.8044 3.2779 4.3197 43.5813
#
#
#
# Elastic Compliance Matrix: (Units=1/GPa)
#
#
# Indices 1 2 3 4 5 6 
#
# 1 0.006235 -0.003685 -0.001105 -0.000737 0.000576 -0.001103
# 2 -0.003685 0.033343 -0.007002 -0.015053 -0.003323 0.004544
# 3 -0.001105 -0.007002 0.021759 0.002393 -0.003018 -0.006517
# 4 -0.000737 -0.015053 0.002393 0.058751 -0.002695 -0.004741
# 5 0.000576 -0.003323 -0.003018 -0.002695 0.028673 -0.001818
# 6 -0.001103 0.004544 -0.006517 -0.004741 -0.001818 0.025804
#
#
# Mechanical properties :
#
#
# Convention : Reuss Voigt Hill
#
# Bulk Modulus (GPa) = 26.48817 45.30016 35.89417
# Shear Modulus (GPa) = 23.72653 34.72532 29.22593
#
# Velocity S-wave (km/s) = 3.27698 3.96442 3.63698
# Velocity P-wave (km/s) = 5.12900 6.43882 5.82087
#
# Compressibility (1/GPa) = 0.03775270
#
# Stress axis : x y z
#
# Youngs Moduli (GPa) = 160.37656 29.99120 45.95834
#
# Poissons Ratio (x) = 0.11053 0.05080
# Poissons Ratio (y) = 0.59103 0.32179
# Poissons Ratio (z) = 0.17726 0.20999
#
# Static dielectric constant tensor:
#      x y z
#    x 2.128520 -0.317620 -0.115670 
#    y -0.317620 2.511950 0.078830 
#    z -0.115670 0.078830 1.874350 
# 
# From -- ./inp_files/126954.got.cif
#   From: 2010.05.17/outbox.cif.g08.bks.cpg/sg2_64_cif.got.tgz:126954.got - 2010.06.03 11:33:40.
