data_PCOD9092993
_publ_section_title
;
Structure prediction by ZEFSAII (Michael W. Deem and Ramdas Pophale) SiO2 
 PCOD9092993
Probable space group: P -1
;
_chemical_formula_sum "Si O2"
_cell_formula_units_Z 16
_cell_length_a 5.293906
_cell_length_b 9.558127
_cell_length_c 12.606725
_cell_angle_alpha 74.621397
_cell_angle_beta 74.495152
_cell_angle_gamma 81.281977
_cell_volume 590.435806
_symmetry_space_group_name_H-M "P -1"
_symmetry_group_IT_number 2
_symmetry_cell_setting 'triclinic'
loop_
_space_group_symop_operation_xyz
x,y,z
-x,-y,-z
loop_
_atom_site_type_symbol
_atom_site_label
_atom_site_fract_x
_atom_site_fract_y
_atom_site_fract_z
Si Si1 0.870805 0.940208 0.217910
Si Si2 0.430853 0.187084 0.213442
Si Si3 0.252410 0.594723 0.957541
Si Si4 0.821755 0.332294 0.448851
Si Si5 0.151548 0.161468 0.036633
Si Si6 0.508867 0.763018 0.205041
Si Si7 0.144644 0.951695 0.373161
Si Si8 0.332611 0.480732 0.357332
O O1 0.768285 0.782358 0.245399
O O2 0.874893 0.982067 0.333380
O O3 0.630539 0.052008 0.180258
O O4 0.087873 0.998319 0.104102
O O5 0.606454 0.323018 0.172297
O O6 0.222099 0.218335 0.135275
O O7 0.283820 0.099599 0.337306
O O8 0.098092 0.737230 0.000769
O O9 0.500000 0.500000 0.000000
O O10 0.000000 0.500000 0.000000
O O11 0.848898 0.161192 0.510262
O O12 0.571786 0.372400 0.395388
O O13 0.760171 0.420866 0.548421
O O14 0.087349 0.395884 0.363717
O O15 0.391601 0.182933 0.928590
O O16 0.277390 0.853515 0.278482
O O17 0.432496 0.599480 0.242369
#
# Coordination Sequence:
#
# PCOD9092993 Si02
#       8
#     2   2   2   2   2   2   2   2
#     4   9  19  30  45  72 104 143 174 207 237 289
#     4   9  19  34  51  76 100 136 168 208 243 306
#     4  11  21  38  57  74 100 130 162 210 261 304
#     4   9  18  31  46  65  96 134 175 213 247 274
#     4  10  20  35  50  74 103 138 171 208 246 301
#     4  10  20  30  47  71 104 145 175 208 242 291
#     4   9  19  30  49  71 105 140 175 210 243 290
#     4   9  19  30  45  67  94 135 178 210 241 288
#
# _framework density 27.09863
#
# number of rings (size 3 to 8) (size 9 to 14) (size 15 to 20)
#    0.000    2.500    1.250    0.375   10.500    6.500 
#    0.000    0.000    0.000    0.000    0.000    0.000 
#    0.000    6.000    0.000    0.000    0.000    0.000 
#
# Total GULP energy -89223.620375 kJ/mol
# GULP energy per Si atom -5576.476273 kJ/mol
# Density = 2.703695 g / cm^3
# Si number density = 27.098630 Si / 1000 Ang^3
#
#
#
# Elastic Constant Matrix: (Units=GPa)
#
#
# Indices 1 2 3 4 5 6 
#
# 1 112.5096 23.5463 34.9422 -14.6639 -12.6507 -8.4028
# 2 23.5463 98.3625 46.8983 -17.5621 -14.0260 10.2404
# 3 34.9422 46.8983 138.3386 -27.3679 -27.3861 -5.0964
# 4 -14.6639 -17.5621 -27.3679 46.5425 9.9798 -4.8709
# 5 -12.6507 -14.0260 -27.3861 9.9798 25.8972 -13.7313
# 6 -8.4028 10.2404 -5.0964 -4.8709 -13.7313 40.5402
#
#
#
# Elastic Compliance Matrix: (Units=1/GPa)
#
#
# Indices 1 2 3 4 5 6 
#
# 1 0.010586 -0.001686 -0.000500 0.001705 0.005531 0.004635
# 2 -0.001686 0.013113 -0.003995 0.001816 -0.000900 -0.004251
# 3 -0.000500 -0.003995 0.012260 0.003504 0.013075 0.007296
# 4 0.001705 0.001816 0.003504 0.025686 -0.003123 0.002363
# 5 0.005531 -0.000900 0.013075 -0.003123 0.069794 0.026282
# 6 0.004635 -0.004251 0.007296 0.002363 0.026282 0.036804
#
#
# Mechanical properties :
#
#
# Convention : Reuss Voigt Hill
#
# Bulk Modulus (GPa) = 42.37539 62.22048 52.29793
# Shear Modulus (GPa) = 26.52935 38.85092 32.69014
#
# Velocity S-wave (km/s) = 3.13228 3.79051 3.47701
# Velocity P-wave (km/s) = 5.36218 6.49368 5.95487
#
# Compressibility (1/GPa) = 0.02359861
#
# Stress axis : x y z
#
# Youngs Moduli (GPa) = 94.46151 76.25844 81.56825
#
# Poissons Ratio (x) = 0.12853 0.04075
# Poissons Ratio (y) = 0.15922 0.32589
# Poissons Ratio (z) = 0.04719 0.30467
#
# Static dielectric constant tensor:
#      x y z
#    x 2.816500 0.011270 0.064890 
#    y 0.011270 2.192300 0.078170 
#    z 0.064890 0.078170 2.163370 
# 
# From -- ./inp_files/108665.got.cif
#   From: 2010.05.17/outbox.cif.g08.bks.cpg/sg2_55_cif.got.tgz:108665.got - 2010.06.03 11:33:40.
