data_PCOD9092994
_publ_section_title
;
Structure prediction by ZEFSAII (Michael W. Deem and Ramdas Pophale) SiO2 
 PCOD9092994
Probable space group: P -1
;
_chemical_formula_sum "Si O2"
_cell_formula_units_Z 14
_cell_length_a 15.470973
_cell_length_b 13.317881
_cell_length_c 15.691234
_cell_angle_alpha 54.701886
_cell_angle_beta 18.499972
_cell_angle_gamma 61.543222
_cell_volume 804.737323
_symmetry_space_group_name_H-M "P -1"
_symmetry_group_IT_number 2
_symmetry_cell_setting 'triclinic'
loop_
_space_group_symop_operation_xyz
x,y,z
-x,-y,-z
loop_
_atom_site_type_symbol
_atom_site_label
_atom_site_fract_x
_atom_site_fract_y
_atom_site_fract_z
Si Si1 0.395898 0.185260 0.410266
Si Si2 0.474441 0.078470 0.787902
Si Si3 0.968485 0.143415 0.968007
Si Si4 0.774691 0.216942 0.777923
Si Si5 0.411916 0.348059 0.157458
Si Si6 0.914095 0.091849 0.233159
Si Si7 0.208039 0.907321 0.349992
O O1 0.213676 0.224506 0.637056
O O2 0.508328 0.291092 0.181342
O O3 0.186527 0.059531 0.623092
O O4 0.662044 0.146494 0.219908
O O5 0.643294 0.109747 0.526706
O O6 0.703112 0.134431 0.620795
O O7 0.185325 0.118393 0.028538
O O8 0.364284 0.925192 0.983837
O O9 0.985996 0.168708 0.040160
O O10 0.000000 0.000000 0.000000
O O11 0.851870 0.198741 0.615868
O O12 0.073714 0.289443 0.503444
O O13 0.551274 0.294429 0.973229
O O14 0.500000 0.500000 0.000000
O O15 0.000000 0.000000 0.500000
O O16 0.500000 0.000000 0.000000
#
# Coordination Sequence:
#
# PCOD9092994 Si02
#       7
#     2   2   2   2   2   2   2
#     4  11  19  34  47  66 105 136 171 212 250 287
#     4  11  18  30  50  74 102 134 164 198 250 317
#     4  10  20  30  47  71  98 137 169 200 250 316
#     4  11  20  37  50  70 107 137 170 219 256 291
#     4  12  24  36  54  74  98 142 190 216 244 292
#     4  11  18  29  48  74 103 131 168 195 249 314
#     4  10  20  32  49  75 100 136 171 199 257 322
#
# _framework density 17.396981
#
# number of rings (size 3 to 8) (size 9 to 14) (size 15 to 20)
#    0.000    1.143    2.857    9.000    0.000    0.000 
#    0.000    0.000    0.000    0.000    0.000    0.000 
#    0.000   22.857    0.000    0.000    0.000    0.000 
#
# Total GULP energy -78014.539180 kJ/mol
# GULP energy per Si atom -5572.467084 kJ/mol
# Density = 1.735738 g / cm^3
# Si number density = 17.396981 Si / 1000 Ang^3
#
#
#
# Elastic Constant Matrix: (Units=GPa)
#
#
# Indices 1 2 3 4 5 6 
#
# 1 89.8832 18.9942 25.2823 0.9550 2.1434 -2.9982
# 2 18.9942 40.3565 29.0423 7.8724 4.3869 1.2224
# 3 25.2823 29.0423 73.6373 27.8102 -2.3600 -0.3219
# 4 0.9550 7.8724 27.8102 26.1974 -1.7008 1.8479
# 5 2.1434 4.3869 -2.3600 -1.7008 31.4682 12.6509
# 6 -2.9982 1.2224 -0.3219 1.8479 12.6509 17.1007
#
#
#
# Elastic Compliance Matrix: (Units=1/GPa)
#
#
# Indices 1 2 3 4 5 6 
#
# 1 0.013530 -0.003368 -0.005722 0.006251 -0.001820 0.003176
# 2 -0.003368 0.037292 -0.015692 0.005161 -0.006000 0.000329
# 3 -0.005722 -0.015692 0.033316 -0.030426 0.002576 0.002128
# 4 0.006251 0.005161 -0.030426 0.069765 0.004715 -0.010872
# 5 -0.001820 -0.006000 0.002576 0.004715 0.047435 -0.035443
# 6 0.003176 0.000329 0.002128 -0.010872 -0.035443 0.086446
#
#
# Mechanical properties :
#
#
# Convention : Reuss Voigt Hill
#
# Bulk Modulus (GPa) = 28.92300 38.94607 33.93453
# Shear Modulus (GPa) = 14.33188 23.65714 18.99451
#
# Velocity S-wave (km/s) = 2.87333 3.69160 3.30787
# Velocity P-wave (km/s) = 5.26017 6.37227 5.84274
#
# Compressibility (1/GPa) = 0.03457456
#
# Stress axis : x y z
#
# Youngs Moduli (GPa) = 73.91129 26.81542 30.01535
#
# Poissons Ratio (x) = 0.09030 0.17176
# Poissons Ratio (y) = 0.24890 0.47099
# Poissons Ratio (z) = 0.42295 0.42078
#
# Static dielectric constant tensor:
#      x y z
#    x 1.715600 0.043240 0.010140 
#    y 0.043240 1.576780 0.030010 
#    z 0.010140 0.030010 1.580890 
# 
# From -- ./inp_files/366434.got.cif
#   From: 2010.05.17/outbox.cif.g08.bks.cpg/sg2_184_cif.got.tgz:366434.got - 2010.06.03 11:33:40.
