data_PCOD9092828
_publ_section_title
;
Structure prediction by ZEFSAII (Michael W. Deem and Ramdas Pophale) SiO2 
 PCOD9092828
Probable space group: P -1
;
_chemical_formula_sum "Si O2"
_cell_formula_units_Z 16
_cell_length_a 13.342529
_cell_length_b 7.572464
_cell_length_c 10.683371
_cell_angle_alpha 99.447232
_cell_angle_beta 129.435641
_cell_angle_gamma 103.576909
_cell_volume 736.455112
_symmetry_space_group_name_H-M "P -1"
_symmetry_group_IT_number 2
_symmetry_cell_setting 'triclinic'
loop_
_space_group_symop_operation_xyz
x,y,z
-x,-y,-z
loop_
_atom_site_type_symbol
_atom_site_label
_atom_site_fract_x
_atom_site_fract_y
_atom_site_fract_z
Si Si1 0.098222 0.977877 0.968627
Si Si2 0.634236 0.349134 0.919791
Si Si3 0.121578 0.643989 0.521746
Si Si4 0.905326 0.523089 0.778897
Si Si5 0.431638 0.770839 0.884572
Si Si6 0.049672 0.275455 0.797502
Si Si7 0.408981 0.609920 0.388364
Si Si8 0.422161 0.103797 0.238081
O O1 0.070187 0.088079 0.840015
O O2 0.267252 0.093176 0.145929
O O3 0.038418 0.739968 0.890326
O O4 0.000000 0.000000 0.000000
O O5 0.565349 0.371860 0.737607
O O6 0.619694 0.125272 0.859832
O O7 0.562525 0.341951 0.997422
O O8 0.795829 0.532456 0.078314
O O9 0.151355 0.533734 0.414710
O O10 0.267666 0.729996 0.723172
O O11 0.000000 0.500000 0.500000
O O12 0.053060 0.773878 0.411994
O O13 0.766012 0.498090 0.744324
O O14 0.966232 0.360383 0.838341
O O15 0.507051 0.760692 0.813153
O O16 0.500000 0.000000 0.000000
O O17 0.500000 0.500000 0.500000
O O18 0.470896 0.809492 0.548295
#
# Coordination Sequence:
#
# PCOD9092828 Si02
#       8
#     2   2   2   2   2   2   2   2
#     4  12  25  42  67 102 135 172 230 281 323 406
#     4  11  22  41  71  95 132 176 223 272 337 399
#     4  10  19  42  73  92 131 176 222 273 328 401
#     4  10  23  44  68  95 138 171 219 281 333 392
#     4  10  21  41  69  99 128 177 222 272 336 404
#     4  10  22  41  70  96 129 175 224 266 341 384
#     4  12  25  43  63  98 136 175 221 277 334 401
#     4  11  22  43  67  97 137 175 222 274 340 393
#
# _framework density 21.725697
#
# number of rings (size 3 to 8) (size 9 to 14) (size 15 to 20)
#    0.750    0.500    3.750    2.625    3.500    1.000 
#   11.250    4.375    0.000    0.000    0.000    0.000 
#    0.000    0.000    0.000    0.000    0.000    0.000 
#
# Total GULP energy -89160.445668 kJ/mol
# GULP energy per Si atom -5572.527854 kJ/mol
# Density = 2.167625 g / cm^3
# Si number density = 21.725697 Si / 1000 Ang^3
#
#
#
# Elastic Constant Matrix: (Units=GPa)
#
#
# Indices 1 2 3 4 5 6 
#
# 1 61.5121 35.0690 49.0460 -6.9908 11.6981 25.4163
# 2 35.0690 78.5920 34.3295 -10.9776 0.2696 20.8417
# 3 49.0460 34.3295 115.9100 3.9040 -1.8539 30.5132
# 4 -6.9908 -10.9776 3.9040 36.0260 9.7471 -7.2322
# 5 11.6981 0.2696 -1.8539 9.7471 37.4074 -0.6461
# 6 25.4163 20.8417 30.5132 -7.2322 -0.6461 33.9318
#
#
#
# Elastic Compliance Matrix: (Units=1/GPa)
#
#
# Indices 1 2 3 4 5 6 
#
# 1 0.038540 -0.007835 -0.011155 0.007762 -0.014790 -0.012652
# 2 -0.007835 0.018091 -0.001206 0.003043 0.001407 -0.003484
# 3 -0.011155 -0.001206 0.015748 -0.007172 0.006034 -0.006479
# 4 0.007762 0.003043 -0.007172 0.035418 -0.011928 0.006088
# 5 -0.014790 0.001407 0.006034 -0.011928 0.034805 0.002908
# 6 -0.012652 -0.003484 -0.006479 0.006088 0.002908 0.048267
#
#
# Mechanical properties :
#
#
# Convention : Reuss Voigt Hill
#
# Bulk Modulus (GPa) = 31.26082 54.76701 43.01391
# Shear Modulus (GPa) = 20.66778 30.64435 25.65607
#
# Velocity S-wave (km/s) = 3.08767 3.75975 3.44016
# Velocity P-wave (km/s) = 5.20881 6.64159 5.96835
#
# Compressibility (1/GPa) = 0.03198892
#
# Stress axis : x y z
#
# Youngs Moduli (GPa) = 25.94683 55.27738 63.49905
#
# Poissons Ratio (x) = 0.43308 0.70831
# Poissons Ratio (y) = 0.20329 0.07656
# Poissons Ratio (z) = 0.28943 0.06665
#
# Static dielectric constant tensor:
#      x y z
#    x 1.845140 -0.001400 0.020080 
#    y -0.001400 1.861330 0.016910 
#    z 0.020080 0.016910 2.100410 
# 
# From -- ./inp_files/447553.got.cif
#   From: 2010.05.17/outbox.cif.g08.bks.cpg/sg2_224_cif.got.tgz:447553.got - 2010.06.03 11:33:40.
