data_PCOD9092599
_publ_section_title
;
Structure prediction by ZEFSAII (Michael W. Deem and Ramdas Pophale) SiO2 
 PCOD9092599
Probable space group: P -1
;
_chemical_formula_sum "Si O2"
_cell_formula_units_Z 16
_cell_length_a 8.953064
_cell_length_b 12.388033
_cell_length_c 14.991091
_cell_angle_alpha 141.705203
_cell_angle_beta 136.423538
_cell_angle_gamma 61.949819
_cell_volume 691.185186
_symmetry_space_group_name_H-M "P -1"
_symmetry_group_IT_number 2
_symmetry_cell_setting 'triclinic'
loop_
_space_group_symop_operation_xyz
x,y,z
-x,-y,-z
loop_
_atom_site_type_symbol
_atom_site_label
_atom_site_fract_x
_atom_site_fract_y
_atom_site_fract_z
Si Si1 0.136681 0.193881 0.158843
Si Si2 0.082823 0.962024 0.729710
Si Si3 0.677370 0.654975 0.134397
Si Si4 0.637307 0.661719 0.912983
Si Si5 0.172193 0.376254 0.482433
Si Si6 0.366606 0.776799 0.596972
Si Si7 0.201071 0.981371 0.508461
Si Si8 0.081279 0.465318 0.184035
O O1 0.168214 0.313089 0.338440
O O2 0.385469 0.181777 0.232735
O O3 0.007217 0.277352 0.080797
O O4 0.000000 0.000000 0.000000
O O5 0.206486 0.849852 0.643172
O O6 0.928658 0.809540 0.626401
O O7 0.913904 0.056126 0.661039
O O8 0.279263 0.133069 0.956058
O O9 0.665037 0.816390 0.299107
O O10 0.906901 0.589371 0.189354
O O11 0.500000 0.500000 0.000000
O O12 0.631568 0.692847 0.036721
O O13 0.408349 0.514974 0.696841
O O14 0.823522 0.566560 0.891440
O O15 0.000000 0.500000 0.500000
O O16 0.278392 0.569410 0.401384
O O17 0.342918 0.864267 0.545595
O O18 0.000000 0.000000 0.500000
#
# Coordination Sequence:
#
# PCOD9092599 Si02
#       8
#     2   2   2   2   2   2   2   2
#     4  12  29  48  69 102 144 190 241 291 361 428
#     4  11  23  46  74 102 143 191 239 293 358 424
#     4  12  25  43  75 109 139 183 241 298 358 423
#     4  12  26  46  72 109 144 185 238 295 368 416
#     4  12  29  46  69 109 146 183 246 301 344 429
#     4  11  22  45  74  95 140 191 234 287 359 426
#     4  10  19  41  70 101 132 178 233 283 346 418
#     4  12  25  47  72 100 145 188 233 297 359 427
#
# _framework density 23.148643
#
# number of rings (size 3 to 8) (size 9 to 14) (size 15 to 20)
#    0.000    0.500    6.250    3.000    7.000    0.500 
#    0.000    0.625    0.000    0.000    0.000    0.000 
#    0.000    0.000    0.000    0.000    0.000    0.000 
#
# Total GULP energy -89290.313310 kJ/mol
# GULP energy per Si atom -5580.644582 kJ/mol
# Density = 2.309596 g / cm^3
# Si number density = 23.148643 Si / 1000 Ang^3
#
#
#
# Elastic Constant Matrix: (Units=GPa)
#
#
# Indices 1 2 3 4 5 6 
#
# 1 69.8971 18.0178 29.8977 -5.2990 -8.0144 8.3342
# 2 18.0178 95.4259 16.9193 7.3317 5.8278 13.6059
# 3 29.8977 16.9193 122.6613 15.0882 18.7086 13.8577
# 4 -5.2990 7.3317 15.0882 40.4120 13.1677 2.8312
# 5 -8.0144 5.8278 18.7086 13.1677 27.0136 10.6589
# 6 8.3342 13.6059 13.8577 2.8312 10.6589 30.6621
#
#
#
# Elastic Compliance Matrix: (Units=1/GPa)
#
#
# Indices 1 2 3 4 5 6 
#
# 1 0.019672 -0.002720 -0.005791 0.001778 0.011859 -0.005810
# 2 -0.002720 0.011782 -0.000165 -0.001916 -0.000728 -0.003984
# 3 -0.005791 -0.000165 0.011145 -0.002196 -0.008198 -0.000337
# 4 0.001778 -0.001916 -0.002196 0.030358 -0.013637 0.003297
# 5 0.011859 -0.000728 -0.008198 -0.013637 0.060504 -0.018969
# 6 -0.005810 -0.003984 -0.000337 0.003297 -0.018969 0.042402
#
#
# Mechanical properties :
#
#
# Convention : Reuss Voigt Hill
#
# Bulk Modulus (GPa) = 39.60891 46.40600 43.00746
# Shear Modulus (GPa) = 24.79762 34.49416 29.64589
#
# Velocity S-wave (km/s) = 3.27652 3.86439 3.58253
# Velocity P-wave (km/s) = 5.60910 6.32470 5.97762
#
# Compressibility (1/GPa) = 0.02524684
#
# Stress axis : x y z
#
# Youngs Moduli (GPa) = 50.83306 84.87543 89.72333
#
# Poissons Ratio (x) = 0.23088 0.51958
# Poissons Ratio (y) = 0.13828 0.01483
# Poissons Ratio (z) = 0.29437 0.01403
#
# Static dielectric constant tensor:
#      x y z
#    x 1.622380 0.457870 1.262580 
#    y 0.457870 1.124140 -2.088430 
#    z 1.262580 -2.088430 -3.753640 
# 
# From -- ./inp_files/501047.got.cif
#   From: 2010.05.17/outbox.cif.g08.bks.cpg/sg2_251_cif.got.tgz:501047.got - 2010.06.03 11:33:40.
