data_PCOD9092345
_publ_section_title
;
Structure prediction by ZEFSAII (Michael W. Deem and Ramdas Pophale) SiO2 
 PCOD9092345
Probable space group: P -1
;
_chemical_formula_sum "Si O2"
_cell_formula_units_Z 16
_cell_length_a 9.439754
_cell_length_b 8.373562
_cell_length_c 13.582464
_cell_angle_alpha 41.069889
_cell_angle_beta 85.789129
_cell_angle_gamma 101.497766
_cell_volume 648.120627
_symmetry_space_group_name_H-M "P -1"
_symmetry_group_IT_number 2
_symmetry_cell_setting 'triclinic'
loop_
_space_group_symop_operation_xyz
x,y,z
-x,-y,-z
loop_
_atom_site_type_symbol
_atom_site_label
_atom_site_fract_x
_atom_site_fract_y
_atom_site_fract_z
Si Si1 0.356563 0.641484 0.614149
Si Si2 0.939966 0.235123 0.411600
Si Si3 0.502479 0.149312 0.688525
Si Si4 0.717428 0.750373 0.906663
Si Si5 0.944131 0.570389 0.070223
Si Si6 0.535929 0.669834 0.789005
Si Si7 0.216627 0.734989 0.241717
Si Si8 0.228055 0.036680 0.901847
O O1 0.236140 0.789848 0.538734
O O2 0.448935 0.664919 0.496678
O O3 0.481964 0.714523 0.662786
O O4 0.250361 0.335891 0.782652
O O5 0.944027 0.362731 0.245908
O O6 0.070784 0.461383 0.364361
O O7 0.000000 0.000000 0.500000
O O8 0.634371 0.276468 0.705846
O O9 0.508441 0.886177 0.759693
O O10 0.341003 0.062284 0.792562
O O11 0.703407 0.709301 0.808765
O O12 0.815082 0.052560 0.786174
O O13 0.783637 0.568157 0.046471
O O14 0.555445 0.632140 0.030068
O O15 0.000000 0.500000 0.000000
O O16 0.054569 0.858942 0.965302
O O17 0.260636 0.882126 0.065152
#
# Coordination Sequence:
#
# PCOD9092345 Si02
#       8
#     2   2   2   2   2   2   2   2
#     4  12  24  46  70 105 144 190 232 291 362 425
#     4  11  26  46  70 104 145 186 231 295 363 425
#     4  11  25  42  66 104 149 191 229 282 359 428
#     4  10  19  40  75 105 133 182 239 300 348 415
#     4  11  23  42  71 104 138 182 241 295 353 417
#     4  10  21  40  69 105 142 179 236 291 353 421
#     4  10  22  45  70 102 136 184 243 295 346 418
#     4  11  23  43  72 103 141 186 240 299 342 419
#
# _framework density 24.686762999999999
#
# number of rings (size 3 to 8) (size 9 to 14) (size 15 to 20)
#    0.000    1.250    2.500    2.625    0.000    5.500 
#    9.000    0.000    0.000    0.000    0.000    0.000 
#    0.000    0.000    0.000    0.000    0.000    0.000 
#
# Total GULP energy -89246.984462 kJ/mol
# GULP energy per Si atom -5577.936529 kJ/mol
# Density = 2.463058 g / cm^3
# Si number density = 24.686763 Si / 1000 Ang^3
#
#
#
# Elastic Constant Matrix: (Units=GPa)
#
#
# Indices 1 2 3 4 5 6 
#
# 1 104.4837 52.0317 60.3828 15.4375 8.7207 12.1753
# 2 52.0317 114.5355 52.2491 4.4056 2.4581 27.4661
# 3 60.3828 52.2491 126.8247 12.7947 15.3870 25.3931
# 4 15.4375 4.4056 12.7947 49.4570 -0.7236 1.9649
# 5 8.7207 2.4581 15.3870 -0.7236 37.5010 6.7298
# 6 12.1753 27.4661 25.3931 1.9649 6.7298 39.1284
#
#
#
# Elastic Compliance Matrix: (Units=1/GPa)
#
#
# Indices 1 2 3 4 5 6 
#
# 1 0.015440 -0.005084 -0.005268 -0.003132 -0.001626 0.002620
# 2 -0.005084 0.013639 -0.002217 0.001262 0.002486 -0.007044
# 3 -0.005268 -0.002217 0.012703 -0.001312 -0.003068 -0.004455
# 4 -0.003132 0.001262 -0.001312 0.021466 0.001675 -0.000425
# 5 -0.001626 0.002486 -0.003068 0.001675 0.028946 -0.004311
# 6 0.002620 -0.007044 -0.004455 -0.000425 -0.004311 0.033340
#
#
# Mechanical properties :
#
#
# Convention : Reuss Voigt Hill
#
# Bulk Modulus (GPa) = 60.08115 75.01902 67.55009
# Shear Modulus (GPa) = 32.00597 37.29596 34.65097
#
# Velocity S-wave (km/s) = 3.60458 3.89108 3.75056
# Velocity P-wave (km/s) = 6.45865 7.11629 6.79543
#
# Compressibility (1/GPa) = 0.01664415
#
# Stress axis : x y z
#
# Youngs Moduli (GPa) = 64.76538 73.31780 78.72117
#
# Poissons Ratio (x) = 0.37275 0.41472
# Poissons Ratio (y) = 0.32927 0.17453
# Poissons Ratio (z) = 0.34120 0.16255
#
# Static dielectric constant tensor:
#      x y z
#    x 1.926480 0.021460 0.075860 
#    y 0.021460 1.964540 -0.009090 
#    z 0.075860 -0.009090 2.014240 
# 
# From -- ./inp_files/494280.got.cif
#   From: 2010.05.17/outbox.cif.g08.bks.cpg/sg2_248_cif.got.tgz:494280.got - 2010.06.03 11:33:40.
