data_PCOD9092978
_publ_section_title
;
Structure prediction by ZEFSAII (Michael W. Deem and Ramdas Pophale) SiO2 
 PCOD9092978
Probable space group: P -1
;
_chemical_formula_sum "Si O2"
_cell_formula_units_Z 16
_cell_length_a 26.110114
_cell_length_b 9.563972
_cell_length_c 21.695770
_cell_angle_alpha 152.403336
_cell_angle_beta 23.048986
_cell_angle_gamma 139.748048
_cell_volume 940.920580
_symmetry_space_group_name_H-M "P -1"
_symmetry_group_IT_number 2
_symmetry_cell_setting 'triclinic'
loop_
_space_group_symop_operation_xyz
x,y,z
-x,-y,-z
loop_
_atom_site_type_symbol
_atom_site_label
_atom_site_fract_x
_atom_site_fract_y
_atom_site_fract_z
Si Si1 0.375188 0.794734 0.493392
Si Si2 0.457193 0.705631 0.066423
Si Si3 0.340068 0.679433 0.734765
Si Si4 0.359780 0.229818 0.214110
Si Si5 0.601409 0.586180 0.559648
Si Si6 0.294948 0.543270 0.863295
Si Si7 0.158049 0.822576 0.250094
Si Si8 0.339379 0.358863 0.955678
O O1 0.314309 0.559497 0.429085
O O2 0.362727 0.679596 0.531331
O O3 0.531652 0.710091 0.261616
O O4 0.316943 0.167947 0.696674
O O5 0.386652 0.074348 0.301171
O O6 0.500000 0.500000 0.000000
O O7 0.595824 0.696450 0.873702
O O8 0.372068 0.563398 0.056020
O O9 0.500000 0.500000 0.500000
O O10 0.314079 0.521371 0.638234
O O11 0.257325 0.645514 0.874190
O O12 0.329990 0.036419 0.869323
O O13 0.248523 0.046269 0.259939
O O14 0.500000 0.000000 0.000000
O O15 0.440436 0.617787 0.740288
O O16 0.199790 0.711613 0.090498
O O17 0.208583 0.530173 0.126915
O O18 0.000000 0.000000 0.500000
#
# Coordination Sequence:
#
# PCOD9092978 Si02
#       8
#     2   2   2   2   2   2   2   2
#     4  11  18  31  59  84 110 141 186 247 294 325
#     4  11  20  29  55  85 119 143 179 238 298 339
#     4  10  20  29  51  84 122 140 183 240 299 345
#     4  11  19  37  57  86 115 146 195 247 286 335
#     4  11  17  29  48  83 116 139 178 232 300 332
#     4  11  20  34  51  84 114 147 188 241 285 342
#     4  12  24  40  60  82 116 163 200 231 282 348
#     4  11  19  35  53  87 118 149 186 239 292 338
#
# _framework density 17.004624
#
# number of rings (size 3 to 8) (size 9 to 14) (size 15 to 20)
#    0.000    1.000    8.750    2.625    1.750    0.000 
#    0.000    1.250    0.000    0.000    0.000    2.625 
#    0.000    0.000    0.000    0.000    0.000    0.000 
#
# Total GULP energy -89202.789181 kJ/mol
# GULP energy per Si atom -5575.174324 kJ/mol
# Density = 1.696592 g / cm^3
# Si number density = 17.004624 Si / 1000 Ang^3
#
#
#
# Elastic Constant Matrix: (Units=GPa)
#
#
# Indices 1 2 3 4 5 6 
#
# 1 98.0184 49.7630 60.2026 -0.7016 18.6533 -22.6574
# 2 49.7630 60.8049 60.5040 10.1691 0.4576 -18.8186
# 3 60.2026 60.5040 90.8711 11.6227 12.7857 0.4062
# 4 -0.7016 10.1691 11.6227 18.5515 3.2081 6.2572
# 5 18.6533 0.4576 12.7857 3.2081 23.9722 5.3173
# 6 -22.6574 -18.8186 0.4062 6.2572 5.3173 41.4396
#
#
#
# Elastic Compliance Matrix: (Units=1/GPa)
#
#
# Indices 1 2 3 4 5 6 
#
# 1 0.030012 -0.015779 -0.008176 0.015531 -0.022971 0.009926
# 2 -0.015779 0.127671 -0.074838 -0.048888 0.044828 0.051714
# 3 -0.008176 -0.074838 0.067532 0.015183 -0.021693 -0.038626
# 4 0.015531 -0.048888 0.015183 0.084013 -0.025326 -0.023294
# 5 -0.022971 0.044828 -0.021693 -0.025326 0.073150 0.002448
# 6 0.009926 0.051714 -0.038626 -0.023294 0.002448 0.056625
#
#
# Mechanical properties :
#
#
# Convention : Reuss Voigt Hill
#
# Bulk Modulus (GPa) = 36.19261 65.62596 50.90928
# Shear Modulus (GPa) = 7.74237 22.07434 14.90835
#
# Velocity S-wave (km/s) = 2.13611 3.60688 2.96416
# Velocity P-wave (km/s) = 5.23585 7.48484 6.45899
#
# Compressibility (1/GPa) = 0.02762995
#
# Stress axis : x y z
#
# Youngs Moduli (GPa) = 33.32052 7.83265 14.80770
#
# Poissons Ratio (x) = 0.12359 0.12106
# Poissons Ratio (y) = 0.52577 1.10818
# Poissons Ratio (z) = 0.27241 0.58618
#
# Static dielectric constant tensor:
#      x y z
#    x 1.635270 -0.011080 0.033260 
#    y -0.011080 1.590200 0.028290 
#    z 0.033260 0.028290 1.581370 
# 
# From -- ./inp_files/313802.got.cif
#   From: 2010.05.17/outbox.cif.g08.bks.cpg/sg2_157_cif.got.tgz:313802.got - 2010.06.03 11:33:40.
