data_PCOD9092193
_publ_section_title
;
Structure prediction by ZEFSAII (Michael W. Deem and Ramdas Pophale) SiO2 
 PCOD9092193
Probable space group: P -1
;
_chemical_formula_sum "Si O2"
_cell_formula_units_Z 16
_cell_length_a 14.776662
_cell_length_b 10.675314
_cell_length_c 8.498876
_cell_angle_alpha 79.720354
_cell_angle_beta 122.222960
_cell_angle_gamma 54.208733
_cell_volume 643.665887
_symmetry_space_group_name_H-M "P -1"
_symmetry_group_IT_number 2
_symmetry_cell_setting 'triclinic'
loop_
_space_group_symop_operation_xyz
x,y,z
-x,-y,-z
loop_
_atom_site_type_symbol
_atom_site_label
_atom_site_fract_x
_atom_site_fract_y
_atom_site_fract_z
Si Si1 0.228562 0.041919 0.376513
Si Si2 0.624165 0.841544 0.406443
Si Si3 0.160579 0.473248 0.032502
Si Si4 0.311079 0.971759 0.107706
Si Si5 0.240868 0.657568 0.907454
Si Si6 0.116307 0.880572 0.410049
Si Si7 0.021221 0.559399 0.349797
Si Si8 0.450016 0.496735 0.626380
O O1 0.338068 0.045230 0.569971
O O2 0.018845 0.295656 0.097521
O O3 0.309837 0.944695 0.299613
O O4 0.199289 0.943725 0.471913
O O5 0.414350 0.003740 0.154868
O O6 0.764891 0.643292 0.455969
O O7 0.688234 0.720145 0.660519
O O8 0.228821 0.522036 0.975499
O O9 0.077517 0.433732 0.873772
O O10 0.443620 0.739408 0.204748
O O11 0.098777 0.194918 0.807119
O O12 0.170098 0.753024 0.645551
O O13 0.445930 0.510179 0.155891
O O14 0.103197 0.875970 0.843766
O O15 0.230667 0.706468 0.411553
O O16 0.000000 0.500000 0.500000
O O17 0.500000 0.500000 0.500000
#
# Coordination Sequence:
#
# PCOD9092193 Si02
#       8
#     2   2   2   2   2   2   2   2
#     4  10  19  40  67  94 123 165 218 268 315 381
#     4  11  22  40  69  95 122 169 220 265 314 390
#     4  10  20  41  69  93 121 171 224 260 318 385
#     4  12  24  39  65  98 130 169 214 262 327 385
#     4  10  24  43  68  92 127 177 221 269 317 382
#     4  10  23  44  66  95 127 172 225 264 320 383
#     4  11  25  43  64  97 136 163 205 276 332 377
#     4  12  25  40  62  98 136 172 214 266 324 384
#
# _framework density 24.857616
#
# number of rings (size 3 to 8) (size 9 to 14) (size 15 to 20)
#    0.000    1.250    3.750    2.250    0.000    7.000 
#    0.000    0.000    0.000    0.000    0.000    0.000 
#    0.000    0.000    0.000    0.000    0.000    0.000 
#
# Total GULP energy -89574.027803 kJ/mol
# GULP energy per Si atom -5598.376738 kJ/mol
# Density = 2.480104 g / cm^3
# Si number density = 24.857616 Si / 1000 Ang^3
#
#
#
# Elastic Constant Matrix: (Units=GPa)
#
#
# Indices 1 2 3 4 5 6 
#
# 1 105.6878 13.1214 12.1835 -3.6519 -10.7829 -4.1169
# 2 13.1214 62.6220 13.3843 -34.9141 1.3433 -15.7797
# 3 12.1835 13.3843 53.0389 -13.4466 1.3181 -14.8660
# 4 -3.6519 -34.9141 -13.4466 36.6392 -7.0672 3.0300
# 5 -10.7829 1.3433 1.3181 -7.0672 46.1260 -8.1040
# 6 -4.1169 -15.7797 -14.8660 3.0300 -8.1040 43.4417
#
#
#
# Elastic Compliance Matrix: (Units=1/GPa)
#
#
# Indices 1 2 3 4 5 6 
#
# 1 0.010235 -0.003100 -0.002326 -0.002346 0.002121 -0.000393
# 2 -0.003100 0.043027 0.004757 0.042540 0.007096 0.015320
# 3 -0.002326 0.004757 0.023953 0.012754 0.002208 0.009227
# 4 -0.002346 0.042540 0.012754 0.073209 0.012004 0.016728
# 5 0.002121 0.007096 0.002208 0.012004 0.025039 0.007368
# 6 -0.000393 0.015320 0.009227 0.016728 0.007368 0.031912
#
#
# Mechanical properties :
#
#
# Convention : Reuss Voigt Hill
#
# Bulk Modulus (GPa) = 13.17935 33.19189 23.18562
# Shear Modulus (GPa) = 21.36688 37.41870 29.39279
#
# Velocity S-wave (km/s) = 2.93502 3.88406 3.44240
# Velocity P-wave (km/s) = 4.09869 5.78760 5.01476
#
# Compressibility (1/GPa) = 0.07587629
#
# Stress axis : x y z
#
# Youngs Moduli (GPa) = 97.70522 23.24100 41.74867
#
# Poissons Ratio (x) = 0.07204 0.09712
# Poissons Ratio (y) = 0.30285 -0.19858
# Poissons Ratio (z) = 0.22730 -0.11055
#
# Static dielectric constant tensor:
#      x y z
#    x 1.945640 0.025140 -0.020590 
#    y 0.025140 2.054760 -0.051190 
#    z -0.020590 -0.051190 1.956200 
# 
# From -- ./inp_files/285769.got.cif
#   From: 2010.05.17/outbox.cif.g08.bks.cpg/sg2_143_cif.got.tgz:285769.got - 2010.06.03 11:33:40.
