data_PCOD9092342
_publ_section_title
;
Structure prediction by ZEFSAII (Michael W. Deem and Ramdas Pophale) SiO2 
 PCOD9092342
Probable space group: P -1
;
_chemical_formula_sum "Si O2"
_cell_formula_units_Z 14
_cell_length_a 9.974587
_cell_length_b 11.803056
_cell_length_c 9.603523
_cell_angle_alpha 97.781508
_cell_angle_beta 96.847483
_cell_angle_gamma 24.107185
_cell_volume 457.520525
_symmetry_space_group_name_H-M "P -1"
_symmetry_group_IT_number 2
_symmetry_cell_setting 'triclinic'
loop_
_space_group_symop_operation_xyz
x,y,z
-x,-y,-z
loop_
_atom_site_type_symbol
_atom_site_label
_atom_site_fract_x
_atom_site_fract_y
_atom_site_fract_z
Si Si1 0.314389 0.465354 0.140899
Si Si2 0.140626 0.102671 0.554679
Si Si3 0.208854 0.804764 0.645504
Si Si4 0.238133 0.874986 0.119774
Si Si5 0.158359 0.292686 0.378120
Si Si6 0.343051 0.035639 0.814638
Si Si7 0.973086 0.707768 0.891339
O O1 0.017071 0.714214 0.284408
O O2 0.542803 0.386285 0.223277
O O3 0.508098 0.197036 0.141045
O O4 0.398378 0.417807 0.956657
O O5 0.823775 0.282080 0.465960
O O6 0.214645 0.131217 0.437223
O O7 0.278969 0.869418 0.583798
O O8 0.858265 0.092382 0.733677
O O9 0.117008 0.097039 0.137008
O O10 0.000000 0.000000 0.000000
O O11 0.494761 0.102164 0.349152
O O12 0.903242 0.471196 0.248357
O O13 0.000000 0.500000 0.500000
O O14 0.589731 0.949698 0.859673
O O15 0.045765 0.293386 0.938565
#
# Coordination Sequence:
#
# PCOD9092342 Si02
#       7
#     2   2   2   2   2   2   2
#     4   9  23  42  77 115 156 201 251 329 406 460
#     4  11  24  47  76 115 157 206 257 321 398 472
#     4  10  22  44  78 117 160 197 256 325 401 477
#     4  10  19  40  74 115 154 196 246 325 398 468
#     4  12  27  51  80 112 160 215 266 325 388 466
#     4  10  24  48  75 113 157 204 269 324 386 474
#     4  10  23  48  77 117 155 197 272 319 390 474
#
# _framework density 30.599717999999999
#
# number of rings (size 3 to 8) (size 9 to 14) (size 15 to 20)
#    0.857    0.857    1.429    2.571    0.000    6.286 
#    2.571    5.000    0.000    0.000    0.000    0.000 
#    0.000    0.000    0.000    0.000    0.000    0.000 
#
# Total GULP energy -78208.805675 kJ/mol
# GULP energy per Si atom -5586.343262 kJ/mol
# Density = 3.053007 g / cm^3
# Si number density = 30.599718 Si / 1000 Ang^3
#
#
#
# Elastic Constant Matrix: (Units=GPa)
#
#
# Indices 1 2 3 4 5 6 
#
# 1 263.9281 70.9399 102.4134 -1.4942 12.3099 -4.3435
# 2 70.9399 144.3229 39.2934 1.6235 -6.8624 -28.1272
# 3 102.4134 39.2934 226.7139 -12.2297 39.5903 -28.2857
# 4 -1.4942 1.6235 -12.2297 59.8448 -18.0055 -14.6561
# 5 12.3099 -6.8624 39.5903 -18.0055 96.8730 -0.7015
# 6 -4.3435 -28.1272 -28.2857 -14.6561 -0.7015 62.8333
#
#
#
# Elastic Compliance Matrix: (Units=1/GPa)
#
#
# Indices 1 2 3 4 5 6 
#
# 1 0.005247 -0.002330 -0.002225 -0.000737 -0.000073 -0.001855
# 2 -0.002330 0.008946 -0.000152 0.001018 0.001210 0.004026
# 3 -0.002225 -0.000152 0.006221 0.001318 -0.002005 0.002864
# 4 -0.000737 0.001018 0.001318 0.019264 0.003248 0.005528
# 5 -0.000073 0.001210 -0.002005 0.003248 0.011844 0.000524
# 6 -0.001855 0.004026 0.002864 0.005528 0.000524 0.020174
#
#
# Mechanical properties :
#
#
# Convention : Reuss Voigt Hill
#
# Bulk Modulus (GPa) = 90.90719 117.80650 104.35684
# Shear Modulus (GPa) = 58.97798 72.06477 65.52137
#
# Velocity S-wave (km/s) = 4.39498 4.85818 4.63237
# Velocity P-wave (km/s) = 7.45168 8.36971 7.92400
#
# Compressibility (1/GPa) = 0.01100023
#
# Stress axis : x y z
#
# Youngs Moduli (GPa) = 190.57653 111.77650 160.75438
#
# Poissons Ratio (x) = 0.26045 0.35766
# Poissons Ratio (y) = 0.44406 0.02445
# Poissons Ratio (z) = 0.42401 0.01700
#
# Static dielectric constant tensor:
#      x y z
#    x 3.004210 -0.188830 0.111050 
#    y -0.188830 2.440040 -0.048220 
#    z 0.111050 -0.048220 3.366710 
# 
# From -- ./inp_files/255142.got.cif
#   From: 2010.05.17/outbox.cif.g08.bks.cpg/sg2_128_cif.got.tgz:255142.got - 2010.06.03 11:33:40.
