data_PCOD9092683
_publ_section_title
;
Structure prediction by ZEFSAII (Michael W. Deem and Ramdas Pophale) SiO2 
 PCOD9092683
Probable space group: P -1
;
_chemical_formula_sum "Si O2"
_cell_formula_units_Z 16
_cell_length_a 8.691331
_cell_length_b 17.950610
_cell_length_c 7.217643
_cell_angle_alpha 46.294647
_cell_angle_beta 75.386372
_cell_angle_gamma 59.593482
_cell_volume 693.443407
_symmetry_space_group_name_H-M "P -1"
_symmetry_group_IT_number 2
_symmetry_cell_setting 'triclinic'
loop_
_space_group_symop_operation_xyz
x,y,z
-x,-y,-z
loop_
_atom_site_type_symbol
_atom_site_label
_atom_site_fract_x
_atom_site_fract_y
_atom_site_fract_z
Si Si1 0.535535 0.729871 0.210189
Si Si2 0.549970 0.335479 0.042173
Si Si3 0.211246 0.922896 0.615978
Si Si4 0.225368 0.410762 0.278206
Si Si5 0.949149 0.734389 0.361232
Si Si6 0.849043 0.131364 0.858557
Si Si7 0.754265 0.861606 0.856049
Si Si8 0.101002 0.639656 0.093392
O O1 0.501457 0.664436 0.159438
O O2 0.355948 0.808789 0.249932
O O3 0.611873 0.813717 0.959612
O O4 0.679223 0.641684 0.462573
O O5 0.657494 0.199305 0.309937
O O6 0.370810 0.403763 0.098461
O O7 0.697427 0.379023 0.951650
O O8 0.193283 0.876242 0.900822
O O9 0.293336 0.011354 0.419094
O O10 0.000000 0.000000 0.500000
O O11 0.142564 0.326636 0.389828
O O12 0.083672 0.542652 0.145833
O O13 0.061011 0.642538 0.321139
O O14 0.805041 0.844263 0.091170
O O15 0.069348 0.780912 0.347694
O O16 0.000000 0.000000 0.000000
O O17 0.944546 0.768946 0.864877
#
# Coordination Sequence:
#
# PCOD9092683 Si02
#       8
#     2   2   2   2   2   2   2   2
#     4  10  23  41  56  97 123 155 209 261 299 363
#     4  11  23  40  61  92 127 153 213 256 304 365
#     4  11  18  38  61  80 115 168 190 249 312 352
#     4  11  24  38  69  89 122 168 208 249 310 359
#     4   9  19  40  59  88 123 161 198 251 306 361
#     4  11  23  37  60  89 128 156 206 254 305 377
#     4   9  19  35  67  84 115 166 206 237 312 366
#     4  10  19  42  63  88 124 169 204 249 306 373
#
# _framework density 23.073260000000001
#
# number of rings (size 3 to 8) (size 9 to 14) (size 15 to 20)
#    0.750    1.000    5.000    0.750    1.750    4.500 
#    0.000    3.125    0.000    0.000    0.000    0.000 
#    0.000    0.000    0.000    0.000    0.000    0.000 
#
# Total GULP energy -89253.381451 kJ/mol
# GULP energy per Si atom -5578.336341 kJ/mol
# Density = 2.302074 g / cm^3
# Si number density = 23.073260 Si / 1000 Ang^3
#
#
#
# Elastic Constant Matrix: (Units=GPa)
#
#
# Indices 1 2 3 4 5 6 
#
# 1 76.6046 5.0358 21.3884 4.1133 -29.9542 1.2022
# 2 5.0358 66.0658 -1.0080 2.9101 1.0126 -8.7783
# 3 21.3884 -1.0080 45.3966 1.2365 -0.5086 10.0473
# 4 4.1133 2.9101 1.2365 28.9623 -2.1382 -1.7340
# 5 -29.9542 1.0126 -0.5086 -2.1382 35.5848 -1.4345
# 6 1.2022 -8.7783 10.0473 -1.7340 -1.4345 19.5880
#
#
#
# Elastic Compliance Matrix: (Units=1/GPa)
#
#
# Indices 1 2 3 4 5 6 
#
# 1 0.024899 -0.001608 -0.012781 -0.000934 0.020998 0.005762
# 2 -0.001608 0.016314 -0.000522 -0.001059 -0.001588 0.007468
# 3 -0.012781 -0.000522 0.031622 -0.001291 -0.011039 -0.016592
# 4 -0.000934 -0.001059 -0.001291 0.035138 0.001477 0.003463
# 5 0.020998 -0.001588 -0.011039 0.001477 0.046043 0.007164
# 6 0.005762 0.007468 -0.016592 0.003463 0.007164 0.063386
#
#
# Mechanical properties :
#
#
# Convention : Reuss Voigt Hill
#
# Bulk Modulus (GPa) = 23.24888 26.54439 24.89663
# Shear Modulus (GPa) = 19.11590 27.67041 23.39316
#
# Velocity S-wave (km/s) = 2.88147 3.46676 3.18758
# Velocity P-wave (km/s) = 4.60092 5.24919 4.93571
#
# Compressibility (1/GPa) = 0.04301283
#
# Stress axis : x y z
#
# Youngs Moduli (GPa) = 40.16238 61.29614 31.62349
#
# Poissons Ratio (x) = 0.09856 0.40419
# Poissons Ratio (y) = 0.06458 0.01650
# Poissons Ratio (z) = 0.51333 0.03199
#
# Static dielectric constant tensor:
#      x y z
#    x 1.981990 -0.009870 0.026480 
#    y -0.009870 1.913880 -0.005330 
#    z 0.026480 -0.005330 1.804410 
# 
# From -- ./inp_files/214379.got.cif
#   From: 2010.05.17/outbox.cif.g08.bks.cpg/sg2_108_cif.got.tgz:214379.got - 2010.06.03 11:33:40.
