data_PCOD9092413
_publ_section_title
;
Structure prediction by ZEFSAII (Michael W. Deem and Ramdas Pophale) SiO2 
 PCOD9092413
Probable space group: P -1
;
_chemical_formula_sum "Si O2"
_cell_formula_units_Z 15
_cell_length_a 8.559820
_cell_length_b 13.890086
_cell_length_c 7.303412
_cell_angle_alpha 117.206254
_cell_angle_beta 129.543682
_cell_angle_gamma 84.843917
_cell_volume 569.330243
_symmetry_space_group_name_H-M "P -1"
_symmetry_group_IT_number 2
_symmetry_cell_setting 'triclinic'
loop_
_space_group_symop_operation_xyz
x,y,z
-x,-y,-z
loop_
_atom_site_type_symbol
_atom_site_label
_atom_site_fract_x
_atom_site_fract_y
_atom_site_fract_z
Si Si1 0.424207 0.699416 0.403840
Si Si2 0.465940 0.466661 0.156455
Si Si3 0.672999 0.295301 0.099055
Si Si4 0.021945 0.372303 0.896583
Si Si5 0.904625 0.126282 0.171327
Si Si6 0.119320 0.187163 0.028104
Si Si7 0.500000 0.000000 0.000000
Si Si8 0.757785 0.899299 0.322192
O O1 0.470527 0.579270 0.366256
O O2 0.356811 0.699988 0.140210
O O3 0.222699 0.703554 0.377777
O O4 0.642729 0.790821 0.695998
O O5 0.500000 0.500000 0.000000
O O6 0.650404 0.408372 0.275725
O O7 0.226950 0.384409 0.933045
O O8 0.462908 0.201366 0.928210
O O9 0.869795 0.251418 0.259802
O O10 0.000000 0.500000 0.000000
O O11 0.083901 0.308891 0.064117
O O12 0.948787 0.116302 0.981464
O O13 0.109380 0.115819 0.419378
O O14 0.699824 0.043189 0.039635
O O15 0.115953 0.125065 0.780525
O O16 0.328786 0.996488 0.702145
#
# Coordination Sequence:
#
# PCOD9092413 Si02
#       8
#     2   2   2   2   2   2   1   2
#     4  10  21  39  64  93 141 181 232 285 324 391
#     4   9  19  37  61  92 138 187 235 279 329 385
#     4  10  19  41  63  96 135 182 229 274 337 391
#     4  10  21  38  59  95 136 181 236 277 323 384
#     4  11  24  46  73  98 141 172 222 289 346 420
#     4  12  24  42  71 103 137 188 225 279 344 405
#     4  10  26  50  74 104 132 172 220 288 358 426
#     4  11  24  46  69 101 135 172 226 280 350 424
#
# _framework density 26.346747000000001
#
# number of rings (size 3 to 8) (size 9 to 14) (size 15 to 20)
#    0.000    1.600    4.000    0.400    0.000    4.800 
#    2.400    2.000    0.000    0.000    0.000    0.000 
#    0.000    0.000    0.000    0.000    0.000    0.000 
#
# Total GULP energy -83610.034427 kJ/mol
# GULP energy per Si atom -5574.002295 kJ/mol
# Density = 2.628678 g / cm^3
# Si number density = 26.346747 Si / 1000 Ang^3
#
#
#
# Elastic Constant Matrix: (Units=GPa)
#
#
# Indices 1 2 3 4 5 6 
#
# 1 120.5330 19.9542 25.8267 -13.2832 1.1358 34.9930
# 2 19.9542 102.7777 40.9196 -34.4230 6.9593 -9.2300
# 3 25.8267 40.9196 110.5225 -36.0465 16.6474 -10.0559
# 4 -13.2832 -34.4230 -36.0465 45.3038 1.6049 8.0971
# 5 1.1358 6.9593 16.6474 1.6049 45.8314 -7.3804
# 6 34.9930 -9.2300 -10.0559 8.0971 -7.3804 63.4925
#
#
#
# Elastic Compliance Matrix: (Units=1/GPa)
#
#
# Indices 1 2 3 4 5 6 
#
# 1 0.011203 -0.001302 -0.002068 0.001919 -0.000523 -0.006996
# 2 -0.001302 0.013721 -0.001630 0.008593 -0.001571 0.001176
# 3 -0.002068 -0.001630 0.014005 0.009226 -0.004890 0.001376
# 4 0.001919 0.008593 0.009226 0.037437 -0.006642 -0.003894
# 5 -0.000523 -0.001571 -0.004890 -0.006642 0.024560 0.002987
# 6 -0.006996 0.001176 0.001376 -0.003894 0.002987 0.020838
#
#
# Mechanical properties :
#
#
# Convention : Reuss Voigt Hill
#
# Bulk Modulus (GPa) = 34.56555 56.35937 45.46246
# Shear Modulus (GPa) = 35.35876 47.40105 41.37991
#
# Velocity S-wave (km/s) = 3.66738 4.24621 3.96737
# Velocity P-wave (km/s) = 5.57502 6.74375 6.18705
#
# Compressibility (1/GPa) = 0.02893054
#
# Stress axis : x y z
#
# Youngs Moduli (GPa) = 89.26429 72.87944 71.40116
#
# Poissons Ratio (x) = 0.09488 0.14763
# Poissons Ratio (y) = 0.11621 0.11637
# Poissons Ratio (z) = 0.18457 0.11878
#
# Static dielectric constant tensor:
#      x y z
#    x 2.069550 -0.053690 -0.048970 
#    y -0.053690 2.215270 0.004420 
#    z -0.048970 0.004420 2.081490 
# 
# From -- ./inp_files/193204.got.cif
#   From: 2010.05.17/outbox.cif.g08.bks.cpg/sg2_97_cif.got.tgz:193204.got - 2010.06.03 11:33:40.
