data_PCOD9092918
_publ_section_title
;
Structure prediction by ZEFSAII (Michael W. Deem and Ramdas Pophale) SiO2 
 PCOD9092918
Probable space group: P -1
;
_chemical_formula_sum "Si O2"
_cell_formula_units_Z 16
_cell_length_a 12.167656
_cell_length_b 5.133394
_cell_length_c 10.331612
_cell_angle_alpha 96.079881
_cell_angle_beta 101.451187
_cell_angle_gamma 83.195378
_cell_volume 625.770930
_symmetry_space_group_name_H-M "P -1"
_symmetry_group_IT_number 2
_symmetry_cell_setting 'triclinic'
loop_
_space_group_symop_operation_xyz
x,y,z
-x,-y,-z
loop_
_atom_site_type_symbol
_atom_site_label
_atom_site_fract_x
_atom_site_fract_y
_atom_site_fract_z
Si Si1 0.710577 0.281397 0.409636
Si Si2 0.333017 0.400631 0.345850
Si Si3 0.007288 0.233726 0.144939
Si Si4 0.524180 0.062644 0.216276
Si Si5 0.175905 0.108747 0.990064
Si Si6 0.206308 0.450314 0.808601
Si Si7 0.617381 0.246501 0.976435
Si Si8 0.813051 0.084521 0.666084
O O1 0.637211 0.467716 0.504241
O O2 0.636117 0.058868 0.328273
O O3 0.748159 0.453559 0.309372
O O4 0.813170 0.159660 0.518154
O O5 0.434863 0.265381 0.280076
O O6 0.257565 0.652513 0.277811
O O7 0.256870 0.167420 0.349843
O O8 0.071273 0.015001 0.242092
O O9 0.908076 0.114407 0.037003
O O10 0.927468 0.448492 0.214485
O O11 0.103296 0.319107 0.074024
O O12 0.554562 0.186893 0.091970
O O13 0.478927 0.780701 0.156323
O O14 0.197955 0.161121 0.847604
O O15 0.296639 0.001550 0.062180
O O16 0.294767 0.548508 0.945380
#
# Coordination Sequence:
#
# PCOD9092918 Si02
#       8
#     2   2   2   2   2   2   2   2
#     4   9  23  41  66 100 136 180 228 280 333 402
#     4  10  23  44  66 101 135 180 230 278 332 400
#     4  10  22  40  67  95 133 178 223 277 345 407
#     4  10  19  44  65  96 134 181 224 279 340 403
#     4  10  21  41  64  98 132 176 224 279 343 405
#     4  10  21  41  67 100 136 174 224 282 338 411
#     4   9  21  40  63  99 134 176 224 277 344 399
#     4  10  24  44  67 103 134 181 228 282 333 402
#
# _framework density 25.568465
#
# number of rings (size 3 to 8) (size 9 to 14) (size 15 to 20)
#    0.750    1.500    0.000    1.500    1.750    4.000 
#   15.750    4.375    0.000    0.000    0.000    0.000 
#    0.000    0.000    0.000    0.000    0.000    0.000 
#
# Total GULP energy -89147.602233 kJ/mol
# GULP energy per Si atom -5571.725140 kJ/mol
# Density = 2.551027 g / cm^3
# Si number density = 25.568465 Si / 1000 Ang^3
#
#
#
# Elastic Constant Matrix: (Units=GPa)
#
#
# Indices 1 2 3 4 5 6 
#
# 1 108.4884 32.0227 50.7405 11.9908 -13.7994 -6.1482
# 2 32.0227 85.1219 29.4055 -13.2987 -2.7978 -1.2916
# 3 50.7405 29.4055 138.1212 -4.2694 8.2882 4.4513
# 4 11.9908 -13.2987 -4.2694 25.7449 3.1376 -2.8098
# 5 -13.7994 -2.7978 8.2882 3.1376 29.1639 1.0738
# 6 -6.1482 -1.2916 4.4513 -2.8098 1.0738 31.3328
#
#
#
# Elastic Compliance Matrix: (Units=1/GPa)
#
#
# Indices 1 2 3 4 5 6 
#
# 1 0.016523 -0.005775 -0.005921 -0.012649 0.010221 0.002361
# 2 -0.005775 0.015871 -0.000805 0.011100 -0.002201 0.000706
# 3 -0.005921 -0.000805 0.010164 0.004561 -0.006184 -0.002018
# 4 -0.012649 0.011100 0.004561 0.052959 -0.012006 0.002488
# 5 0.010221 -0.002201 -0.006184 -0.012006 0.041953 0.000279
# 6 0.002361 0.000706 -0.002018 0.002488 0.000279 0.032908
#
#
# Mechanical properties :
#
#
# Convention : Reuss Voigt Hill
#
# Bulk Modulus (GPa) = 56.96015 61.78543 59.37279
# Shear Modulus (GPa) = 24.84705 31.88583 28.36644
#
# Velocity S-wave (km/s) = 3.12073 3.53523 3.33443
# Velocity P-wave (km/s) = 5.94232 6.39382 6.17220
#
# Compressibility (1/GPa) = 0.01755613
#
# Stress axis : x y z
#
# Youngs Moduli (GPa) = 60.52044 63.00810 98.39043
#
# Poissons Ratio (x) = 0.36387 0.58257
# Poissons Ratio (y) = 0.34951 0.07920
# Poissons Ratio (z) = 0.35834 0.05072
#
# Static dielectric constant tensor:
#      x y z
#    x 2.049340 -0.098480 -0.056470 
#    y -0.098480 2.186240 0.071180 
#    z -0.056470 0.071180 2.108060 
# 
# From -- ./inp_files/410547.got.cif
#   From: 2010.05.17/outbox.cif.g08.bks.cpg/sg2_206_cif.got.tgz:410547.got - 2010.06.03 11:33:40.
