data_PCOD9092570
_publ_section_title
;
Structure prediction by ZEFSAII (Michael W. Deem and Ramdas Pophale) SiO2 
 PCOD9092570
Probable space group: P -1
;
_chemical_formula_sum "Si O2"
_cell_formula_units_Z 14
_cell_length_a 10.461055
_cell_length_b 13.103292
_cell_length_c 4.912796
_cell_angle_alpha 51.418629
_cell_angle_beta 101.398428
_cell_angle_gamma 106.916200
_cell_volume 503.530899
_symmetry_space_group_name_H-M "P -1"
_symmetry_group_IT_number 2
_symmetry_cell_setting 'triclinic'
loop_
_space_group_symop_operation_xyz
x,y,z
-x,-y,-z
loop_
_atom_site_type_symbol
_atom_site_label
_atom_site_fract_x
_atom_site_fract_y
_atom_site_fract_z
Si Si1 0.778337 0.217022 0.204900
Si Si2 0.246016 0.030735 0.784054
Si Si3 0.167561 0.161318 0.015091
Si Si4 0.478342 0.873984 0.482826
Si Si5 0.997439 0.345578 0.448328
Si Si6 0.220161 0.542412 0.498530
Si Si7 0.588390 0.625016 0.165579
O O1 0.682878 0.167616 0.506667
O O2 0.927403 0.289705 0.232773
O O3 0.781736 0.100972 0.189783
O O4 0.708102 0.321219 0.842270
O O5 0.173938 0.038372 0.025699
O O6 0.408568 0.075632 0.782912
O O7 0.191529 0.131134 0.387924
O O8 0.299651 0.270231 0.791966
O O9 0.038786 0.220097 0.818381
O O10 0.500000 0.000000 0.500000
O O11 0.516681 0.730481 0.813007
O O12 0.886064 0.412660 0.425864
O O13 0.133632 0.455011 0.367658
O O14 0.314880 0.456116 0.821579
O O15 0.500000 0.500000 0.500000
#
# Coordination Sequence:
#
# PCOD9092570 Si02
#       7
#     2   2   2   2   2   2   2
#     4  11  22  40  67  95 132 181 230 280 346 416
#     4  10  24  44  69 100 138 182 228 289 349 407
#     4  10  24  45  67  99 140 180 231 291 341 405
#     4   9  20  42  64 102 135 174 224 285 346 407
#     4  10  24  41  64  94 135 180 230 286 341 406
#     4  10  22  42  62  96 134 176 230 288 340 408
#     4  10  19  41  69 100 135 179 232 279 346 414
#
# _framework density 27.803659
#
# number of rings (size 3 to 8) (size 9 to 14) (size 15 to 20)
#    0.000    2.000    1.429    0.429    4.000    2.286 
#   12.857   10.000    0.000    0.000    0.000    0.000 
#    0.000    0.000    0.000    0.000    0.000    0.000 
#
# Total GULP energy -78206.306768 kJ/mol
# GULP energy per Si atom -5586.164769 kJ/mol
# Density = 2.774038 g / cm^3
# Si number density = 27.803659 Si / 1000 Ang^3
#
#
#
# Elastic Constant Matrix: (Units=GPa)
#
#
# Indices 1 2 3 4 5 6 
#
# 1 82.5206 22.2322 21.9080 -11.2449 18.7640 -30.2008
# 2 22.2322 100.5619 33.8890 -11.1080 6.5419 -2.0784
# 3 21.9080 33.8890 90.7825 -6.5031 31.9221 -7.8926
# 4 -11.2449 -11.1080 -6.5031 47.3240 -8.5581 -6.2989
# 5 18.7640 6.5419 31.9221 -8.5581 61.1903 -18.0129
# 6 -30.2008 -2.0784 -7.8926 -6.2989 -18.0129 38.8089
#
#
#
# Elastic Compliance Matrix: (Units=1/GPa)
#
#
# Indices 1 2 3 4 5 6 
#
# 1 0.020130 -0.002700 -0.002346 0.006227 0.001084 0.016557
# 2 -0.002700 0.012095 -0.004458 0.001727 0.001725 -0.001279
# 3 -0.002346 -0.004458 0.015728 -0.001261 -0.008006 -0.002786
# 4 0.006227 0.001727 -0.001261 0.025332 0.005438 0.011318
# 5 0.001084 0.001725 -0.008006 0.005438 0.024113 0.011383
# 6 0.016557 -0.001279 -0.002786 0.011318 0.011383 0.045137
#
#
# Mechanical properties :
#
#
# Convention : Reuss Voigt Hill
#
# Bulk Modulus (GPa) = 34.54722 47.76929 41.15825
# Shear Modulus (GPa) = 29.20685 42.52036 35.86361
#
# Velocity S-wave (km/s) = 3.24461 3.91488 3.59540
# Velocity P-wave (km/s) = 5.14675 6.13623 5.66314
#
# Compressibility (1/GPa) = 0.02894589
#
# Stress axis : x y z
#
# Youngs Moduli (GPa) = 49.67700 82.67595 63.58095
#
# Poissons Ratio (x) = 0.22326 0.14913
# Poissons Ratio (y) = 0.13415 0.28343
# Poissons Ratio (z) = 0.11652 0.36855
#
# Static dielectric constant tensor:
#      x y z
#    x 2.181460 0.053000 -0.012520 
#    y 0.053000 2.150970 -0.030150 
#    z -0.012520 -0.030150 2.315920 
# 
# From -- ./inp_files/68235.got.cif
#   From: 2010.05.17/outbox.cif.g08.bks.cpg/sg2_35_cif.got.tgz:68235.got - 2010.06.03 11:33:40.
