data_PCOD9092907
_publ_section_title
;
Structure prediction by ZEFSAII (Michael W. Deem and Ramdas Pophale) SiO2 
 PCOD9092907
Probable space group: P -1
;
_chemical_formula_sum "Si O2"
_cell_formula_units_Z 10
_cell_length_a 10.790817
_cell_length_b 6.861109
_cell_length_c 8.972265
_cell_angle_alpha 91.089163
_cell_angle_beta 139.384281
_cell_angle_gamma 80.819015
_cell_volume 421.471482
_symmetry_space_group_name_H-M "P -1"
_symmetry_group_IT_number 2
_symmetry_cell_setting 'triclinic'
loop_
_space_group_symop_operation_xyz
x,y,z
-x,-y,-z
loop_
_atom_site_type_symbol
_atom_site_label
_atom_site_fract_x
_atom_site_fract_y
_atom_site_fract_z
Si Si1 0.894361 0.207093 0.990965
Si Si2 0.486855 0.094761 0.654336
Si Si3 0.562438 0.250193 0.184069
Si Si4 0.838479 0.428425 0.245173
Si Si5 0.692667 0.486152 0.575817
O O1 0.933131 0.325874 0.177458
O O2 0.690394 0.157245 0.854002
O O3 0.864494 0.367682 0.832301
O O4 0.000000 0.000000 0.000000
O O5 0.319223 0.292257 0.487553
O O6 0.500000 0.000000 0.500000
O O7 0.452726 0.959381 0.759651
O O8 0.721897 0.267763 0.205345
O O9 0.653591 0.356917 0.401099
O O10 0.344738 0.380340 0.949141
O O11 0.000000 0.500000 0.500000
O O12 0.500000 0.500000 0.500000
#
# Coordination Sequence:
#
# PCOD9092907 Si02
#       5
#     2   2   2   2   2
#     4  11  24  46  75 115 150 194 254 312 376 450
#     4  11  20  41  79 106 139 195 252 308 370 443
#     4  11  23  47  79 106 146 205 254 307 384 447
#     4  11  26  50  73 110 160 196 246 319 382 449
#     4  10  19  43  75 103 142 193 254 298 367 447
#
# _framework density 23.726399000000001
#
# number of rings (size 3 to 8) (size 9 to 14) (size 15 to 20)
#    0.000    1.200    8.000    0.000    0.000    4.000 
#    0.000    5.000    0.000    0.000    0.000    0.000 
#    0.000    0.000    0.000    0.000    0.000    0.000 
#
# Total GULP energy -55778.000616 kJ/mol
# GULP energy per Si atom -5577.800062 kJ/mol
# Density = 2.367240 g / cm^3
# Si number density = 23.726399 Si / 1000 Ang^3
#
#
#
# Elastic Constant Matrix: (Units=GPa)
#
#
# Indices 1 2 3 4 5 6 
#
# 1 131.7393 66.7582 90.1374 -25.9321 6.0842 11.0383
# 2 66.7582 148.3927 92.7917 -23.5262 -2.8060 22.2884
# 3 90.1374 92.7917 171.9207 13.6747 -9.1844 -4.8464
# 4 -25.9321 -23.5262 13.6747 52.2666 3.2018 -23.1639
# 5 6.0842 -2.8060 -9.1844 3.2018 41.1178 -1.0337
# 6 11.0383 22.2884 -4.8464 -23.1639 -1.0337 51.8450
#
#
#
# Elastic Compliance Matrix: (Units=1/GPa)
#
#
# Indices 1 2 3 4 5 6 
#
# 1 0.017115 0.000684 -0.010603 0.012085 -0.005786 0.000355
# 2 0.000684 0.013155 -0.008200 0.006961 -0.001665 -0.003491
# 3 -0.010603 -0.008200 0.017204 -0.013076 0.005912 0.001666
# 4 0.012085 0.006961 -0.013076 0.036201 -0.006820 0.009250
# 5 -0.005786 -0.001665 0.005912 -0.006820 0.026914 -0.000010
# 6 0.000355 -0.003491 0.001666 0.009250 -0.000010 0.025002
#
#
# Mechanical properties :
#
#
# Convention : Reuss Voigt Hill
#
# Bulk Modulus (GPa) = 88.99337 105.71417 97.35377
# Shear Modulus (GPa) = 28.47786 42.53691 35.50739
#
# Velocity S-wave (km/s) = 3.46824 4.23875 3.87270
# Velocity P-wave (km/s) = 7.32310 8.28301 7.81780
#
# Compressibility (1/GPa) = 0.01123679
#
# Stress axis : x y z
#
# Youngs Moduli (GPa) = 58.42700 76.01635 58.12516
#
# Poissons Ratio (x) = -0.05196 0.61629
# Poissons Ratio (y) = -0.03994 0.47661
# Poissons Ratio (z) = 0.61949 0.62331
#
# Static dielectric constant tensor:
#      x y z
#    x 1.468940 0.078910 0.174250 
#    y 0.078910 1.957700 0.008850 
#    z 0.174250 0.008850 1.892990 
# 
# From -- ./inp_files/240064.got.cif
#   From: 2010.05.17/outbox.cif.g08.bks.cpg/sg2_121_cif.got.tgz:240064.got - 2010.06.03 11:33:40.
