data_PCOD9092461
_publ_section_title
;
Structure prediction by ZEFSAII (Michael W. Deem and Ramdas Pophale) SiO2 
 PCOD9092461
Probable space group: P -1
;
_chemical_formula_sum "Si O2"
_cell_formula_units_Z 13
_cell_length_a 10.463262
_cell_length_b 9.220308
_cell_length_c 11.236690
_cell_angle_alpha 141.091390
_cell_angle_beta 127.799364
_cell_angle_gamma 62.436669
_cell_volume 537.779388
_symmetry_space_group_name_H-M "P -1"
_symmetry_group_IT_number 2
_symmetry_cell_setting 'triclinic'
loop_
_space_group_symop_operation_xyz
x,y,z
-x,-y,-z
loop_
_atom_site_type_symbol
_atom_site_label
_atom_site_fract_x
_atom_site_fract_y
_atom_site_fract_z
Si Si1 0.705489 0.605014 0.250968
Si Si2 0.926657 0.220708 0.159532
Si Si3 0.000000 0.500000 0.000000
Si Si4 0.025906 0.940791 0.660712
Si Si5 0.755343 0.303288 0.554779
Si Si6 0.717879 0.623774 0.538620
Si Si7 0.498424 0.005537 0.646074
O O1 0.791613 0.370444 0.111662
O O2 0.654653 0.564440 0.333021
O O3 0.854649 0.796488 0.463443
O O4 0.561965 0.739777 0.190240
O O5 0.887367 0.140238 0.219880
O O6 0.088123 0.386039 0.363505
O O7 0.000000 0.000000 0.000000
O O8 0.869562 0.483267 0.805635
O O9 0.995896 0.212387 0.819696
O O10 0.136534 0.875563 0.570718
O O11 0.661988 0.444962 0.491556
O O12 0.634791 0.172773 0.491532
O O13 0.662755 0.884575 0.701262
O O14 0.500000 0.000000 0.500000
#
# Coordination Sequence:
#
# PCOD9092461 Si02
#       7
#     2   2   1   2   2   2   2
#     4  10  19  41  65  97 133 173 220 274 332 400
#     4  11  21  38  70  99 138 171 226 279 334 399
#     4  12  26  36  66 106 134 166 230 292 330 382
#     4  11  22  39  64 102 130 176 220 282 337 387
#     4  12  22  42  67  96 138 173 228 282 333 393
#     4  10  20  40  65  96 129 180 218 267 344 404
#     4  10  23  39  67  93 132 182 225 261 344 412
#
# _framework density 24.173482
#
# number of rings (size 3 to 8) (size 9 to 14) (size 15 to 20)
#    0.000    1.231    4.615    2.769    0.000    0.000 
#    0.000    0.769    6.769    2.769    0.000    0.000 
#    0.000    0.000    0.000    0.000    0.000    0.000 
#
# Total GULP energy -72407.259838 kJ/mol
# GULP energy per Si atom -5569.789218 kJ/mol
# Density = 2.411846 g / cm^3
# Si number density = 24.173482 Si / 1000 Ang^3
#
#
#
# Elastic Constant Matrix: (Units=GPa)
#
#
# Indices 1 2 3 4 5 6 
#
# 1 126.1145 57.4508 33.0347 1.1804 -12.1935 10.3994
# 2 57.4508 164.8244 26.3331 44.2864 -5.5372 -19.2705
# 3 33.0347 26.3331 94.5993 35.1677 -12.8928 3.1271
# 4 1.1804 44.2864 35.1677 53.3426 -7.8732 -9.0431
# 5 -12.1935 -5.5372 -12.8928 -7.8732 15.2889 3.7518
# 6 10.3994 -19.2705 3.1271 -9.0431 3.7518 62.9374
#
#
#
# Elastic Compliance Matrix: (Units=1/GPa)
#
#
# Indices 1 2 3 4 5 6 
#
# 1 0.013122 -0.006255 -0.004748 0.008912 0.009554 -0.003137
# 2 -0.006255 0.010941 0.002298 -0.010735 -0.005364 0.003047
# 3 -0.004748 0.002298 0.017000 -0.012474 0.005317 -0.001466
# 4 0.008912 -0.010735 -0.012474 0.037534 0.011895 0.000544
# 5 0.009554 -0.005364 0.005317 0.011895 0.083349 -0.006745
# 6 -0.003137 0.003047 -0.001466 0.000544 -0.006745 0.017893
#
#
# Mechanical properties :
#
#
# Convention : Reuss Voigt Hill
#
# Bulk Modulus (GPa) = 42.28149 68.79725 55.53937
# Shear Modulus (GPa) = 24.37462 44.22841 34.30151
#
# Velocity S-wave (km/s) = 3.17885 4.28205 3.77101
# Velocity P-wave (km/s) = 5.56797 7.27802 6.47965
#
# Compressibility (1/GPa) = 0.02365101
#
# Stress axis : x y z
#
# Youngs Moduli (GPa) = 76.21057 91.40274 58.82490
#
# Poissons Ratio (x) = 0.57175 0.27930
# Poissons Ratio (y) = 0.47671 -0.13517
# Poissons Ratio (z) = 0.36185 -0.21003
#
# Static dielectric constant tensor:
#      x y z
#    x 1.950670 -0.050580 -0.015060 
#    y -0.050580 2.017900 -0.008570 
#    z -0.015060 -0.008570 1.983860 
# 
# From -- ./inp_files/418699.got.cif
#   From: 2010.05.17/outbox.cif.g08.bks.cpg/sg2_210_cif.got.tgz:418699.got - 2010.06.03 11:33:40.
