data_PCOD9092770
_publ_section_title
;
Structure prediction by ZEFSAII (Michael W. Deem and Ramdas Pophale) SiO2 
 PCOD9092770
Probable space group: P -1
;
_chemical_formula_sum "Si O2"
_cell_formula_units_Z 12
_cell_length_a 8.707174
_cell_length_b 7.398468
_cell_length_c 15.854963
_cell_angle_alpha 107.613541
_cell_angle_beta 142.082850
_cell_angle_gamma 55.059133
_cell_volume 491.421205
_symmetry_space_group_name_H-M "P -1"
_symmetry_group_IT_number 2
_symmetry_cell_setting 'triclinic'
loop_
_space_group_symop_operation_xyz
x,y,z
-x,-y,-z
loop_
_atom_site_type_symbol
_atom_site_label
_atom_site_fract_x
_atom_site_fract_y
_atom_site_fract_z
Si Si1 0.254376 0.190906 0.318412
Si Si2 0.860789 0.357878 0.615746
Si Si3 0.040578 0.879203 0.210066
Si Si4 0.880278 0.828561 0.479524
Si Si5 0.724449 0.275265 0.010932
Si Si6 0.447976 0.426992 0.729871
O O1 0.107485 0.426853 0.339320
O O2 0.052383 0.237458 0.153903
O O3 0.204359 0.012272 0.319408
O O4 0.599879 0.075758 0.424301
O O5 0.500000 0.500000 0.500000
O O6 0.035250 0.193975 0.747858
O O7 0.991777 0.214336 0.566303
O O8 0.287338 0.648565 0.233473
O O9 0.782959 0.055503 0.056927
O O10 0.713601 0.695534 0.388436
O O11 0.180949 0.696346 0.648712
O O12 0.500000 0.500000 0.000000
O O13 0.600888 0.318756 0.870007
#
# Coordination Sequence:
#
# PCOD9092770 Si02
#       6
#     2   2   2   2   2   2
#     4   9  24  44  66 101 128 177 221 267 332 388
#     4  12  23  43  66 102 137 167 224 272 332 389
#     4   9  22  42  66  94 130 175 215 275 318 391
#     4  10  22  40  68 102 133 172 216 280 321 394
#     4  10  21  42  69  95 126 181 221 264 329 396
#     4  10  19  42  68  92 134 174 217 266 334 387
#
# _framework density 24.418970999999999
#
# number of rings (size 3 to 8) (size 9 to 14) (size 15 to 20)
#    1.000    1.000    1.667    1.500    0.000    2.667 
#    3.000    4.167    0.000    0.000    0.000    0.000 
#    0.000    0.000    0.000    0.000    0.000    0.000 
#
# Total GULP energy -67043.680783 kJ/mol
# GULP energy per Si atom -5586.973399 kJ/mol
# Density = 2.436339 g / cm^3
# Si number density = 24.418971 Si / 1000 Ang^3
#
#
#
# Elastic Constant Matrix: (Units=GPa)
#
#
# Indices 1 2 3 4 5 6 
#
# 1 92.6084 43.1918 42.7547 -26.8581 -26.2705 -22.2888
# 2 43.1918 107.4420 34.6835 -16.8235 -7.5366 -22.2532
# 3 42.7547 34.6835 143.1236 -39.6374 -30.2201 -14.1458
# 4 -26.8581 -16.8235 -39.6374 34.5219 1.7903 5.2948
# 5 -26.2705 -7.5366 -30.2201 1.7903 42.4535 1.7219
# 6 -22.2888 -22.2532 -14.1458 5.2948 1.7219 30.1652
#
#
#
# Elastic Compliance Matrix: (Units=1/GPa)
#
#
# Indices 1 2 3 4 5 6 
#
# 1 0.023225 -0.004220 0.002996 0.016909 0.014569 0.011652
# 2 -0.004220 0.012561 -0.001495 0.000368 -0.001684 0.005478
# 3 0.002996 -0.001495 0.013422 0.015860 0.010310 0.004032
# 4 0.016909 0.000368 0.015860 0.058160 0.019005 0.008909
# 5 0.014569 -0.001684 0.010310 0.019005 0.038452 0.008827
# 6 0.011652 0.005478 0.004032 0.008909 0.008827 0.045625
#
#
# Mechanical properties :
#
#
# Convention : Reuss Voigt Hill
#
# Bulk Modulus (GPa) = 22.84787 64.93712 43.89250
# Shear Modulus (GPa) = 23.64358 36.26439 29.95398
#
# Velocity S-wave (km/s) = 3.11504 3.85787 3.50618
# Velocity P-wave (km/s) = 4.72386 6.81871 5.86557
#
# Compressibility (1/GPa) = 0.04376776
#
# Stress axis : x y z
#
# Youngs Moduli (GPa) = 43.05752 79.61290 74.50243
#
# Poissons Ratio (x) = 0.33600 -0.22319
# Poissons Ratio (y) = 0.18172 0.11141
# Poissons Ratio (z) = -0.12899 0.11905
#
# Static dielectric constant tensor:
#      x y z
#    x 1.941410 0.036040 0.023080 
#    y 0.036040 2.023680 -0.010640 
#    z 0.023080 -0.010640 1.975390 
# 
# From -- ./inp_files/495313.got.cif
#   From: 2010.05.17/outbox.cif.g08.bks.cpg/sg2_248_cif.got.tgz:495313.got - 2010.06.03 11:33:40.
