data_PCOD9092123
_publ_section_title
;
Structure prediction by ZEFSAII (Michael W. Deem and Ramdas Pophale) SiO2 
 PCOD9092123
Probable space group: P -1
;
_chemical_formula_sum "Si O2"
_cell_formula_units_Z 16
_cell_length_a 9.119318
_cell_length_b 19.547474
_cell_length_c 14.343676
_cell_angle_alpha 18.810895
_cell_angle_beta 88.349141
_cell_angle_gamma 79.180055
_cell_volume 714.742318
_symmetry_space_group_name_H-M "P -1"
_symmetry_group_IT_number 2
_symmetry_cell_setting 'triclinic'
loop_
_space_group_symop_operation_xyz
x,y,z
-x,-y,-z
loop_
_atom_site_type_symbol
_atom_site_label
_atom_site_fract_x
_atom_site_fract_y
_atom_site_fract_z
Si Si1 0.682540 0.986086 0.520150
Si Si2 0.016610 0.557982 0.747059
Si Si3 0.743670 0.935688 0.383177
Si Si4 0.696689 0.363386 0.702294
Si Si5 0.623737 0.135206 0.727221
Si Si6 0.608425 0.027970 0.661515
Si Si7 0.752060 0.443938 0.399400
Si Si8 0.740283 0.705287 0.408607
O O1 0.720351 0.062429 0.321199
O O2 0.667499 0.108222 0.463636
O O3 0.500000 0.000000 0.500000
O O4 0.836165 0.710196 0.882910
O O5 0.921151 0.703086 0.653615
O O6 0.879799 0.569333 0.660413
O O7 0.107721 0.668422 0.538480
O O8 0.593014 0.870598 0.465816
O O9 0.725522 0.119515 0.064868
O O10 0.500000 0.500000 0.500000
O O11 0.798775 0.335046 0.642214
O O12 0.736098 0.520793 0.571232
O O13 0.610925 0.383897 0.442343
O O14 0.441600 0.157569 0.714685
O O15 0.666911 0.088662 0.678138
O O16 0.749345 0.914873 0.077151
O O17 0.686577 0.732597 0.036452
#
# Coordination Sequence:
#
# PCOD9092123 Si02
#       8
#     2   2   2   2   2   2   2   2
#     4   9  22  42  69  89 122 177 222 265 328 387
#     4  11  24  41  63 100 132 160 221 279 321 379
#     4  11  20  39  68  90 127 173 212 271 325 376
#     4  12  21  38  65  95 134 173 215 256 321 399
#     4  11  20  37  66  94 133 176 214 253 329 393
#     4  10  19  40  66  93 126 169 223 259 313 392
#     4  11  23  39  62  97 133 170 213 260 325 392
#     4  11  22  36  62  99 133 172 212 267 320 389
#
# _framework density 22.385687999999998
#
# number of rings (size 3 to 8) (size 9 to 14) (size 15 to 20)
#    0.000    1.250    5.000    1.125    0.000    2.500 
#    4.500    0.625    5.500    7.500    0.000    0.000 
#    0.000    0.000    0.000    0.000    0.000    0.000 
#
# Total GULP energy -89325.292789 kJ/mol
# GULP energy per Si atom -5582.830799 kJ/mol
# Density = 2.233474 g / cm^3
# Si number density = 22.385688 Si / 1000 Ang^3
#
#
#
# Elastic Constant Matrix: (Units=GPa)
#
#
# Indices 1 2 3 4 5 6 
#
# 1 38.7064 18.0588 18.7979 3.8488 11.2151 -10.9176
# 2 18.0588 152.4679 7.8861 17.1872 -0.9044 -15.9469
# 3 18.7979 7.8861 53.8884 9.5324 26.6963 -1.9263
# 4 3.8488 17.1872 9.5324 32.3638 -1.6130 -3.5333
# 5 11.2151 -0.9044 26.6963 -1.6130 23.2744 -1.6122
# 6 -10.9176 -15.9469 -1.9263 -3.5333 -1.6122 44.9360
#
#
#
# Elastic Compliance Matrix: (Units=1/GPa)
#
#
# Indices 1 2 3 4 5 6 
#
# 1 0.035219 -0.003110 -0.007835 0.000140 -0.007621 0.006855
# 2 -0.003110 0.007504 -0.000536 -0.003155 0.002305 0.001719
# 3 -0.007835 -0.000536 0.053989 -0.018023 -0.059652 -0.003337
# 4 0.000140 -0.003155 -0.018023 0.039255 0.023347 0.002066
# 5 -0.007621 0.002305 -0.059652 0.023347 0.116937 0.002441
# 6 0.006855 0.001719 -0.003337 0.002066 0.002441 0.024636
#
#
# Mechanical properties :
#
#
# Convention : Reuss Voigt Hill
#
# Bulk Modulus (GPa) = 13.55918 37.17205 25.36562
# Shear Modulus (GPa) = 15.38057 33.46950 24.42503
#
# Velocity S-wave (km/s) = 2.62405 3.87089 3.30676
# Velocity P-wave (km/s) = 3.90526 6.05142 5.09268
#
# Compressibility (1/GPa) = 0.07375075
#
# Stress axis : x y z
#
# Youngs Moduli (GPa) = 28.39354 133.26306 18.52234
#
# Poissons Ratio (x) = 0.41448 0.14512
# Poissons Ratio (y) = 0.08831 0.00992
# Poissons Ratio (z) = 0.22246 0.07138
#
# Static dielectric constant tensor:
#      x y z
#    x 1.855350 -0.024950 -0.000520 
#    y -0.024950 1.871250 0.011750 
#    z -0.000520 0.011750 1.866740 
# 
# From -- ./inp_files/314783.got.cif
#   From: 2010.05.17/outbox.cif.g08.bks.cpg/sg2_158_cif.got.tgz:314783.got - 2010.06.03 11:33:40.
