data_PCOD9092198
_publ_section_title
;
Structure prediction by ZEFSAII (Michael W. Deem and Ramdas Pophale) SiO2 
 PCOD9092198
Probable space group: P -1
;
_chemical_formula_sum "Si O2"
_cell_formula_units_Z 16
_cell_length_a 24.252813
_cell_length_b 18.192307
_cell_length_c 15.135541
_cell_angle_alpha 148.273918
_cell_angle_beta 160.862256
_cell_angle_gamma 21.719708
_cell_volume 789.739368
_symmetry_space_group_name_H-M "P -1"
_symmetry_group_IT_number 2
_symmetry_cell_setting 'triclinic'
loop_
_space_group_symop_operation_xyz
x,y,z
-x,-y,-z
loop_
_atom_site_type_symbol
_atom_site_label
_atom_site_fract_x
_atom_site_fract_y
_atom_site_fract_z
Si Si1 0.347056 0.185139 0.391389
Si Si2 0.248592 0.563780 0.688051
Si Si3 0.185300 0.554372 0.116581
Si Si4 0.771203 0.984726 0.322446
Si Si5 0.487841 0.416522 0.263339
Si Si6 0.321346 0.920316 0.370058
Si Si7 0.815324 0.315296 0.088199
Si Si8 0.522868 0.850230 0.786591
O O1 0.299236 0.373243 0.542958
O O2 0.508777 0.101917 0.463709
O O3 0.500000 0.000000 0.500000
O O4 0.087829 0.262111 0.075649
O O5 0.165523 0.619152 0.721959
O O6 0.047958 0.759510 0.519308
O O7 0.500000 0.500000 0.000000
O O8 0.258564 0.535777 0.106594
O O9 0.370367 0.534581 0.434509
O O10 0.247598 0.356313 0.028189
O O11 0.683379 0.172527 0.326468
O O12 0.699593 0.053202 0.386670
O O13 0.585364 0.974525 0.001004
O O14 0.383227 0.500723 0.092809
O O15 0.475950 0.813584 0.584167
O O16 0.252661 0.805810 0.118040
O O17 0.073795 0.149960 0.258628
#
# Coordination Sequence:
#
# PCOD9092198 Si02
#       8
#     2   2   2   2   2   2   2   2
#     4  12  27  44  65 100 136 175 218 278 339 391
#     4  12  25  45  66  95 137 179 215 270 340 398
#     4  10  21  40  65  94 135 169 221 267 331 387
#     4  10  22  40  67  96 130 172 218 266 335 391
#     4  10  22  39  69  99 128 172 223 276 317 389
#     4  11  23  41  69  98 134 173 225 272 328 393
#     4  11  23  42  70 101 130 175 229 269 325 398
#     4  10  19  40  67  95 123 175 221 267 321 395
#
# _framework density 20.259848999999999
#
# number of rings (size 3 to 8) (size 9 to 14) (size 15 to 20)
#    0.000    1.250    5.000    0.750    1.750    1.500 
#    2.250    2.500    0.000    0.000    0.000    0.000 
#    0.000    0.000    0.000    0.000    0.000    0.000 
#
# Total GULP energy -89247.713127 kJ/mol
# GULP energy per Si atom -5577.982070 kJ/mol
# Density = 2.021374 g / cm^3
# Si number density = 20.259849 Si / 1000 Ang^3
#
#
#
# Elastic Constant Matrix: (Units=GPa)
#
#
# Indices 1 2 3 4 5 6 
#
# 1 50.8342 28.4675 20.9720 -17.0825 0.8314 3.2090
# 2 28.4675 87.0083 11.4056 -16.1386 10.5505 13.5386
# 3 20.9720 11.4056 46.9022 -18.5615 16.0079 0.4350
# 4 -17.0825 -16.1386 -18.5615 35.6769 -5.9569 -1.7163
# 5 0.8314 10.5505 16.0079 -5.9569 25.3747 -1.3595
# 6 3.2090 13.5386 0.4350 -1.7163 -1.3595 28.2707
#
#
#
# Elastic Compliance Matrix: (Units=1/GPa)
#
#
# Indices 1 2 3 4 5 6 
#
# 1 0.032816 -0.009687 -0.014591 0.006134 0.013714 0.002170
# 2 -0.009687 0.016979 0.004932 0.003689 -0.009381 -0.007335
# 3 -0.014591 0.004932 0.039406 0.011691 -0.023781 -0.001746
# 4 0.006134 0.003689 0.011691 0.038696 -0.000042 -0.000296
# 5 0.013714 -0.009381 -0.023781 -0.000042 0.058180 0.006097
# 6 0.002170 -0.007335 -0.001746 -0.000296 0.006097 0.038940
#
#
# Mechanical properties :
#
#
# Convention : Reuss Voigt Hill
#
# Bulk Modulus (GPa) = 19.79846 34.04832 26.92339
# Shear Modulus (GPa) = 17.82239 26.12443 21.97341
#
# Velocity S-wave (km/s) = 2.96917 3.59481 3.29687
# Velocity P-wave (km/s) = 4.64200 5.83717 5.27355
#
# Compressibility (1/GPa) = 0.05050898
#
# Stress axis : x y z
#
# Youngs Moduli (GPa) = 30.47273 58.89589 25.37712
#
# Poissons Ratio (x) = 0.57053 0.37028
# Poissons Ratio (y) = 0.29519 -0.12517
# Poissons Ratio (z) = 0.44463 -0.29050
#
# Static dielectric constant tensor:
#      x y z
#    x 1.729780 -0.039300 0.055900 
#    y -0.039300 1.776890 -0.055230 
#    z 0.055900 -0.055230 1.787970 
# 
# From -- ./inp_files/467007.got.cif
#   From: 2010.05.17/outbox.cif.g08.bks.cpg/sg2_234_cif.got.tgz:467007.got - 2010.06.03 11:33:40.
