data_PCOD9092603
_publ_section_title
;
Structure prediction by ZEFSAII (Michael W. Deem and Ramdas Pophale) SiO2 
 PCOD9092603
Probable space group: P -1
;
_chemical_formula_sum "Si O2"
_cell_formula_units_Z 16
_cell_length_a 14.139879
_cell_length_b 13.342766
_cell_length_c 11.564457
_cell_angle_alpha 122.069856
_cell_angle_beta 39.974821
_cell_angle_gamma 146.417936
_cell_volume 739.020178
_symmetry_space_group_name_H-M "P -1"
_symmetry_group_IT_number 2
_symmetry_cell_setting 'triclinic'
loop_
_space_group_symop_operation_xyz
x,y,z
-x,-y,-z
loop_
_atom_site_type_symbol
_atom_site_label
_atom_site_fract_x
_atom_site_fract_y
_atom_site_fract_z
Si Si1 0.074104 0.651124 0.436132
Si Si2 0.223307 0.138056 0.291710
Si Si3 0.872593 0.168788 0.064715
Si Si4 0.203726 0.923258 0.672582
Si Si5 0.212683 0.167461 0.060040
Si Si6 0.457488 0.044607 0.951039
Si Si7 0.594338 0.532357 0.304593
Si Si8 0.555226 0.353038 0.655064
O O1 0.169901 0.820032 0.528870
O O2 0.294408 0.755911 0.212583
O O3 0.000000 0.500000 0.500000
O O4 0.838284 0.531230 0.509878
O O5 0.202909 0.190382 0.219100
O O6 0.436527 0.330883 0.276444
O O7 0.289865 0.046665 0.144747
O O8 0.000000 0.000000 0.500000
O O9 0.137560 0.343101 0.877471
O O10 0.831278 0.000704 0.007019
O O11 0.832533 0.179336 0.241540
O O12 0.687015 0.107476 0.111506
O O13 0.988782 0.882608 0.842783
O O14 0.438485 0.151865 0.609311
O O15 0.454283 0.331440 0.861990
O O16 0.500000 0.000000 0.000000
O O17 0.500000 0.500000 0.500000
O O18 0.548751 0.620173 0.323648
#
# Coordination Sequence:
#
# PCOD9092603 Si02
#       8
#     2   2   2   2   2   2   2   2
#     4  12  28  44  69 101 145 194 240 280 352 440
#     4  11  26  44  73  98 139 187 230 290 359 411
#     4  10  21  42  70  98 135 175 226 294 353 408
#     4  11  22  42  74 101 140 179 230 302 356 397
#     4  10  19  41  70 105 135 169 229 300 351 402
#     4  11  28  49  67  98 147 189 235 285 353 432
#     4  12  24  39  69 106 135 169 238 297 349 419
#     4  11  24  42  72 108 138 179 239 297 351 419
#
# _framework density 21.650286999999999
#
# number of rings (size 3 to 8) (size 9 to 14) (size 15 to 20)
#    0.000    1.000    2.500    5.250    8.750    3.000 
#    0.000    0.625    0.000    0.000    0.000    0.000 
#    0.000    0.000    0.000    0.000    0.000    0.000 
#
# Total GULP energy -89441.931222 kJ/mol
# GULP energy per Si atom -5590.120701 kJ/mol
# Density = 2.160101 g / cm^3
# Si number density = 21.650287 Si / 1000 Ang^3
#
#
#
# Elastic Constant Matrix: (Units=GPa)
#
#
# Indices 1 2 3 4 5 6 
#
# 1 129.7348 4.4696 35.1271 -13.2797 7.2280 21.3552
# 2 4.4696 40.5825 11.8405 -10.7877 -4.4107 17.5498
# 3 35.1271 11.8405 127.6415 -27.3935 1.3474 9.4733
# 4 -13.2797 -10.7877 -27.3935 41.5611 2.8318 -4.9711
# 5 7.2280 -4.4107 1.3474 2.8318 34.0305 -3.0407
# 6 21.3552 17.5498 9.4733 -4.9711 -3.0407 35.8670
#
#
#
# Elastic Compliance Matrix: (Units=1/GPa)
#
#
# Indices 1 2 3 4 5 6 
#
# 1 0.009506 0.002474 -0.001970 0.001786 -0.002332 -0.006300
# 2 0.002474 0.033900 -0.001171 0.006697 0.001868 -0.016664
# 3 -0.001970 -0.001171 0.009673 0.005470 -0.000580 -0.000100
# 4 0.001786 0.006697 0.005470 0.029917 -0.002382 -0.001841
# 5 -0.002332 0.001868 -0.000580 -0.002382 0.030602 0.002892
# 6 -0.006300 -0.016664 -0.000100 -0.001841 0.002892 0.039802
#
#
# Mechanical properties :
#
#
# Convention : Reuss Voigt Hill
#
# Bulk Modulus (GPa) = 19.32591 44.53700 31.93145
# Shear Modulus (GPa) = 29.07257 38.72651 33.89954
#
# Velocity S-wave (km/s) = 3.66843 4.23393 3.96128
# Velocity P-wave (km/s) = 5.18546 6.67212 5.97521
#
# Compressibility (1/GPa) = 0.05174401
#
# Stress axis : x y z
#
# Youngs Moduli (GPa) = 105.19663 29.49836 103.38501
#
# Poissons Ratio (x) = -0.07297 0.20366
# Poissons Ratio (y) = -0.26022 0.12107
# Poissons Ratio (z) = 0.20723 0.03455
#
# Static dielectric constant tensor:
#      x y z
#    x 1.773460 -0.026100 -0.030930 
#    y -0.026100 1.779920 -0.003990 
#    z -0.030930 -0.003990 1.708420 
# 
# From -- ./inp_files/455792.got.cif
#   From: 2010.05.17/outbox.cif.g08.bks.cpg/sg2_228_cif.got.tgz:455792.got - 2010.06.03 11:33:40.
