data_PCOD9092069
_publ_section_title
;
Structure prediction by ZEFSAII (Michael W. Deem and Ramdas Pophale) SiO2 
 PCOD9092069
Probable space group: P -1
;
_chemical_formula_sum "Si O2"
_cell_formula_units_Z 14
_cell_length_a 7.410227
_cell_length_b 7.116408
_cell_length_c 18.283722
_cell_angle_alpha 138.223801
_cell_angle_beta 92.608912
_cell_angle_gamma 104.834563
_cell_volume 577.580074
_symmetry_space_group_name_H-M "P -1"
_symmetry_group_IT_number 2
_symmetry_cell_setting 'triclinic'
loop_
_space_group_symop_operation_xyz
x,y,z
-x,-y,-z
loop_
_atom_site_type_symbol
_atom_site_label
_atom_site_fract_x
_atom_site_fract_y
_atom_site_fract_z
Si Si1 0.041818 0.826296 0.843886
Si Si2 0.554170 0.801962 0.536784
Si Si3 0.711897 0.481281 0.988231
Si Si4 0.854075 0.428403 0.586990
Si Si5 0.984056 0.944517 0.610429
Si Si6 0.356057 0.583428 0.193275
Si Si7 0.719822 0.399950 0.127050
O O1 0.987720 0.594168 0.706651
O O2 0.848865 0.672142 0.848384
O O3 0.101370 0.273794 0.747739
O O4 0.238907 0.844384 0.894152
O O5 0.500000 0.500000 0.500000
O O6 0.382952 0.685648 0.438321
O O7 0.785867 0.912798 0.555528
O O8 0.553141 0.092672 0.666282
O O9 0.895172 0.826266 0.083657
O O10 0.738640 0.341153 0.024643
O O11 0.500000 0.500000 0.000000
O O12 0.692130 0.331404 0.864467
O O13 0.919107 0.690339 0.600519
O O14 0.887476 0.147972 0.470538
O O15 0.479762 0.553989 0.848395
#
# Coordination Sequence:
#
# PCOD9092069 Si02
#       7
#     2   2   2   2   2   2   2
#     4  12  25  44  70 105 135 178 226 281 342 401
#     4  10  21  39  65  99 134 176 223 268 332 402
#     4  10  25  47  74  96 135 181 227 284 339 400
#     4  10  22  38  69  94 140 174 224 273 333 399
#     4  10  19  40  65  96 130 184 221 269 329 403
#     4  11  24  44  67 102 140 174 228 288 331 397
#     4  11  23  45  70  99 136 176 231 270 341 404
#
# _framework density 24.239063999999999
#
# number of rings (size 3 to 8) (size 9 to 14) (size 15 to 20)
#    0.000    1.429    4.286    0.429    0.000    5.143 
#    0.000    7.143    0.000    0.000    0.000    0.000 
#    0.000    0.000    0.000    0.000    0.000    0.000 
#
# Total GULP energy -78366.290799 kJ/mol
# GULP energy per Si atom -5597.592200 kJ/mol
# Density = 2.418389 g / cm^3
# Si number density = 24.239064 Si / 1000 Ang^3
#
#
#
# Elastic Constant Matrix: (Units=GPa)
#
#
# Indices 1 2 3 4 5 6 
#
# 1 124.2967 29.9325 26.8482 -7.5390 10.1827 -5.7456
# 2 29.9325 82.2010 35.3024 -15.0185 2.1972 9.1069
# 3 26.8482 35.3024 99.9597 -18.6257 22.6991 -2.4758
# 4 -7.5390 -15.0185 -18.6257 45.9854 2.1452 14.0422
# 5 10.1827 2.1972 22.6991 2.1452 35.6053 -4.4706
# 6 -5.7456 9.1069 -2.4758 14.0422 -4.4706 32.8513
#
#
#
# Elastic Compliance Matrix: (Units=1/GPa)
#
#
# Indices 1 2 3 4 5 6 
#
# 1 0.009259 -0.003284 -0.001079 -0.000709 -0.001393 0.002562
# 2 -0.003284 0.017221 -0.004729 0.005490 0.001577 -0.007837
# 3 -0.001079 -0.004729 0.015051 0.005199 -0.009466 -0.001254
# 4 -0.000709 0.005490 0.005199 0.030533 -0.007210 -0.015287
# 5 -0.001393 0.001577 -0.009466 -0.007210 0.035677 0.006543
# 6 0.002562 -0.007837 -0.001254 -0.015287 0.006543 0.040391
#
#
# Mechanical properties :
#
#
# Convention : Reuss Voigt Hill
#
# Bulk Modulus (GPa) = 42.83336 54.51372 48.67354
# Shear Modulus (GPa) = 28.71916 37.18001 32.94958
#
# Velocity S-wave (km/s) = 3.44587 3.92074 3.69095
# Velocity P-wave (km/s) = 5.79151 6.56011 6.18776
#
# Compressibility (1/GPa) = 0.02334629
#
# Stress axis : x y z
#
# Youngs Moduli (GPa) = 108.00555 58.06760 66.43915
#
# Poissons Ratio (x) = 0.19070 0.07172
# Poissons Ratio (y) = 0.35470 0.31419
# Poissons Ratio (z) = 0.11658 0.27461
#
# Static dielectric constant tensor:
#      x y z
#    x 1.949390 -0.036760 0.002950 
#    y -0.036760 1.963710 -0.015990 
#    z 0.002950 -0.015990 1.852940 
# 
# From -- ./inp_files/495855.got.cif
#   From: 2010.05.17/outbox.cif.g08.bks.cpg/sg2_248_cif.got.tgz:495855.got - 2010.06.03 11:33:40.
