data_PCOD9092647
_publ_section_title
;
Structure prediction by ZEFSAII (Michael W. Deem and Ramdas Pophale) SiO2 
 PCOD9092647
Probable space group: P -1
;
_chemical_formula_sum "Si O2"
_cell_formula_units_Z 16
_cell_length_a 8.033907
_cell_length_b 9.691286
_cell_length_c 14.962610
_cell_angle_alpha 118.865862
_cell_angle_beta 90.712884
_cell_angle_gamma 130.513963
_cell_volume 676.245938
_symmetry_space_group_name_H-M "P -1"
_symmetry_group_IT_number 2
_symmetry_cell_setting 'triclinic'
loop_
_space_group_symop_operation_xyz
x,y,z
-x,-y,-z
loop_
_atom_site_type_symbol
_atom_site_label
_atom_site_fract_x
_atom_site_fract_y
_atom_site_fract_z
Si Si1 0.151839 0.280869 0.737841
Si Si2 0.151424 0.769002 0.729638
Si Si3 0.408236 0.758075 0.433537
Si Si4 0.342231 0.229674 0.406527
Si Si5 0.257149 0.939467 0.965691
Si Si6 0.616370 0.849299 0.274235
Si Si7 0.920236 0.429939 0.875320
Si Si8 0.514691 0.736966 0.772134
O O1 0.329396 0.291151 0.800042
O O2 0.307100 0.462586 0.713520
O O3 0.033551 0.350154 0.808215
O O4 0.927930 0.000858 0.625118
O O5 0.211123 0.939634 0.861589
O O6 0.358279 0.780062 0.752891
O O7 0.883082 0.495139 0.655652
O O8 0.168828 0.875763 0.670042
O O9 0.484614 0.766836 0.536557
O O10 0.555417 0.786371 0.359348
O O11 0.500000 0.000000 0.500000
O O12 0.500000 0.500000 0.500000
O O13 0.318368 0.187704 0.287668
O O14 0.033113 0.665516 0.904694
O O15 0.500000 0.000000 0.000000
O O16 0.314207 0.113713 0.092499
O O17 0.374255 0.761593 0.201933
O O18 0.000000 0.500000 0.000000
#
# Coordination Sequence:
#
# PCOD9092647 Si02
#       8
#     2   2   2   2   2   2   2   2
#     4  12  26  47  73 107 146 188 249 298 362 440
#     4  11  22  43  70 105 147 185 242 303 365 437
#     4  12  25  44  70 105 146 190 252 306 357 432
#     4  12  27  45  68 100 146 192 241 305 363 423
#     4  10  19  41  73 101 140 186 230 298 358 433
#     4  12  27  44  72 108 145 192 243 299 369 428
#     4  12  23  46  74 104 152 190 236 300 361 437
#     4  11  23  45  74 103 140 198 241 293 378 426
#
# _framework density 23.660029999999999
#
# number of rings (size 3 to 8) (size 9 to 14) (size 15 to 20)
#    0.000    0.500    3.750    6.750    0.000    6.500 
#    0.000    0.625    0.000    0.000    0.000    0.000 
#    0.000    0.000    0.000    0.000    0.000    0.000 
#
# Total GULP energy -89362.255461 kJ/mol
# GULP energy per Si atom -5585.140966 kJ/mol
# Density = 2.360618 g / cm^3
# Si number density = 23.660030 Si / 1000 Ang^3
#
#
#
# Elastic Constant Matrix: (Units=GPa)
#
#
# Indices 1 2 3 4 5 6 
#
# 1 69.7194 20.8748 11.7896 1.6489 -1.7041 -12.8127
# 2 20.8748 137.7010 9.6218 30.4555 -3.0183 -2.0007
# 3 11.7896 9.6218 71.0198 9.7085 0.4022 7.0265
# 4 1.6489 30.4555 9.7085 35.7828 -0.5355 4.7254
# 5 -1.7041 -3.0183 0.4022 -0.5355 15.7653 4.1465
# 6 -12.8127 -2.0007 7.0265 4.7254 4.1465 33.7705
#
#
#
# Elastic Compliance Matrix: (Units=1/GPa)
#
#
# Indices 1 2 3 4 5 6 
#
# 1 0.016871 -0.002540 -0.003315 0.001383 -0.000316 0.006785
# 2 -0.002540 0.009441 0.000179 -0.008022 0.001113 0.000544
# 3 -0.003315 0.000179 0.015502 -0.003677 0.000203 -0.003983
# 4 0.001383 -0.008022 -0.003677 0.036306 0.001098 -0.004400
# 5 -0.000316 0.001113 0.000203 0.001098 0.065833 -0.008333
# 6 0.006785 0.000544 -0.003983 -0.004400 -0.008333 0.034686
#
#
# Mechanical properties :
#
#
# Convention : Reuss Voigt Hill
#
# Bulk Modulus (GPa) = 32.82780 40.33474 36.58127
# Shear Modulus (GPa) = 24.98176 32.80730 28.89453
#
# Velocity S-wave (km/s) = 3.25293 3.72777 3.49841
# Velocity P-wave (km/s) = 5.29279 5.96766 5.64033
#
# Compressibility (1/GPa) = 0.03046199
#
# Stress axis : x y z
#
# Youngs Moduli (GPa) = 59.27356 105.91757 64.50706
#
# Poissons Ratio (x) = 0.26905 0.21385
# Poissons Ratio (y) = 0.15056 -0.01155
# Poissons Ratio (z) = 0.19650 -0.01897
#
# Static dielectric constant tensor:
#      x y z
#    x 1.974020 -0.032780 -0.078170 
#    y -0.032780 1.623230 -0.216480 
#    z -0.078170 -0.216480 1.840640 
# 
# From -- ./inp_files/495478.got.cif
#   From: 2010.05.17/outbox.cif.g08.bks.cpg/sg2_248_cif.got.tgz:495478.got - 2010.06.03 11:33:40.
