data_PCOD9092730
_publ_section_title
;
Structure prediction by ZEFSAII (Michael W. Deem and Ramdas Pophale) SiO2 
 PCOD9092730
Probable space group: P -1
;
_chemical_formula_sum "Si O2"
_cell_formula_units_Z 14
_cell_length_a 7.357250
_cell_length_b 17.029787
_cell_length_c 10.908661
_cell_angle_alpha 32.143601
_cell_angle_beta 98.912353
_cell_angle_gamma 118.557292
_cell_volume 539.768247
_symmetry_space_group_name_H-M "P -1"
_symmetry_group_IT_number 2
_symmetry_cell_setting 'triclinic'
loop_
_space_group_symop_operation_xyz
x,y,z
-x,-y,-z
loop_
_atom_site_type_symbol
_atom_site_label
_atom_site_fract_x
_atom_site_fract_y
_atom_site_fract_z
Si Si1 0.204320 0.531399 0.704914
Si Si2 0.465694 0.803209 0.145759
Si Si3 0.071939 0.917813 0.717243
Si Si4 0.619510 0.222388 0.380099
Si Si5 0.117619 0.418342 0.250798
Si Si6 0.691251 0.524223 0.577511
Si Si7 0.160526 0.927063 0.983159
O O1 0.286690 0.620905 0.461158
O O2 0.405219 0.695703 0.604864
O O3 0.981947 0.519515 0.739185
O O4 0.110763 0.317541 0.995800
O O5 0.423610 0.701170 0.148624
O O6 0.373033 0.921875 0.972228
O O7 0.725350 0.933428 0.069708
O O8 0.355475 0.024716 0.576969
O O9 0.000000 0.000000 0.500000
O O10 0.072662 0.961783 0.804492
O O11 0.853788 0.235516 0.405782
O O12 0.725058 0.403956 0.061134
O O13 0.288521 0.410566 0.365302
O O14 0.500000 0.500000 0.500000
O O15 0.945206 0.710493 0.297652
#
# Coordination Sequence:
#
# PCOD9092730 Si02
#       7
#     2   2   2   2   2   2   2
#     4  10  19  42  66  94 118 170 216 258 312 370
#     4  11  22  42  74  93 124 170 224 269 305 388
#     4  12  25  37  63  97 128 162 211 264 319 375
#     4   9  21  42  61  90 126 163 211 255 309 380
#     4   9  20  43  62  90 128 165 210 255 317 378
#     4  12  25  40  65  98 135 165 206 274 330 375
#     4  11  22  43  68  98 124 167 224 264 317 382
#
# _framework density 25.937059000000001
#
# number of rings (size 3 to 8) (size 9 to 14) (size 15 to 20)
#    0.857    0.571    4.286    1.286    4.000    1.714 
#    2.571    0.000    0.000    0.000    0.000    0.000 
#    0.000    0.000    0.000    0.000    0.000    0.000 
#
# Total GULP energy -78127.897568 kJ/mol
# GULP energy per Si atom -5580.564112 kJ/mol
# Density = 2.587803 g / cm^3
# Si number density = 25.937059 Si / 1000 Ang^3
#
#
#
# Elastic Constant Matrix: (Units=GPa)
#
#
# Indices 1 2 3 4 5 6 
#
# 1 31.3158 24.4127 23.1910 -5.4129 -2.8513 15.1915
# 2 24.4127 121.2174 70.7982 1.8075 15.6901 33.2548
# 3 23.1910 70.7982 143.6520 -8.1296 3.5221 25.5080
# 4 -5.4129 1.8075 -8.1296 56.0148 7.3132 3.4520
# 5 -2.8513 15.6901 3.5221 7.3132 18.2840 7.4036
# 6 15.1915 33.2548 25.5080 3.4520 7.4036 33.7059
#
#
#
# Elastic Compliance Matrix: (Units=1/GPa)
#
#
# Indices 1 2 3 4 5 6 
#
# 1 0.050237 -0.006298 -0.001782 0.003376 0.020282 -0.019880
# 2 -0.006298 0.015804 -0.005398 -0.000089 -0.010935 -0.006258
# 3 -0.001782 -0.005398 0.010349 0.001284 0.002843 -0.002459
# 4 0.003376 -0.000089 0.001284 0.019359 -0.006159 -0.003036
# 5 0.020282 -0.010935 0.002843 -0.006159 0.075850 -0.016533
# 6 -0.019880 -0.006258 -0.002459 -0.003036 -0.016533 0.050606
#
#
# Mechanical properties :
#
#
# Convention : Reuss Voigt Hill
#
# Bulk Modulus (GPa) = 20.22934 59.22100 39.72517
# Shear Modulus (GPa) = 18.82250 33.45315 26.13783
#
# Velocity S-wave (km/s) = 2.69680 3.59525 3.17794
# Velocity P-wave (km/s) = 4.18489 6.33376 5.36796
#
# Compressibility (1/GPa) = 0.04943314
#
# Stress axis : x y z
#
# Youngs Moduli (GPa) = 19.90581 63.27338 96.62803
#
# Poissons Ratio (x) = 0.39851 0.17221
# Poissons Ratio (y) = 0.12537 0.52160
# Poissons Ratio (z) = 0.03548 0.34155
#
# Static dielectric constant tensor:
#      x y z
#    x 2.284180 0.178070 0.094220 
#    y 0.178070 2.372780 0.090900 
#    z 0.094220 0.090900 2.013230 
# 
# From -- ./inp_files/345423.got.cif
#   From: 2010.05.17/outbox.cif.g08.bks.cpg/sg2_173_cif.got.tgz:345423.got - 2010.06.03 11:33:40.
