data_PCOD9092608
_publ_section_title
;
Structure prediction by ZEFSAII (Michael W. Deem and Ramdas Pophale) SiO2 
 PCOD9092608
Probable space group: P -1
;
_chemical_formula_sum "Si O2"
_cell_formula_units_Z 16
_cell_length_a 8.184321
_cell_length_b 15.875660
_cell_length_c 5.157727
_cell_angle_alpha 91.692951
_cell_angle_beta 71.927034
_cell_angle_gamma 89.403417
_cell_volume 636.674166
_symmetry_space_group_name_H-M "P -1"
_symmetry_group_IT_number 2
_symmetry_cell_setting 'triclinic'
loop_
_space_group_symop_operation_xyz
x,y,z
-x,-y,-z
loop_
_atom_site_type_symbol
_atom_site_label
_atom_site_fract_x
_atom_site_fract_y
_atom_site_fract_z
Si Si1 0.276024 0.984037 0.872217
Si Si2 0.187007 0.707763 0.949179
Si Si3 0.119450 0.236885 0.569567
Si Si4 0.639390 0.461781 0.128859
Si Si5 0.563977 0.891251 0.574735
Si Si6 0.979753 0.919752 0.693632
Si Si7 0.344567 0.374324 0.596857
Si Si8 0.611198 0.244594 0.655817
O O1 0.436995 0.925650 0.862658
O O2 0.114538 0.928610 0.862928
O O3 0.337520 0.031408 0.589594
O O4 0.206783 0.058699 0.093338
O O5 0.313434 0.752609 0.094568
O O6 0.996107 0.742948 0.115962
O O7 0.217651 0.609787 0.011002
O O8 0.255164 0.720735 0.624986
O O9 0.293249 0.180505 0.468919
O O10 0.006776 0.171078 0.453540
O O11 0.202326 0.328444 0.487682
O O12 0.507672 0.411367 0.370935
O O13 0.726939 0.543339 0.214825
O O14 0.500000 0.500000 0.000000
O O15 0.437079 0.847497 0.426893
O O16 0.000000 0.000000 0.500000
O O17 0.438863 0.304998 0.731392
#
# Coordination Sequence:
#
# PCOD9092608 Si02
#       8
#     2   2   2   2   2   2   2   2
#     4  10  23  42  65  90 125 175 228 278 341 392
#     4  11  24  41  69  98 135 182 217 277 341 405
#     4  11  24  42  62  98 133 169 224 276 337 399
#     4  10  19  41  70  94 131 173 219 272 337 404
#     4  10  22  41  63  96 127 172 230 284 326 403
#     4  11  23  42  64  91 129 175 215 278 339 390
#     4   9  21  41  66  97 131 169 223 276 331 404
#     4  10  22  42  65  97 132 181 225 275 339 394
#
# _framework density 25.130595
#
# number of rings (size 3 to 8) (size 9 to 14) (size 15 to 20)
#    0.000    1.750    2.500    0.750    1.750    5.000 
#    2.250    0.625    0.000    0.000    0.000    0.000 
#    0.000    0.000    0.000    0.000    0.000    0.000 
#
# Total GULP energy -89249.882748 kJ/mol
# GULP energy per Si atom -5578.117672 kJ/mol
# Density = 2.507340 g / cm^3
# Si number density = 25.130595 Si / 1000 Ang^3
#
#
#
# Elastic Constant Matrix: (Units=GPa)
#
#
# Indices 1 2 3 4 5 6 
#
# 1 70.5795 42.7660 18.2916 15.6892 -16.3576 -7.2349
# 2 42.7660 157.3062 34.5218 39.1079 -3.2197 13.1672
# 3 18.2916 34.5218 67.0229 22.9149 -15.2706 -12.7167
# 4 15.6892 39.1079 22.9149 43.6462 -10.5344 1.8049
# 5 -16.3576 -3.2197 -15.2706 -10.5344 34.3024 11.7874
# 6 -7.2349 13.1672 -12.7167 1.8049 11.7874 40.0574
#
#
#
# Elastic Compliance Matrix: (Units=1/GPa)
#
#
# Indices 1 2 3 4 5 6 
#
# 1 0.019573 -0.005247 -0.000156 -0.000550 0.007569 0.003008
# 2 -0.005247 0.010356 -0.003317 -0.006341 -0.003554 -0.004073
# 3 -0.000156 -0.003317 0.021579 -0.007490 0.004545 0.006913
# 4 -0.000550 -0.006341 -0.007490 0.034829 0.007986 -0.004312
# 5 0.007569 -0.003554 0.004545 0.007986 0.039672 -0.008056
# 6 0.003008 -0.004073 0.006913 -0.004312 -0.008056 0.031606
#
#
# Mechanical properties :
#
#
# Convention : Reuss Voigt Hill
#
# Bulk Modulus (GPa) = 29.35218 54.00750 41.67984
# Shear Modulus (GPa) = 26.82235 36.88981 31.85608
#
# Velocity S-wave (km/s) = 3.27053 3.83551 3.56423
# Velocity P-wave (km/s) = 5.09579 6.41500 5.79307
#
# Compressibility (1/GPa) = 0.03406902
#
# Stress axis : x y z
#
# Youngs Moduli (GPa) = 51.09070 96.56142 46.34071
#
# Poissons Ratio (x) = 0.50667 0.00722
# Poissons Ratio (y) = 0.26808 0.15370
# Poissons Ratio (z) = 0.00796 0.32027
#
# Static dielectric constant tensor:
#      x y z
#    x 2.125010 -0.021940 0.020470 
#    y -0.021940 2.076790 0.039610 
#    z 0.020470 0.039610 2.075340 
# 
# From -- ./inp_files/39214.got.cif
#   From: 2010.05.17/outbox.cif.g08.bks.cpg/sg2_20_cif.got.tgz:39214.got - 2010.06.03 11:33:40.
