data_PCOD9092443
_publ_section_title
;
Structure prediction by ZEFSAII (Michael W. Deem and Ramdas Pophale) SiO2 
 PCOD9092443
Probable space group: P -1
;
_chemical_formula_sum "Si O2"
_cell_formula_units_Z 14
_cell_length_a 9.358070
_cell_length_b 19.327582
_cell_length_c 20.037393
_cell_angle_alpha 25.789950
_cell_angle_beta 35.377892
_cell_angle_gamma 22.023373
_cell_volume 587.093012
_symmetry_space_group_name_H-M "P -1"
_symmetry_group_IT_number 2
_symmetry_cell_setting 'triclinic'
loop_
_space_group_symop_operation_xyz
x,y,z
-x,-y,-z
loop_
_atom_site_type_symbol
_atom_site_label
_atom_site_fract_x
_atom_site_fract_y
_atom_site_fract_z
Si Si1 0.512082 0.402124 0.687673
Si Si2 0.687679 0.127681 0.322196
Si Si3 0.329796 0.528479 0.969943
Si Si4 0.709184 0.856091 0.652783
Si Si5 0.425433 0.225927 0.095721
Si Si6 0.395655 0.331463 0.650850
Si Si7 0.413507 0.945953 0.960142
O O1 0.317064 0.429924 0.670107
O O2 0.727373 0.460075 0.532608
O O3 0.168575 0.624037 0.674413
O O4 0.702115 0.151560 0.866237
O O5 0.654023 0.310493 0.212688
O O6 0.458823 0.209649 0.269177
O O7 0.561364 0.067821 0.478585
O O8 0.137938 0.889700 0.340272
O O9 0.880371 0.714105 0.991309
O O10 0.500000 0.500000 0.000000
O O11 0.543674 0.308521 0.028656
O O12 0.599801 0.906292 0.727599
O O13 0.645218 0.069743 0.081431
O O14 0.000000 0.500000 0.000000
O O15 0.295660 0.191141 0.803805
#
# Coordination Sequence:
#
# PCOD9092443 Si02
#       7
#     2   2   2   2   2   2   2
#     4  10  17  33  51  73 100 130 167 208 243 294
#     4   9  18  30  48  78  97 122 171 209 244 286
#     4  10  16  29  48  72 101 128 165 202 246 297
#     4  10  17  31  51  74 100 128 162 209 253 289
#     4  10  18  30  47  74 104 130 157 206 255 297
#     4   9  20  31  50  77  96 129 171 208 240 294
#     4  10  19  32  48  74 103 131 162 205 257 293
#
# _framework density 23.846308000000001
#
# number of rings (size 3 to 8) (size 9 to 14) (size 15 to 20)
#    0.000    2.286    4.286    0.429    0.000    0.000 
#    2.571    2.857    0.000    0.857    0.000    4.000 
#    0.000    0.000    0.000    0.000    0.000    0.000 
#
# Total GULP energy -77961.297415 kJ/mol
# GULP energy per Si atom -5568.664101 kJ/mol
# Density = 2.379203 g / cm^3
# Si number density = 23.846308 Si / 1000 Ang^3
#
#
#
# Elastic Constant Matrix: (Units=GPa)
#
#
# Indices 1 2 3 4 5 6 
#
# 1 70.1113 28.5042 45.6053 -1.5664 11.3055 14.9939
# 2 28.5042 61.4643 24.0274 -6.2607 -0.4399 -3.8665
# 3 45.6053 24.0274 145.3701 6.2162 5.7767 24.4334
# 4 -1.5664 -6.2607 6.2162 20.6662 12.7407 0.1158
# 5 11.3055 -0.4399 5.7767 12.7407 34.7552 -4.3175
# 6 14.9939 -3.8665 24.4334 0.1158 -4.3175 35.9679
#
#
#
# Elastic Compliance Matrix: (Units=1/GPa)
#
#
# Indices 1 2 3 4 5 6 
#
# 1 0.025450 -0.009995 -0.004500 0.007495 -0.011653 -0.010049
# 2 -0.009995 0.022927 -0.002448 0.004881 0.003236 0.008667
# 3 -0.004500 -0.002448 0.009666 -0.004504 0.000877 -0.004833
# 4 0.007495 0.004881 -0.004504 0.068529 -0.027124 -0.003017
# 5 -0.011653 0.003236 0.000877 -0.027124 0.043636 0.009935
# 6 -0.010049 0.008667 -0.004833 -0.003017 0.009935 0.037409
#
#
# Mechanical properties :
#
#
# Convention : Reuss Voigt Hill
#
# Bulk Modulus (GPa) = 41.39810 52.57996 46.98903
# Shear Modulus (GPa) = 20.03570 30.19846 25.11708
#
# Velocity S-wave (km/s) = 2.90177 3.56248 3.24896
# Velocity P-wave (km/s) = 5.35024 6.24653 5.81568
#
# Compressibility (1/GPa) = 0.02415570
#
# Stress axis : x y z
#
# Youngs Moduli (GPa) = 39.29334 43.61604 103.46069
#
# Poissons Ratio (x) = 0.43595 0.46561
# Poissons Ratio (y) = 0.39274 0.25326
# Poissons Ratio (z) = 0.17683 0.10677
#
# Static dielectric constant tensor:
#      x y z
#    x 1.947100 -0.076120 -0.104250 
#    y -0.076120 1.982430 -0.013300 
#    z -0.104250 -0.013300 2.231130 
# 
# From -- ./inp_files/169437.got.cif
#   From: 2010.05.17/outbox.cif.g08.bks.cpg/sg2_85_cif.got.tgz:169437.got - 2010.06.03 11:33:40.
