data_PCOD9092552
_publ_section_title
;
Structure prediction by ZEFSAII (Michael W. Deem and Ramdas Pophale) SiO2 
 PCOD9092552
Probable space group: P -1
;
_chemical_formula_sum "Si O2"
_cell_formula_units_Z 16
_cell_length_a 8.816238
_cell_length_b 9.227955
_cell_length_c 12.281081
_cell_angle_alpha 53.584692
_cell_angle_beta 61.959029
_cell_angle_gamma 63.144489
_cell_volume 688.365741
_symmetry_space_group_name_H-M "P -1"
_symmetry_group_IT_number 2
_symmetry_cell_setting 'triclinic'
loop_
_space_group_symop_operation_xyz
x,y,z
-x,-y,-z
loop_
_atom_site_type_symbol
_atom_site_label
_atom_site_fract_x
_atom_site_fract_y
_atom_site_fract_z
Si Si1 0.379308 0.199177 0.917038
Si Si2 0.997444 0.697234 0.351458
Si Si3 0.322245 0.458308 0.033122
Si Si4 0.965694 0.672417 0.116104
Si Si5 0.795789 0.326248 0.335557
Si Si6 0.676233 0.236838 0.649640
Si Si7 0.701601 0.005580 0.412058
Si Si8 0.188979 0.147266 0.325427
O O1 0.193530 0.165530 0.948595
O O2 0.489617 0.288719 0.750931
O O3 0.351334 0.335129 0.969759
O O4 0.500000 0.000000 0.000000
O O5 0.011801 0.673850 0.227006
O O6 0.818403 0.866121 0.347877
O O7 0.000000 0.500000 0.500000
O O8 0.165966 0.749584 0.327843
O O9 0.259082 0.327168 0.200867
O O10 0.149433 0.630623 0.007202
O O11 0.500000 0.500000 0.000000
O O12 0.863733 0.507843 0.206144
O O13 0.700557 0.335308 0.482123
O O14 0.986572 0.182566 0.346158
O O15 0.701390 0.223752 0.323955
O O16 0.699751 0.023755 0.703141
O O17 0.794966 0.906294 0.532238
O O18 0.500000 0.000000 0.500000
#
# Coordination Sequence:
#
# PCOD9092552 Si02
#       8
#     2   2   2   2   2   2   2   2
#     4  12  27  46  69  98 138 190 234 281 341 406
#     4  12  22  41  65 107 140 171 225 283 351 412
#     4  11  24  48  72  96 133 184 237 286 341 402
#     4  11  26  44  71 104 139 176 234 293 341 419
#     4  10  20  42  67  98 132 182 220 276 358 405
#     4  11  20  40  69  94 136 180 221 276 344 412
#     4  11  23  35  63 101 140 171 219 278 346 418
#     4  10  19  41  68  92 134 177 223 273 344 410
#
# _framework density 23.243456999999999
#
# number of rings (size 3 to 8) (size 9 to 14) (size 15 to 20)
#    0.000    1.000    5.000    2.625    3.500    2.500 
#    0.000    3.750    0.000    0.000    0.000    0.000 
#    0.000    0.000    0.000    0.000    0.000    0.000 
#
# Total GULP energy -89362.436977 kJ/mol
# GULP energy per Si atom -5585.152311 kJ/mol
# Density = 2.319055 g / cm^3
# Si number density = 23.243457 Si / 1000 Ang^3
#
#
#
# Elastic Constant Matrix: (Units=GPa)
#
#
# Indices 1 2 3 4 5 6 
#
# 1 109.0725 33.8325 25.6958 6.9167 -21.8427 -11.0627
# 2 33.8325 85.2479 26.9450 37.3593 3.7347 0.8824
# 3 25.6958 26.9450 83.8281 19.5427 -11.1496 2.0560
# 4 6.9167 37.3593 19.5427 43.7347 -2.4110 -6.2917
# 5 -21.8427 3.7347 -11.1496 -2.4110 41.0267 3.5566
# 6 -11.0627 0.8824 2.0560 -6.2917 3.5566 38.3716
#
#
#
# Elastic Compliance Matrix: (Units=1/GPa)
#
#
# Indices 1 2 3 4 5 6 
#
# 1 0.013769 -0.008119 -0.002346 0.006895 0.007428 0.004724
# 2 -0.008119 0.024794 -0.001627 -0.020379 -0.007747 -0.005447
# 3 -0.002346 -0.001627 0.014789 -0.005054 0.002840 -0.002523
# 4 0.006895 -0.020379 -0.005054 0.043096 0.005884 0.009248
# 5 0.007428 -0.007747 0.002840 0.005884 0.030122 0.000340
# 6 0.004724 -0.005447 -0.002523 0.009248 0.000340 0.029168
#
#
# Mechanical properties :
#
#
# Convention : Reuss Voigt Hill
#
# Bulk Modulus (GPa) = 34.28434 50.12165 42.20299
# Shear Modulus (GPa) = 26.36515 37.40496 31.88506
#
# Velocity S-wave (km/s) = 3.37160 4.01592 3.70778
# Velocity P-wave (km/s) = 5.47166 6.56613 6.04372
#
# Compressibility (1/GPa) = 0.02916784
#
# Stress axis : x y z
#
# Youngs Moduli (GPa) = 72.62893 40.33296 67.61723
#
# Poissons Ratio (x) = 0.32746 0.15865
# Poissons Ratio (y) = 0.58967 0.10999
# Poissons Ratio (z) = 0.17041 0.06561
#
# Static dielectric constant tensor:
#      x y z
#    x 1.907110 -0.057140 0.035520 
#    y -0.057140 2.017330 -0.034420 
#    z 0.035520 -0.034420 1.916000 
# 
# From -- ./inp_files/381247.got.cif
#   From: 2010.05.17/outbox.cif.g08.bks.cpg/sg2_191_cif.got.tgz:381247.got - 2010.06.03 11:33:40.
