data_PCOD9092914
_publ_section_title
;
Structure prediction by ZEFSAII (Michael W. Deem and Ramdas Pophale) SiO2 
 PCOD9092914
Probable space group: P -1
;
_chemical_formula_sum "Si O2"
_cell_formula_units_Z 16
_cell_length_a 8.353193
_cell_length_b 19.815081
_cell_length_c 12.593642
_cell_angle_alpha 30.075416
_cell_angle_beta 37.112165
_cell_angle_gamma 40.625339
_cell_volume 613.722975
_symmetry_space_group_name_H-M "P -1"
_symmetry_group_IT_number 2
_symmetry_cell_setting 'triclinic'
loop_
_space_group_symop_operation_xyz
x,y,z
-x,-y,-z
loop_
_atom_site_type_symbol
_atom_site_label
_atom_site_fract_x
_atom_site_fract_y
_atom_site_fract_z
Si Si1 0.876348 0.817853 0.112741
Si Si2 0.047653 0.774473 0.860481
Si Si3 0.753507 0.814980 0.673204
Si Si4 0.141955 0.594217 0.871629
Si Si5 0.681485 0.300571 0.793951
Si Si6 0.417404 0.917156 0.992600
Si Si7 0.692406 0.559269 0.542555
Si Si8 0.497266 0.097669 0.522285
O O1 0.667202 0.722630 0.323328
O O2 0.035206 0.764022 0.209193
O O3 0.736946 0.979020 0.978208
O O4 0.091803 0.771537 0.967202
O O5 0.044338 0.635203 0.987478
O O6 0.309605 0.828561 0.610837
O O7 0.748606 0.876301 0.872280
O O8 0.693271 0.806302 0.592598
O O9 0.047654 0.739738 0.661392
O O10 0.692570 0.975982 0.516462
O O11 0.549192 0.745613 0.946973
O O12 0.463835 0.539091 0.773820
O O13 0.000000 0.500000 0.000000
O O14 0.645804 0.465192 0.595885
O O15 0.669561 0.225147 0.791682
O O16 0.344577 0.012074 0.796169
O O17 0.000000 0.500000 0.500000
#
# Coordination Sequence:
#
# PCOD9092914 Si02
#       8
#     2   2   2   2   2   2   2   2
#     4  11  24  40  64  96 137 179 222 275 346 409
#     4  12  23  39  65  98 137 173 228 285 334 404
#     4  10  20  39  67  95 130 170 227 283 323 399
#     4  12  23  44  73  98 131 183 233 276 339 407
#     4  10  19  44  64  89 135 178 221 276 341 400
#     4  11  22  40  64  98 131 179 225 286 340 396
#     4  10  23  43  69  96 137 176 219 282 343 403
#     4  10  21  38  65  95 133 170 224 282 336 390
#
# _framework density 26.070394
#
# number of rings (size 3 to 8) (size 9 to 14) (size 15 to 20)
#    0.000    1.250    5.000    1.875    1.750    0.000 
#    0.000   11.875    0.000    0.000    0.000    0.000 
#    0.000    0.000    0.000    0.000    0.000    0.000 
#
# Total GULP energy -89377.794815 kJ/mol
# GULP energy per Si atom -5586.112176 kJ/mol
# Density = 2.601106 g / cm^3
# Si number density = 26.070394 Si / 1000 Ang^3
#
#
#
# Elastic Constant Matrix: (Units=GPa)
#
#
# Indices 1 2 3 4 5 6 
#
# 1 108.8482 40.1996 12.0462 -9.1696 -19.0652 12.5578
# 2 40.1996 149.7306 23.7867 -11.5532 -21.5830 20.7362
# 3 12.0462 23.7867 65.0751 -7.9281 -32.7823 15.6630
# 4 -9.1696 -11.5532 -7.9281 32.0557 9.4932 -13.9748
# 5 -19.0652 -21.5830 -32.7823 9.4932 39.7471 -10.5366
# 6 12.5578 20.7362 15.6630 -13.9748 -10.5366 46.3834
#
#
#
# Elastic Compliance Matrix: (Units=1/GPa)
#
#
# Indices 1 2 3 4 5 6 
#
# 1 0.010890 -0.002265 0.001623 0.000763 0.004844 -0.001154
# 2 -0.002265 0.008033 -0.001106 0.000584 0.001681 -0.002047
# 3 0.001623 -0.001106 0.027487 -0.001722 0.022001 -0.004748
# 4 0.000763 0.000584 -0.001722 0.037587 -0.007110 0.009823
# 5 0.004844 0.001681 0.022001 -0.007110 0.048049 -0.000720
# 6 -0.001154 -0.002047 -0.004748 0.009823 -0.000720 0.027186
#
#
# Mechanical properties :
#
#
# Convention : Reuss Voigt Hill
#
# Bulk Modulus (GPa) = 23.30254 52.85764 38.08009
# Shear Modulus (GPa) = 28.24343 40.14533 34.19438
#
# Velocity S-wave (km/s) = 3.29500 3.92839 3.62555
# Velocity P-wave (km/s) = 4.84085 6.39494 5.67138
#
# Compressibility (1/GPa) = 0.04291377
#
# Stress axis : x y z
#
# Youngs Moduli (GPa) = 91.82997 124.48203 36.38083
#
# Poissons Ratio (x) = 0.28190 -0.05904
# Poissons Ratio (y) = 0.20796 0.04025
# Poissons Ratio (z) = -0.14903 0.13773
#
# Static dielectric constant tensor:
#      x y z
#    x 2.095630 0.027970 0.025600 
#    y 0.027970 2.132300 0.007780 
#    z 0.025600 0.007780 2.203420 
# 
# From -- ./inp_files/390492.got.cif
#   From: 2010.05.17/outbox.cif.g08.bks.cpg/sg2_196_cif.got.tgz:390492.got - 2010.06.03 11:33:40.
