data_PCOD9092211
_publ_section_title
;
Structure prediction by ZEFSAII (Michael W. Deem and Ramdas Pophale) SiO2 
 PCOD9092211
Probable space group: P -1
;
_chemical_formula_sum "Si O2"
_cell_formula_units_Z 14
_cell_length_a 11.698092
_cell_length_b 29.077555
_cell_length_c 13.979479
_cell_angle_alpha 162.944891
_cell_angle_beta 150.321330
_cell_angle_gamma 23.432974
_cell_volume 553.189692
_symmetry_space_group_name_H-M "P -1"
_symmetry_group_IT_number 2
_symmetry_cell_setting 'triclinic'
loop_
_space_group_symop_operation_xyz
x,y,z
-x,-y,-z
loop_
_atom_site_type_symbol
_atom_site_label
_atom_site_fract_x
_atom_site_fract_y
_atom_site_fract_z
Si Si1 0.792498 0.873042 0.237130
Si Si2 0.634852 0.615524 0.853030
Si Si3 0.750280 0.988330 0.753327
Si Si4 0.275454 0.573165 0.265938
Si Si5 0.157063 0.493721 0.404891
Si Si6 0.377565 0.653194 0.300879
Si Si7 0.274711 0.172929 0.111648
O O1 0.485285 0.984519 0.289291
O O2 0.057033 0.852954 0.441472
O O3 0.906983 0.648440 0.881930
O O4 0.772549 0.909452 0.182088
O O5 0.500000 0.500000 0.500000
O O6 0.684450 0.580905 0.934005
O O7 0.896616 0.498281 0.732598
O O8 0.423285 0.840989 0.113196
O O9 0.947497 0.767111 0.417454
O O10 0.000000 0.000000 0.000000
O O11 0.502886 0.612676 0.547252
O O12 0.362692 0.540277 0.154218
O O13 0.995873 0.684211 0.731840
O O14 0.585974 0.716086 0.596672
O O15 0.500000 0.500000 0.000000
O O16 0.500000 0.000000 0.000000
#
# Coordination Sequence:
#
# PCOD9092211 Si02
#       7
#     2   2   2   2   2   2   2
#     4  11  23  42  69  99 136 181 235 278 338 427
#     4   9  19  33  62 101 129 170 229 274 330 420
#     4  11  19  37  65  99 139 178 224 283 346 406
#     4  11  22  39  69  98 135 182 223 285 347 406
#     4  10  19  40  67  97 130 178 231 271 337 421
#     4  12  25  45  71  97 136 189 231 278 352 410
#     4  12  26  43  72 103 136 182 231 292 348 401
#
# _framework density 25.307777000000002
#
# number of rings (size 3 to 8) (size 9 to 14) (size 15 to 20)
#    0.000    1.143    7.143    1.286    2.000    3.429 
#    0.000    4.286    0.000    0.000    0.000    0.000 
#    0.000    0.000    0.000    0.000    0.000    0.000 
#
# Total GULP energy -78208.530706 kJ/mol
# GULP energy per Si atom -5586.323622 kJ/mol
# Density = 2.525018 g / cm^3
# Si number density = 25.307777 Si / 1000 Ang^3
#
#
#
# Elastic Constant Matrix: (Units=GPa)
#
#
# Indices 1 2 3 4 5 6 
#
# 1 213.3297 74.8736 37.1020 24.0747 -25.5666 33.0093
# 2 74.8736 138.3324 20.2818 8.6137 -10.9457 -6.2520
# 3 37.1020 20.2818 48.4136 13.8457 -4.2602 -0.1354
# 4 24.0747 8.6137 13.8457 49.7990 -4.7467 2.0858
# 5 -25.5666 -10.9457 -4.2602 -4.7467 43.6550 3.6055
# 6 33.0093 -6.2520 -0.1354 2.0858 3.6055 61.9330
#
#
#
# Elastic Compliance Matrix: (Units=1/GPa)
#
#
# Indices 1 2 3 4 5 6 
#
# 1 0.007964 -0.003577 -0.003837 -0.001621 0.003611 -0.004770
# 2 -0.003577 0.009462 -0.001315 0.000334 -0.000050 0.002850
# 3 -0.003837 -0.001315 0.025566 -0.005197 -0.000828 0.002191
# 4 -0.001621 0.000334 -0.005197 0.022348 0.001051 0.000072
# 5 0.003611 -0.000050 -0.000828 0.001051 0.025327 -0.003441
# 6 -0.004770 0.002850 0.002191 0.000072 -0.003441 0.019179
#
#
# Mechanical properties :
#
#
# Convention : Reuss Voigt Hill
#
# Bulk Modulus (GPa) = 39.16200 73.84338 56.50269
# Shear Modulus (GPa) = 36.81501 48.93197 42.87349
#
# Velocity S-wave (km/s) = 3.81818 4.40190 4.12039
# Velocity P-wave (km/s) = 5.91150 7.42140 6.70906
#
# Compressibility (1/GPa) = 0.02553496
#
# Stress axis : x y z
#
# Youngs Moduli (GPa) = 125.56573 105.68749 39.11469
#
# Poissons Ratio (x) = 0.37804 0.15008
# Poissons Ratio (y) = 0.44915 0.05142
# Poissons Ratio (z) = 0.48178 0.13893
#
# Static dielectric constant tensor:
#      x y z
#    x 2.016110 -0.021300 -0.011430 
#    y -0.021300 2.095240 -0.093880 
#    z -0.011430 -0.093880 2.063680 
# 
# From -- ./inp_files/524645.got.cif
#   From: 2010.05.17/outbox.cif.g08.bks.cpg/sg2_263_cif.got.tgz:524645.got - 2010.06.03 11:33:40.
