data_PCOD9092276
_publ_section_title
;
Structure prediction by ZEFSAII (Michael W. Deem and Ramdas Pophale) SiO2 
 PCOD9092276
Probable space group: P -1
;
_chemical_formula_sum "Si O2"
_cell_formula_units_Z 16
_cell_length_a 9.018066
_cell_length_b 11.072053
_cell_length_c 12.149622
_cell_angle_alpha 46.475001
_cell_angle_beta 49.846579
_cell_angle_gamma 59.217871
_cell_volume 667.264032
_symmetry_space_group_name_H-M "P -1"
_symmetry_group_IT_number 2
_symmetry_cell_setting 'triclinic'
loop_
_space_group_symop_operation_xyz
x,y,z
-x,-y,-z
loop_
_atom_site_type_symbol
_atom_site_label
_atom_site_fract_x
_atom_site_fract_y
_atom_site_fract_z
Si Si1 0.668654 0.748960 0.143876
Si Si2 0.538619 0.072172 0.683029
Si Si3 0.082905 0.182379 0.393582
Si Si4 0.438658 0.437241 0.393179
Si Si5 0.328817 0.464600 0.185259
Si Si6 0.033323 0.102126 0.239289
Si Si7 0.148135 0.000036 0.824838
Si Si8 0.929787 0.650091 0.294232
O O1 0.517201 0.887930 0.189098
O O2 0.564610 0.586355 0.267474
O O3 0.834036 0.699706 0.189884
O O4 0.775001 0.827666 0.943191
O O5 0.518027 0.260260 0.523385
O O6 0.369120 0.970679 0.778779
O O7 0.736479 0.959988 0.630925
O O8 0.186354 0.335936 0.288920
O O9 0.978650 0.213101 0.305509
O O10 0.959528 0.089757 0.599062
O O11 0.430576 0.409023 0.285381
O O12 0.211525 0.483691 0.512700
O O13 0.161448 0.618567 0.193141
O O14 0.500000 0.500000 0.000000
O O15 0.894499 0.102437 0.198387
O O16 0.118897 0.199520 0.689522
O O17 0.000000 0.000000 0.000000
#
# Coordination Sequence:
#
# PCOD9092276 Si02
#       8
#     2   2   2   2   2   2   2   2
#     4  10  21  41  69  96 120 162 221 270 313 373
#     4  10  22  41  66  95 124 166 213 267 318 374
#     4  11  27  42  59  93 138 172 206 254 325 385
#     4  10  22  43  67  94 124 166 218 269 317 367
#     4  12  27  43  61  93 132 173 212 255 319 390
#     4  11  23  42  63  94 132 170 208 260 319 381
#     4  10  19  40  69  95 117 156 220 265 310 363
#     4  10  22  41  69  93 126 163 212 271 318 368
#
# _framework density 23.978515999999999
#
# number of rings (size 3 to 8) (size 9 to 14) (size 15 to 20)
#    0.000    1.750    2.500    4.125    1.750    8.500 
#    0.000    1.875    0.000    0.000    0.000    0.000 
#    0.000    0.000    0.000    0.000    0.000    0.000 
#
# Total GULP energy -89327.758001 kJ/mol
# GULP energy per Si atom -5582.984875 kJ/mol
# Density = 2.392394 g / cm^3
# Si number density = 23.978516 Si / 1000 Ang^3
#
#
#
# Elastic Constant Matrix: (Units=GPa)
#
#
# Indices 1 2 3 4 5 6 
#
# 1 82.3756 12.0764 29.8563 1.5316 -11.9330 33.2936
# 2 12.0764 28.2663 0.4076 -2.0389 -5.8115 8.7547
# 3 29.8563 0.4076 163.1525 11.6211 -6.5028 10.1453
# 4 1.5316 -2.0389 11.6211 29.7584 11.3630 -14.7132
# 5 -11.9330 -5.8115 -6.5028 11.3630 42.7158 7.3624
# 6 33.2936 8.7547 10.1453 -14.7132 7.3624 55.4935
#
#
#
# Elastic Compliance Matrix: (Units=1/GPa)
#
#
# Indices 1 2 3 4 5 6 
#
# 1 0.022720 -0.002287 -0.001397 -0.015022 0.013047 -0.018729
# 2 -0.002287 0.039765 0.001341 -0.004007 0.007278 -0.007174
# 3 -0.001397 0.001341 0.006937 -0.004546 0.002431 -0.002169
# 4 -0.015022 -0.004007 -0.004546 0.061104 -0.026901 0.030246
# 5 0.013047 0.007278 0.002431 -0.026901 0.039324 -0.021770
# 6 -0.018729 -0.007174 -0.002169 0.030246 -0.021770 0.041692
#
#
# Mechanical properties :
#
#
# Convention : Reuss Voigt Hill
#
# Bulk Modulus (GPa) = 15.44762 39.83057 27.63909
# Shear Modulus (GPa) = 21.02535 41.02382 31.02458
#
# Velocity S-wave (km/s) = 2.96436 4.14074 3.60091
# Velocity P-wave (km/s) = 4.26296 6.28554 5.37033
#
# Compressibility (1/GPa) = 0.06473489
#
# Stress axis : x y z
#
# Youngs Moduli (GPa) = 44.01390 25.14776 144.14971
#
# Poissons Ratio (x) = 0.05752 0.20143
# Poissons Ratio (y) = 0.10067 -0.19328
# Poissons Ratio (z) = 0.06150 -0.03372
#
# Static dielectric constant tensor:
#      x y z
#    x 1.979660 -0.025680 0.040650 
#    y -0.025680 1.978060 -0.054320 
#    z 0.040650 -0.054320 2.008610 
# 
# From -- ./inp_files/305839.got.cif
#   From: 2010.05.17/outbox.cif.g08.bks.cpg/sg2_153_cif.got.tgz:305839.got - 2010.06.03 11:33:40.
