data_PCOD9092861
_publ_section_title
;
Structure prediction by ZEFSAII (Michael W. Deem and Ramdas Pophale) SiO2 
 PCOD9092861
Probable space group: P -1
;
_chemical_formula_sum "Si O2"
_cell_formula_units_Z 15
_cell_length_a 21.197335
_cell_length_b 21.043936
_cell_length_c 17.583375
_cell_angle_alpha 162.379892
_cell_angle_beta 160.675442
_cell_angle_gamma 19.028163
_cell_volume 698.062397
_symmetry_space_group_name_H-M "P -1"
_symmetry_group_IT_number 2
_symmetry_cell_setting 'triclinic'
loop_
_space_group_symop_operation_xyz
x,y,z
-x,-y,-z
loop_
_atom_site_type_symbol
_atom_site_label
_atom_site_fract_x
_atom_site_fract_y
_atom_site_fract_z
Si Si1 0.550191 0.928041 0.311749
Si Si2 0.808907 0.124619 0.092797
Si Si3 0.500000 0.500000 0.500000
Si Si4 0.443550 0.205669 0.233380
Si Si5 0.316926 0.470333 0.711219
Si Si6 0.085504 0.187249 0.283079
Si Si7 0.032044 0.565689 0.025616
Si Si8 0.212699 0.088041 0.589867
O O1 0.416688 0.208496 0.493763
O O2 0.389540 0.816719 0.011286
O O3 0.726578 0.833664 0.471518
O O4 0.661088 0.883724 0.306310
O O5 0.827374 0.919804 0.822120
O O6 0.764396 0.350538 0.248242
O O7 0.027788 0.035614 0.285835
O O8 0.448899 0.413903 0.426716
O O9 0.765518 0.379171 0.684400
O O10 0.216356 0.253279 0.068025
O O11 0.624274 0.108682 0.392652
O O12 0.500000 0.000000 0.000000
O O13 0.118314 0.561619 0.648148
O O14 0.500000 0.500000 0.000000
O O15 0.000000 0.000000 0.000000
O O16 0.103948 0.333511 0.791330
O O17 0.000000 0.500000 0.000000
#
# Coordination Sequence:
#
# PCOD9092861 Si02
#       8
#     2   2   1   2   2   2   2   2
#     4  12  25  43  66  99 137 184 226 283 346 399
#     4  11  25  45  65 100 141 181 231 286 334 407
#     4  10  22  46  76 104 126 174 232 272 344 432
#     4  11  24  47  72 100 136 178 223 282 348 412
#     4  11  21  42  69  92 129 181 228 282 335 397
#     4  10  19  43  66  92 140 175 230 281 328 408
#     4  10  23  46  71 100 134 172 226 281 340 421
#     4  12  25  47  65 101 147 172 227 299 334 400
#
# _framework density 21.488050000000001
#
# number of rings (size 3 to 8) (size 9 to 14) (size 15 to 20)
#    0.000    1.067    8.000    0.400    1.867    4.267 
#    2.400    0.000    0.000    0.000    0.000    0.000 
#    0.000    0.000    0.000    0.000    0.000    0.000 
#
# Total GULP energy -83515.195194 kJ/mol
# GULP energy per Si atom -5567.679680 kJ/mol
# Density = 2.143914 g / cm^3
# Si number density = 21.488050 Si / 1000 Ang^3
#
#
#
# Elastic Constant Matrix: (Units=GPa)
#
#
# Indices 1 2 3 4 5 6 
#
# 1 123.7900 43.8473 72.8213 -38.0915 -12.9523 -28.1176
# 2 43.8473 128.4109 22.0793 -33.8407 -2.7284 -2.3076
# 3 72.8213 22.0793 -25.5943 -3.4240 44.5870 28.3951
# 4 -38.0915 -33.8407 -3.4240 36.7520 -27.2099 -24.5041
# 5 -12.9523 -2.7284 44.5870 -27.2099 24.8102 -24.2321
# 6 -28.1176 -2.3076 28.3951 -24.5041 -24.2321 38.9305
#
#
#
# Elastic Compliance Matrix: (Units=1/GPa)
#
#
# Indices 1 2 3 4 5 6 
#
# 1 0.006118 -0.003242 0.002054 -0.002399 -0.005850 -0.002422
# 2 -0.003242 0.010787 0.006027 0.010732 0.002735 0.002359
# 3 0.002054 0.006027 0.024565 0.038539 0.020009 0.020635
# 4 -0.002399 0.010732 0.038539 0.060416 0.014142 0.017624
# 5 -0.005850 0.002735 0.020009 0.014142 0.019324 0.002273
# 6 -0.002422 0.002359 0.020635 0.017624 0.002273 0.021534
#
#
# Mechanical properties :
#
#
# Convention : Reuss Voigt Hill
#
# Bulk Modulus (GPa) = 19.55118 56.01138 37.78128
# Shear Modulus (GPa) = 33.30743 25.95578 29.63161
#
# Velocity S-wave (km/s) = 3.94133 3.47928 3.71749
# Velocity P-wave (km/s) = 5.46173 6.50103 6.00391
#
# Compressibility (1/GPa) = 0.05114779
#
# Stress axis : x y z
#
# Youngs Moduli (GPa) = 163.44758 92.70511 40.70759
#
# Poissons Ratio (x) = 0.30057 -0.08360
# Poissons Ratio (y) = 0.52993 -0.24536
# Poissons Ratio (z) = -0.33565 -0.55876
#
# Static dielectric constant tensor:
#      x y z
#    x 1.841050 0.012950 0.058380 
#    y 0.012950 1.837050 0.006780 
#    z 0.058380 0.006780 1.818400 
# 
# From -- ./inp_files/578531.got.cif
#   From: 2010.05.17/outbox.cif.g08.bks.cpg/sg2_290_cif.got.tgz:578531.got - 2010.06.03 11:33:40.
