data_PCOD9092577
_publ_section_title
;
Structure prediction by ZEFSAII (Michael W. Deem and Ramdas Pophale) SiO2 
 PCOD9092577
Probable space group: P -1
;
_chemical_formula_sum "Si O2"
_cell_formula_units_Z 16
_cell_length_a 10.466880
_cell_length_b 7.856880
_cell_length_c 14.420312
_cell_angle_alpha 53.321816
_cell_angle_beta 125.538840
_cell_angle_gamma 136.415184
_cell_volume 631.583942
_symmetry_space_group_name_H-M "P -1"
_symmetry_group_IT_number 2
_symmetry_cell_setting 'triclinic'
loop_
_space_group_symop_operation_xyz
x,y,z
-x,-y,-z
loop_
_atom_site_type_symbol
_atom_site_label
_atom_site_fract_x
_atom_site_fract_y
_atom_site_fract_z
Si Si1 0.339659 0.462146 0.239879
Si Si2 0.047542 0.920802 0.839365
Si Si3 0.631370 0.005556 0.133886
Si Si4 0.775260 0.403213 0.209137
Si Si5 0.774692 0.830035 0.983660
Si Si6 0.440392 0.623015 0.514678
Si Si7 0.758726 0.245143 0.747138
Si Si8 0.137044 0.410320 0.613674
O O1 0.536078 0.700513 0.202710
O O2 0.385672 0.280443 0.372023
O O3 0.269960 0.596456 0.236590
O O4 0.166860 0.297543 0.148839
O O5 0.146243 0.809530 0.861747
O O6 0.036995 0.119074 0.705615
O O7 0.206833 0.075431 0.933953
O O8 0.655728 0.113963 0.212713
O O9 0.500000 0.000000 0.000000
O O10 0.745539 0.423104 0.299023
O O11 0.011807 0.577579 0.241684
O O12 0.703258 0.536246 0.065889
O O13 0.700454 0.964269 0.847231
O O14 0.000000 0.000000 0.000000
O O15 0.500000 0.500000 0.500000
O O16 0.379336 0.788010 0.383370
O O17 0.254031 0.440432 0.560625
O O18 0.000000 0.500000 0.500000
#
# Coordination Sequence:
#
# PCOD9092577 Si02
#       8
#     2   2   2   2   2   2   2   2
#     4  11  24  44  70 108 143 189 253 307 360 445
#     4  11  24  46  75 103 148 195 247 313 377 441
#     4  12  26  44  73 112 147 198 256 308 372 451
#     4  10  22  43  71 107 146 197 244 310 378 435
#     4   9  21  39  71 102 140 192 240 300 380 445
#     4  10  22  43  73 109 150 188 253 302 364 460
#     4  10  19  41  69 104 145 191 241 303 368 439
#     4  11  22  47  75 109 149 199 249 305 382 448
#
# _framework density 25.333133
#
# number of rings (size 3 to 8) (size 9 to 14) (size 15 to 20)
#    0.000    1.500    3.750    0.750    3.500    1.000 
#    6.750   15.000    0.000    0.000    0.000    0.000 
#    0.000    0.000    0.000    0.000    0.000    0.000 
#
# Total GULP energy -89222.490274 kJ/mol
# GULP energy per Si atom -5576.405642 kJ/mol
# Density = 2.527547 g / cm^3
# Si number density = 25.333133 Si / 1000 Ang^3
#
#
#
# Elastic Constant Matrix: (Units=GPa)
#
#
# Indices 1 2 3 4 5 6 
#
# 1 108.8418 2.3370 23.1062 0.5468 5.3225 11.3073
# 2 2.3370 77.4234 38.6156 13.5890 5.4240 18.2318
# 3 23.1062 38.6156 195.2639 -12.9661 28.7452 2.2044
# 4 0.5468 13.5890 -12.9661 26.5160 -0.4908 -0.4849
# 5 5.3225 5.4240 28.7452 -0.4908 48.6499 3.3184
# 6 11.3073 18.2318 2.2044 -0.4849 3.3184 22.0252
#
#
#
# Elastic Compliance Matrix: (Units=1/GPa)
#
#
# Indices 1 2 3 4 5 6 
#
# 1 0.010330 0.002917 -0.001923 -0.002784 0.000172 -0.007612
# 2 0.002917 0.023259 -0.006003 -0.015260 0.001898 -0.020771
# 3 -0.001923 -0.006003 0.007493 0.006817 -0.003884 0.005942
# 4 -0.002784 -0.015260 0.006817 0.049149 -0.002539 0.014844
# 5 0.000172 0.001898 -0.003884 -0.002539 0.022920 -0.004780
# 6 -0.007612 -0.020771 0.005942 0.014844 -0.004780 0.066957
#
#
# Mechanical properties :
#
#
# Convention : Reuss Voigt Hill
#
# Bulk Modulus (GPa) = 32.19322 56.62740 44.41031
# Shear Modulus (GPa) = 24.93998 40.60290 32.77144
#
# Velocity S-wave (km/s) = 3.14105 4.00779 3.60059
# Velocity P-wave (km/s) = 5.08827 6.61953 5.90375
#
# Compressibility (1/GPa) = 0.03106244
#
# Stress axis : x y z
#
# Youngs Moduli (GPa) = 96.80783 42.99469 133.44954
#
# Poissons Ratio (x) = -0.12540 0.25669
# Poissons Ratio (y) = -0.28236 0.80109
# Poissons Ratio (z) = 0.18621 0.25810
#
# Static dielectric constant tensor:
#      x y z
#    x 2.283310 -0.085760 -0.084520 
#    y -0.085760 2.013850 0.012890 
#    z -0.084520 0.012890 2.050990 
# 
# From -- ./inp_files/515097.got.cif
#   From: 2010.05.17/outbox.cif.g08.bks.cpg/sg2_258_cif.got.tgz:515097.got - 2010.06.03 11:33:40.
