data_PCOD9092748
_publ_section_title
;
Structure prediction by ZEFSAII (Michael W. Deem and Ramdas Pophale) SiO2 
 PCOD9092748
Probable space group: P -1
;
_chemical_formula_sum "Si O2"
_cell_formula_units_Z 12
_cell_length_a 9.973521
_cell_length_b 17.218969
_cell_length_c 8.797609
_cell_angle_alpha 54.164016
_cell_angle_beta 97.753952
_cell_angle_gamma 49.131471
_cell_volume 495.391686
_symmetry_space_group_name_H-M "P -1"
_symmetry_group_IT_number 2
_symmetry_cell_setting 'triclinic'
loop_
_space_group_symop_operation_xyz
x,y,z
-x,-y,-z
loop_
_atom_site_type_symbol
_atom_site_label
_atom_site_fract_x
_atom_site_fract_y
_atom_site_fract_z
Si Si1 0.994894 0.762556 0.235397
Si Si2 0.141596 0.463879 0.709185
Si Si3 0.249890 0.081854 0.303797
Si Si4 0.607673 0.730880 0.520179
Si Si5 0.729942 0.240171 0.593726
Si Si6 0.075580 0.048219 0.548090
O O1 0.041309 0.639874 0.483747
O O2 0.282579 0.653645 0.435505
O O3 0.464661 0.797611 0.933974
O O4 0.956599 0.753610 0.065423
O O5 0.963963 0.533508 0.748004
O O6 0.000000 0.500000 0.500000
O O7 0.032003 0.170249 0.296800
O O8 0.500000 0.000000 0.500000
O O9 0.347957 0.957120 0.111201
O O10 0.562309 0.647081 0.599241
O O11 0.472789 0.854091 0.519895
O O12 0.863624 0.182929 0.514264
O O13 0.000000 0.000000 0.000000
O O14 0.000000 0.000000 0.500000
#
# Coordination Sequence:
#
# PCOD9092748 Si02
#       6
#     2   2   2   2   2   2
#     4   9  21  41  66  95 126 177 215 269 323 392
#     4  12  24  39  69 103 128 169 226 272 319 394
#     4  10  22  39  65  96 132 171 211 270 333 382
#     4   9  21  40  66  94 129 166 219 268 327 371
#     4  10  19  42  67  90 128 175 216 263 325 389
#     4  12  24  44  65  96 136 174 214 271 334 387
#
# _framework density 24.223258000000001
#
# number of rings (size 3 to 8) (size 9 to 14) (size 15 to 20)
#    1.000    0.667    1.667    3.500    2.333    0.667 
#    0.000   15.833    0.000    0.000    0.000    0.000 
#    0.000    0.000    0.000    0.000    0.000    0.000 
#
# Total GULP energy -67103.379855 kJ/mol
# GULP energy per Si atom -5591.948321 kJ/mol
# Density = 2.416813 g / cm^3
# Si number density = 24.223258 Si / 1000 Ang^3
#
#
#
# Elastic Constant Matrix: (Units=GPa)
#
#
# Indices 1 2 3 4 5 6 
#
# 1 193.6815 44.2436 34.8311 5.4732 -11.2743 5.3680
# 2 44.2436 108.6473 4.7648 7.4102 3.4685 -10.4708
# 3 34.8311 4.7648 58.2778 3.5974 2.3852 -9.3208
# 4 5.4732 7.4102 3.5974 33.6172 -3.7754 -0.1552
# 5 -11.2743 3.4685 2.3852 -3.7754 32.5367 14.7158
# 6 5.3680 -10.4708 -9.3208 -0.1552 14.7158 53.1495
#
#
#
# Elastic Compliance Matrix: (Units=1/GPa)
#
#
# Indices 1 2 3 4 5 6 
#
# 1 0.007124 -0.003226 -0.004793 0.000590 0.004829 -0.003531
# 2 -0.003226 0.011159 0.002035 -0.002655 -0.004646 0.004159
# 3 -0.004793 0.002035 0.021330 -0.002671 -0.006676 0.006466
# 4 0.000590 -0.002655 -0.002671 0.031117 0.005405 -0.002457
# 5 0.004829 -0.004646 -0.006676 0.005405 0.040212 -0.013692
# 6 -0.003531 0.004159 0.006466 -0.002457 -0.013692 0.024909
#
#
# Mechanical properties :
#
#
# Convention : Reuss Voigt Hill
#
# Bulk Modulus (GPa) = 36.17298 58.69839 47.43568
# Shear Modulus (GPa) = 31.84034 42.31182 37.07608
#
# Velocity S-wave (km/s) = 3.62947 4.18394 3.91653
# Velocity P-wave (km/s) = 5.70348 6.90111 6.33068
#
# Compressibility (1/GPa) = 0.02764494
#
# Stress axis : x y z
#
# Youngs Moduli (GPa) = 140.36579 89.61645 46.88280
#
# Poissons Ratio (x) = 0.28907 0.22471
# Poissons Ratio (y) = 0.45277 -0.09540
# Poissons Ratio (z) = 0.67278 -0.18236
#
# Static dielectric constant tensor:
#      x y z
#    x 1.893260 -0.003790 0.030740 
#    y -0.003790 1.929520 -0.010810 
#    z 0.030740 -0.010810 1.979190 
# 
# From -- ./inp_files/200206.got.cif
#   From: 2010.05.17/outbox.cif.g08.bks.cpg/sg2_101_cif.got.tgz:200206.got - 2010.06.03 11:33:40.
