data_PCOD9092400
_publ_section_title
;
Structure prediction by ZEFSAII (Michael W. Deem and Ramdas Pophale) SiO2 
 PCOD9092400
Probable space group: P -1
;
_chemical_formula_sum "Si O2"
_cell_formula_units_Z 16
_cell_length_a 14.398207
_cell_length_b 9.324813
_cell_length_c 17.517693
_cell_angle_alpha 113.156250
_cell_angle_beta 29.106185
_cell_angle_gamma 93.475204
_cell_volume 814.582630
_symmetry_space_group_name_H-M "P -1"
_symmetry_group_IT_number 2
_symmetry_cell_setting 'triclinic'
loop_
_space_group_symop_operation_xyz
x,y,z
-x,-y,-z
loop_
_atom_site_type_symbol
_atom_site_label
_atom_site_fract_x
_atom_site_fract_y
_atom_site_fract_z
Si Si1 0.722746 0.825105 0.074229
Si Si2 0.999188 0.122042 0.356349
Si Si3 0.809096 0.869454 0.410779
Si Si4 0.960152 0.478500 0.937121
Si Si5 0.234419 0.498587 0.118086
Si Si6 0.595343 0.106885 0.099381
Si Si7 0.472287 0.506228 0.805391
Si Si8 0.964673 0.660645 0.497540
O O1 0.475167 0.966964 0.331243
O O2 0.727516 0.980289 0.054881
O O3 0.941668 0.643759 0.931769
O O4 0.688628 0.712807 0.008575
O O5 0.756223 0.336773 0.547325
O O6 0.027871 0.175181 0.431708
O O7 0.931345 0.976027 0.360476
O O8 0.242628 0.039023 0.117929
O O9 0.856726 0.752157 0.273074
O O10 0.964546 0.677703 0.315196
O O11 0.693581 0.538078 0.125317
O O12 0.000000 0.500000 0.000000
O O13 0.183822 0.538441 0.252075
O O14 0.413329 0.514281 0.940346
O O15 0.608719 0.285168 0.120945
O O16 0.307875 0.213251 0.317366
O O17 0.000000 0.500000 0.500000
#
# Coordination Sequence:
#
# PCOD9092400 Si02
#       8
#     2   2   2   2   2   2   2   2
#     4  10  21  39  66  90 124 169 199 250 326 363
#     4  12  22  40  61  89 129 172 215 255 303 359
#     4  10  19  41  63  89 120 165 207 250 315 369
#     4  10  22  42  70  98 119 152 211 262 309 387
#     4  10  21  41  58  87 125 166 218 252 300 361
#     4  12  23  41  61  90 131 170 208 251 314 368
#     4  10  22  41  64  89 125 165 204 259 321 363
#     4  12  25  38  59  93 130 170 219 261 294 351
#
# _framework density 19.641959
#
# number of rings (size 3 to 8) (size 9 to 14) (size 15 to 20)
#    0.000    1.500    7.500    1.125    0.000    1.500 
#    0.000    0.625    0.000    1.500    0.000    0.000 
#    0.000    0.000    0.000    0.000    0.000    0.000 
#
# Total GULP energy -89088.826361 kJ/mol
# GULP energy per Si atom -5568.051648 kJ/mol
# Density = 1.959725 g / cm^3
# Si number density = 19.641959 Si / 1000 Ang^3
#
#
#
# Elastic Constant Matrix: (Units=GPa)
#
#
# Indices 1 2 3 4 5 6 
#
# 1 89.8060 27.6890 27.2340 -3.2342 28.8750 -1.4241
# 2 27.6890 98.4905 23.7332 12.1303 16.1074 -14.4376
# 3 27.2340 23.7332 96.4979 18.7914 16.7711 5.9044
# 4 -3.2342 12.1303 18.7914 22.3540 1.0451 -2.9857
# 5 28.8750 16.1074 16.7711 1.0451 29.1609 5.5952
# 6 -1.4241 -14.4376 5.9044 -2.9857 5.5952 18.7047
#
#
#
# Elastic Compliance Matrix: (Units=1/GPa)
#
#
# Indices 1 2 3 4 5 6 
#
# 1 0.018903 -0.001295 -0.004231 0.008940 -0.017508 0.008439
# 2 -0.001295 0.014897 -0.001800 -0.004529 -0.008387 0.013754
# 3 -0.004231 -0.001800 0.015446 -0.013650 -0.001622 -0.008281
# 4 0.008940 -0.004529 -0.013650 0.061742 -0.003067 0.012267
# 5 -0.017508 -0.008387 -0.001622 -0.003067 0.062378 -0.026444
# 6 0.008439 0.013754 -0.008281 0.012267 -0.026444 0.077204
#
#
# Mechanical properties :
#
#
# Convention : Reuss Voigt Hill
#
# Bulk Modulus (GPa) = 28.90713 49.12296 39.01505
# Shear Modulus (GPa) = 18.06663 27.78648 22.92655
#
# Velocity S-wave (km/s) = 3.03611 3.76526 3.42017
# Velocity P-wave (km/s) = 5.19996 6.63072 5.95844
#
# Compressibility (1/GPa) = 0.03459354
#
# Stress axis : x y z
#
# Youngs Moduli (GPa) = 52.90290 67.12834 64.74013
#
# Poissons Ratio (x) = 0.08695 0.27388
# Poissons Ratio (y) = 0.06853 0.11655
# Poissons Ratio (z) = 0.22381 0.12085
#
# Static dielectric constant tensor:
#      x y z
#    x 1.708730 -0.011390 0.028510 
#    y -0.011390 1.746720 -0.000900 
#    z 0.028510 -0.000900 1.729050 
# 
# From -- ./inp_files/572732.got.cif
#   From: 2010.05.17/outbox.cif.g08.bks.cpg/sg2_287_cif.got.tgz:572732.got - 2010.06.03 11:33:40.
