data_PCOD9092272
_publ_section_title
;
Structure prediction by ZEFSAII (Michael W. Deem and Ramdas Pophale) SiO2 
 PCOD9092272
Probable space group: P -1
;
_chemical_formula_sum "Si O2"
_cell_formula_units_Z 16
_cell_length_a 8.321422
_cell_length_b 14.280657
_cell_length_c 11.774938
_cell_angle_alpha 139.626572
_cell_angle_beta 78.736603
_cell_angle_gamma 124.828428
_cell_volume 664.091363
_symmetry_space_group_name_H-M "P -1"
_symmetry_group_IT_number 2
_symmetry_cell_setting 'triclinic'
loop_
_space_group_symop_operation_xyz
x,y,z
-x,-y,-z
loop_
_atom_site_type_symbol
_atom_site_label
_atom_site_fract_x
_atom_site_fract_y
_atom_site_fract_z
Si Si1 0.173009 0.981522 0.931023
Si Si2 0.916797 0.102541 0.656839
Si Si3 0.369863 0.671130 0.857325
Si Si4 0.718325 0.500776 0.770309
Si Si5 0.836966 0.536682 0.537384
Si Si6 0.783021 0.322434 0.792039
Si Si7 0.801975 0.106516 0.912203
Si Si8 0.351447 0.499315 0.908740
O O1 0.371283 0.165709 0.004047
O O2 0.283020 0.995747 0.048784
O O3 0.000000 0.000000 0.000000
O O4 0.016498 0.767207 0.703996
O O5 0.783041 0.148653 0.647054
O O6 0.785148 0.008523 0.706771
O O7 0.153854 0.317292 0.840180
O O8 0.000000 0.000000 0.500000
O O9 0.313667 0.583018 0.659252
O O10 0.262249 0.494077 0.793269
O O11 0.284496 0.782572 0.992422
O O12 0.690822 0.465984 0.606302
O O13 0.771920 0.382727 0.722081
O O14 0.528342 0.480512 0.839561
O O15 0.939773 0.724189 0.947093
O O16 0.000000 0.500000 0.500000
O O17 0.595471 0.312478 0.869532
O O18 0.000000 0.500000 0.000000
#
# Coordination Sequence:
#
# PCOD9092272 Si02
#       8
#     2   2   2   2   2   2   2   2
#     4  11  26  45  68 108 145 187 243 298 361 429
#     4  11  24  42  64 103 132 179 239 294 361 425
#     4  12  23  46  76 103 144 199 238 296 368 424
#     4  11  21  40  67 104 134 178 248 292 343 435
#     4  11  25  42  72 106 142 191 247 293 355 439
#     4  10  19  40  69  92 129 184 236 281 357 432
#     4  11  21  42  67  94 141 186 231 293 357 425
#     4  11  23  40  74  97 133 194 239 286 367 435
#
# _framework density 24.093067999999999
#
# number of rings (size 3 to 8) (size 9 to 14) (size 15 to 20)
#    0.000    1.000    6.250    3.000    0.000    4.000 
#    0.000    0.625    0.000    0.000    0.000    0.000 
#    0.000    0.000    0.000    0.000    0.000    0.000 
#
# Total GULP energy -89259.811226 kJ/mol
# GULP energy per Si atom -5578.738202 kJ/mol
# Density = 2.403823 g / cm^3
# Si number density = 24.093068 Si / 1000 Ang^3
#
#
#
# Elastic Constant Matrix: (Units=GPa)
#
#
# Indices 1 2 3 4 5 6 
#
# 1 106.0486 0.8988 29.0854 -6.8583 -23.9189 -1.4756
# 2 0.8988 72.7246 16.6224 -15.9744 11.2107 4.9608
# 3 29.0854 16.6224 97.5530 -5.0758 -23.0874 -1.5723
# 4 -6.8583 -15.9744 -5.0758 34.5123 1.6232 1.1846
# 5 -23.9189 11.2107 -23.0874 1.6232 32.2905 -0.2697
# 6 -1.4756 4.9608 -1.5723 1.1846 -0.2697 46.7493
#
#
#
# Elastic Compliance Matrix: (Units=1/GPa)
#
#
# Indices 1 2 3 4 5 6 
#
# 1 0.011689 -0.000751 -0.001424 0.001383 0.007835 0.000411
# 2 -0.000751 0.018681 -0.005219 0.008342 -0.011213 -0.002458
# 3 -0.001424 -0.005219 0.014102 -0.001174 0.010908 0.001076
# 4 0.001383 0.008342 -0.001174 0.033205 -0.004395 -0.001748
# 5 0.007835 -0.011213 0.010908 -0.004395 0.048704 0.002196
# 6 0.000411 -0.002458 0.001076 -0.001748 0.002196 0.021758
#
#
# Mechanical properties :
#
#
# Convention : Reuss Voigt Hill
#
# Bulk Modulus (GPa) = 33.68711 41.05994 37.37352
# Shear Modulus (GPa) = 28.93166 38.02507 33.47836
#
# Velocity S-wave (km/s) = 3.46906 3.97704 3.73170
# Velocity P-wave (km/s) = 5.48254 6.17805 5.84066
#
# Compressibility (1/GPa) = 0.02968494
#
# Stress axis : x y z
#
# Youngs Moduli (GPa) = 85.55130 53.53021 70.90950
#
# Poissons Ratio (x) = 0.04019 0.10100
# Poissons Ratio (y) = 0.06423 0.37005
# Poissons Ratio (z) = 0.12185 0.27935
#
# Static dielectric constant tensor:
#      x y z
#    x 1.974830 -0.052040 0.006910 
#    y -0.052040 2.055070 -0.060170 
#    z 0.006910 -0.060170 1.915150 
# 
# From -- ./inp_files/399790.got.cif
#   From: 2010.05.17/outbox.cif.g08.bks.cpg/sg2_200_cif.got.tgz:399790.got - 2010.06.03 11:33:40.
