data_PCOD9092356
_publ_section_title
;
Structure prediction by ZEFSAII (Michael W. Deem and Ramdas Pophale) SiO2 
 PCOD9092356
Probable space group: P -1
;
_chemical_formula_sum "Si O2"
_cell_formula_units_Z 16
_cell_length_a 17.416877
_cell_length_b 15.331925
_cell_length_c 13.513096
_cell_angle_alpha 151.876636
_cell_angle_beta 147.963153
_cell_angle_gamma 22.960859
_cell_volume 650.947485
_symmetry_space_group_name_H-M "P -1"
_symmetry_group_IT_number 2
_symmetry_cell_setting 'triclinic'
loop_
_space_group_symop_operation_xyz
x,y,z
-x,-y,-z
loop_
_atom_site_type_symbol
_atom_site_label
_atom_site_fract_x
_atom_site_fract_y
_atom_site_fract_z
Si Si1 0.855841 0.352161 0.406505
Si Si2 0.489392 0.815280 0.358835
Si Si3 0.030837 0.744055 0.317118
Si Si4 0.469707 0.785680 0.532373
Si Si5 0.993605 0.395478 0.165336
Si Si6 0.255904 0.181937 0.063544
Si Si7 0.807666 0.248026 0.687034
Si Si8 0.889427 0.993578 0.959216
O O1 0.901669 0.512999 0.826136
O O2 0.685550 0.506370 0.459006
O O3 0.018929 0.371436 0.613905
O O4 0.926987 0.088233 0.190314
O O5 0.399098 0.900870 0.458687
O O6 0.713594 0.542569 0.348706
O O7 0.341607 0.823530 0.139669
O O8 0.500000 0.000000 0.500000
O O9 0.202125 0.656812 0.339449
O O10 0.978267 0.942327 0.540184
O O11 0.822231 0.898707 0.180643
O O12 0.526540 0.916571 0.790997
O O13 0.352251 0.737873 0.418069
O O14 0.201151 0.174635 0.108996
O O15 0.020694 0.284499 0.191582
O O16 0.841575 0.402406 0.944690
O O17 0.000000 0.000000 0.000000
#
# Coordination Sequence:
#
# PCOD9092356 Si02
#       8
#     2   2   2   2   2   2   2   2
#     4   9  22  40  58  81 116 165 185 247 291 336
#     4  10  19  41  58  85 120 157 194 243 290 345
#     4   9  20  35  62  82 117 157 185 247 292 352
#     4   9  20  35  59  83 119 152 193 243 285 353
#     4  10  21  38  60  84 121 150 201 238 287 353
#     4   9  18  39  58  81 119 157 190 234 301 345
#     4  10  20  36  57  92 115 148 200 240 294 346
#     4  12  23  38  62  89 117 158 200 240 291 351
#
# _framework density 24.579554999999999
#
# number of rings (size 3 to 8) (size 9 to 14) (size 15 to 20)
#    0.750    1.500    1.250    1.125    3.500    1.500 
#    0.000    0.000   22.000    0.000    0.000    0.000 
#    0.000    0.000    0.000    0.000    0.000    0.000 
#
# Total GULP energy -89145.654354 kJ/mol
# GULP energy per Si atom -5571.603397 kJ/mol
# Density = 2.452361 g / cm^3
# Si number density = 24.579555 Si / 1000 Ang^3
#
#
#
# Elastic Constant Matrix: (Units=GPa)
#
#
# Indices 1 2 3 4 5 6 
#
# 1 167.8353 12.6703 54.2237 -4.9269 23.8369 -11.4510
# 2 12.6703 22.2523 7.7669 10.2387 0.9238 3.8714
# 3 54.2237 7.7669 163.2587 -20.1248 17.1245 -10.9755
# 4 -4.9269 10.2387 -20.1248 25.3369 2.8426 4.1553
# 5 23.8369 0.9238 17.1245 2.8426 47.6302 -3.6696
# 6 -11.4510 3.8714 -10.9755 4.1553 -3.6696 21.6853
#
#
#
# Elastic Compliance Matrix: (Units=1/GPa)
#
#
# Indices 1 2 3 4 5 6 
#
# 1 0.007540 -0.005272 -0.001437 0.002263 -0.003039 0.003247
# 2 -0.005272 0.066668 -0.006603 -0.031924 0.004769 -0.011103
# 3 -0.001437 -0.006603 0.008460 0.008974 -0.002533 0.002553
# 4 0.002263 -0.031924 0.008974 0.061029 -0.007500 -0.001527
# 5 -0.003039 0.004769 -0.002533 -0.007500 0.023917 0.001746
# 6 0.003247 -0.011103 0.002553 -0.001527 0.001746 0.051692
#
#
# Mechanical properties :
#
#
# Convention : Reuss Voigt Hill
#
# Bulk Modulus (GPa) = 17.84285 55.85200 36.84743
# Shear Modulus (GPa) = 18.89565 37.50950 28.20258
#
# Velocity S-wave (km/s) = 2.77565 3.91070 3.39100
# Velocity P-wave (km/s) = 4.18895 6.56991 5.50958
#
# Compressibility (1/GPa) = 0.05604484
#
# Stress axis : x y z
#
# Youngs Moduli (GPa) = 132.62098 14.99968 118.19774
#
# Poissons Ratio (x) = 0.07907 0.16991
# Poissons Ratio (y) = 0.69915 0.78043
# Poissons Ratio (z) = 0.19064 0.09904
#
# Static dielectric constant tensor:
#      x y z
#    x 2.036570 0.052480 -0.057080 
#    y 0.052480 2.007520 -0.065720 
#    z -0.057080 -0.065720 2.090320 
# 
# From -- ./inp_files/466680.got.cif
#   From: 2010.05.17/outbox.cif.g08.bks.cpg/sg2_234_cif.got.tgz:466680.got - 2010.06.03 11:33:40.
