data_PCOD9092719
_publ_section_title
;
Structure prediction by ZEFSAII (Michael W. Deem and Ramdas Pophale) SiO2 
 PCOD9092719
Probable space group: P -1
;
_chemical_formula_sum "Si O2"
_cell_formula_units_Z 16
_cell_length_a 9.842857
_cell_length_b 16.734999
_cell_length_c 22.532290
_cell_angle_alpha 164.688075
_cell_angle_beta 41.801259
_cell_angle_gamma 137.420121
_cell_volume 650.119166
_symmetry_space_group_name_H-M "P -1"
_symmetry_group_IT_number 2
_symmetry_cell_setting 'triclinic'
loop_
_space_group_symop_operation_xyz
x,y,z
-x,-y,-z
loop_
_atom_site_type_symbol
_atom_site_label
_atom_site_fract_x
_atom_site_fract_y
_atom_site_fract_z
Si Si1 0.232940 0.261869 0.366675
Si Si2 0.309202 0.775010 0.618928
Si Si3 0.715563 0.726832 0.923932
Si Si4 0.702774 0.564893 0.102798
Si Si5 0.948001 0.801218 0.303705
Si Si6 0.205541 0.882813 0.594739
Si Si7 0.307272 0.793999 0.821652
Si Si8 0.228393 0.374617 0.646220
O O1 0.209122 0.476054 0.470772
O O2 0.262396 0.492194 0.578633
O O3 0.448376 0.125326 0.194462
O O4 0.028965 0.035430 0.273232
O O5 0.264726 0.792701 0.576912
O O6 0.553447 0.747338 0.529585
O O7 0.232678 0.062766 0.884834
O O8 0.475841 0.629643 0.943948
O O9 0.799143 0.407498 0.654899
O O10 0.767057 0.935032 0.998514
O O11 0.849495 0.734910 0.225248
O O12 0.639587 0.835063 0.275350
O O13 0.840903 0.353453 0.869833
O O14 0.788771 0.653936 0.298136
O O15 0.026363 0.154768 0.536954
O O16 0.225970 0.692183 0.839870
#
# Coordination Sequence:
#
# PCOD9092719 Si02
#       8
#     2   2   2   2   2   2   2   2
#     4   9  20  40  65  96 127 170 209 271 318 376
#     4  10  22  43  64  92 137 168 214 265 321 388
#     4  11  24  44  67  94 134 175 210 267 324 382
#     4  11  24  42  62  93 130 173 216 266 323 377
#     4  10  22  39  69  95 128 162 221 273 315 382
#     4  12  25  42  64  95 133 177 214 260 319 394
#     4   9  20  39  72  94 128 165 215 269 327 371
#     4  10  19  42  66 100 124 167 214 273 323 376
#
# _framework density 24.610872000000001
#
# number of rings (size 3 to 8) (size 9 to 14) (size 15 to 20)
#    0.000    1.750    1.250    3.000    3.500    2.500 
#   11.250    1.875    0.000    0.000    0.000    0.000 
#    0.000    0.000    0.000    0.000    0.000    0.000 
#
# Total GULP energy -89477.543702 kJ/mol
# GULP energy per Si atom -5592.346481 kJ/mol
# Density = 2.455486 g / cm^3
# Si number density = 24.610872 Si / 1000 Ang^3
#
#
#
# Elastic Constant Matrix: (Units=GPa)
#
#
# Indices 1 2 3 4 5 6 
#
# 1 49.6835 29.4458 3.1283 0.6905 -5.5679 -0.0302
# 2 29.4458 146.2373 23.8493 18.4556 -1.8925 -18.3174
# 3 3.1283 23.8493 52.3098 0.7023 0.0176 -6.3373
# 4 0.6905 18.4556 0.7023 25.6361 -0.7769 0.5852
# 5 -5.5679 -1.8925 0.0176 -0.7769 13.9609 1.4159
# 6 -0.0302 -18.3174 -6.3373 0.5852 1.4159 35.3851
#
#
#
# Elastic Compliance Matrix: (Units=1/GPa)
#
#
# Indices 1 2 3 4 5 6 
#
# 1 0.024563 -0.005851 0.000741 0.003896 0.009556 -0.003322
# 2 -0.005851 0.010075 -0.003570 -0.007162 -0.001845 0.004763
# 3 0.000741 -0.003570 0.020902 0.001926 -0.000298 0.001876
# 4 0.003896 -0.007162 0.001926 0.044208 0.003469 -0.004229
# 5 0.009556 -0.001845 -0.000298 0.003469 0.075798 -0.004091
# 6 -0.003322 0.004763 0.001876 -0.004229 -0.004091 0.031293
#
#
# Mechanical properties :
#
#
# Convention : Reuss Voigt Hill
#
# Bulk Modulus (GPa) = 26.19166 40.11973 33.15569
# Shear Modulus (GPa) = 21.10366 27.78356 24.44361
#
# Velocity S-wave (km/s) = 2.93148 3.36358 3.15493
# Velocity P-wave (km/s) = 4.70356 5.60552 5.17423
#
# Compressibility (1/GPa) = 0.03818010
#
# Stress axis : x y z
#
# Youngs Moduli (GPa) = 40.71145 99.25362 47.84306
#
# Poissons Ratio (x) = 0.58071 -0.03543
# Poissons Ratio (y) = 0.23819 0.17079
# Poissons Ratio (z) = -0.03015 0.35431
#
# Static dielectric constant tensor:
#      x y z
#    x 1.926220 0.017040 -0.012830 
#    y 0.017040 1.926580 -0.026850 
#    z -0.012830 -0.026850 1.996640 
# 
# From -- ./inp_files/590505.got.cif
#   From: 2010.05.17/outbox.cif.g08.bks.cpg/sg2_296_cif.got.tgz:590505.got - 2010.06.03 11:33:40.
