data_PCOD9092280
_publ_section_title
;
Structure prediction by ZEFSAII (Michael W. Deem and Ramdas Pophale) SiO2 
 PCOD9092280
Probable space group: P -1
;
_chemical_formula_sum "Si O2"
_cell_formula_units_Z 12
_cell_length_a 12.323794
_cell_length_b 6.018754
_cell_length_c 8.614982
_cell_angle_alpha 74.140433
_cell_angle_beta 89.576324
_cell_angle_gamma 51.180678
_cell_volume 467.320961
_symmetry_space_group_name_H-M "P -1"
_symmetry_group_IT_number 2
_symmetry_cell_setting 'triclinic'
loop_
_space_group_symop_operation_xyz
x,y,z
-x,-y,-z
loop_
_atom_site_type_symbol
_atom_site_label
_atom_site_fract_x
_atom_site_fract_y
_atom_site_fract_z
Si Si1 0.949470 0.732476 0.097246
Si Si2 0.903529 0.122339 0.750743
Si Si3 0.609937 0.800874 0.899336
Si Si4 0.601238 0.969005 0.373581
Si Si5 0.654884 0.179234 0.598356
Si Si6 0.195095 0.500932 0.773377
O O1 0.108674 0.981038 0.060456
O O2 0.835080 0.732693 0.182050
O O3 0.064251 0.660918 0.236203
O O4 0.000000 0.500000 0.000000
O O5 0.044397 0.841172 0.708729
O O6 0.766671 0.215092 0.647471
O O7 0.518664 0.763264 0.793299
O O8 0.309979 0.345248 0.664063
O O9 0.740743 0.530700 0.051939
O O10 0.500000 0.000000 0.000000
O O11 0.353601 0.016300 0.234350
O O12 0.500000 0.000000 0.500000
O O13 0.697785 0.008511 0.464082
O O14 0.500000 0.500000 0.500000
#
# Coordination Sequence:
#
# PCOD9092280 Si02
#       6
#     2   2   2   2   2   2
#     4   9  19  37  63 100 134 169 224 285 342 397
#     4  10  21  38  66 102 132 176 225 285 339 405
#     4   9  19  41  67  92 124 182 233 280 332 397
#     4   9  21  41  63  91 134 184 217 275 343 402
#     4  11  23  41  62  98 144 180 222 278 356 415
#     4  10  19  40  69  97 131 170 242 283 330 395
#
# _framework density 25.678284000000001
#
# number of rings (size 3 to 8) (size 9 to 14) (size 15 to 20)
#    0.000    2.333    1.667    0.000    0.000    4.667 
#   18.000    2.500    0.000    0.000    0.000    0.000 
#    0.000    0.000    0.000    0.000    0.000    0.000 
#
# Total GULP energy -66936.227587 kJ/mol
# GULP energy per Si atom -5578.018966 kJ/mol
# Density = 2.561984 g / cm^3
# Si number density = 25.678284 Si / 1000 Ang^3
#
#
#
# Elastic Constant Matrix: (Units=GPa)
#
#
# Indices 1 2 3 4 5 6 
#
# 1 88.3964 31.8372 70.1868 6.3680 22.0864 -19.5119
# 2 31.8372 110.1857 65.2768 17.9774 2.1977 -39.1488
# 3 70.1868 65.2768 210.2857 17.7869 43.4591 -9.2184
# 4 6.3680 17.9774 17.7869 43.6674 -1.2311 2.2240
# 5 22.0864 2.1977 43.4591 -1.2311 63.5565 6.1595
# 6 -19.5119 -39.1488 -9.2184 2.2240 6.1595 35.6446
#
#
#
# Elastic Compliance Matrix: (Units=1/GPa)
#
#
# Indices 1 2 3 4 5 6 
#
# 1 0.018696 0.002938 -0.005528 -0.002457 -0.004116 0.012896
# 2 0.002938 0.021842 -0.005926 -0.008269 -0.000271 0.024628
# 3 -0.005528 -0.005926 0.008831 -0.000103 -0.003267 -0.006679
# 4 -0.002457 -0.008269 -0.000103 0.027434 0.002971 -0.012678
# 5 -0.004116 -0.000271 -0.003267 0.002971 0.020150 -0.007063
# 6 0.012896 0.024628 -0.006679 -0.012678 -0.007063 0.062447
#
#
# Mechanical properties :
#
#
# Convention : Reuss Voigt Hill
#
# Bulk Modulus (GPa) = 30.92458 82.60772 56.76615
# Shear Modulus (GPa) = 26.70780 44.67817 35.69298
#
# Velocity S-wave (km/s) = 3.22855 4.17576 3.73232
# Velocity P-wave (km/s) = 5.09581 7.44912 6.38187
#
# Compressibility (1/GPa) = 0.03233674
#
# Stress axis : x y z
#
# Youngs Moduli (GPa) = 53.48765 45.78358 113.23415
#
# Poissons Ratio (x) = -0.13451 0.62600
# Poissons Ratio (y) = -0.15714 0.67099
# Poissons Ratio (z) = 0.29570 0.27130
#
# Static dielectric constant tensor:
#      x y z
#    x 2.193970 0.060830 0.040940 
#    y 0.060830 2.166480 -0.053890 
#    z 0.040940 -0.053890 2.126080 
# 
# From -- ./inp_files/410879.got.cif
#   From: 2010.05.17/outbox.cif.g08.bks.cpg/sg2_206_cif.got.tgz:410879.got - 2010.06.03 11:33:40.
